MODEL 1
REMARK VINA RESULT:     -10.6      0.000      0.000
REMARK SMILES CC(C)c1ccc(NC(=O)C[C@H]2SC[C@@H](C(=O)OCCOCCOC(=O)c3ccc(-c4c5nc(c(-c6c(F)cc(S(=O)(=O)[O-])cc6F)c6ccc([nH]6)c(-c6c(F)cc(S(=O)(=O)[O-])cc6F)c6nc(c(-c7c(F)cc(S(=O)(=O)[O-])cc7F)c7ccc4[nH]7)C=C6)C=C5)cc3)NC2=O)cc1
REMARK SMILES IDX 20 1 19 2 18 3 16 4 17 5 15 6 12 7 13 8 94 9 14 10 93 11
REMARK SMILES IDX 95 12 11 14 9 15 8 16 10 18 7 19 4 20 5 21 97 22 6 23 96 24
REMARK SMILES IDX 2 25 1 26 3 27 21 28 22 29 23 30 24 31 25 32 26 33 27 34
REMARK SMILES IDX 28 35 92 36 29 37 91 38 30 39 31 40 32 41 85 42 33 43 90 44
REMARK SMILES IDX 84 45 86 46 34 47 89 48 83 49 82 50 35 52 69 53 48 54 68 55
REMARK SMILES IDX 49 56 52 57 67 58 87 59 50 60 51 61 66 63 88 64 53 65 36 66
REMARK SMILES IDX 37 67 46 68 38 69 39 70 45 71 47 72 40 73 41 74 42 75 43 76
REMARK SMILES IDX 44 77 70 78 71 79 80 80 72 81 73 82 79 83 81 84 74 85 75 86
REMARK SMILES IDX 76 87 77 88 78 89 54 90 55 91 64 92 56 93 57 94 63 95 65 96
REMARK SMILES IDX 58 97 59 98 60 99 61 100 62 101
REMARK H PARENT 93 13 8 17 86 51 52 62
REMARK Flexibility Score: inf
ROOT
ATOM      1  C   UNL A   1      33.592  33.210  27.969  1.00  0.00     0.202 C 
ENDROOT
BRANCH   1   2
ATOM      2  C   UNL A   1      33.672  31.736  27.554  1.00  0.00     0.261 C 
BRANCH   2   3
ATOM      3  O   UNL A   1      32.433  31.167  27.102  1.00  0.00    -0.462 OA
BRANCH   3   4
ATOM      4  C   UNL A   1      32.638  30.165  26.209  1.00  0.00     0.329 C 
ATOM      5  O   UNL A   1      32.024  30.070  25.151  1.00  0.00    -0.250 OA
BRANCH   4   6
ATOM      6  C   UNL A   1      33.754  29.193  26.635  1.00  0.00     0.202 C 
ATOM      7  C   UNL A   1      31.954  26.723  26.517  1.00  0.00     0.145 C 
ATOM      8  S   UNL A   1      32.985  27.023  24.996  1.00  0.00    -0.145 SA
ATOM      9  C   UNL A   1      32.089  27.759  27.645  1.00  0.00     0.234 C 
ATOM     10  C   UNL A   1      34.223  28.232  25.562  1.00  0.00     0.107 C 
ATOM     11  N   UNL A   1      33.241  28.486  27.789  1.00  0.00    -0.341 N 
ATOM     12  O   UNL A   1      31.255  27.976  28.517  1.00  0.00    -0.274 OA
ATOM     13  H   UNL A   1      33.706  28.527  28.655  1.00  0.00     0.164 HD
BRANCH   7  14
ATOM     14  C   UNL A   1      30.545  26.319  26.022  1.00  0.00     0.124 C 
BRANCH  14  15
ATOM     15  C   UNL A   1      30.313  25.324  24.895  1.00  0.00     0.226 C 
ATOM     16  N   UNL A   1      29.626  25.600  23.752  1.00  0.00    -0.326 N 
ATOM     17  H   UNL A   1      29.470  24.826  23.164  1.00  0.00     0.169 HD
ATOM     18  O   UNL A   1      30.709  24.159  25.035  1.00  0.00    -0.275 OA
BRANCH  16  19
ATOM     19  C   UNL A   1      29.108  26.812  23.282  1.00  0.00     0.041 A 
ATOM     20  C   UNL A   1      28.441  29.532  22.943  1.00  0.00    -0.045 A 
ATOM     21  C   UNL A   1      27.489  28.594  23.376  1.00  0.00     0.006 A 
ATOM     22  C   UNL A   1      29.685  29.033  22.521  1.00  0.00     0.006 A 
ATOM     23  C   UNL A   1      27.817  27.246  23.542  1.00  0.00     0.026 A 
ATOM     24  C   UNL A   1      30.009  27.681  22.664  1.00  0.00     0.026 A 
BRANCH  20  25
ATOM     25  C   UNL A   1      28.138  31.028  22.897  1.00  0.00     0.013 C 
ATOM     26  C   UNL A   1      29.083  31.884  23.758  1.00  0.00     0.012 C 
ATOM     27  C   UNL A   1      28.167  31.621  21.475  1.00  0.00     0.012 C 
ENDBRANCH  20  25
ENDBRANCH  16  19
ENDBRANCH  14  15
ENDBRANCH   7  14
ENDBRANCH   4   6
ENDBRANCH   3   4
ENDBRANCH   2   3
ENDBRANCH   1   2
BRANCH   1  28
ATOM     28  O   UNL A   1      34.743  34.044  27.921  1.00  0.00    -0.374 OA
BRANCH  28  29
ATOM     29  C   UNL A   1      35.280  34.571  29.128  1.00  0.00     0.202 C 
BRANCH  29  30
ATOM     30  C   UNL A   1      35.600  33.632  30.295  1.00  0.00     0.261 C 
BRANCH  30  31
ATOM     31  O   UNL A   1      36.845  32.937  30.124  1.00  0.00    -0.460 OA
BRANCH  31  32
ATOM     32  C   UNL A   1      36.948  31.804  30.858  1.00  0.00     0.338 C 
ATOM     33  O   UNL A   1      36.158  31.398  31.703  1.00  0.00    -0.246 OA
BRANCH  32  34
ATOM     34  C   UNL A   1      38.047  30.971  30.347  1.00  0.00     0.060 A 
ATOM     35  C   UNL A   1      38.988  30.509  31.280  1.00  0.00     0.016 A 
ATOM     36  C   UNL A   1      38.196  30.701  28.987  1.00  0.00     0.016 A 
ATOM     37  C   UNL A   1      40.113  29.820  30.850  1.00  0.00     0.010 A 
ATOM     38  C   UNL A   1      39.342  30.027  28.554  1.00  0.00     0.010 A 
ATOM     39  C   UNL A   1      40.321  29.623  29.480  1.00  0.00    -0.014 A 
BRANCH  39  40
ATOM     40  C   UNL A   1      41.653  29.171  29.021  1.00  0.00     0.031 A 
ATOM     41  C   UNL A   1      42.769  30.177  28.966  1.00  0.00     0.074 A 
ATOM     42  C   UNL A   1      41.870  27.881  28.710  1.00  0.00     0.049 A 
ATOM     43  N   UNL A   1      44.007  30.020  28.577  1.00  0.00    -0.248 NA
ATOM     44  C   UNL A   1      42.447  31.545  29.406  1.00  0.00     0.031 C 
ATOM     45  C   UNL A   1      40.869  26.818  28.773  1.00  0.00     0.029 A 
ATOM     46  N   UNL A   1      43.006  27.251  28.273  1.00  0.00    -0.354 N 
ATOM     47  C   UNL A   1      44.604  31.268  28.707  1.00  0.00     0.074 A 
ATOM     48  C   UNL A   1      43.592  32.177  29.193  1.00  0.00     0.031 C 
ATOM     49  C   UNL A   1      41.431  25.667  28.366  1.00  0.00     0.029 A 
ATOM     50  C   UNL A   1      42.820  25.919  27.988  1.00  0.00     0.049 A 
ATOM     51  H   UNL A   1      43.872  27.707  28.173  1.00  0.00     0.167 HD
ATOM     52  C   UNL A   1      45.886  31.619  28.448  1.00  0.00     0.037 A 
ATOM     53  C   UNL A   1      43.670  25.019  27.455  1.00  0.00     0.037 A 
ATOM     54  C   UNL A   1      46.888  30.697  27.983  1.00  0.00     0.049 A 
ATOM     55  C   UNL A   1      45.079  25.445  27.135  1.00  0.00     0.074 A 
ATOM     56  C   UNL A   1      48.226  30.939  27.729  1.00  0.00     0.029 A 
ATOM     57  N   UNL A   1      46.660  29.360  27.692  1.00  0.00    -0.354 N 
ATOM     58  N   UNL A   1      45.643  26.619  27.297  1.00  0.00    -0.248 NA
ATOM     59  C   UNL A   1      45.971  24.424  26.566  1.00  0.00     0.031 C 
ATOM     60  C   UNL A   1      48.794  29.764  27.230  1.00  0.00     0.029 A 
ATOM     61  C   UNL A   1      47.825  28.772  27.231  1.00  0.00     0.049 A 
ATOM     62  H   UNL A   1      45.798  28.897  27.799  1.00  0.00     0.167 HD
ATOM     63  C   UNL A   1      46.961  26.470  26.876  1.00  0.00     0.074 A 
ATOM     64  C   UNL A   1      47.113  25.090  26.465  1.00  0.00     0.031 C 
ATOM     65  C   UNL A   1      47.956  27.391  26.834  1.00  0.00     0.037 A 
BRANCH  52  66
ATOM     66  C   UNL A   1      46.272  33.060  28.625  1.00  0.00     0.058 A 
ATOM     67  C   UNL A   1      46.171  33.994  27.583  1.00  0.00     0.135 A 
ATOM     68  C   UNL A   1      46.701  33.524  29.881  1.00  0.00     0.135 A 
ATOM     69  F   UNL A   1      45.788  33.601  26.358  1.00  0.00    -0.206 F 
ATOM     70  C   UNL A   1      46.493  35.335  27.774  1.00  0.00     0.059 A 
ATOM     71  C   UNL A   1      47.002  34.864  30.102  1.00  0.00     0.059 A 
ATOM     72  F   UNL A   1      46.823  32.671  30.910  1.00  0.00    -0.206 F 
ATOM     73  C   UNL A   1      46.903  35.761  29.039  1.00  0.00     0.060 A 
BRANCH  73  74
ATOM     74  S   UNL A   1      47.289  37.508  29.279  1.00  0.00     0.124 S 
ATOM     75  O   UNL A   1      47.357  37.983  27.901  1.00  0.00    -0.237 OA
ATOM     76  O   UNL A   1      46.144  37.975  30.055  1.00  0.00    -0.237 OA
ATOM     77  O   UNL A   1      48.559  37.481  29.997  1.00  0.00    -0.744 OA
ENDBRANCH  73  74
ENDBRANCH  52  66
BRANCH  53  78
ATOM     78  C   UNL A   1      43.202  23.636  27.163  1.00  0.00     0.058 A 
ATOM     79  C   UNL A   1      43.040  22.688  28.183  1.00  0.00     0.135 A 
ATOM     80  C   UNL A   1      42.919  23.236  25.848  1.00  0.00     0.135 A 
ATOM     81  F   UNL A   1      43.306  23.018  29.456  1.00  0.00    -0.206 F 
ATOM     82  C   UNL A   1      42.635  21.385  27.908  1.00  0.00     0.059 A 
ATOM     83  C   UNL A   1      42.486  21.948  25.551  1.00  0.00     0.059 A 
ATOM     84  F   UNL A   1      43.046  24.109  24.835  1.00  0.00    -0.206 F 
ATOM     85  C   UNL A   1      42.359  21.025  26.588  1.00  0.00     0.060 A 
BRANCH  85  86
ATOM     86  S   UNL A   1      41.802  19.342  26.243  1.00  0.00     0.124 S 
ATOM     87  O   UNL A   1      40.359  19.525  26.143  1.00  0.00    -0.237 OA
ATOM     88  O   UNL A   1      42.498  19.040  24.995  1.00  0.00    -0.237 OA
ATOM     89  O   UNL A   1      42.266  18.591  27.407  1.00  0.00    -0.744 OA
ENDBRANCH  85  86
ENDBRANCH  53  78
BRANCH  65  90
ATOM     90  C   UNL A   1      49.309  26.931  26.363  1.00  0.00     0.058 A 
ATOM     91  C   UNL A   1      49.722  27.090  25.033  1.00  0.00     0.135 A 
ATOM     92  C   UNL A   1      50.225  26.378  27.273  1.00  0.00     0.135 A 
ATOM     93  F   UNL A   1      48.884  27.609  24.122  1.00  0.00    -0.206 F 
ATOM     94  C   UNL A   1      50.988  26.693  24.613  1.00  0.00     0.059 A 
ATOM     95  C   UNL A   1      51.507  26.002  26.883  1.00  0.00     0.059 A 
ATOM     96  F   UNL A   1      49.885  26.216  28.562  1.00  0.00    -0.206 F 
ATOM     97  C   UNL A   1      51.873  26.152  25.547  1.00  0.00     0.060 A 
BRANCH  97  98
ATOM     98  S   UNL A   1      53.524  25.670  24.996  1.00  0.00     0.124 S 
ATOM     99  O   UNL A   1      53.360  25.665  23.546  1.00  0.00    -0.237 OA
ATOM    100  O   UNL A   1      54.357  26.740  25.536  1.00  0.00    -0.237 OA
ATOM    101  O   UNL A   1      53.719  24.361  25.611  1.00  0.00    -0.744 OA
ENDBRANCH  97  98
ENDBRANCH  65  90
ENDBRANCH  39  40
ENDBRANCH  32  34
ENDBRANCH  31  32
ENDBRANCH  30  31
ENDBRANCH  29  30
ENDBRANCH  28  29
ENDBRANCH   1  28
TORSDOF 21
ENDMDL
MODEL 2
REMARK VINA RESULT:     -10.3      1.419      2.882
REMARK SMILES CC(C)c1ccc(NC(=O)C[C@H]2SC[C@@H](C(=O)OCCOCCOC(=O)c3ccc(-c4c5nc(c(-c6c(F)cc(S(=O)(=O)[O-])cc6F)c6ccc([nH]6)c(-c6c(F)cc(S(=O)(=O)[O-])cc6F)c6nc(c(-c7c(F)cc(S(=O)(=O)[O-])cc7F)c7ccc4[nH]7)C=C6)C=C5)cc3)NC2=O)cc1
REMARK SMILES IDX 20 1 19 2 18 3 16 4 17 5 15 6 12 7 13 8 94 9 14 10 93 11
REMARK SMILES IDX 95 12 11 14 9 15 8 16 10 18 7 19 4 20 5 21 97 22 6 23 96 24
REMARK SMILES IDX 2 25 1 26 3 27 21 28 22 29 23 30 24 31 25 32 26 33 27 34
REMARK SMILES IDX 28 35 92 36 29 37 91 38 30 39 31 40 32 41 85 42 33 43 90 44
REMARK SMILES IDX 84 45 86 46 34 47 89 48 83 49 82 50 35 52 69 53 48 54 68 55
REMARK SMILES IDX 49 56 52 57 67 58 87 59 50 60 51 61 66 63 88 64 53 65 36 66
REMARK SMILES IDX 37 67 46 68 38 69 39 70 45 71 47 72 40 73 41 74 42 75 43 76
REMARK SMILES IDX 44 77 70 78 71 79 80 80 72 81 73 82 79 83 81 84 74 85 75 86
REMARK SMILES IDX 76 87 77 88 78 89 54 90 55 91 64 92 56 93 57 94 63 95 65 96
REMARK SMILES IDX 58 97 59 98 60 99 61 100 62 101
REMARK H PARENT 93 13 8 17 86 51 52 62
REMARK Flexibility Score: inf
ROOT
ATOM      1  C   UNL A   1      33.379  33.194  27.790  1.00  0.00     0.202 C 
ENDROOT
BRANCH   1   2
ATOM      2  C   UNL A   1      33.244  31.728  27.361  1.00  0.00     0.261 C 
BRANCH   2   3
ATOM      3  O   UNL A   1      31.962  31.371  26.821  1.00  0.00    -0.462 OA
BRANCH   3   4
ATOM      4  C   UNL A   1      32.049  30.309  25.980  1.00  0.00     0.329 C 
ATOM      5  O   UNL A   1      31.242  30.093  25.082  1.00  0.00    -0.250 OA
BRANCH   4   6
ATOM      6  C   UNL A   1      33.292  29.436  26.235  1.00  0.00     0.202 C 
ATOM      7  C   UNL A   1      31.733  26.805  26.167  1.00  0.00     0.145 C 
ATOM      8  S   UNL A   1      32.562  27.275  24.567  1.00  0.00    -0.145 SA
ATOM      9  C   UNL A   1      31.890  27.799  27.330  1.00  0.00     0.234 C 
ATOM     10  C   UNL A   1      33.732  28.576  25.069  1.00  0.00     0.107 C 
ATOM     11  N   UNL A   1      32.976  28.630  27.395  1.00  0.00    -0.341 N 
ATOM     12  O   UNL A   1      31.138  27.891  28.295  1.00  0.00    -0.274 OA
ATOM     13  H   UNL A   1      33.526  28.679  28.210  1.00  0.00     0.164 HD
BRANCH   7  14
ATOM     14  C   UNL A   1      30.324  26.285  25.798  1.00  0.00     0.124 C 
BRANCH  14  15
ATOM     15  C   UNL A   1      29.896  25.986  24.370  1.00  0.00     0.226 C 
ATOM     16  N   UNL A   1      30.207  24.847  23.693  1.00  0.00    -0.326 N 
ATOM     17  H   UNL A   1      29.949  24.843  22.743  1.00  0.00     0.169 HD
ATOM     18  O   UNL A   1      29.277  26.853  23.737  1.00  0.00    -0.275 OA
BRANCH  16  19
ATOM     19  C   UNL A   1      30.838  23.679  24.137  1.00  0.00     0.041 A 
ATOM     20  C   UNL A   1      32.663  21.822  25.224  1.00  0.00    -0.045 A 
ATOM     21  C   UNL A   1      32.431  21.895  23.840  1.00  0.00     0.006 A 
ATOM     22  C   UNL A   1      31.826  22.586  26.054  1.00  0.00     0.006 A 
ATOM     23  C   UNL A   1      31.525  22.813  23.300  1.00  0.00     0.026 A 
ATOM     24  C   UNL A   1      30.903  23.488  25.518  1.00  0.00     0.026 A 
BRANCH  20  25
ATOM     25  C   UNL A   1      33.752  20.928  25.814  1.00  0.00     0.013 C 
ATOM     26  C   UNL A   1      34.471  20.052  24.774  1.00  0.00     0.012 C 
ATOM     27  C   UNL A   1      34.841  21.705  26.577  1.00  0.00     0.012 C 
ENDBRANCH  20  25
ENDBRANCH  16  19
ENDBRANCH  14  15
ENDBRANCH   7  14
ENDBRANCH   4   6
ENDBRANCH   3   4
ENDBRANCH   2   3
ENDBRANCH   1   2
BRANCH   1  28
ATOM     28  O   UNL A   1      34.632  33.862  27.716  1.00  0.00    -0.374 OA
BRANCH  28  29
ATOM     29  C   UNL A   1      35.221  34.383  28.902  1.00  0.00     0.202 C 
BRANCH  29  30
ATOM     30  C   UNL A   1      35.549  33.444  30.068  1.00  0.00     0.261 C 
BRANCH  30  31
ATOM     31  O   UNL A   1      36.808  32.773  29.903  1.00  0.00    -0.460 OA
BRANCH  31  32
ATOM     32  C   UNL A   1      36.955  31.680  30.689  1.00  0.00     0.338 C 
ATOM     33  O   UNL A   1      36.195  31.299  31.573  1.00  0.00    -0.246 OA
BRANCH  32  34
ATOM     34  C   UNL A   1      38.061  30.847  30.193  1.00  0.00     0.060 A 
ATOM     35  C   UNL A   1      39.006  30.410  31.133  1.00  0.00     0.016 A 
ATOM     36  C   UNL A   1      38.211  30.554  28.837  1.00  0.00     0.016 A 
ATOM     37  C   UNL A   1      40.137  29.723  30.715  1.00  0.00     0.010 A 
ATOM     38  C   UNL A   1      39.362  29.882  28.416  1.00  0.00     0.010 A 
ATOM     39  C   UNL A   1      40.345  29.504  29.349  1.00  0.00    -0.014 A 
BRANCH  39  40
ATOM     40  C   UNL A   1      41.681  29.055  28.897  1.00  0.00     0.031 A 
ATOM     41  C   UNL A   1      42.795  30.064  28.845  1.00  0.00     0.074 A 
ATOM     42  C   UNL A   1      41.904  27.765  28.590  1.00  0.00     0.049 A 
ATOM     43  N   UNL A   1      44.034  29.910  28.462  1.00  0.00    -0.248 NA
ATOM     44  C   UNL A   1      42.466  31.432  29.280  1.00  0.00     0.031 C 
ATOM     45  C   UNL A   1      40.905  26.698  28.650  1.00  0.00     0.029 A 
ATOM     46  N   UNL A   1      43.043  27.137  28.159  1.00  0.00    -0.354 N 
ATOM     47  C   UNL A   1      44.627  31.160  28.593  1.00  0.00     0.074 A 
ATOM     48  C   UNL A   1      43.610  32.067  29.071  1.00  0.00     0.031 C 
ATOM     49  C   UNL A   1      41.473  25.548  28.248  1.00  0.00     0.029 A 
ATOM     50  C   UNL A   1      42.863  25.804  27.876  1.00  0.00     0.049 A 
ATOM     51  H   UNL A   1      43.909  27.596  28.062  1.00  0.00     0.167 HD
ATOM     52  C   UNL A   1      45.909  31.514  28.339  1.00  0.00     0.037 A 
ATOM     53  C   UNL A   1      43.718  24.906  27.349  1.00  0.00     0.037 A 
ATOM     54  C   UNL A   1      46.916  30.595  27.880  1.00  0.00     0.049 A 
ATOM     55  C   UNL A   1      45.128  25.335  27.035  1.00  0.00     0.074 A 
ATOM     56  C   UNL A   1      48.255  30.840  27.632  1.00  0.00     0.029 A 
ATOM     57  N   UNL A   1      46.694  29.256  27.591  1.00  0.00    -0.354 N 
ATOM     58  N   UNL A   1      45.687  26.511  27.198  1.00  0.00    -0.248 NA
ATOM     59  C   UNL A   1      46.025  24.316  26.473  1.00  0.00     0.031 C 
ATOM     60  C   UNL A   1      48.828  29.666  27.138  1.00  0.00     0.029 A 
ATOM     61  C   UNL A   1      47.863  28.671  27.137  1.00  0.00     0.049 A 
ATOM     62  H   UNL A   1      45.833  28.791  27.695  1.00  0.00     0.167 HD
ATOM     63  C   UNL A   1      47.008  26.366  26.783  1.00  0.00     0.074 A 
ATOM     64  C   UNL A   1      47.166  24.985  26.375  1.00  0.00     0.031 C 
ATOM     65  C   UNL A   1      48.000  27.290  26.744  1.00  0.00     0.037 A 
BRANCH  52  66
ATOM     66  C   UNL A   1      46.290  32.957  28.515  1.00  0.00     0.058 A 
ATOM     67  C   UNL A   1      46.188  33.889  27.471  1.00  0.00     0.135 A 
ATOM     68  C   UNL A   1      46.714  33.424  29.771  1.00  0.00     0.135 A 
ATOM     69  F   UNL A   1      45.808  33.493  26.246  1.00  0.00    -0.206 F 
ATOM     70  C   UNL A   1      46.505  35.231  27.661  1.00  0.00     0.059 A 
ATOM     71  C   UNL A   1      47.011  34.765  29.991  1.00  0.00     0.059 A 
ATOM     72  F   UNL A   1      46.837  32.573  30.802  1.00  0.00    -0.206 F 
ATOM     73  C   UNL A   1      46.911  35.661  28.926  1.00  0.00     0.060 A 
BRANCH  73  74
ATOM     74  S   UNL A   1      47.290  37.409  29.165  1.00  0.00     0.124 S 
ATOM     75  O   UNL A   1      47.879  37.758  27.876  1.00  0.00    -0.237 OA
ATOM     76  O   UNL A   1      45.973  37.978  29.435  1.00  0.00    -0.237 OA
ATOM     77  O   UNL A   1      48.213  37.407  30.296  1.00  0.00    -0.744 OA
ENDBRANCH  73  74
ENDBRANCH  52  66
BRANCH  53  78
ATOM     78  C   UNL A   1      43.256  23.521  27.058  1.00  0.00     0.058 A 
ATOM     79  C   UNL A   1      43.092  22.574  28.078  1.00  0.00     0.135 A 
ATOM     80  C   UNL A   1      42.980  23.117  25.742  1.00  0.00     0.135 A 
ATOM     81  F   UNL A   1      43.352  22.908  29.352  1.00  0.00    -0.206 F 
ATOM     82  C   UNL A   1      42.693  21.269  27.805  1.00  0.00     0.059 A 
ATOM     83  C   UNL A   1      42.552  21.827  25.446  1.00  0.00     0.059 A 
ATOM     84  F   UNL A   1      43.108  23.989  24.728  1.00  0.00    -0.206 F 
ATOM     85  C   UNL A   1      42.424  20.906  26.484  1.00  0.00     0.060 A 
BRANCH  85  86
ATOM     86  S   UNL A   1      41.874  19.220  26.140  1.00  0.00     0.124 S 
ATOM     87  O   UNL A   1      40.440  19.411  25.955  1.00  0.00    -0.237 OA
ATOM     88  O   UNL A   1      42.637  18.889  24.939  1.00  0.00    -0.237 OA
ATOM     89  O   UNL A   1      42.265  18.489  27.342  1.00  0.00    -0.744 OA
ENDBRANCH  85  86
ENDBRANCH  53  78
BRANCH  65  90
ATOM     90  C   UNL A   1      49.356  26.833  26.280  1.00  0.00     0.058 A 
ATOM     91  C   UNL A   1      49.753  26.936  24.939  1.00  0.00     0.135 A 
ATOM     92  C   UNL A   1      50.292  26.340  27.205  1.00  0.00     0.135 A 
ATOM     93  F   UNL A   1      48.896  27.395  24.014  1.00  0.00    -0.206 F 
ATOM     94  C   UNL A   1      51.021  26.543  24.525  1.00  0.00     0.059 A 
ATOM     95  C   UNL A   1      51.577  25.970  26.819  1.00  0.00     0.059 A 
ATOM     96  F   UNL A   1      49.968  26.234  28.504  1.00  0.00    -0.206 F 
ATOM     97  C   UNL A   1      51.927  26.063  25.474  1.00  0.00     0.060 A 
BRANCH  97  98
ATOM     98  S   UNL A   1      53.580  25.587  24.928  1.00  0.00     0.124 S 
ATOM     99  O   UNL A   1      54.424  26.392  25.805  1.00  0.00    -0.237 OA
ATOM    100  O   UNL A   1      53.591  24.150  25.183  1.00  0.00    -0.237 OA
ATOM    101  O   UNL A   1      53.596  25.967  23.519  1.00  0.00    -0.744 OA
ENDBRANCH  97  98
ENDBRANCH  65  90
ENDBRANCH  39  40
ENDBRANCH  32  34
ENDBRANCH  31  32
ENDBRANCH  30  31
ENDBRANCH  29  30
ENDBRANCH  28  29
ENDBRANCH   1  28
TORSDOF 21
ENDMDL
MODEL 3
REMARK VINA RESULT:      -9.4      4.645     11.255
REMARK SMILES CC(C)c1ccc(NC(=O)C[C@H]2SC[C@@H](C(=O)OCCOCCOC(=O)c3ccc(-c4c5nc(c(-c6c(F)cc(S(=O)(=O)[O-])cc6F)c6ccc([nH]6)c(-c6c(F)cc(S(=O)(=O)[O-])cc6F)c6nc(c(-c7c(F)cc(S(=O)(=O)[O-])cc7F)c7ccc4[nH]7)C=C6)C=C5)cc3)NC2=O)cc1
REMARK SMILES IDX 20 1 19 2 18 3 16 4 17 5 15 6 12 7 13 8 94 9 14 10 93 11
REMARK SMILES IDX 95 12 11 14 9 15 8 16 10 18 7 19 4 20 5 21 97 22 6 23 96 24
REMARK SMILES IDX 2 25 1 26 3 27 21 28 22 29 23 30 24 31 25 32 26 33 27 34
REMARK SMILES IDX 28 35 92 36 29 37 91 38 30 39 31 40 32 41 85 42 33 43 90 44
REMARK SMILES IDX 84 45 86 46 34 47 89 48 83 49 82 50 35 52 69 53 48 54 68 55
REMARK SMILES IDX 49 56 52 57 67 58 87 59 50 60 51 61 66 63 88 64 53 65 36 66
REMARK SMILES IDX 37 67 46 68 38 69 39 70 45 71 47 72 40 73 41 74 42 75 43 76
REMARK SMILES IDX 44 77 70 78 71 79 80 80 72 81 73 82 79 83 81 84 74 85 75 86
REMARK SMILES IDX 76 87 77 88 78 89 54 90 55 91 64 92 56 93 57 94 63 95 65 96
REMARK SMILES IDX 58 97 59 98 60 99 61 100 62 101
REMARK H PARENT 93 13 8 17 86 51 52 62
REMARK Flexibility Score: inf
ROOT
ATOM      1  C   UNL A   1      37.526  34.199  33.087  1.00  0.00     0.202 C 
ENDROOT
BRANCH   1   2
ATOM      2  C   UNL A   1      38.771  34.496  33.931  1.00  0.00     0.261 C 
BRANCH   2   3
ATOM      3  O   UNL A   1      38.723  33.997  35.277  1.00  0.00    -0.462 OA
BRANCH   3   4
ATOM      4  C   UNL A   1      39.963  33.716  35.753  1.00  0.00     0.329 C 
ATOM      5  O   UNL A   1      40.991  34.173  35.264  1.00  0.00    -0.250 OA
BRANCH   4   6
ATOM      6  C   UNL A   1      39.943  32.810  36.998  1.00  0.00     0.202 C 
ATOM      7  C   UNL A   1      40.912  30.334  35.488  1.00  0.00     0.145 C 
ATOM      8  S   UNL A   1      42.242  31.290  36.374  1.00  0.00    -0.145 SA
ATOM      9  C   UNL A   1      39.488  30.907  35.579  1.00  0.00     0.234 C 
ATOM     10  C   UNL A   1      41.301  32.367  37.501  1.00  0.00     0.107 C 
ATOM     11  N   UNL A   1      39.114  31.677  36.647  1.00  0.00    -0.341 N 
ATOM     12  O   UNL A   1      38.579  30.686  34.787  1.00  0.00    -0.274 OA
ATOM     13  H   UNL A   1      38.302  31.466  37.162  1.00  0.00     0.164 HD
BRANCH   7  14
ATOM     14  C   UNL A   1      41.490  29.954  34.104  1.00  0.00     0.124 C 
BRANCH  14  15
ATOM     15  C   UNL A   1      41.914  30.985  33.069  1.00  0.00     0.226 C 
ATOM     16  N   UNL A   1      42.981  30.846  32.234  1.00  0.00    -0.326 N 
ATOM     17  H   UNL A   1      43.192  31.641  31.693  1.00  0.00     0.169 HD
ATOM     18  O   UNL A   1      41.303  32.061  33.010  1.00  0.00    -0.275 OA
BRANCH  16  19
ATOM     19  C   UNL A   1      43.825  29.749  32.025  1.00  0.00     0.041 A 
ATOM     20  C   UNL A   1      45.449  27.751  30.871  1.00  0.00    -0.045 A 
ATOM     21  C   UNL A   1      44.182  27.449  31.400  1.00  0.00     0.006 A 
ATOM     22  C   UNL A   1      45.944  29.047  31.097  1.00  0.00     0.006 A 
ATOM     23  C   UNL A   1      43.377  28.437  31.974  1.00  0.00     0.026 A 
ATOM     24  C   UNL A   1      45.150  30.031  31.691  1.00  0.00     0.026 A 
BRANCH  20  25
ATOM     25  C   UNL A   1      46.275  26.715  30.113  1.00  0.00     0.013 C 
ATOM     26  C   UNL A   1      47.772  26.729  30.466  1.00  0.00     0.012 C 
ATOM     27  C   UNL A   1      45.782  25.269  30.308  1.00  0.00     0.012 C 
ENDBRANCH  20  25
ENDBRANCH  16  19
ENDBRANCH  14  15
ENDBRANCH   7  14
ENDBRANCH   4   6
ENDBRANCH   3   4
ENDBRANCH   2   3
ENDBRANCH   1   2
BRANCH   1  28
ATOM     28  O   UNL A   1      37.234  32.875  32.660  1.00  0.00    -0.374 OA
BRANCH  28  29
ATOM     29  C   UNL A   1      35.893  32.517  32.349  1.00  0.00     0.202 C 
BRANCH  29  30
ATOM     30  C   UNL A   1      35.609  31.545  31.199  1.00  0.00     0.261 C 
BRANCH  30  31
ATOM     31  O   UNL A   1      36.450  30.381  31.235  1.00  0.00    -0.460 OA
BRANCH  31  32
ATOM     32  C   UNL A   1      36.661  29.817  30.022  1.00  0.00     0.338 C 
ATOM     33  O   UNL A   1      35.809  29.474  29.210  1.00  0.00    -0.246 OA
BRANCH  32  34
ATOM     34  C   UNL A   1      38.091  29.867  29.685  1.00  0.00     0.060 A 
ATOM     35  C   UNL A   1      38.431  29.846  28.324  1.00  0.00     0.016 A 
ATOM     36  C   UNL A   1      39.080  29.867  30.670  1.00  0.00     0.016 A 
ATOM     37  C   UNL A   1      39.762  29.772  27.940  1.00  0.00     0.010 A 
ATOM     38  C   UNL A   1      40.419  29.768  30.281  1.00  0.00     0.010 A 
ATOM     39  C   UNL A   1      40.758  29.678  28.918  1.00  0.00    -0.014 A 
BRANCH  39  40
ATOM     40  C   UNL A   1      42.125  29.290  28.505  1.00  0.00     0.031 A 
ATOM     41  C   UNL A   1      42.372  27.863  28.100  1.00  0.00     0.074 A 
ATOM     42  C   UNL A   1      43.109  30.204  28.444  1.00  0.00     0.049 A 
ATOM     43  N   UNL A   1      43.485  27.289  27.726  1.00  0.00    -0.248 NA
ATOM     44  C   UNL A   1      41.208  26.960  28.124  1.00  0.00     0.031 C 
ATOM     45  C   UNL A   1      42.965  31.622  28.771  1.00  0.00     0.029 A 
ATOM     46  N   UNL A   1      44.427  30.071  28.092  1.00  0.00    -0.354 N 
ATOM     47  C   UNL A   1      43.160  25.958  27.488  1.00  0.00     0.074 A 
ATOM     48  C   UNL A   1      41.753  25.803  27.777  1.00  0.00     0.031 C 
ATOM     49  C   UNL A   1      44.157  32.225  28.624  1.00  0.00     0.029 A 
ATOM     50  C   UNL A   1      45.151  31.232  28.222  1.00  0.00     0.049 A 
ATOM     51  H   UNL A   1      44.818  29.225  27.775  1.00  0.00     0.167 HD
ATOM     52  C   UNL A   1      43.968  24.959  27.061  1.00  0.00     0.037 A 
ATOM     53  C   UNL A   1      46.470  31.454  28.062  1.00  0.00     0.037 A 
ATOM     54  C   UNL A   1      45.364  25.134  26.759  1.00  0.00     0.049 A 
ATOM     55  C   UNL A   1      47.356  30.316  27.627  1.00  0.00     0.074 A 
ATOM     56  C   UNL A   1      46.263  24.197  26.280  1.00  0.00     0.029 A 
ATOM     57  N   UNL A   1      46.066  26.320  26.916  1.00  0.00    -0.354 N 
ATOM     58  N   UNL A   1      47.031  29.071  27.369  1.00  0.00    -0.248 NA
ATOM     59  C   UNL A   1      48.785  30.611  27.456  1.00  0.00     0.031 C 
ATOM     60  C   UNL A   1      47.520  24.802  26.203  1.00  0.00     0.029 A 
ATOM     61  C   UNL A   1      47.394  26.131  26.574  1.00  0.00     0.049 A 
ATOM     62  H   UNL A   1      45.677  27.170  27.223  1.00  0.00     0.167 HD
ATOM     63  C   UNL A   1      48.210  28.442  26.979  1.00  0.00     0.074 A 
ATOM     64  C   UNL A   1      49.252  29.447  27.023  1.00  0.00     0.031 C 
ATOM     65  C   UNL A   1      48.413  27.150  26.617  1.00  0.00     0.037 A 
BRANCH  52  66
ATOM     66  C   UNL A   1      43.377  23.584  26.928  1.00  0.00     0.058 A 
ATOM     67  C   UNL A   1      43.145  22.760  28.040  1.00  0.00     0.135 A 
ATOM     68  C   UNL A   1      42.987  23.105  25.666  1.00  0.00     0.135 A 
ATOM     69  F   UNL A   1      43.518  23.159  29.266  1.00  0.00    -0.206 F 
ATOM     70  C   UNL A   1      42.559  21.505  27.905  1.00  0.00     0.059 A 
ATOM     71  C   UNL A   1      42.376  21.865  25.510  1.00  0.00     0.059 A 
ATOM     72  F   UNL A   1      43.194  23.849  24.568  1.00  0.00    -0.206 F 
ATOM     73  C   UNL A   1      42.173  21.068  26.637  1.00  0.00     0.060 A 
BRANCH  73  74
ATOM     74  S   UNL A   1      41.387  19.450  26.481  1.00  0.00     0.124 S 
ATOM     75  O   UNL A   1      41.553  18.916  27.829  1.00  0.00    -0.237 OA
ATOM     76  O   UNL A   1      40.023  19.803  26.102  1.00  0.00    -0.237 OA
ATOM     77  O   UNL A   1      42.172  18.788  25.444  1.00  0.00    -0.744 OA
ENDBRANCH  73  74
ENDBRANCH  52  66
BRANCH  53  78
ATOM     78  C   UNL A   1      47.037  32.802  28.342  1.00  0.00     0.058 A 
ATOM     79  C   UNL A   1      47.150  33.772  27.337  1.00  0.00     0.135 A 
ATOM     80  C   UNL A   1      47.488  33.139  29.629  1.00  0.00     0.135 A 
ATOM     81  F   UNL A   1      46.743  33.496  26.089  1.00  0.00    -0.206 F 
ATOM     82  C   UNL A   1      47.711  35.020  27.590  1.00  0.00     0.059 A 
ATOM     83  C   UNL A   1      48.026  34.389  29.913  1.00  0.00     0.059 A 
ATOM     84  F   UNL A   1      47.390  32.250  30.631  1.00  0.00    -0.206 F 
ATOM     85  C   UNL A   1      48.145  35.320  28.882  1.00  0.00     0.060 A 
BRANCH  85  86
ATOM     86  S   UNL A   1      48.841  36.954  29.210  1.00  0.00     0.124 S 
ATOM     87  O   UNL A   1      49.225  37.384  27.871  1.00  0.00    -0.237 OA
ATOM     88  O   UNL A   1      47.707  37.654  29.807  1.00  0.00    -0.237 OA
ATOM     89  O   UNL A   1      49.943  36.671  30.124  1.00  0.00    -0.744 OA
ENDBRANCH  85  86
ENDBRANCH  53  78
BRANCH  65  90
ATOM     90  C   UNL A   1      49.805  26.757  26.201  1.00  0.00     0.058 A 
ATOM     91  C   UNL A   1      50.226  26.832  24.866  1.00  0.00     0.135 A 
ATOM     92  C   UNL A   1      50.745  26.357  27.165  1.00  0.00     0.135 A 
ATOM     93  F   UNL A   1      49.366  27.203  23.905  1.00  0.00    -0.206 F 
ATOM     94  C   UNL A   1      51.525  26.499  24.495  1.00  0.00     0.059 A 
ATOM     95  C   UNL A   1      52.058  26.049  26.822  1.00  0.00     0.059 A 
ATOM     96  F   UNL A   1      50.397  26.282  28.460  1.00  0.00    -0.206 F 
ATOM     97  C   UNL A   1      52.434  26.111  25.482  1.00  0.00     0.060 A 
BRANCH  97  98
ATOM     98  S   UNL A   1      54.125  25.713  24.991  1.00  0.00     0.124 S 
ATOM     99  O   UNL A   1      54.101  24.254  25.006  1.00  0.00    -0.237 OA
ATOM    100  O   UNL A   1      54.221  26.331  23.672  1.00  0.00    -0.237 OA
ATOM    101  O   UNL A   1      54.937  26.338  26.030  1.00  0.00    -0.744 OA
ENDBRANCH  97  98
ENDBRANCH  65  90
ENDBRANCH  39  40
ENDBRANCH  32  34
ENDBRANCH  31  32
ENDBRANCH  30  31
ENDBRANCH  29  30
ENDBRANCH  28  29
ENDBRANCH   1  28
TORSDOF 21
ENDMDL
