MODEL 1
REMARK VINA RESULT:     -11.5      0.000      0.000
REMARK SMILES O=C(OCCOCCOC(=O)c1cnc2c(ccn2C2CCCCC2)c1)c1ccc(-c2c3nc(c(-c4c(F)cc(S(=O)(=O)[O-])cc4F)c4ccc([nH]4)c(-c4c(F)cc(S(=O)(=O)[O-])cc4F)c4nc(c(-c5c(F)cc(S(=O)(=O)[O-])cc5F)c5ccc2[nH]5)C=C4)C=C3)cc1
REMARK SMILES IDX 5 1 4 2 3 3 2 4 1 5 27 6 28 7 92 8 29 9 91 10 30 11 31 12
REMARK SMILES IDX 32 13 85 14 33 15 90 16 84 17 86 18 34 19 89 20 83 21 82 22
REMARK SMILES IDX 35 24 69 25 48 26 68 27 49 28 52 29 67 30 87 31 50 32 51 33
REMARK SMILES IDX 66 35 88 36 53 37 36 38 37 39 46 40 38 41 39 42 45 43 47 44
REMARK SMILES IDX 40 45 41 46 42 47 43 48 44 49 70 50 71 51 80 52 72 53 73 54
REMARK SMILES IDX 79 55 81 56 74 57 75 58 76 59 77 60 78 61 54 62 55 63 64 64
REMARK SMILES IDX 56 65 57 66 63 67 65 68 58 69 59 70 60 71 61 72 62 73 6 74
REMARK SMILES IDX 7 75 8 76 9 77 10 78 11 79 12 80 13 81 26 82 14 83 16 84
REMARK SMILES IDX 15 85 17 86 19 87 18 88 20 89 21 90 25 91 22 92 24 93 23 94
REMARK H PARENT 86 23 52 34
REMARK Flexibility Score: inf
ROOT
ATOM      1  C   UNL A   1      46.102  21.309  24.751  1.00  0.00     0.202 C 
ENDROOT
BRANCH   1   2
ATOM      2  C   UNL A   1      46.112  22.710  25.372  1.00  0.00     0.261 C 
BRANCH   2   3
ATOM      3  O   UNL A   1      45.218  23.609  24.708  1.00  0.00    -0.460 OA
BRANCH   3   4
ATOM      4  C   UNL A   1      43.868  23.604  24.787  1.00  0.00     0.338 C 
ATOM      5  O   UNL A   1      43.244  22.748  24.160  1.00  0.00    -0.246 OA
BRANCH   4   6
ATOM      6  C   UNL A   1      43.119  24.503  25.704  1.00  0.00     0.060 A 
ATOM      7  C   UNL A   1      42.227  25.505  25.321  1.00  0.00     0.016 A 
ATOM      8  C   UNL A   1      43.457  24.380  27.061  1.00  0.00     0.016 A 
ATOM      9  C   UNL A   1      41.953  26.544  26.179  1.00  0.00     0.010 A 
ATOM     10  C   UNL A   1      43.118  25.375  27.954  1.00  0.00     0.010 A 
ATOM     11  C   UNL A   1      42.468  26.501  27.467  1.00  0.00    -0.014 A 
BRANCH  11  12
ATOM     12  C   UNL A   1      42.224  27.662  28.292  1.00  0.00     0.031 A 
ATOM     13  C   UNL A   1      43.347  28.629  28.304  1.00  0.00     0.074 A 
ATOM     14  C   UNL A   1      41.055  27.818  28.936  1.00  0.00     0.049 A 
ATOM     15  N   UNL A   1      44.086  28.994  29.299  1.00  0.00    -0.248 NA
ATOM     16  C   UNL A   1      43.809  29.126  26.995  1.00  0.00     0.031 C 
ATOM     17  C   UNL A   1      39.823  27.041  28.767  1.00  0.00     0.029 A 
ATOM     18  N   UNL A   1      40.684  28.793  29.803  1.00  0.00    -0.354 N 
ATOM     19  C   UNL A   1      44.953  29.948  28.779  1.00  0.00     0.074 A 
ATOM     20  C   UNL A   1      44.868  29.852  27.344  1.00  0.00     0.031 C 
ATOM     21  C   UNL A   1      38.794  27.728  29.308  1.00  0.00     0.029 A 
ATOM     22  C   UNL A   1      39.312  28.924  29.953  1.00  0.00     0.049 A 
ATOM     23  H   UNL A   1      41.332  29.358  30.283  1.00  0.00     0.167 HD
ATOM     24  C   UNL A   1      45.468  30.942  29.549  1.00  0.00     0.037 A 
ATOM     25  C   UNL A   1      38.670  30.006  30.458  1.00  0.00     0.037 A 
ATOM     26  C   UNL A   1      45.452  30.613  30.946  1.00  0.00     0.049 A 
ATOM     27  C   UNL A   1      39.672  30.778  31.245  1.00  0.00     0.074 A 
ATOM     28  C   UNL A   1      45.993  29.585  31.696  1.00  0.00     0.029 A 
ATOM     29  N   UNL A   1      44.486  31.183  31.738  1.00  0.00    -0.354 N 
ATOM     30  N   UNL A   1      40.232  30.346  32.344  1.00  0.00    -0.248 NA
ATOM     31  C   UNL A   1      40.393  31.845  30.564  1.00  0.00     0.031 C 
ATOM     32  C   UNL A   1      45.007  29.286  32.680  1.00  0.00     0.029 A 
ATOM     33  C   UNL A   1      43.950  30.180  32.509  1.00  0.00     0.049 A 
ATOM     34  H   UNL A   1      44.225  32.133  31.751  1.00  0.00     0.167 HD
ATOM     35  C   UNL A   1      41.548  30.784  32.276  1.00  0.00     0.074 A 
ATOM     36  C   UNL A   1      41.565  31.770  31.199  1.00  0.00     0.031 C 
ATOM     37  C   UNL A   1      42.559  30.112  32.904  1.00  0.00     0.037 A 
BRANCH  24  38
ATOM     38  C   UNL A   1      45.630  32.339  29.020  1.00  0.00     0.058 A 
ATOM     39  C   UNL A   1      44.522  33.061  28.549  1.00  0.00     0.135 A 
ATOM     40  C   UNL A   1      46.898  32.901  28.738  1.00  0.00     0.135 A 
ATOM     41  F   UNL A   1      43.278  32.584  28.718  1.00  0.00    -0.206 F 
ATOM     42  C   UNL A   1      44.664  34.255  27.842  1.00  0.00     0.059 A 
ATOM     43  C   UNL A   1      47.062  34.118  28.093  1.00  0.00     0.059 A 
ATOM     44  F   UNL A   1      48.038  32.245  28.993  1.00  0.00    -0.206 F 
ATOM     45  C   UNL A   1      45.940  34.773  27.619  1.00  0.00     0.060 A 
BRANCH  45  46
ATOM     46  S   UNL A   1      46.136  36.278  26.650  1.00  0.00     0.124 S 
ATOM     47  O   UNL A   1      46.597  35.742  25.375  1.00  0.00    -0.237 OA
ATOM     48  O   UNL A   1      44.784  36.826  26.664  1.00  0.00    -0.237 OA
ATOM     49  O   UNL A   1      47.122  37.040  27.410  1.00  0.00    -0.744 OA
ENDBRANCH  45  46
ENDBRANCH  24  38
BRANCH  25  50
ATOM     50  C   UNL A   1      37.407  30.611  29.945  1.00  0.00     0.058 A 
ATOM     51  C   UNL A   1      36.463  31.163  30.829  1.00  0.00     0.135 A 
ATOM     52  C   UNL A   1      37.218  30.906  28.578  1.00  0.00     0.135 A 
ATOM     53  F   UNL A   1      36.574  30.955  32.149  1.00  0.00    -0.206 F 
ATOM     54  C   UNL A   1      35.429  31.998  30.389  1.00  0.00     0.059 A 
ATOM     55  C   UNL A   1      36.187  31.720  28.116  1.00  0.00     0.059 A 
ATOM     56  F   UNL A   1      38.088  30.491  27.645  1.00  0.00    -0.206 F 
ATOM     57  C   UNL A   1      35.312  32.289  29.031  1.00  0.00     0.060 A 
BRANCH  57  58
ATOM     58  S   UNL A   1      34.093  33.503  28.479  1.00  0.00     0.124 S 
ATOM     59  O   UNL A   1      34.895  34.365  27.617  1.00  0.00    -0.237 OA
ATOM     60  O   UNL A   1      33.111  32.663  27.803  1.00  0.00    -0.237 OA
ATOM     61  O   UNL A   1      33.636  34.116  29.723  1.00  0.00    -0.744 OA
ENDBRANCH  57  58
ENDBRANCH  25  50
BRANCH  37  62
ATOM     62  C   UNL A   1      42.197  29.046  33.906  1.00  0.00     0.058 A 
ATOM     63  C   UNL A   1      42.036  27.684  33.590  1.00  0.00     0.135 A 
ATOM     64  C   UNL A   1      42.186  29.391  35.266  1.00  0.00     0.135 A 
ATOM     65  F   UNL A   1      42.139  27.255  32.325  1.00  0.00    -0.206 F 
ATOM     66  C   UNL A   1      41.841  26.717  34.578  1.00  0.00     0.059 A 
ATOM     67  C   UNL A   1      42.025  28.439  36.271  1.00  0.00     0.059 A 
ATOM     68  F   UNL A   1      42.398  30.665  35.638  1.00  0.00    -0.206 F 
ATOM     69  C   UNL A   1      41.845  27.104  35.919  1.00  0.00     0.060 A 
BRANCH  69  70
ATOM     70  S   UNL A   1      41.690  25.838  37.198  1.00  0.00     0.124 S 
ATOM     71  O   UNL A   1      40.315  26.019  37.648  1.00  0.00    -0.237 OA
ATOM     72  O   UNL A   1      41.958  24.607  36.458  1.00  0.00    -0.237 OA
ATOM     73  O   UNL A   1      42.719  26.205  38.169  1.00  0.00    -0.744 OA
ENDBRANCH  69  70
ENDBRANCH  37  62
ENDBRANCH  11  12
ENDBRANCH   4   6
ENDBRANCH   3   4
ENDBRANCH   2   3
ENDBRANCH   1   2
BRANCH   1  74
ATOM     74  O   UNL A   1      45.794  20.177  25.555  1.00  0.00    -0.374 OA
BRANCH  74  75
ATOM     75  C   UNL A   1      44.820  19.245  25.059  1.00  0.00     0.202 C 
BRANCH  75  76
ATOM     76  C   UNL A   1      43.338  19.657  25.034  1.00  0.00     0.261 C 
BRANCH  76  77
ATOM     77  O   UNL A   1      42.498  18.700  25.715  1.00  0.00    -0.460 OA
BRANCH  77  78
ATOM     78  C   UNL A   1      41.953  19.121  26.882  1.00  0.00     0.339 C 
ATOM     79  O   UNL A   1      42.338  18.871  28.012  1.00  0.00    -0.246 OA
BRANCH  78  80
ATOM     80  C   UNL A   1      40.958  20.162  26.594  1.00  0.00     0.079 A 
ATOM     81  C   UNL A   1      39.967  19.960  25.652  1.00  0.00     0.129 A 
ATOM     82  C   UNL A   1      41.019  21.380  27.287  1.00  0.00     0.029 A 
ATOM     83  N   UNL A   1      38.975  20.839  25.377  1.00  0.00    -0.237 NA
ATOM     84  C   UNL A   1      40.065  22.354  26.972  1.00  0.00     0.020 A 
ATOM     85  C   UNL A   1      39.073  22.000  26.064  1.00  0.00     0.140 A 
ATOM     86  C   UNL A   1      39.816  23.694  27.368  1.00  0.00     0.030 A 
ATOM     87  N   UNL A   1      38.154  23.024  26.046  1.00  0.00    -0.329 N 
ATOM     88  C   UNL A   1      38.632  24.085  26.779  1.00  0.00     0.088 A 
BRANCH  87  89
ATOM     89  C   UNL A   1      36.812  22.941  25.475  1.00  0.00     0.088 C 
ATOM     90  C   UNL A   1      35.891  24.052  25.995  1.00  0.00     0.025 C 
ATOM     91  C   UNL A   1      36.877  22.879  23.935  1.00  0.00     0.025 C 
ATOM     92  C   UNL A   1      34.527  24.027  25.311  1.00  0.00     0.002 C 
ATOM     93  C   UNL A   1      35.498  22.884  23.292  1.00  0.00     0.002 C 
ATOM     94  C   UNL A   1      34.663  24.056  23.792  1.00  0.00     0.000 C 
ENDBRANCH  87  89
ENDBRANCH  78  80
ENDBRANCH  77  78
ENDBRANCH  76  77
ENDBRANCH  75  76
ENDBRANCH  74  75
ENDBRANCH   1  74
TORSDOF 18
ENDMDL
MODEL 2
REMARK VINA RESULT:     -11.4      3.309      9.933
REMARK SMILES O=C(OCCOCCOC(=O)c1cnc2c(ccn2C2CCCCC2)c1)c1ccc(-c2c3nc(c(-c4c(F)cc(S(=O)(=O)[O-])cc4F)c4ccc([nH]4)c(-c4c(F)cc(S(=O)(=O)[O-])cc4F)c4nc(c(-c5c(F)cc(S(=O)(=O)[O-])cc5F)c5ccc2[nH]5)C=C4)C=C3)cc1
REMARK SMILES IDX 5 1 4 2 3 3 2 4 1 5 27 6 28 7 92 8 29 9 91 10 30 11 31 12
REMARK SMILES IDX 32 13 85 14 33 15 90 16 84 17 86 18 34 19 89 20 83 21 82 22
REMARK SMILES IDX 35 24 69 25 48 26 68 27 49 28 52 29 67 30 87 31 50 32 51 33
REMARK SMILES IDX 66 35 88 36 53 37 36 38 37 39 46 40 38 41 39 42 45 43 47 44
REMARK SMILES IDX 40 45 41 46 42 47 43 48 44 49 70 50 71 51 80 52 72 53 73 54
REMARK SMILES IDX 79 55 81 56 74 57 75 58 76 59 77 60 78 61 54 62 55 63 64 64
REMARK SMILES IDX 56 65 57 66 63 67 65 68 58 69 59 70 60 71 61 72 62 73 6 74
REMARK SMILES IDX 7 75 8 76 9 77 10 78 11 79 12 80 13 81 26 82 14 83 16 84
REMARK SMILES IDX 15 85 17 86 19 87 18 88 20 89 21 90 25 91 22 92 24 93 23 94
REMARK H PARENT 86 23 52 34
REMARK Flexibility Score: inf
ROOT
ATOM      1  C   UNL A   1      32.078  29.367  26.574  1.00  0.00     0.202 C 
ENDROOT
BRANCH   1   2
ATOM      2  C   UNL A   1      33.205  30.397  26.451  1.00  0.00     0.261 C 
BRANCH   2   3
ATOM      3  O   UNL A   1      33.911  30.584  27.682  1.00  0.00    -0.460 OA
BRANCH   3   4
ATOM      4  C   UNL A   1      34.995  31.369  27.875  1.00  0.00     0.338 C 
ATOM      5  O   UNL A   1      34.932  32.553  27.541  1.00  0.00    -0.246 OA
BRANCH   4   6
ATOM      6  C   UNL A   1      36.207  30.894  28.591  1.00  0.00     0.060 A 
ATOM      7  C   UNL A   1      37.189  31.701  29.167  1.00  0.00     0.016 A 
ATOM      8  C   UNL A   1      36.405  29.504  28.562  1.00  0.00     0.016 A 
ATOM      9  C   UNL A   1      38.449  31.197  29.388  1.00  0.00     0.010 A 
ATOM     10  C   UNL A   1      37.642  28.972  28.862  1.00  0.00     0.010 A 
ATOM     11  C   UNL A   1      38.678  29.847  29.159  1.00  0.00    -0.014 A 
BRANCH  11  12
ATOM     12  C   UNL A   1      40.041  29.395  29.320  1.00  0.00     0.031 A 
ATOM     13  C   UNL A   1      40.454  29.248  30.736  1.00  0.00     0.074 A 
ATOM     14  C   UNL A   1      40.806  29.110  28.252  1.00  0.00     0.049 A 
ATOM     15  N   UNL A   1      41.373  29.891  31.378  1.00  0.00    -0.248 NA
ATOM     16  C   UNL A   1      39.614  28.384  31.586  1.00  0.00     0.031 C 
ATOM     17  C   UNL A   1      40.388  28.989  26.852  1.00  0.00     0.029 A 
ATOM     18  N   UNL A   1      42.113  28.752  28.212  1.00  0.00    -0.354 N 
ATOM     19  C   UNL A   1      41.380  29.338  32.653  1.00  0.00     0.074 A 
ATOM     20  C   UNL A   1      40.172  28.563  32.781  1.00  0.00     0.031 C 
ATOM     21  C   UNL A   1      41.353  28.345  26.161  1.00  0.00     0.029 A 
ATOM     22  C   UNL A   1      42.489  28.117  27.039  1.00  0.00     0.049 A 
ATOM     23  H   UNL A   1      42.739  28.927  28.952  1.00  0.00     0.167 HD
ATOM     24  C   UNL A   1      42.503  29.317  33.418  1.00  0.00     0.037 A 
ATOM     25  C   UNL A   1      43.599  27.357  26.870  1.00  0.00     0.037 A 
ATOM     26  C   UNL A   1      43.452  30.318  33.020  1.00  0.00     0.049 A 
ATOM     27  C   UNL A   1      44.547  27.723  27.961  1.00  0.00     0.074 A 
ATOM     28  C   UNL A   1      43.404  31.695  32.909  1.00  0.00     0.029 A 
ATOM     29  N   UNL A   1      44.546  29.924  32.289  1.00  0.00    -0.354 N 
ATOM     30  N   UNL A   1      45.119  28.893  28.074  1.00  0.00    -0.248 NA
ATOM     31  C   UNL A   1      44.507  26.935  29.185  1.00  0.00     0.031 C 
ATOM     32  C   UNL A   1      44.162  32.001  31.742  1.00  0.00     0.029 A 
ATOM     33  C   UNL A   1      44.671  30.803  31.240  1.00  0.00     0.049 A 
ATOM     34  H   UNL A   1      45.132  29.156  32.480  1.00  0.00     0.167 HD
ATOM     35  C   UNL A   1      45.140  29.155  29.437  1.00  0.00     0.074 A 
ATOM     36  C   UNL A   1      44.826  27.879  30.074  1.00  0.00     0.031 C 
ATOM     37  C   UNL A   1      45.135  30.433  29.919  1.00  0.00     0.037 A 
BRANCH  24  38
ATOM     38  C   UNL A   1      42.849  28.130  34.273  1.00  0.00     0.058 A 
ATOM     39  C   UNL A   1      43.014  28.270  35.660  1.00  0.00     0.135 A 
ATOM     40  C   UNL A   1      43.262  26.893  33.723  1.00  0.00     0.135 A 
ATOM     41  F   UNL A   1      42.703  29.425  36.269  1.00  0.00    -0.206 F 
ATOM     42  C   UNL A   1      43.559  27.253  36.445  1.00  0.00     0.059 A 
ATOM     43  C   UNL A   1      43.746  25.846  34.491  1.00  0.00     0.059 A 
ATOM     44  F   UNL A   1      43.303  26.683  32.401  1.00  0.00    -0.206 F 
ATOM     45  C   UNL A   1      43.923  26.046  35.849  1.00  0.00     0.060 A 
BRANCH  45  46
ATOM     46  S   UNL A   1      44.688  24.754  36.843  1.00  0.00     0.124 S 
ATOM     47  O   UNL A   1      44.141  25.044  38.163  1.00  0.00    -0.237 OA
ATOM     48  O   UNL A   1      44.194  23.542  36.196  1.00  0.00    -0.237 OA
ATOM     49  O   UNL A   1      46.116  25.006  36.679  1.00  0.00    -0.744 OA
ENDBRANCH  45  46
ENDBRANCH  24  38
BRANCH  25  50
ATOM     50  C   UNL A   1      43.694  26.074  26.116  1.00  0.00     0.058 A 
ATOM     51  C   UNL A   1      44.811  25.793  25.311  1.00  0.00     0.135 A 
ATOM     52  C   UNL A   1      42.831  24.987  26.376  1.00  0.00     0.135 A 
ATOM     53  F   UNL A   1      45.698  26.758  25.029  1.00  0.00    -0.206 F 
ATOM     54  C   UNL A   1      45.085  24.503  24.838  1.00  0.00     0.059 A 
ATOM     55  C   UNL A   1      43.074  23.700  25.902  1.00  0.00     0.059 A 
ATOM     56  F   UNL A   1      41.768  25.114  27.183  1.00  0.00    -0.206 F 
ATOM     57  C   UNL A   1      44.220  23.458  25.158  1.00  0.00     0.060 A 
BRANCH  57  58
ATOM     58  S   UNL A   1      44.658  21.765  24.702  1.00  0.00     0.124 S 
ATOM     59  O   UNL A   1      43.591  20.997  25.333  1.00  0.00    -0.237 OA
ATOM     60  O   UNL A   1      44.626  21.824  23.245  1.00  0.00    -0.237 OA
ATOM     61  O   UNL A   1      45.984  21.587  25.288  1.00  0.00    -0.744 OA
ENDBRANCH  57  58
ENDBRANCH  25  50
BRANCH  37  62
ATOM     62  C   UNL A   1      45.388  31.565  28.956  1.00  0.00     0.058 A 
ATOM     63  C   UNL A   1      46.668  31.989  28.553  1.00  0.00     0.135 A 
ATOM     64  C   UNL A   1      44.290  32.121  28.284  1.00  0.00     0.135 A 
ATOM     65  F   UNL A   1      47.772  31.432  29.068  1.00  0.00    -0.206 F 
ATOM     66  C   UNL A   1      46.844  32.946  27.551  1.00  0.00     0.059 A 
ATOM     67  C   UNL A   1      44.443  33.054  27.260  1.00  0.00     0.059 A 
ATOM     68  F   UNL A   1      43.044  31.712  28.577  1.00  0.00    -0.206 F 
ATOM     69  C   UNL A   1      45.724  33.468  26.904  1.00  0.00     0.060 A 
BRANCH  69  70
ATOM     70  S   UNL A   1      45.959  34.632  25.543  1.00  0.00     0.124 S 
ATOM     71  O   UNL A   1      45.064  34.099  24.522  1.00  0.00    -0.237 OA
ATOM     72  O   UNL A   1      45.555  35.902  26.140  1.00  0.00    -0.237 OA
ATOM     73  O   UNL A   1      47.385  34.522  25.241  1.00  0.00    -0.744 OA
ENDBRANCH  69  70
ENDBRANCH  37  62
ENDBRANCH  11  12
ENDBRANCH   4   6
ENDBRANCH   3   4
ENDBRANCH   2   3
ENDBRANCH   1   2
BRANCH   1  74
ATOM     74  O   UNL A   1      32.183  28.115  25.906  1.00  0.00    -0.374 OA
BRANCH  74  75
ATOM     75  C   UNL A   1      32.966  28.060  24.703  1.00  0.00     0.202 C 
BRANCH  75  76
ATOM     76  C   UNL A   1      32.403  27.316  23.479  1.00  0.00     0.261 C 
BRANCH  76  77
ATOM     77  O   UNL A   1      32.452  25.883  23.646  1.00  0.00    -0.460 OA
BRANCH  77  78
ATOM     78  C   UNL A   1      33.246  25.215  22.775  1.00  0.00     0.339 C 
ATOM     79  O   UNL A   1      33.824  25.671  21.801  1.00  0.00    -0.246 OA
BRANCH  78  80
ATOM     80  C   UNL A   1      33.537  23.883  23.319  1.00  0.00     0.079 A 
ATOM     81  C   UNL A   1      32.557  22.910  23.383  1.00  0.00     0.129 A 
ATOM     82  C   UNL A   1      34.829  23.598  23.783  1.00  0.00     0.029 A 
ATOM     83  N   UNL A   1      32.759  21.640  23.808  1.00  0.00    -0.237 NA
ATOM     84  C   UNL A   1      35.063  22.323  24.312  1.00  0.00     0.020 A 
ATOM     85  C   UNL A   1      34.017  21.409  24.248  1.00  0.00     0.140 A 
ATOM     86  C   UNL A   1      36.160  21.667  24.928  1.00  0.00     0.030 A 
ATOM     87  N   UNL A   1      34.518  20.191  24.646  1.00  0.00    -0.329 N 
ATOM     88  C   UNL A   1      35.796  20.352  25.127  1.00  0.00     0.088 A 
BRANCH  87  89
ATOM     89  C   UNL A   1      33.859  18.903  24.441  1.00  0.00     0.088 C 
ATOM     90  C   UNL A   1      34.862  17.780  24.144  1.00  0.00     0.025 C 
ATOM     91  C   UNL A   1      32.916  18.578  25.617  1.00  0.00     0.025 C 
ATOM     92  C   UNL A   1      34.179  16.419  24.042  1.00  0.00     0.002 C 
ATOM     93  C   UNL A   1      32.278  17.203  25.491  1.00  0.00     0.002 C 
ATOM     94  C   UNL A   1      33.333  16.124  25.277  1.00  0.00     0.000 C 
ENDBRANCH  87  89
ENDBRANCH  78  80
ENDBRANCH  77  78
ENDBRANCH  76  77
ENDBRANCH  75  76
ENDBRANCH  74  75
ENDBRANCH   1  74
TORSDOF 18
ENDMDL
MODEL 3
REMARK VINA RESULT:     -11.3      2.332      3.888
REMARK SMILES O=C(OCCOCCOC(=O)c1cnc2c(ccn2C2CCCCC2)c1)c1ccc(-c2c3nc(c(-c4c(F)cc(S(=O)(=O)[O-])cc4F)c4ccc([nH]4)c(-c4c(F)cc(S(=O)(=O)[O-])cc4F)c4nc(c(-c5c(F)cc(S(=O)(=O)[O-])cc5F)c5ccc2[nH]5)C=C4)C=C3)cc1
REMARK SMILES IDX 5 1 4 2 3 3 2 4 1 5 27 6 28 7 92 8 29 9 91 10 30 11 31 12
REMARK SMILES IDX 32 13 85 14 33 15 90 16 84 17 86 18 34 19 89 20 83 21 82 22
REMARK SMILES IDX 35 24 69 25 48 26 68 27 49 28 52 29 67 30 87 31 50 32 51 33
REMARK SMILES IDX 66 35 88 36 53 37 36 38 37 39 46 40 38 41 39 42 45 43 47 44
REMARK SMILES IDX 40 45 41 46 42 47 43 48 44 49 70 50 71 51 80 52 72 53 73 54
REMARK SMILES IDX 79 55 81 56 74 57 75 58 76 59 77 60 78 61 54 62 55 63 64 64
REMARK SMILES IDX 56 65 57 66 63 67 65 68 58 69 59 70 60 71 61 72 62 73 6 74
REMARK SMILES IDX 7 75 8 76 9 77 10 78 11 79 12 80 13 81 26 82 14 83 16 84
REMARK SMILES IDX 15 85 17 86 19 87 18 88 20 89 21 90 25 91 22 92 24 93 23 94
REMARK H PARENT 86 23 52 34
REMARK Flexibility Score: inf
ROOT
ATOM      1  C   UNL A   1      41.878  19.573  27.087  1.00  0.00     0.202 C 
ENDROOT
BRANCH   1   2
ATOM      2  C   UNL A   1      42.830  19.045  26.008  1.00  0.00     0.261 C 
BRANCH   2   3
ATOM      3  O   UNL A   1      43.119  20.026  25.007  1.00  0.00    -0.460 OA
BRANCH   3   4
ATOM      4  C   UNL A   1      44.287  20.689  24.847  1.00  0.00     0.338 C 
ATOM      5  O   UNL A   1      45.202  20.132  24.240  1.00  0.00    -0.246 OA
BRANCH   4   6
ATOM      6  C   UNL A   1      44.462  22.107  25.256  1.00  0.00     0.060 A 
ATOM      7  C   UNL A   1      45.401  22.586  26.171  1.00  0.00     0.016 A 
ATOM      8  C   UNL A   1      43.502  22.994  24.744  1.00  0.00     0.016 A 
ATOM      9  C   UNL A   1      45.188  23.787  26.806  1.00  0.00     0.010 A 
ATOM     10  C   UNL A   1      43.329  24.238  25.316  1.00  0.00     0.010 A 
ATOM     11  C   UNL A   1      44.106  24.565  26.419  1.00  0.00    -0.014 A 
BRANCH  11  12
ATOM     12  C   UNL A   1      43.880  25.771  27.183  1.00  0.00     0.031 A 
ATOM     13  C   UNL A   1      44.946  26.788  27.016  1.00  0.00     0.074 A 
ATOM     14  C   UNL A   1      42.772  25.920  27.929  1.00  0.00     0.049 A 
ATOM     15  N   UNL A   1      45.757  27.258  27.906  1.00  0.00    -0.248 NA
ATOM     16  C   UNL A   1      45.252  27.208  25.637  1.00  0.00     0.031 C 
ATOM     17  C   UNL A   1      41.574  25.075  27.938  1.00  0.00     0.029 A 
ATOM     18  N   UNL A   1      42.435  26.937  28.760  1.00  0.00    -0.354 N 
ATOM     19  C   UNL A   1      46.517  28.211  27.237  1.00  0.00     0.074 A 
ATOM     20  C   UNL A   1      46.299  28.006  25.827  1.00  0.00     0.031 C 
ATOM     21  C   UNL A   1      40.566  25.752  28.532  1.00  0.00     0.029 A 
ATOM     22  C   UNL A   1      41.079  27.014  29.038  1.00  0.00     0.049 A 
ATOM     23  H   UNL A   1      43.095  27.565  29.133  1.00  0.00     0.167 HD
ATOM     24  C   UNL A   1      47.050  29.282  27.881  1.00  0.00     0.037 A 
ATOM     25  C   UNL A   1      40.432  28.099  29.529  1.00  0.00     0.037 A 
ATOM     26  C   UNL A   1      47.187  29.056  29.293  1.00  0.00     0.049 A 
ATOM     27  C   UNL A   1      41.462  28.973  30.158  1.00  0.00     0.074 A 
ATOM     28  C   UNL A   1      47.852  28.112  30.053  1.00  0.00     0.029 A 
ATOM     29  N   UNL A   1      46.273  29.637  30.137  1.00  0.00    -0.354 N 
ATOM     30  N   UNL A   1      42.149  28.650  31.222  1.00  0.00    -0.248 NA
ATOM     31  C   UNL A   1      42.056  30.019  29.336  1.00  0.00     0.031 C 
ATOM     32  C   UNL A   1      46.984  27.841  31.149  1.00  0.00     0.029 A 
ATOM     33  C   UNL A   1      45.869  28.670  31.024  1.00  0.00     0.049 A 
ATOM     34  H   UNL A   1      45.964  30.572  30.111  1.00  0.00     0.167 HD
ATOM     35  C   UNL A   1      43.427  29.142  30.992  1.00  0.00     0.074 A 
ATOM     36  C   UNL A   1      43.287  30.046  29.854  1.00  0.00     0.031 C 
ATOM     37  C   UNL A   1      44.528  28.566  31.560  1.00  0.00     0.037 A 
BRANCH  24  38
ATOM     38  C   UNL A   1      47.086  30.643  27.244  1.00  0.00     0.058 A 
ATOM     39  C   UNL A   1      48.282  31.374  27.183  1.00  0.00     0.135 A 
ATOM     40  C   UNL A   1      45.909  31.353  26.905  1.00  0.00     0.135 A 
ATOM     41  F   UNL A   1      49.446  30.807  27.539  1.00  0.00    -0.206 F 
ATOM     42  C   UNL A   1      48.307  32.721  26.817  1.00  0.00     0.059 A 
ATOM     43  C   UNL A   1      45.916  32.672  26.477  1.00  0.00     0.059 A 
ATOM     44  F   UNL A   1      44.690  30.824  27.067  1.00  0.00    -0.206 F 
ATOM     45  C   UNL A   1      47.117  33.359  26.468  1.00  0.00     0.060 A 
BRANCH  45  46
ATOM     46  S   UNL A   1      47.131  35.113  26.058  1.00  0.00     0.124 S 
ATOM     47  O   UNL A   1      45.773  35.303  25.561  1.00  0.00    -0.237 OA
ATOM     48  O   UNL A   1      47.432  35.722  27.349  1.00  0.00    -0.237 OA
ATOM     49  O   UNL A   1      48.192  35.216  25.061  1.00  0.00    -0.744 OA
ENDBRANCH  45  46
ENDBRANCH  24  38
BRANCH  25  50
ATOM     50  C   UNL A   1      39.095  28.605  29.106  1.00  0.00     0.058 A 
ATOM     51  C   UNL A   1      38.039  28.710  30.029  1.00  0.00     0.135 A 
ATOM     52  C   UNL A   1      38.895  29.249  27.865  1.00  0.00     0.135 A 
ATOM     53  F   UNL A   1      38.148  28.150  31.243  1.00  0.00    -0.206 F 
ATOM     54  C   UNL A   1      36.882  29.451  29.759  1.00  0.00     0.059 A 
ATOM     55  C   UNL A   1      37.746  29.976  27.568  1.00  0.00     0.059 A 
ATOM     56  F   UNL A   1      39.853  29.275  26.928  1.00  0.00    -0.206 F 
ATOM     57  C   UNL A   1      36.755  30.100  28.531  1.00  0.00     0.060 A 
BRANCH  57  58
ATOM     58  S   UNL A   1      35.349  31.199  28.244  1.00  0.00     0.124 S 
ATOM     59  O   UNL A   1      35.974  32.308  27.532  1.00  0.00    -0.237 OA
ATOM     60  O   UNL A   1      34.459  30.355  27.454  1.00  0.00    -0.237 OA
ATOM     61  O   UNL A   1      34.878  31.508  29.592  1.00  0.00    -0.744 OA
ENDBRANCH  57  58
ENDBRANCH  25  50
BRANCH  37  62
ATOM     62  C   UNL A   1      44.322  27.560  32.664  1.00  0.00     0.058 A 
ATOM     63  C   UNL A   1      44.109  27.899  34.013  1.00  0.00     0.135 A 
ATOM     64  C   UNL A   1      44.161  26.212  32.311  1.00  0.00     0.135 A 
ATOM     65  F   UNL A   1      44.139  29.176  34.415  1.00  0.00    -0.206 F 
ATOM     66  C   UNL A   1      43.782  26.936  34.971  1.00  0.00     0.059 A 
ATOM     67  C   UNL A   1      43.805  25.239  33.244  1.00  0.00     0.059 A 
ATOM     68  F   UNL A   1      44.289  25.833  31.028  1.00  0.00    -0.206 F 
ATOM     69  C   UNL A   1      43.625  25.608  34.574  1.00  0.00     0.060 A 
BRANCH  69  70
ATOM     70  S   UNL A   1      43.108  24.382  35.796  1.00  0.00     0.124 S 
ATOM     71  O   UNL A   1      43.938  23.233  35.452  1.00  0.00    -0.237 OA
ATOM     72  O   UNL A   1      43.429  25.041  37.060  1.00  0.00    -0.237 OA
ATOM     73  O   UNL A   1      41.678  24.221  35.535  1.00  0.00    -0.744 OA
ENDBRANCH  69  70
ENDBRANCH  37  62
ENDBRANCH  11  12
ENDBRANCH   4   6
ENDBRANCH   3   4
ENDBRANCH   2   3
ENDBRANCH   1   2
BRANCH   1  74
ATOM     74  O   UNL A   1      41.977  20.923  27.523  1.00  0.00    -0.374 OA
BRANCH  74  75
ATOM     75  C   UNL A   1      40.783  21.722  27.512  1.00  0.00     0.202 C 
BRANCH  75  76
ATOM     76  C   UNL A   1      40.138  22.082  26.162  1.00  0.00     0.261 C 
BRANCH  76  77
ATOM     77  O   UNL A   1      38.719  22.318  26.286  1.00  0.00    -0.460 OA
BRANCH  77  78
ATOM     78  C   UNL A   1      37.933  21.646  25.411  1.00  0.00     0.339 C 
ATOM     79  O   UNL A   1      38.026  20.475  25.078  1.00  0.00    -0.246 OA
BRANCH  78  80
ATOM     80  C   UNL A   1      36.757  22.469  25.098  1.00  0.00     0.079 A 
ATOM     81  C   UNL A   1      36.570  23.700  25.697  1.00  0.00     0.129 A 
ATOM     82  C   UNL A   1      35.811  21.992  24.179  1.00  0.00     0.029 A 
ATOM     83  N   UNL A   1      35.552  24.547  25.414  1.00  0.00    -0.237 NA
ATOM     84  C   UNL A   1      34.695  22.797  23.921  1.00  0.00     0.020 A 
ATOM     85  C   UNL A   1      34.662  24.049  24.526  1.00  0.00     0.140 A 
ATOM     86  C   UNL A   1      33.514  22.672  23.144  1.00  0.00     0.030 A 
ATOM     87  N   UNL A   1      33.590  24.728  23.995  1.00  0.00    -0.329 N 
ATOM     88  C   UNL A   1      32.847  23.878  23.211  1.00  0.00     0.088 A 
BRANCH  87  89
ATOM     89  C   UNL A   1      33.363  26.166  24.114  1.00  0.00     0.088 C 
ATOM     90  C   UNL A   1      33.800  26.928  22.855  1.00  0.00     0.025 C 
ATOM     91  C   UNL A   1      31.905  26.457  24.522  1.00  0.00     0.025 C 
ATOM     92  C   UNL A   1      33.458  28.412  22.941  1.00  0.00     0.002 C 
ATOM     93  C   UNL A   1      31.598  27.947  24.568  1.00  0.00     0.002 C 
ATOM     94  C   UNL A   1      31.982  28.628  23.260  1.00  0.00     0.000 C 
ENDBRANCH  87  89
ENDBRANCH  78  80
ENDBRANCH  77  78
ENDBRANCH  76  77
ENDBRANCH  75  76
ENDBRANCH  74  75
ENDBRANCH   1  74
TORSDOF 18
ENDMDL
