MODEL 1
REMARK VINA RESULT:     -11.8      0.000      0.000
REMARK SMILES O=C(COc1ccc(Br)cc1/C=C1\C(=O)Nc2ccc(Br)cc21)OCCOCCOC(=O)c1ccc(-c2c3nc(c(-c4c(F)cc(S(=O)(=O)[O-])cc4F)c4ccc([nH]4)c(-c4c(F)cc(S(=O)(=O)[O-])cc4F)c4nc(c(-c5c(F)cc(S(=O)(=O)[O-])cc5F)c5ccc2[nH]5)C=C4)C=C3)cc1
REMARK SMILES IDX 27 1 26 2 25 3 24 4 2 5 1 6 3 7 4 8 5 9 6 10 11 11 7 12
REMARK SMILES IDX 10 13 8 14 9 15 12 16 13 17 14 18 23 19 15 20 16 21 17 22
REMARK SMILES IDX 22 23 18 25 20 26 19 27 21 28 28 29 29 30 30 31 31 32 32 33
REMARK SMILES IDX 33 34 34 35 98 36 35 37 97 38 36 39 37 40 38 41 91 42 39 43
REMARK SMILES IDX 96 44 90 45 92 46 40 47 95 48 89 49 88 50 41 52 75 53 54 54
REMARK SMILES IDX 74 55 55 56 58 57 73 58 93 59 56 60 57 61 72 63 94 64 59 65
REMARK SMILES IDX 42 66 43 67 52 68 44 69 45 70 51 71 53 72 46 73 47 74 48 75
REMARK SMILES IDX 49 76 50 77 76 78 77 79 86 80 78 81 79 82 85 83 87 84 80 85
REMARK SMILES IDX 81 86 82 87 83 88 84 89 60 90 61 91 70 92 62 93 63 94 69 95
REMARK SMILES IDX 71 96 64 97 65 98 66 99 67 100 68 101
REMARK H PARENT 16 24 92 51 58 62
REMARK Flexibility Score: inf
ROOT
ATOM      1  O   UNL A   1      34.319  31.200  27.302  1.00  0.00    -0.374 OA
ENDROOT
BRANCH   1   2
ATOM      2  C   UNL A   1      32.917  30.958  27.176  1.00  0.00     0.202 C 
BRANCH   2   3
ATOM      3  C   UNL A   1      32.572  29.768  26.291  1.00  0.00     0.261 C 
BRANCH   3   4
ATOM      4  O   UNL A   1      33.414  28.645  26.597  1.00  0.00    -0.461 OA
BRANCH   4   5
ATOM      5  C   UNL A   1      33.612  27.642  25.703  1.00  0.00     0.344 C 
ATOM      6  O   UNL A   1      33.679  26.474  26.084  1.00  0.00    -0.248 OA
BRANCH   5   7
ATOM      7  C   UNL A   1      33.717  28.013  24.221  1.00  0.00     0.351 C 
BRANCH   7   8
ATOM      8  O   UNL A   1      33.112  27.160  23.240  1.00  0.00    -0.481 OA
BRANCH   8   9
ATOM      9  C   UNL A   1      31.795  27.500  23.030  1.00  0.00     0.127 A 
ATOM     10  C   UNL A   1      31.510  28.793  22.557  1.00  0.00     0.048 A 
ATOM     11  C   UNL A   1      30.769  26.568  23.298  1.00  0.00     0.018 A 
ATOM     12  C   UNL A   1      30.206  29.264  22.527  1.00  0.00     0.019 A 
ATOM     13  C   UNL A   1      29.467  27.084  23.253  1.00  0.00     0.027 A 
ATOM     14  C   UNL A   1      29.191  28.414  22.918  1.00  0.00     0.018 A 
ATOM     15  Br  UNL A   1      27.412  29.050  23.005  1.00  0.00    -0.051 Br
BRANCH  11  16
ATOM     16  C   UNL A   1      31.090  25.141  23.622  1.00  0.00     0.026 C 
ATOM     17  C   UNL A   1      31.027  24.451  24.781  1.00  0.00     0.050 C 
ATOM     18  C   UNL A   1      30.645  24.949  26.151  1.00  0.00     0.256 C 
ATOM     19  C   UNL A   1      31.750  23.187  25.033  1.00  0.00     0.012 A 
ATOM     20  O   UNL A   1      29.684  25.597  26.509  1.00  0.00    -0.269 OA
ATOM     21  N   UNL A   1      31.547  24.343  27.003  1.00  0.00    -0.321 N 
ATOM     22  C   UNL A   1      32.167  23.276  26.370  1.00  0.00     0.049 A 
ATOM     23  C   UNL A   1      31.977  22.019  24.326  1.00  0.00     0.026 A 
ATOM     24  H   UNL A   1      31.723  24.628  27.929  1.00  0.00     0.170 HD
ATOM     25  C   UNL A   1      32.944  22.326  26.995  1.00  0.00     0.028 A 
ATOM     26  C   UNL A   1      32.690  20.998  24.978  1.00  0.00     0.018 A 
ATOM     27  C   UNL A   1      33.212  21.165  26.277  1.00  0.00     0.018 A 
ATOM     28  Br  UNL A   1      32.899  19.313  24.138  1.00  0.00    -0.051 Br
ENDBRANCH  11  16
ENDBRANCH   8   9
ENDBRANCH   7   8
ENDBRANCH   5   7
ENDBRANCH   4   5
ENDBRANCH   3   4
ENDBRANCH   2   3
ENDBRANCH   1   2
BRANCH   1  29
ATOM     29  C   UNL A   1      34.663  32.321  28.136  1.00  0.00     0.202 C 
BRANCH  29  30
ATOM     30  C   UNL A   1      35.400  31.951  29.432  1.00  0.00     0.261 C 
BRANCH  30  31
ATOM     31  O   UNL A   1      35.834  30.577  29.392  1.00  0.00    -0.460 OA
BRANCH  31  32
ATOM     32  C   UNL A   1      36.573  30.150  30.446  1.00  0.00     0.338 C 
ATOM     33  O   UNL A   1      36.155  29.771  31.527  1.00  0.00    -0.246 OA
BRANCH  32  34
ATOM     34  C   UNL A   1      37.973  29.964  29.998  1.00  0.00     0.060 A 
ATOM     35  C   UNL A   1      39.051  30.073  30.880  1.00  0.00     0.016 A 
ATOM     36  C   UNL A   1      38.195  29.698  28.639  1.00  0.00     0.016 A 
ATOM     37  C   UNL A   1      40.351  29.879  30.404  1.00  0.00     0.010 A 
ATOM     38  C   UNL A   1      39.493  29.513  28.164  1.00  0.00     0.010 A 
ATOM     39  C   UNL A   1      40.578  29.580  29.048  1.00  0.00    -0.014 A 
BRANCH  39  40
ATOM     40  C   UNL A   1      41.930  29.179  28.593  1.00  0.00     0.031 A 
ATOM     41  C   UNL A   1      43.078  30.139  28.592  1.00  0.00     0.074 A 
ATOM     42  C   UNL A   1      42.100  27.911  28.177  1.00  0.00     0.049 A 
ATOM     43  N   UNL A   1      44.335  29.912  28.308  1.00  0.00    -0.248 NA
ATOM     44  C   UNL A   1      42.779  31.532  28.949  1.00  0.00     0.031 C 
ATOM     45  C   UNL A   1      41.041  26.901  28.121  1.00  0.00     0.029 A 
ATOM     46  N   UNL A   1      43.218  27.251  27.740  1.00  0.00    -0.354 N 
ATOM     47  C   UNL A   1      44.990  31.122  28.488  1.00  0.00     0.074 A 
ATOM     48  C   UNL A   1      43.976  32.095  28.848  1.00  0.00     0.031 C 
ATOM     49  C   UNL A   1      41.569  25.738  27.713  1.00  0.00     0.029 A 
ATOM     50  C   UNL A   1      42.994  25.925  27.461  1.00  0.00     0.049 A 
ATOM     51  H   UNL A   1      44.096  27.685  27.637  1.00  0.00     0.167 HD
ATOM     52  C   UNL A   1      46.315  31.388  28.381  1.00  0.00     0.037 A 
ATOM     53  C   UNL A   1      43.846  24.962  27.064  1.00  0.00     0.037 A 
ATOM     54  C   UNL A   1      47.307  30.422  27.977  1.00  0.00     0.049 A 
ATOM     55  C   UNL A   1      45.298  25.296  26.889  1.00  0.00     0.074 A 
ATOM     56  C   UNL A   1      48.673  30.594  27.832  1.00  0.00     0.029 A 
ATOM     57  N   UNL A   1      47.036  29.103  27.637  1.00  0.00    -0.354 N 
ATOM     58  N   UNL A   1      45.910  26.438  27.097  1.00  0.00    -0.248 NA
ATOM     59  C   UNL A   1      46.175  24.212  26.429  1.00  0.00     0.031 C 
ATOM     60  C   UNL A   1      49.221  29.390  27.368  1.00  0.00     0.029 A 
ATOM     61  C   UNL A   1      48.204  28.455  27.263  1.00  0.00     0.049 A 
ATOM     62  H   UNL A   1      46.144  28.687  27.660  1.00  0.00     0.167 HD
ATOM     63  C   UNL A   1      47.249  26.208  26.806  1.00  0.00     0.074 A 
ATOM     64  C   UNL A   1      47.357  24.814  26.421  1.00  0.00     0.031 C 
ATOM     65  C   UNL A   1      48.293  27.073  26.856  1.00  0.00     0.037 A 
BRANCH  52  66
ATOM     66  C   UNL A   1      46.761  32.787  28.710  1.00  0.00     0.058 A 
ATOM     67  C   UNL A   1      46.822  33.782  27.719  1.00  0.00     0.135 A 
ATOM     68  C   UNL A   1      47.124  33.145  30.018  1.00  0.00     0.135 A 
ATOM     69  F   UNL A   1      46.496  33.492  26.450  1.00  0.00    -0.206 F 
ATOM     70  C   UNL A   1      47.268  35.069  28.005  1.00  0.00     0.059 A 
ATOM     71  C   UNL A   1      47.550  34.434  30.332  1.00  0.00     0.059 A 
ATOM     72  F   UNL A   1      47.079  32.236  31.004  1.00  0.00    -0.206 F 
ATOM     73  C   UNL A   1      47.639  35.382  29.313  1.00  0.00     0.060 A 
BRANCH  73  74
ATOM     74  S   UNL A   1      48.256  37.044  29.658  1.00  0.00     0.124 S 
ATOM     75  O   UNL A   1      47.415  37.433  30.786  1.00  0.00    -0.237 OA
ATOM     76  O   UNL A   1      49.660  36.798  29.969  1.00  0.00    -0.237 OA
ATOM     77  O   UNL A   1      48.008  37.764  28.413  1.00  0.00    -0.744 OA
ENDBRANCH  73  74
ENDBRANCH  52  66
BRANCH  53  78
ATOM     78  C   UNL A   1      43.337  23.581  26.878  1.00  0.00     0.058 A 
ATOM     79  C   UNL A   1      43.099  23.079  25.591  1.00  0.00     0.135 A 
ATOM     80  C   UNL A   1      43.168  22.711  27.966  1.00  0.00     0.135 A 
ATOM     81  F   UNL A   1      43.246  23.876  24.522  1.00  0.00    -0.206 F 
ATOM     82  C   UNL A   1      42.725  21.755  25.386  1.00  0.00     0.059 A 
ATOM     83  C   UNL A   1      42.813  21.379  27.784  1.00  0.00     0.059 A 
ATOM     84  F   UNL A   1      43.401  23.143  29.214  1.00  0.00    -0.206 F 
ATOM     85  C   UNL A   1      42.598  20.910  26.489  1.00  0.00     0.060 A 
BRANCH  85  86
ATOM     86  S   UNL A   1      42.215  19.169  26.199  1.00  0.00     0.124 S 
ATOM     87  O   UNL A   1      42.455  18.590  27.516  1.00  0.00    -0.237 OA
ATOM     88  O   UNL A   1      40.819  19.231  25.775  1.00  0.00    -0.237 OA
ATOM     89  O   UNL A   1      43.161  18.785  25.157  1.00  0.00    -0.744 OA
ENDBRANCH  85  86
ENDBRANCH  53  78
BRANCH  65  90
ATOM     90  C   UNL A   1      49.643  26.532  26.475  1.00  0.00     0.058 A 
ATOM     91  C   UNL A   1      50.453  25.864  27.406  1.00  0.00     0.135 A 
ATOM     92  C   UNL A   1      50.122  26.663  25.162  1.00  0.00     0.135 A 
ATOM     93  F   UNL A   1      50.044  25.721  28.677  1.00  0.00    -0.206 F 
ATOM     94  C   UNL A   1      51.703  25.366  27.056  1.00  0.00     0.059 A 
ATOM     95  C   UNL A   1      51.360  26.153  24.783  1.00  0.00     0.059 A 
ATOM     96  F   UNL A   1      49.384  27.289  24.232  1.00  0.00    -0.206 F 
ATOM     97  C   UNL A   1      52.150  25.518  25.741  1.00  0.00     0.060 A 
BRANCH  97  98
ATOM     98  S   UNL A   1      53.769  24.853  25.296  1.00  0.00     0.124 S 
ATOM     99  O   UNL A   1      54.563  25.209  26.466  1.00  0.00    -0.237 OA
ATOM    100  O   UNL A   1      53.488  23.431  25.129  1.00  0.00    -0.237 OA
ATOM    101  O   UNL A   1      54.103  25.569  24.069  1.00  0.00    -0.744 OA
ENDBRANCH  97  98
ENDBRANCH  65  90
ENDBRANCH  39  40
ENDBRANCH  32  34
ENDBRANCH  31  32
ENDBRANCH  30  31
ENDBRANCH  29  30
ENDBRANCH   1  29
TORSDOF 20
ENDMDL
MODEL 2
REMARK VINA RESULT:     -11.5      0.634      8.013
REMARK SMILES O=C(COc1ccc(Br)cc1/C=C1\C(=O)Nc2ccc(Br)cc21)OCCOCCOC(=O)c1ccc(-c2c3nc(c(-c4c(F)cc(S(=O)(=O)[O-])cc4F)c4ccc([nH]4)c(-c4c(F)cc(S(=O)(=O)[O-])cc4F)c4nc(c(-c5c(F)cc(S(=O)(=O)[O-])cc5F)c5ccc2[nH]5)C=C4)C=C3)cc1
REMARK SMILES IDX 27 1 26 2 25 3 24 4 2 5 1 6 3 7 4 8 5 9 6 10 11 11 7 12
REMARK SMILES IDX 10 13 8 14 9 15 12 16 13 17 14 18 23 19 15 20 16 21 17 22
REMARK SMILES IDX 22 23 18 25 20 26 19 27 21 28 28 29 29 30 30 31 31 32 32 33
REMARK SMILES IDX 33 34 34 35 98 36 35 37 97 38 36 39 37 40 38 41 91 42 39 43
REMARK SMILES IDX 96 44 90 45 92 46 40 47 95 48 89 49 88 50 41 52 75 53 54 54
REMARK SMILES IDX 74 55 55 56 58 57 73 58 93 59 56 60 57 61 72 63 94 64 59 65
REMARK SMILES IDX 42 66 43 67 52 68 44 69 45 70 51 71 53 72 46 73 47 74 48 75
REMARK SMILES IDX 49 76 50 77 76 78 77 79 86 80 78 81 79 82 85 83 87 84 80 85
REMARK SMILES IDX 81 86 82 87 83 88 84 89 60 90 61 91 70 92 62 93 63 94 69 95
REMARK SMILES IDX 71 96 64 97 65 98 66 99 67 100 68 101
REMARK H PARENT 16 24 92 51 58 62
REMARK Flexibility Score: inf
ROOT
ATOM      1  O   UNL A   1      34.417  31.181  27.605  1.00  0.00    -0.374 OA
ENDROOT
BRANCH   1   2
ATOM      2  C   UNL A   1      33.143  30.588  27.349  1.00  0.00     0.202 C 
BRANCH   2   3
ATOM      3  C   UNL A   1      33.121  29.676  26.128  1.00  0.00     0.261 C 
BRANCH   3   4
ATOM      4  O   UNL A   1      33.383  28.314  26.505  1.00  0.00    -0.461 OA
BRANCH   4   5
ATOM      5  C   UNL A   1      33.708  27.373  25.582  1.00  0.00     0.344 C 
ATOM      6  O   UNL A   1      33.894  26.206  25.923  1.00  0.00    -0.248 OA
BRANCH   5   7
ATOM      7  C   UNL A   1      33.803  27.808  24.116  1.00  0.00     0.351 C 
BRANCH   7   8
ATOM      8  O   UNL A   1      33.156  27.021  23.107  1.00  0.00    -0.481 OA
BRANCH   8   9
ATOM      9  C   UNL A   1      31.844  27.402  22.945  1.00  0.00     0.127 A 
ATOM     10  C   UNL A   1      31.582  28.698  22.466  1.00  0.00     0.048 A 
ATOM     11  C   UNL A   1      30.800  26.508  23.267  1.00  0.00     0.018 A 
ATOM     12  C   UNL A   1      30.295  29.211  22.481  1.00  0.00     0.019 A 
ATOM     13  C   UNL A   1      29.514  27.067  23.267  1.00  0.00     0.027 A 
ATOM     14  C   UNL A   1      29.269  28.400  22.924  1.00  0.00     0.018 A 
ATOM     15  Br  UNL A   1      27.517  29.096  23.073  1.00  0.00    -0.051 Br
BRANCH  11  16
ATOM     16  C   UNL A   1      31.086  25.076  23.598  1.00  0.00     0.026 C 
ATOM     17  C   UNL A   1      31.048  24.404  24.769  1.00  0.00     0.050 C 
ATOM     18  C   UNL A   1      30.739  24.932  26.146  1.00  0.00     0.256 C 
ATOM     19  C   UNL A   1      31.739  23.119  25.010  1.00  0.00     0.012 A 
ATOM     20  O   UNL A   1      29.815  25.616  26.533  1.00  0.00    -0.269 OA
ATOM     21  N   UNL A   1      31.654  24.307  26.970  1.00  0.00    -0.321 N 
ATOM     22  C   UNL A   1      32.212  23.212  26.328  1.00  0.00     0.049 A 
ATOM     23  C   UNL A   1      31.898  21.935  24.311  1.00  0.00     0.026 A 
ATOM     24  H   UNL A   1      31.878  24.598  27.883  1.00  0.00     0.170 HD
ATOM     25  C   UNL A   1      32.983  22.245  26.934  1.00  0.00     0.028 A 
ATOM     26  C   UNL A   1      32.603  20.900  24.948  1.00  0.00     0.018 A 
ATOM     27  C   UNL A   1      33.183  21.066  26.223  1.00  0.00     0.018 A 
ATOM     28  Br  UNL A   1      32.722  19.198  24.125  1.00  0.00    -0.051 Br
ENDBRANCH  11  16
ENDBRANCH   8   9
ENDBRANCH   7   8
ENDBRANCH   5   7
ENDBRANCH   4   5
ENDBRANCH   3   4
ENDBRANCH   2   3
ENDBRANCH   1   2
BRANCH   1  29
ATOM     29  C   UNL A   1      34.413  32.194  28.626  1.00  0.00     0.202 C 
BRANCH  29  30
ATOM     30  C   UNL A   1      35.484  32.012  29.712  1.00  0.00     0.261 C 
BRANCH  30  31
ATOM     31  O   UNL A   1      36.086  30.705  29.613  1.00  0.00    -0.460 OA
BRANCH  31  32
ATOM     32  C   UNL A   1      36.752  30.267  30.710  1.00  0.00     0.338 C 
ATOM     33  O   UNL A   1      36.264  29.921  31.773  1.00  0.00    -0.246 OA
BRANCH  32  34
ATOM     34  C   UNL A   1      38.166  30.022  30.339  1.00  0.00     0.060 A 
ATOM     35  C   UNL A   1      39.087  29.493  31.246  1.00  0.00     0.016 A 
ATOM     36  C   UNL A   1      38.570  30.365  29.040  1.00  0.00     0.016 A 
ATOM     37  C   UNL A   1      40.406  29.275  30.838  1.00  0.00     0.010 A 
ATOM     38  C   UNL A   1      39.888  30.154  28.637  1.00  0.00     0.010 A 
ATOM     39  C   UNL A   1      40.809  29.587  29.527  1.00  0.00    -0.014 A 
BRANCH  39  40
ATOM     40  C   UNL A   1      42.146  29.169  29.043  1.00  0.00     0.031 A 
ATOM     41  C   UNL A   1      42.421  27.766  28.601  1.00  0.00     0.074 A 
ATOM     42  C   UNL A   1      43.119  30.097  29.011  1.00  0.00     0.049 A 
ATOM     43  N   UNL A   1      43.511  27.273  28.072  1.00  0.00    -0.248 NA
ATOM     44  C   UNL A   1      41.338  26.790  28.779  1.00  0.00     0.031 C 
ATOM     45  C   UNL A   1      42.960  31.489  29.439  1.00  0.00     0.029 A 
ATOM     46  N   UNL A   1      44.420  30.021  28.591  1.00  0.00    -0.354 N 
ATOM     47  C   UNL A   1      43.239  25.936  27.816  1.00  0.00     0.074 A 
ATOM     48  C   UNL A   1      41.897  25.683  28.305  1.00  0.00     0.031 C 
ATOM     49  C   UNL A   1      44.108  32.146  29.221  1.00  0.00     0.029 A 
ATOM     50  C   UNL A   1      45.086  31.220  28.659  1.00  0.00     0.049 A 
ATOM     51  H   UNL A   1      44.837  29.188  28.271  1.00  0.00     0.167 HD
ATOM     52  C   UNL A   1      44.029  25.015  27.211  1.00  0.00     0.037 A 
ATOM     53  C   UNL A   1      46.340  31.544  28.293  1.00  0.00     0.037 A 
ATOM     54  C   UNL A   1      45.379  25.267  26.771  1.00  0.00     0.049 A 
ATOM     55  C   UNL A   1      47.219  30.490  27.685  1.00  0.00     0.074 A 
ATOM     56  C   UNL A   1      46.264  24.399  26.154  1.00  0.00     0.029 A 
ATOM     57  N   UNL A   1      46.047  26.477  26.915  1.00  0.00    -0.354 N 
ATOM     58  N   UNL A   1      46.936  29.237  27.416  1.00  0.00    -0.248 NA
ATOM     59  C   UNL A   1      48.585  30.893  27.329  1.00  0.00     0.031 C 
ATOM     60  C   UNL A   1      47.478  25.073  25.961  1.00  0.00     0.029 A 
ATOM     61  C   UNL A   1      47.338  26.373  26.419  1.00  0.00     0.049 A 
ATOM     62  H   UNL A   1      45.660  27.291  27.311  1.00  0.00     0.167 HD
ATOM     63  C   UNL A   1      48.085  28.703  26.846  1.00  0.00     0.074 A 
ATOM     64  C   UNL A   1      49.061  29.775  26.798  1.00  0.00     0.031 C 
ATOM     65  C   UNL A   1      48.308  27.441  26.402  1.00  0.00     0.037 A 
BRANCH  52  66
ATOM     66  C   UNL A   1      43.441  23.647  26.994  1.00  0.00     0.058 A 
ATOM     67  C   UNL A   1      43.342  22.723  28.048  1.00  0.00     0.135 A 
ATOM     68  C   UNL A   1      42.968  23.252  25.733  1.00  0.00     0.135 A 
ATOM     69  F   UNL A   1      43.789  23.045  29.272  1.00  0.00    -0.206 F 
ATOM     70  C   UNL A   1      42.835  21.443  27.850  1.00  0.00     0.059 A 
ATOM     71  C   UNL A   1      42.434  21.983  25.517  1.00  0.00     0.059 A 
ATOM     72  F   UNL A   1      43.034  24.096  24.691  1.00  0.00    -0.206 F 
ATOM     73  C   UNL A   1      42.392  21.079  26.578  1.00  0.00     0.060 A 
BRANCH  73  74
ATOM     74  S   UNL A   1      41.777  19.400  26.328  1.00  0.00     0.124 S 
ATOM     75  O   UNL A   1      42.525  18.994  25.142  1.00  0.00    -0.237 OA
ATOM     76  O   UNL A   1      42.155  18.740  27.573  1.00  0.00    -0.237 OA
ATOM     77  O   UNL A   1      40.343  19.589  26.131  1.00  0.00    -0.744 OA
ENDBRANCH  73  74
ENDBRANCH  52  66
BRANCH  53  78
ATOM     78  C   UNL A   1      46.794  32.948  28.435  1.00  0.00     0.058 A 
ATOM     79  C   UNL A   1      47.437  33.372  29.607  1.00  0.00     0.135 A 
ATOM     80  C   UNL A   1      46.681  33.865  27.378  1.00  0.00     0.135 A 
ATOM     81  F   UNL A   1      47.565  32.530  30.644  1.00  0.00    -0.206 F 
ATOM     82  C   UNL A   1      47.965  34.653  29.723  1.00  0.00     0.059 A 
ATOM     83  C   UNL A   1      47.219  35.144  27.463  1.00  0.00     0.059 A 
ATOM     84  F   UNL A   1      46.089  33.497  26.232  1.00  0.00    -0.206 F 
ATOM     85  C   UNL A   1      47.863  35.527  28.639  1.00  0.00     0.060 A 
BRANCH  85  86
ATOM     86  S   UNL A   1      48.647  37.149  28.765  1.00  0.00     0.124 S 
ATOM     87  O   UNL A   1      49.906  36.819  29.422  1.00  0.00    -0.237 OA
ATOM     88  O   UNL A   1      48.744  37.550  27.365  1.00  0.00    -0.237 OA
ATOM     89  O   UNL A   1      47.699  37.920  29.565  1.00  0.00    -0.744 OA
ENDBRANCH  85  86
ENDBRANCH  53  78
BRANCH  65  90
ATOM     90  C   UNL A   1      49.669  27.152  25.831  1.00  0.00     0.058 A 
ATOM     91  C   UNL A   1      50.730  26.730  26.647  1.00  0.00     0.135 A 
ATOM     92  C   UNL A   1      49.909  27.277  24.454  1.00  0.00     0.135 A 
ATOM     93  F   UNL A   1      50.555  26.604  27.972  1.00  0.00    -0.206 F 
ATOM     94  C   UNL A   1      51.990  26.466  26.121  1.00  0.00     0.059 A 
ATOM     95  C   UNL A   1      51.155  26.996  23.902  1.00  0.00     0.059 A 
ATOM     96  F   UNL A   1      48.926  27.672  23.629  1.00  0.00    -0.206 F 
ATOM     97  C   UNL A   1      52.194  26.605  24.746  1.00  0.00     0.060 A 
BRANCH  97  98
ATOM     98  S   UNL A   1      53.831  26.243  24.074  1.00  0.00     0.124 S 
ATOM     99  O   UNL A   1      54.598  27.395  24.537  1.00  0.00    -0.237 OA
ATOM    100  O   UNL A   1      54.156  24.970  24.707  1.00  0.00    -0.237 OA
ATOM    101  O   UNL A   1      53.600  26.181  22.635  1.00  0.00    -0.744 OA
ENDBRANCH  97  98
ENDBRANCH  65  90
ENDBRANCH  39  40
ENDBRANCH  32  34
ENDBRANCH  31  32
ENDBRANCH  30  31
ENDBRANCH  29  30
ENDBRANCH   1  29
TORSDOF 20
ENDMDL
MODEL 3
REMARK VINA RESULT:     -11.5      1.718      2.397
REMARK SMILES O=C(COc1ccc(Br)cc1/C=C1\C(=O)Nc2ccc(Br)cc21)OCCOCCOC(=O)c1ccc(-c2c3nc(c(-c4c(F)cc(S(=O)(=O)[O-])cc4F)c4ccc([nH]4)c(-c4c(F)cc(S(=O)(=O)[O-])cc4F)c4nc(c(-c5c(F)cc(S(=O)(=O)[O-])cc5F)c5ccc2[nH]5)C=C4)C=C3)cc1
REMARK SMILES IDX 27 1 26 2 25 3 24 4 2 5 1 6 3 7 4 8 5 9 6 10 11 11 7 12
REMARK SMILES IDX 10 13 8 14 9 15 12 16 13 17 14 18 23 19 15 20 16 21 17 22
REMARK SMILES IDX 22 23 18 25 20 26 19 27 21 28 28 29 29 30 30 31 31 32 32 33
REMARK SMILES IDX 33 34 34 35 98 36 35 37 97 38 36 39 37 40 38 41 91 42 39 43
REMARK SMILES IDX 96 44 90 45 92 46 40 47 95 48 89 49 88 50 41 52 75 53 54 54
REMARK SMILES IDX 74 55 55 56 58 57 73 58 93 59 56 60 57 61 72 63 94 64 59 65
REMARK SMILES IDX 42 66 43 67 52 68 44 69 45 70 51 71 53 72 46 73 47 74 48 75
REMARK SMILES IDX 49 76 50 77 76 78 77 79 86 80 78 81 79 82 85 83 87 84 80 85
REMARK SMILES IDX 81 86 82 87 83 88 84 89 60 90 61 91 70 92 62 93 63 94 69 95
REMARK SMILES IDX 71 96 64 97 65 98 66 99 67 100 68 101
REMARK H PARENT 16 24 92 51 58 62
REMARK Flexibility Score: inf
ROOT
ATOM      1  O   UNL A   1      34.042  33.639  29.918  1.00  0.00    -0.374 OA
ENDROOT
BRANCH   1   2
ATOM      2  C   UNL A   1      34.599  33.480  28.612  1.00  0.00     0.202 C 
BRANCH   2   3
ATOM      3  C   UNL A   1      34.095  32.247  27.872  1.00  0.00     0.261 C 
BRANCH   3   4
ATOM      4  O   UNL A   1      34.733  31.059  28.368  1.00  0.00    -0.461 OA
BRANCH   4   5
ATOM      5  C   UNL A   1      34.974  29.994  27.562  1.00  0.00     0.344 C 
ATOM      6  O   UNL A   1      36.095  29.489  27.519  1.00  0.00    -0.248 OA
BRANCH   5   7
ATOM      7  C   UNL A   1      33.806  29.434  26.744  1.00  0.00     0.351 C 
BRANCH   7   8
ATOM      8  O   UNL A   1      34.070  28.803  25.485  1.00  0.00    -0.481 OA
BRANCH   8   9
ATOM      9  C   UNL A   1      32.932  28.228  24.968  1.00  0.00     0.127 A 
ATOM     10  C   UNL A   1      31.854  29.070  24.638  1.00  0.00     0.048 A 
ATOM     11  C   UNL A   1      32.859  26.830  24.791  1.00  0.00     0.018 A 
ATOM     12  C   UNL A   1      30.615  28.538  24.315  1.00  0.00     0.019 A 
ATOM     13  C   UNL A   1      31.590  26.335  24.461  1.00  0.00     0.027 A 
ATOM     14  C   UNL A   1      30.480  27.165  24.270  1.00  0.00     0.018 A 
ATOM     15  Br  UNL A   1      28.782  26.397  23.950  1.00  0.00    -0.051 Br
BRANCH  11  16
ATOM     16  C   UNL A   1      34.069  25.966  24.969  1.00  0.00     0.026 C 
ATOM     17  C   UNL A   1      34.541  24.927  24.246  1.00  0.00     0.050 C 
ATOM     18  C   UNL A   1      33.936  24.279  23.027  1.00  0.00     0.256 C 
ATOM     19  C   UNL A   1      35.502  23.929  24.760  1.00  0.00     0.012 A 
ATOM     20  O   UNL A   1      33.519  24.776  22.002  1.00  0.00    -0.269 OA
ATOM     21  N   UNL A   1      34.122  22.926  23.227  1.00  0.00    -0.321 N 
ATOM     22  C   UNL A   1      35.075  22.709  24.210  1.00  0.00     0.049 A 
ATOM     23  C   UNL A   1      36.669  23.969  25.503  1.00  0.00     0.026 A 
ATOM     24  H   UNL A   1      33.645  22.216  22.740  1.00  0.00     0.170 HD
ATOM     25  C   UNL A   1      35.659  21.495  24.496  1.00  0.00     0.028 A 
ATOM     26  C   UNL A   1      37.332  22.751  25.728  1.00  0.00     0.018 A 
ATOM     27  C   UNL A   1      36.811  21.522  25.276  1.00  0.00     0.018 A 
ATOM     28  Br  UNL A   1      39.018  22.745  26.593  1.00  0.00    -0.051 Br
ENDBRANCH  11  16
ENDBRANCH   8   9
ENDBRANCH   7   8
ENDBRANCH   5   7
ENDBRANCH   4   5
ENDBRANCH   3   4
ENDBRANCH   2   3
ENDBRANCH   1   2
BRANCH   1  29
ATOM     29  C   UNL A   1      35.012  33.732  30.977  1.00  0.00     0.202 C 
BRANCH  29  30
ATOM     30  C   UNL A   1      36.457  33.440  30.548  1.00  0.00     0.261 C 
BRANCH  30  31
ATOM     31  O   UNL A   1      37.098  32.561  31.496  1.00  0.00    -0.460 OA
BRANCH  31  32
ATOM     32  C   UNL A   1      36.918  31.233  31.297  1.00  0.00     0.338 C 
ATOM     33  O   UNL A   1      35.870  30.615  31.382  1.00  0.00    -0.246 OA
BRANCH  32  34
ATOM     34  C   UNL A   1      38.153  30.671  30.701  1.00  0.00     0.060 A 
ATOM     35  C   UNL A   1      38.358  30.639  29.320  1.00  0.00     0.016 A 
ATOM     36  C   UNL A   1      39.116  30.140  31.571  1.00  0.00     0.016 A 
ATOM     37  C   UNL A   1      39.546  30.105  28.813  1.00  0.00     0.010 A 
ATOM     38  C   UNL A   1      40.298  29.600  31.064  1.00  0.00     0.010 A 
ATOM     39  C   UNL A   1      40.530  29.600  29.683  1.00  0.00    -0.014 A 
BRANCH  39  40
ATOM     40  C   UNL A   1      41.863  29.224  29.156  1.00  0.00     0.031 A 
ATOM     41  C   UNL A   1      43.013  30.180  29.164  1.00  0.00     0.074 A 
ATOM     42  C   UNL A   1      42.013  27.981  28.662  1.00  0.00     0.049 A 
ATOM     43  N   UNL A   1      44.257  29.969  28.820  1.00  0.00    -0.248 NA
ATOM     44  C   UNL A   1      42.732  31.551  29.611  1.00  0.00     0.031 C 
ATOM     45  C   UNL A   1      40.949  26.977  28.589  1.00  0.00     0.029 A 
ATOM     46  N   UNL A   1      43.112  27.346  28.147  1.00  0.00    -0.354 N 
ATOM     47  C   UNL A   1      44.923  31.166  29.043  1.00  0.00     0.074 A 
ATOM     48  C   UNL A   1      43.927  32.118  29.496  1.00  0.00     0.031 C 
ATOM     49  C   UNL A   1      41.457  25.838  28.098  1.00  0.00     0.029 A 
ATOM     50  C   UNL A   1      42.873  26.037  27.802  1.00  0.00     0.049 A 
ATOM     51  H   UNL A   1      43.986  27.784  28.035  1.00  0.00     0.167 HD
ATOM     52  C   UNL A   1      46.244  31.436  28.901  1.00  0.00     0.037 A 
ATOM     53  C   UNL A   1      43.706  25.097  27.320  1.00  0.00     0.037 A 
ATOM     54  C   UNL A   1      47.217  30.494  28.406  1.00  0.00     0.049 A 
ATOM     55  C   UNL A   1      45.152  25.439  27.109  1.00  0.00     0.074 A 
ATOM     56  C   UNL A   1      48.577  30.672  28.219  1.00  0.00     0.029 A 
ATOM     57  N   UNL A   1      46.929  29.195  28.003  1.00  0.00    -0.354 N 
ATOM     58  N   UNL A   1      45.775  26.566  27.357  1.00  0.00    -0.248 NA
ATOM     59  C   UNL A   1      46.007  24.382  26.556  1.00  0.00     0.031 C 
ATOM     60  C   UNL A   1      49.103  29.495  27.668  1.00  0.00     0.029 A 
ATOM     61  C   UNL A   1      48.080  28.569  27.549  1.00  0.00     0.049 A 
ATOM     62  H   UNL A   1      46.037  28.780  28.036  1.00  0.00     0.167 HD
ATOM     63  C   UNL A   1      47.101  26.352  27.002  1.00  0.00     0.074 A 
ATOM     64  C   UNL A   1      47.190  24.982  26.536  1.00  0.00     0.031 C 
ATOM     65  C   UNL A   1      48.148  27.212  27.061  1.00  0.00     0.037 A 
BRANCH  52  66
ATOM     66  C   UNL A   1      46.706  32.814  29.292  1.00  0.00     0.058 A 
ATOM     67  C   UNL A   1      47.131  33.094  30.602  1.00  0.00     0.135 A 
ATOM     68  C   UNL A   1      46.732  33.863  28.359  1.00  0.00     0.135 A 
ATOM     69  F   UNL A   1      47.117  32.131  31.537  1.00  0.00    -0.206 F 
ATOM     70  C   UNL A   1      47.525  34.373  30.983  1.00  0.00     0.059 A 
ATOM     71  C   UNL A   1      47.145  35.145  28.712  1.00  0.00     0.059 A 
ATOM     72  F   UNL A   1      46.341  33.650  27.093  1.00  0.00    -0.206 F 
ATOM     73  C   UNL A   1      47.519  35.394  30.033  1.00  0.00     0.060 A 
BRANCH  73  74
ATOM     74  S   UNL A   1      47.991  37.058  30.554  1.00  0.00     0.124 S 
ATOM     75  O   UNL A   1      46.749  37.791  30.331  1.00  0.00    -0.237 OA
ATOM     76  O   UNL A   1      48.366  36.854  31.949  1.00  0.00    -0.237 OA
ATOM     77  O   UNL A   1      49.090  37.397  29.655  1.00  0.00    -0.744 OA
ENDBRANCH  73  74
ENDBRANCH  52  66
BRANCH  53  78
ATOM     78  C   UNL A   1      43.186  23.729  27.075  1.00  0.00     0.058 A 
ATOM     79  C   UNL A   1      42.861  23.314  25.776  1.00  0.00     0.135 A 
ATOM     80  C   UNL A   1      43.091  22.787  28.111  1.00  0.00     0.135 A 
ATOM     81  F   UNL A   1      42.935  24.182  24.756  1.00  0.00    -0.206 F 
ATOM     82  C   UNL A   1      42.474  22.005  25.509  1.00  0.00     0.059 A 
ATOM     83  C   UNL A   1      42.725  21.469  27.865  1.00  0.00     0.059 A 
ATOM     84  F   UNL A   1      43.409  23.136  29.367  1.00  0.00    -0.206 F 
ATOM     85  C   UNL A   1      42.422  21.087  26.558  1.00  0.00     0.060 A 
BRANCH  85  86
ATOM     86  S   UNL A   1      42.021  19.367  26.178  1.00  0.00     0.124 S 
ATOM     87  O   UNL A   1      42.897  19.103  25.044  1.00  0.00    -0.237 OA
ATOM     88  O   UNL A   1      42.369  18.692  27.425  1.00  0.00    -0.237 OA
ATOM     89  O   UNL A   1      40.593  19.414  25.877  1.00  0.00    -0.744 OA
ENDBRANCH  85  86
ENDBRANCH  53  78
BRANCH  65  90
ATOM     90  C   UNL A   1      49.482  26.692  26.599  1.00  0.00     0.058 A 
ATOM     91  C   UNL A   1      50.346  26.016  27.474  1.00  0.00     0.135 A 
ATOM     92  C   UNL A   1      49.888  26.850  25.265  1.00  0.00     0.135 A 
ATOM     93  F   UNL A   1      50.008  25.846  28.762  1.00  0.00    -0.206 F 
ATOM     94  C   UNL A   1      51.581  25.538  27.049  1.00  0.00     0.059 A 
ATOM     95  C   UNL A   1      51.109  26.360  24.813  1.00  0.00     0.059 A 
ATOM     96  F   UNL A   1      49.096  27.484  24.387  1.00  0.00    -0.206 F 
ATOM     97  C   UNL A   1      51.955  25.716  25.715  1.00  0.00     0.060 A 
BRANCH  97  98
ATOM     98  S   UNL A   1      53.554  25.076  25.173  1.00  0.00     0.124 S 
ATOM     99  O   UNL A   1      54.447  25.616  26.193  1.00  0.00    -0.237 OA
ATOM    100  O   UNL A   1      53.344  23.633  25.214  1.00  0.00    -0.237 OA
ATOM    101  O   UNL A   1      53.711  25.643  23.838  1.00  0.00    -0.744 OA
ENDBRANCH  97  98
ENDBRANCH  65  90
ENDBRANCH  39  40
ENDBRANCH  32  34
ENDBRANCH  31  32
ENDBRANCH  30  31
ENDBRANCH  29  30
ENDBRANCH   1  29
TORSDOF 20
ENDMDL
