MODEL 1
REMARK VINA RESULT:     -10.9      0.000      0.000
REMARK SMILES COc1cc(OC(F)(F)F)cc2c1O[C@@H](C(F)(F)F)C(C(=O)OCCOCCOC(=O)c1ccc(-c3c4nc(c(-c5c(F)cc(S(=O)(=O)[O-])cc5F)c5ccc([nH]5)c(-c5c(F)cc(S(=O)(=O)[O-])cc5F)c5nc(c(-c6c(F)cc(S(=O)(=O)[O-])cc6F)c6ccc3[nH]6)C=C5)C=C4)cc1)=C2
REMARK SMILES IDX 27 1 26 2 25 3 24 4 23 5 21 6 22 7 20 8 3 9 4 10 13 11 5 12
REMARK SMILES IDX 12 13 14 14 11 15 98 16 15 17 2 18 1 19 6 20 7 21 8 22 9 23
REMARK SMILES IDX 10 24 16 25 17 26 18 27 19 28 28 29 29 30 30 31 31 32 32 33
REMARK SMILES IDX 33 34 97 35 34 36 96 37 35 38 36 39 37 40 90 41 38 42 95 43
REMARK SMILES IDX 89 44 91 45 39 46 94 47 88 48 87 49 40 51 74 52 53 53 73 54
REMARK SMILES IDX 54 55 57 56 72 57 92 58 55 59 56 60 71 62 93 63 58 64 41 65
REMARK SMILES IDX 42 66 51 67 43 68 44 69 50 70 52 71 45 72 46 73 47 74 48 75
REMARK SMILES IDX 49 76 75 77 76 78 85 79 77 80 78 81 84 82 86 83 79 84 80 85
REMARK SMILES IDX 81 86 82 87 83 88 59 89 60 90 69 91 61 92 62 93 68 94 70 95
REMARK SMILES IDX 63 96 64 97 65 98 66 99 67 100
REMARK H PARENT 91 50 57 61
REMARK Flexibility Score: inf
ROOT
ATOM      1  C   UNL A   1      35.094  31.587  27.814  1.00  0.00     0.202 C 
ENDROOT
BRANCH   1   2
ATOM      2  O   UNL A   1      34.364  30.510  27.234  1.00  0.00    -0.374 OA
BRANCH   2   3
ATOM      3  C   UNL A   1      32.941  30.586  27.217  1.00  0.00     0.202 C 
BRANCH   3   4
ATOM      4  C   UNL A   1      32.160  29.281  27.026  1.00  0.00     0.261 C 
BRANCH   4   5
ATOM      5  O   UNL A   1      32.974  28.241  26.463  1.00  0.00    -0.460 OA
BRANCH   5   6
ATOM      6  C   UNL A   1      32.925  28.156  25.114  1.00  0.00     0.338 C 
ATOM      7  O   UNL A   1      32.909  29.089  24.326  1.00  0.00    -0.246 OA
BRANCH   6   8
ATOM      8  C   UNL A   1      33.038  26.758  24.670  1.00  0.00     0.087 C 
ATOM      9  C   UNL A   1      33.009  22.598  24.369  1.00  0.00     0.165 A 
ATOM     10  C   UNL A   1      34.206  21.903  24.183  1.00  0.00     0.097 A 
ATOM     11  C   UNL A   1      33.019  23.993  24.456  1.00  0.00     0.170 A 
ATOM     12  C   UNL A   1      35.409  22.597  24.042  1.00  0.00     0.134 A 
ATOM     13  C   UNL A   1      34.224  24.703  24.333  1.00  0.00     0.025 A 
ATOM     14  O   UNL A   1      31.849  24.634  24.775  1.00  0.00    -0.471 OA
ATOM     15  C   UNL A   1      35.411  23.999  24.099  1.00  0.00     0.059 A 
ATOM     16  C   UNL A   1      34.232  26.146  24.599  1.00  0.00     0.027 C 
ATOM     17  C   UNL A   1      31.780  26.004  24.310  1.00  0.00     0.316 C 
BRANCH   9  18
ATOM     18  O   UNL A   1      31.892  21.825  24.559  1.00  0.00    -0.493 OA
ATOM     19  C   UNL A   1      32.174  20.564  25.163  1.00  0.00     0.278 C 
ENDBRANCH   9  18
BRANCH  12  20
ATOM     20  O   UNL A   1      36.642  22.033  23.865  1.00  0.00    -0.406 OA
BRANCH  20  21
ATOM     21  C   UNL A   1      37.257  21.433  24.994  1.00  0.00     0.573 C 
ATOM     22  F   UNL A   1      37.377  20.096  24.837  1.00  0.00    -0.132 F 
ATOM     23  F   UNL A   1      38.476  21.968  25.222  1.00  0.00    -0.132 F 
ATOM     24  F   UNL A   1      36.491  21.660  26.084  1.00  0.00    -0.132 F 
ENDBRANCH  20  21
ENDBRANCH  12  20
BRANCH  17  25
ATOM     25  C   UNL A   1      30.410  26.579  24.706  1.00  0.00     0.430 C 
ATOM     26  F   UNL A   1      29.400  25.777  24.297  1.00  0.00    -0.167 F 
ATOM     27  F   UNL A   1      30.312  26.626  26.065  1.00  0.00    -0.167 F 
ATOM     28  F   UNL A   1      30.195  27.830  24.258  1.00  0.00    -0.167 F 
ENDBRANCH  17  25
ENDBRANCH   6   8
ENDBRANCH   5   6
ENDBRANCH   4   5
ENDBRANCH   3   4
ENDBRANCH   2   3
ENDBRANCH   1   2
BRANCH   1  29
ATOM     29  C   UNL A   1      34.872  31.906  29.298  1.00  0.00     0.261 C 
BRANCH  29  30
ATOM     30  O   UNL A   1      36.090  31.906  30.060  1.00  0.00    -0.460 OA
BRANCH  30  31
ATOM     31  C   UNL A   1      36.500  30.681  30.469  1.00  0.00     0.338 C 
ATOM     32  O   UNL A   1      35.808  29.788  30.939  1.00  0.00    -0.246 OA
BRANCH  31  33
ATOM     33  C   UNL A   1      37.909  30.482  30.092  1.00  0.00     0.060 A 
ATOM     34  C   UNL A   1      38.200  30.205  28.749  1.00  0.00     0.016 A 
ATOM     35  C   UNL A   1      38.920  30.497  31.054  1.00  0.00     0.016 A 
ATOM     36  C   UNL A   1      39.506  29.908  28.368  1.00  0.00     0.010 A 
ATOM     37  C   UNL A   1      40.226  30.188  30.670  1.00  0.00     0.010 A 
ATOM     38  C   UNL A   1      40.519  29.863  29.333  1.00  0.00    -0.014 A 
BRANCH  38  39
ATOM     39  C   UNL A   1      41.860  29.341  28.986  1.00  0.00     0.031 A 
ATOM     40  C   UNL A   1      43.014  30.299  28.913  1.00  0.00     0.074 A 
ATOM     41  C   UNL A   1      42.037  28.037  28.712  1.00  0.00     0.049 A 
ATOM     42  N   UNL A   1      44.240  30.095  28.507  1.00  0.00    -0.248 NA
ATOM     43  C   UNL A   1      42.742  31.679  29.346  1.00  0.00     0.031 C 
ATOM     44  C   UNL A   1      40.999  27.011  28.784  1.00  0.00     0.029 A 
ATOM     45  N   UNL A   1      43.154  27.361  28.291  1.00  0.00    -0.354 N 
ATOM     46  C   UNL A   1      44.883  31.322  28.619  1.00  0.00     0.074 A 
ATOM     47  C   UNL A   1      43.902  32.271  29.101  1.00  0.00     0.031 C 
ATOM     48  C   UNL A   1      41.521  25.838  28.388  1.00  0.00     0.029 A 
ATOM     49  C   UNL A   1      42.915  26.041  27.999  1.00  0.00     0.049 A 
ATOM     50  H   UNL A   1      44.041  27.781  28.207  1.00  0.00     0.167 HD
ATOM     51  C   UNL A   1      46.175  31.626  28.349  1.00  0.00     0.037 A 
ATOM     52  C   UNL A   1      43.719  25.112  27.444  1.00  0.00     0.037 A 
ATOM     53  C   UNL A   1      47.136  30.673  27.858  1.00  0.00     0.049 A 
ATOM     54  C   UNL A   1      45.136  25.480  27.093  1.00  0.00     0.074 A 
ATOM     55  C   UNL A   1      48.475  30.870  27.565  1.00  0.00     0.029 A 
ATOM     56  N   UNL A   1      46.859  29.342  27.576  1.00  0.00    -0.354 N 
ATOM     57  N   UNL A   1      45.742  26.637  27.217  1.00  0.00    -0.248 NA
ATOM     58  C   UNL A   1      45.980  24.417  26.530  1.00  0.00     0.031 C 
ATOM     59  C   UNL A   1      48.991  29.674  27.055  1.00  0.00     0.029 A 
ATOM     60  C   UNL A   1      47.992  28.712  27.088  1.00  0.00     0.049 A 
ATOM     61  H   UNL A   1      45.984  28.909  27.704  1.00  0.00     0.167 HD
ATOM     62  C   UNL A   1      47.045  26.437  26.774  1.00  0.00     0.074 A 
ATOM     63  C   UNL A   1      47.140  25.044  26.385  1.00  0.00     0.031 C 
ATOM     64  C   UNL A   1      48.072  27.322  26.704  1.00  0.00     0.037 A 
BRANCH  51  65
ATOM     65  C   UNL A   1      46.601  33.056  28.542  1.00  0.00     0.058 A 
ATOM     66  C   UNL A   1      46.563  33.991  27.494  1.00  0.00     0.135 A 
ATOM     67  C   UNL A   1      47.071  33.497  29.790  1.00  0.00     0.135 A 
ATOM     68  F   UNL A   1      46.138  33.623  26.274  1.00  0.00    -0.206 F 
ATOM     69  C   UNL A   1      47.020  35.295  27.663  1.00  0.00     0.059 A 
ATOM     70  C   UNL A   1      47.503  34.806  29.991  1.00  0.00     0.059 A 
ATOM     71  F   UNL A   1      47.130  32.648  30.829  1.00  0.00    -0.206 F 
ATOM     72  C   UNL A   1      47.496  35.690  28.914  1.00  0.00     0.060 A 
BRANCH  72  73
ATOM     73  S   UNL A   1      48.125  37.371  29.108  1.00  0.00     0.124 S 
ATOM     74  O   UNL A   1      48.692  37.315  30.451  1.00  0.00    -0.237 OA
ATOM     75  O   UNL A   1      49.090  37.471  28.017  1.00  0.00    -0.237 OA
ATOM     76  O   UNL A   1      46.932  38.198  28.963  1.00  0.00    -0.744 OA
ENDBRANCH  72  73
ENDBRANCH  51  65
BRANCH  52  77
ATOM     77  C   UNL A   1      43.184  23.750  27.181  1.00  0.00     0.058 A 
ATOM     78  C   UNL A   1      42.782  23.365  25.895  1.00  0.00     0.135 A 
ATOM     79  C   UNL A   1      43.118  22.790  28.204  1.00  0.00     0.135 A 
ATOM     80  F   UNL A   1      42.817  24.250  24.888  1.00  0.00    -0.206 F 
ATOM     81  C   UNL A   1      42.338  22.073  25.628  1.00  0.00     0.059 A 
ATOM     82  C   UNL A   1      42.700  21.486  27.957  1.00  0.00     0.059 A 
ATOM     83  F   UNL A   1      43.503  23.107  29.450  1.00  0.00    -0.206 F 
ATOM     84  C   UNL A   1      42.312  21.138  26.664  1.00  0.00     0.060 A 
BRANCH  84  85
ATOM     85  S   UNL A   1      41.825  19.441  26.286  1.00  0.00     0.124 S 
ATOM     86  O   UNL A   1      40.389  19.584  26.082  1.00  0.00    -0.237 OA
ATOM     87  O   UNL A   1      42.616  19.158  25.091  1.00  0.00    -0.237 OA
ATOM     88  O   UNL A   1      42.224  18.703  27.480  1.00  0.00    -0.744 OA
ENDBRANCH  84  85
ENDBRANCH  52  77
BRANCH  64  89
ATOM     89  C   UNL A   1      49.402  26.809  26.224  1.00  0.00     0.058 A 
ATOM     90  C   UNL A   1      49.822  26.965  24.894  1.00  0.00     0.135 A 
ATOM     91  C   UNL A   1      50.296  26.208  27.126  1.00  0.00     0.135 A 
ATOM     92  F   UNL A   1      49.005  27.526  23.988  1.00  0.00    -0.206 F 
ATOM     93  C   UNL A   1      51.073  26.525  24.471  1.00  0.00     0.059 A 
ATOM     94  C   UNL A   1      51.562  25.787  26.732  1.00  0.00     0.059 A 
ATOM     95  F   UNL A   1      49.949  26.043  28.413  1.00  0.00    -0.206 F 
ATOM     96  C   UNL A   1      51.937  25.940  25.399  1.00  0.00     0.060 A 
BRANCH  96  97
ATOM     97  S   UNL A   1      53.573  25.409  24.846  1.00  0.00     0.124 S 
ATOM     98  O   UNL A   1      53.554  25.811  23.443  1.00  0.00    -0.237 OA
ATOM     99  O   UNL A   1      54.459  26.179  25.713  1.00  0.00    -0.237 OA
ATOM    100  O   UNL A   1      53.563  23.970  25.088  1.00  0.00    -0.744 OA
ENDBRANCH  96  97
ENDBRANCH  64  89
ENDBRANCH  38  39
ENDBRANCH  31  33
ENDBRANCH  30  31
ENDBRANCH  29  30
ENDBRANCH   1  29
TORSDOF 21
ENDMDL
MODEL 2
REMARK VINA RESULT:     -10.8      6.450     11.596
REMARK SMILES COc1cc(OC(F)(F)F)cc2c1O[C@@H](C(F)(F)F)C(C(=O)OCCOCCOC(=O)c1ccc(-c3c4nc(c(-c5c(F)cc(S(=O)(=O)[O-])cc5F)c5ccc([nH]5)c(-c5c(F)cc(S(=O)(=O)[O-])cc5F)c5nc(c(-c6c(F)cc(S(=O)(=O)[O-])cc6F)c6ccc3[nH]6)C=C5)C=C4)cc1)=C2
REMARK SMILES IDX 27 1 26 2 25 3 24 4 23 5 21 6 22 7 20 8 3 9 4 10 13 11 5 12
REMARK SMILES IDX 12 13 14 14 11 15 98 16 15 17 2 18 1 19 6 20 7 21 8 22 9 23
REMARK SMILES IDX 10 24 16 25 17 26 18 27 19 28 28 29 29 30 30 31 31 32 32 33
REMARK SMILES IDX 33 34 97 35 34 36 96 37 35 38 36 39 37 40 90 41 38 42 95 43
REMARK SMILES IDX 89 44 91 45 39 46 94 47 88 48 87 49 40 51 74 52 53 53 73 54
REMARK SMILES IDX 54 55 57 56 72 57 92 58 55 59 56 60 71 62 93 63 58 64 41 65
REMARK SMILES IDX 42 66 51 67 43 68 44 69 50 70 52 71 45 72 46 73 47 74 48 75
REMARK SMILES IDX 49 76 75 77 76 78 85 79 77 80 78 81 84 82 86 83 79 84 80 85
REMARK SMILES IDX 81 86 82 87 83 88 59 89 60 90 69 91 61 92 62 93 68 94 70 95
REMARK SMILES IDX 63 96 64 97 65 98 66 99 67 100
REMARK H PARENT 91 50 57 61
REMARK Flexibility Score: inf
ROOT
ATOM      1  C   UNL A   1      39.622  22.098  26.536  1.00  0.00     0.202 C 
ENDROOT
BRANCH   1   2
ATOM      2  O   UNL A   1      38.347  22.260  25.918  1.00  0.00    -0.374 OA
BRANCH   2   3
ATOM      3  C   UNL A   1      37.832  21.186  25.136  1.00  0.00     0.202 C 
BRANCH   3   4
ATOM      4  C   UNL A   1      36.310  21.035  25.051  1.00  0.00     0.261 C 
BRANCH   4   5
ATOM      5  O   UNL A   1      35.647  22.299  24.902  1.00  0.00    -0.460 OA
BRANCH   5   6
ATOM      6  C   UNL A   1      34.508  22.427  25.621  1.00  0.00     0.338 C 
ATOM      7  O   UNL A   1      34.113  21.674  26.498  1.00  0.00    -0.246 OA
BRANCH   6   8
ATOM      8  C   UNL A   1      33.834  23.699  25.319  1.00  0.00     0.087 C 
ATOM      9  C   UNL A   1      32.501  27.259  23.601  1.00  0.00     0.165 A 
ATOM     10  C   UNL A   1      32.754  28.477  24.236  1.00  0.00     0.097 A 
ATOM     11  C   UNL A   1      32.936  26.066  24.185  1.00  0.00     0.170 A 
ATOM     12  C   UNL A   1      33.403  28.508  25.471  1.00  0.00     0.134 A 
ATOM     13  C   UNL A   1      33.606  26.083  25.420  1.00  0.00     0.025 A 
ATOM     14  O   UNL A   1      32.794  24.902  23.473  1.00  0.00    -0.471 OA
ATOM     15  C   UNL A   1      33.811  27.305  26.069  1.00  0.00     0.059 A 
ATOM     16  C   UNL A   1      34.203  24.840  25.925  1.00  0.00     0.027 C 
ATOM     17  C   UNL A   1      32.726  23.711  24.294  1.00  0.00     0.316 C 
BRANCH   9  18
ATOM     18  O   UNL A   1      31.914  27.338  22.364  1.00  0.00    -0.493 OA
ATOM     19  C   UNL A   1      30.536  27.700  22.415  1.00  0.00     0.278 C 
ENDBRANCH   9  18
BRANCH  12  20
ATOM     20  O   UNL A   1      33.714  29.632  26.184  1.00  0.00    -0.406 OA
BRANCH  20  21
ATOM     21  C   UNL A   1      32.652  30.302  26.847  1.00  0.00     0.573 C 
ATOM     22  F   UNL A   1      33.117  31.149  27.791  1.00  0.00    -0.132 F 
ATOM     23  F   UNL A   1      31.890  30.988  25.967  1.00  0.00    -0.132 F 
ATOM     24  F   UNL A   1      31.867  29.386  27.455  1.00  0.00    -0.132 F 
ENDBRANCH  20  21
ENDBRANCH  12  20
BRANCH  17  25
ATOM     25  C   UNL A   1      32.532  22.498  23.369  1.00  0.00     0.430 C 
ATOM     26  F   UNL A   1      31.323  22.525  22.764  1.00  0.00    -0.167 F 
ATOM     27  F   UNL A   1      33.447  22.546  22.360  1.00  0.00    -0.167 F 
ATOM     28  F   UNL A   1      32.696  21.313  23.985  1.00  0.00    -0.167 F 
ENDBRANCH  17  25
ENDBRANCH   6   8
ENDBRANCH   5   6
ENDBRANCH   4   5
ENDBRANCH   3   4
ENDBRANCH   2   3
ENDBRANCH   1   2
BRANCH   1  29
ATOM     29  C   UNL A   1      40.488  23.343  26.763  1.00  0.00     0.261 C 
BRANCH  29  30
ATOM     30  O   UNL A   1      39.811  24.566  26.432  1.00  0.00    -0.460 OA
BRANCH  30  31
ATOM     31  C   UNL A   1      40.616  25.653  26.347  1.00  0.00     0.338 C 
ATOM     32  O   UNL A   1      41.106  26.133  25.334  1.00  0.00    -0.246 OA
BRANCH  31  33
ATOM     33  C   UNL A   1      40.681  26.321  27.657  1.00  0.00     0.060 A 
ATOM     34  C   UNL A   1      39.606  26.148  28.541  1.00  0.00     0.016 A 
ATOM     35  C   UNL A   1      41.747  27.159  27.984  1.00  0.00     0.016 A 
ATOM     36  C   UNL A   1      39.578  26.844  29.746  1.00  0.00     0.010 A 
ATOM     37  C   UNL A   1      41.711  27.863  29.189  1.00  0.00     0.010 A 
ATOM     38  C   UNL A   1      40.613  27.732  30.060  1.00  0.00    -0.014 A 
BRANCH  38  39
ATOM     39  C   UNL A   1      40.496  28.637  31.226  1.00  0.00     0.031 A 
ATOM     40  C   UNL A   1      39.491  29.752  31.182  1.00  0.00     0.074 A 
ATOM     41  C   UNL A   1      41.296  28.482  32.295  1.00  0.00     0.049 A 
ATOM     42  N   UNL A   1      39.303  30.735  32.022  1.00  0.00    -0.248 NA
ATOM     43  C   UNL A   1      38.584  29.764  30.023  1.00  0.00     0.031 C 
ATOM     44  C   UNL A   1      42.283  27.417  32.463  1.00  0.00     0.029 A 
ATOM     45  N   UNL A   1      41.421  29.241  33.431  1.00  0.00    -0.354 N 
ATOM     46  C   UNL A   1      38.268  31.493  31.488  1.00  0.00     0.074 A 
ATOM     47  C   UNL A   1      37.892  30.873  30.236  1.00  0.00     0.031 C 
ATOM     48  C   UNL A   1      42.936  27.609  33.621  1.00  0.00     0.029 A 
ATOM     49  C   UNL A   1      42.440  28.830  34.254  1.00  0.00     0.049 A 
ATOM     50  H   UNL A   1      40.836  30.006  33.636  1.00  0.00     0.167 HD
ATOM     51  C   UNL A   1      37.682  32.603  32.000  1.00  0.00     0.037 A 
ATOM     52  C   UNL A   1      42.941  29.396  35.370  1.00  0.00     0.037 A 
ATOM     53  C   UNL A   1      38.077  33.215  33.243  1.00  0.00     0.049 A 
ATOM     54  C   UNL A   1      42.320  30.663  35.895  1.00  0.00     0.074 A 
ATOM     55  C   UNL A   1      37.543  34.332  33.861  1.00  0.00     0.029 A 
ATOM     56  N   UNL A   1      39.113  32.769  34.052  1.00  0.00    -0.354 N 
ATOM     57  N   UNL A   1      41.331  31.365  35.394  1.00  0.00    -0.248 NA
ATOM     58  C   UNL A   1      42.878  31.212  37.138  1.00  0.00     0.031 C 
ATOM     59  C   UNL A   1      38.290  34.592  35.015  1.00  0.00     0.029 A 
ATOM     60  C   UNL A   1      39.252  33.601  35.150  1.00  0.00     0.049 A 
ATOM     61  H   UNL A   1      39.669  31.976  33.871  1.00  0.00     0.167 HD
ATOM     62  C   UNL A   1      41.129  32.423  36.273  1.00  0.00     0.074 A 
ATOM     63  C   UNL A   1      42.096  32.265  37.340  1.00  0.00     0.031 C 
ATOM     64  C   UNL A   1      40.221  33.430  36.207  1.00  0.00     0.037 A 
BRANCH  51  65
ATOM     65  C   UNL A   1      36.586  33.240  31.190  1.00  0.00     0.058 A 
ATOM     66  C   UNL A   1      36.855  33.982  30.028  1.00  0.00     0.135 A 
ATOM     67  C   UNL A   1      35.245  33.119  31.589  1.00  0.00     0.135 A 
ATOM     68  F   UNL A   1      38.120  34.144  29.608  1.00  0.00    -0.206 F 
ATOM     69  C   UNL A   1      35.842  34.623  29.322  1.00  0.00     0.059 A 
ATOM     70  C   UNL A   1      34.211  33.725  30.879  1.00  0.00     0.059 A 
ATOM     71  F   UNL A   1      34.927  32.421  32.691  1.00  0.00    -0.206 F 
ATOM     72  C   UNL A   1      34.523  34.495  29.760  1.00  0.00     0.060 A 
BRANCH  72  73
ATOM     73  S   UNL A   1      33.224  35.364  28.858  1.00  0.00     0.124 S 
ATOM     74  O   UNL A   1      34.002  36.332  28.091  1.00  0.00    -0.237 OA
ATOM     75  O   UNL A   1      32.610  34.291  28.083  1.00  0.00    -0.237 OA
ATOM     76  O   UNL A   1      32.392  35.925  29.917  1.00  0.00    -0.744 OA
ENDBRANCH  72  73
ENDBRANCH  51  65
BRANCH  52  77
ATOM     77  C   UNL A   1      44.101  28.763  36.048  1.00  0.00     0.058 A 
ATOM     78  C   UNL A   1      43.928  27.683  36.926  1.00  0.00     0.135 A 
ATOM     79  C   UNL A   1      45.413  29.192  35.788  1.00  0.00     0.135 A 
ATOM     80  F   UNL A   1      42.694  27.245  37.215  1.00  0.00    -0.206 F 
ATOM     81  C   UNL A   1      45.015  27.045  37.517  1.00  0.00     0.059 A 
ATOM     82  C   UNL A   1      46.516  28.555  36.348  1.00  0.00     0.059 A 
ATOM     83  F   UNL A   1      45.631  30.213  34.945  1.00  0.00    -0.206 F 
ATOM     84  C   UNL A   1      46.305  27.482  37.212  1.00  0.00     0.060 A 
BRANCH  84  85
ATOM     85  S   UNL A   1      47.709  26.585  37.910  1.00  0.00     0.124 S 
ATOM     86  O   UNL A   1      48.807  27.062  37.078  1.00  0.00    -0.237 OA
ATOM     87  O   UNL A   1      47.707  27.050  39.295  1.00  0.00    -0.237 OA
ATOM     88  O   UNL A   1      47.338  25.185  37.727  1.00  0.00    -0.744 OA
ENDBRANCH  84  85
ENDBRANCH  52  77
BRANCH  64  89
ATOM     89  C   UNL A   1      40.199  34.423  37.337  1.00  0.00     0.058 A 
ATOM     90  C   UNL A   1      39.366  34.260  38.455  1.00  0.00     0.135 A 
ATOM     91  C   UNL A   1      41.073  35.523  37.329  1.00  0.00     0.135 A 
ATOM     92  F   UNL A   1      38.507  33.230  38.512  1.00  0.00    -0.206 F 
ATOM     93  C   UNL A   1      39.386  35.162  39.514  1.00  0.00     0.059 A 
ATOM     94  C   UNL A   1      41.130  36.422  38.389  1.00  0.00     0.059 A 
ATOM     95  F   UNL A   1      41.899  35.723  36.289  1.00  0.00    -0.206 F 
ATOM     96  C   UNL A   1      40.275  36.238  39.474  1.00  0.00     0.060 A 
BRANCH  96  97
ATOM     97  S   UNL A   1      40.319  37.380  40.873  1.00  0.00     0.124 S 
ATOM     98  O   UNL A   1      38.937  37.849  40.913  1.00  0.00    -0.237 OA
ATOM     99  O   UNL A   1      40.725  36.509  41.972  1.00  0.00    -0.237 OA
ATOM    100  O   UNL A   1      41.309  38.374  40.470  1.00  0.00    -0.744 OA
ENDBRANCH  96  97
ENDBRANCH  64  89
ENDBRANCH  38  39
ENDBRANCH  31  33
ENDBRANCH  30  31
ENDBRANCH  29  30
ENDBRANCH   1  29
TORSDOF 21
ENDMDL
MODEL 3
REMARK VINA RESULT:     -10.7      6.140     11.722
REMARK SMILES COc1cc(OC(F)(F)F)cc2c1O[C@@H](C(F)(F)F)C(C(=O)OCCOCCOC(=O)c1ccc(-c3c4nc(c(-c5c(F)cc(S(=O)(=O)[O-])cc5F)c5ccc([nH]5)c(-c5c(F)cc(S(=O)(=O)[O-])cc5F)c5nc(c(-c6c(F)cc(S(=O)(=O)[O-])cc6F)c6ccc3[nH]6)C=C5)C=C4)cc1)=C2
REMARK SMILES IDX 27 1 26 2 25 3 24 4 23 5 21 6 22 7 20 8 3 9 4 10 13 11 5 12
REMARK SMILES IDX 12 13 14 14 11 15 98 16 15 17 2 18 1 19 6 20 7 21 8 22 9 23
REMARK SMILES IDX 10 24 16 25 17 26 18 27 19 28 28 29 29 30 30 31 31 32 32 33
REMARK SMILES IDX 33 34 97 35 34 36 96 37 35 38 36 39 37 40 90 41 38 42 95 43
REMARK SMILES IDX 89 44 91 45 39 46 94 47 88 48 87 49 40 51 74 52 53 53 73 54
REMARK SMILES IDX 54 55 57 56 72 57 92 58 55 59 56 60 71 62 93 63 58 64 41 65
REMARK SMILES IDX 42 66 51 67 43 68 44 69 50 70 52 71 45 72 46 73 47 74 48 75
REMARK SMILES IDX 49 76 75 77 76 78 85 79 77 80 78 81 84 82 86 83 79 84 80 85
REMARK SMILES IDX 81 86 82 87 83 88 59 89 60 90 69 91 61 92 62 93 68 94 70 95
REMARK SMILES IDX 63 96 64 97 65 98 66 99 67 100
REMARK H PARENT 91 50 57 61
REMARK Flexibility Score: inf
ROOT
ATOM      1  C   UNL A   1      40.160  21.473  26.488  1.00  0.00     0.202 C 
ENDROOT
BRANCH   1   2
ATOM      2  O   UNL A   1      39.263  21.859  25.450  1.00  0.00    -0.374 OA
BRANCH   2   3
ATOM      3  C   UNL A   1      37.863  21.819  25.714  1.00  0.00     0.202 C 
BRANCH   3   4
ATOM      4  C   UNL A   1      37.044  23.076  25.405  1.00  0.00     0.261 C 
BRANCH   4   5
ATOM      5  O   UNL A   1      35.792  22.767  24.775  1.00  0.00    -0.460 OA
BRANCH   5   6
ATOM      6  C   UNL A   1      34.731  22.738  25.614  1.00  0.00     0.338 C 
ATOM      7  O   UNL A   1      34.541  21.943  26.521  1.00  0.00    -0.246 OA
BRANCH   6   8
ATOM      8  C   UNL A   1      33.858  23.903  25.397  1.00  0.00     0.087 C 
ATOM      9  C   UNL A   1      31.720  27.112  23.807  1.00  0.00     0.165 A 
ATOM     10  C   UNL A   1      31.983  28.411  24.246  1.00  0.00     0.097 A 
ATOM     11  C   UNL A   1      32.428  26.036  24.351  1.00  0.00     0.170 A 
ATOM     12  C   UNL A   1      32.920  28.639  25.256  1.00  0.00     0.134 A 
ATOM     13  C   UNL A   1      33.386  26.252  25.356  1.00  0.00     0.025 A 
ATOM     14  O   UNL A   1      32.245  24.792  23.803  1.00  0.00    -0.471 OA
ATOM     15  C   UNL A   1      33.606  27.553  25.821  1.00  0.00     0.059 A 
ATOM     16  C   UNL A   1      34.233  25.133  25.785  1.00  0.00     0.027 C 
ATOM     17  C   UNL A   1      32.529  23.699  24.709  1.00  0.00     0.316 C 
BRANCH   9  18
ATOM     18  O   UNL A   1      30.831  26.999  22.769  1.00  0.00    -0.493 OA
ATOM     19  C   UNL A   1      30.261  28.246  22.376  1.00  0.00     0.278 C 
ENDBRANCH   9  18
BRANCH  12  20
ATOM     20  O   UNL A   1      33.269  29.859  25.763  1.00  0.00    -0.406 OA
BRANCH  20  21
ATOM     21  C   UNL A   1      32.411  30.435  26.736  1.00  0.00     0.573 C 
ATOM     22  F   UNL A   1      33.103  31.183  27.623  1.00  0.00    -0.132 F 
ATOM     23  F   UNL A   1      31.462  31.199  26.151  1.00  0.00    -0.132 F 
ATOM     24  F   UNL A   1      31.790  29.445  27.415  1.00  0.00    -0.132 F 
ENDBRANCH  20  21
ENDBRANCH  12  20
BRANCH  17  25
ATOM     25  C   UNL A   1      32.249  22.378  23.974  1.00  0.00     0.430 C 
ATOM     26  F   UNL A   1      31.704  21.458  24.803  1.00  0.00    -0.167 F 
ATOM     27  F   UNL A   1      31.319  22.589  23.000  1.00  0.00    -0.167 F 
ATOM     28  F   UNL A   1      33.330  21.850  23.372  1.00  0.00    -0.167 F 
ENDBRANCH  17  25
ENDBRANCH   6   8
ENDBRANCH   5   6
ENDBRANCH   4   5
ENDBRANCH   3   4
ENDBRANCH   2   3
ENDBRANCH   1   2
BRANCH   1  29
ATOM     29  C   UNL A   1      40.452  22.475  27.612  1.00  0.00     0.261 C 
BRANCH  29  30
ATOM     30  O   UNL A   1      41.751  23.080  27.501  1.00  0.00    -0.460 OA
BRANCH  30  31
ATOM     31  C   UNL A   1      41.788  24.202  26.742  1.00  0.00     0.338 C 
ATOM     32  O   UNL A   1      41.907  24.268  25.526  1.00  0.00    -0.246 OA
BRANCH  31  33
ATOM     33  C   UNL A   1      41.471  25.372  27.577  1.00  0.00     0.060 A 
ATOM     34  C   UNL A   1      42.366  26.451  27.568  1.00  0.00     0.016 A 
ATOM     35  C   UNL A   1      40.351  25.380  28.407  1.00  0.00     0.016 A 
ATOM     36  C   UNL A   1      42.159  27.533  28.420  1.00  0.00     0.010 A 
ATOM     37  C   UNL A   1      40.152  26.460  29.268  1.00  0.00     0.010 A 
ATOM     38  C   UNL A   1      41.071  27.526  29.300  1.00  0.00    -0.014 A 
BRANCH  38  39
ATOM     39  C   UNL A   1      40.956  28.557  30.356  1.00  0.00     0.031 A 
ATOM     40  C   UNL A   1      41.840  28.458  31.566  1.00  0.00     0.074 A 
ATOM     41  C   UNL A   1      40.054  29.548  30.250  1.00  0.00     0.049 A 
ATOM     42  N   UNL A   1      41.827  29.163  32.666  1.00  0.00    -0.248 NA
ATOM     43  C   UNL A   1      42.873  27.410  31.532  1.00  0.00     0.031 C 
ATOM     44  C   UNL A   1      39.168  29.764  29.108  1.00  0.00     0.029 A 
ATOM     45  N   UNL A   1      39.719  30.545  31.131  1.00  0.00    -0.354 N 
ATOM     46  C   UNL A   1      42.835  28.637  33.463  1.00  0.00     0.074 A 
ATOM     47  C   UNL A   1      43.418  27.532  32.733  1.00  0.00     0.031 C 
ATOM     48  C   UNL A   1      38.366  30.808  29.372  1.00  0.00     0.029 A 
ATOM     49  C   UNL A   1      38.657  31.308  30.715  1.00  0.00     0.049 A 
ATOM     50  H   UNL A   1      40.195  30.698  31.980  1.00  0.00     0.167 HD
ATOM     51  C   UNL A   1      43.240  29.043  34.691  1.00  0.00     0.037 A 
ATOM     52  C   UNL A   1      37.972  32.274  31.360  1.00  0.00     0.037 A 
ATOM     53  C   UNL A   1      42.640  30.137  35.411  1.00  0.00     0.049 A 
ATOM     54  C   UNL A   1      38.394  32.673  32.748  1.00  0.00     0.074 A 
ATOM     55  C   UNL A   1      42.981  30.641  36.654  1.00  0.00     0.029 A 
ATOM     56  N   UNL A   1      41.566  30.890  34.956  1.00  0.00    -0.354 N 
ATOM     57  N   UNL A   1      39.359  32.182  33.489  1.00  0.00    -0.248 NA
ATOM     58  C   UNL A   1      37.639  33.760  33.386  1.00  0.00     0.031 C 
ATOM     59  C   UNL A   1      42.079  31.662  36.973  1.00  0.00     0.029 A 
ATOM     60  C   UNL A   1      41.214  31.838  35.903  1.00  0.00     0.049 A 
ATOM     61  H   UNL A   1      41.119  30.769  34.087  1.00  0.00     0.167 HD
ATOM     62  C   UNL A   1      39.346  32.917  34.670  1.00  0.00     0.074 A 
ATOM     63  C   UNL A   1      38.280  33.890  34.541  1.00  0.00     0.031 C 
ATOM     64  C   UNL A   1      40.149  32.802  35.759  1.00  0.00     0.037 A 
BRANCH  51  65
ATOM     65  C   UNL A   1      44.354  28.268  35.341  1.00  0.00     0.058 A 
ATOM     66  C   UNL A   1      45.704  28.612  35.158  1.00  0.00     0.135 A 
ATOM     67  C   UNL A   1      44.070  27.154  36.147  1.00  0.00     0.135 A 
ATOM     68  F   UNL A   1      46.036  29.658  34.384  1.00  0.00    -0.206 F 
ATOM     69  C   UNL A   1      46.731  27.851  35.708  1.00  0.00     0.059 A 
ATOM     70  C   UNL A   1      45.081  26.397  36.734  1.00  0.00     0.059 A 
ATOM     71  F   UNL A   1      42.799  26.777  36.358  1.00  0.00    -0.206 F 
ATOM     72  C   UNL A   1      46.409  26.740  36.489  1.00  0.00     0.060 A 
BRANCH  72  73
ATOM     73  S   UNL A   1      47.752  25.739  37.162  1.00  0.00     0.124 S 
ATOM     74  O   UNL A   1      47.600  24.502  36.402  1.00  0.00    -0.237 OA
ATOM     75  O   UNL A   1      48.929  26.539  36.840  1.00  0.00    -0.237 OA
ATOM     76  O   UNL A   1      47.428  25.647  38.582  1.00  0.00    -0.744 OA
ENDBRANCH  72  73
ENDBRANCH  51  65
BRANCH  52  77
ATOM     77  C   UNL A   1      36.809  32.912  30.689  1.00  0.00     0.058 A 
ATOM     78  C   UNL A   1      35.495  32.596  31.060  1.00  0.00     0.135 A 
ATOM     79  C   UNL A   1      36.993  33.892  29.701  1.00  0.00     0.135 A 
ATOM     80  F   UNL A   1      35.268  31.657  31.991  1.00  0.00    -0.206 F 
ATOM     81  C   UNL A   1      34.402  33.233  30.481  1.00  0.00     0.059 A 
ATOM     82  C   UNL A   1      35.918  34.560  29.124  1.00  0.00     0.059 A 
ATOM     83  F   UNL A   1      38.233  34.238  29.320  1.00  0.00    -0.206 F 
ATOM     84  C   UNL A   1      34.625  34.223  29.522  1.00  0.00     0.060 A 
BRANCH  84  85
ATOM     85  S   UNL A   1      33.204  35.110  28.847  1.00  0.00     0.124 S 
ATOM     86  O   UNL A   1      32.667  34.135  27.906  1.00  0.00    -0.237 OA
ATOM     87  O   UNL A   1      32.403  35.353  30.044  1.00  0.00    -0.237 OA
ATOM     88  O   UNL A   1      33.804  36.300  28.251  1.00  0.00    -0.744 OA
ENDBRANCH  84  85
ENDBRANCH  52  77
BRANCH  64  89
ATOM     89  C   UNL A   1      39.935  33.775  36.887  1.00  0.00     0.058 A 
ATOM     90  C   UNL A   1      40.546  35.037  36.906  1.00  0.00     0.135 A 
ATOM     91  C   UNL A   1      39.053  33.459  37.935  1.00  0.00     0.135 A 
ATOM     92  F   UNL A   1      41.403  35.388  35.933  1.00  0.00    -0.206 F 
ATOM     93  C   UNL A   1      40.307  35.946  37.934  1.00  0.00     0.059 A 
ATOM     94  C   UNL A   1      38.777  34.362  38.957  1.00  0.00     0.059 A 
ATOM     95  F   UNL A   1      38.433  32.269  37.962  1.00  0.00    -0.206 F 
ATOM     96  C   UNL A   1      39.418  35.600  38.952  1.00  0.00     0.060 A 
BRANCH  96  97
ATOM     97  S   UNL A   1      39.085  36.802  40.258  1.00  0.00     0.124 S 
ATOM     98  O   UNL A   1      38.527  37.916  39.498  1.00  0.00    -0.237 OA
ATOM     99  O   UNL A   1      38.144  36.082  41.112  1.00  0.00    -0.237 OA
ATOM    100  O   UNL A   1      40.401  37.039  40.846  1.00  0.00    -0.744 OA
ENDBRANCH  96  97
ENDBRANCH  64  89
ENDBRANCH  38  39
ENDBRANCH  31  33
ENDBRANCH  30  31
ENDBRANCH  29  30
ENDBRANCH   1  29
TORSDOF 21
ENDMDL
