MODEL 1
REMARK VINA RESULT:     -11.3      0.000      0.000
REMARK SMILES O=C(OCCOCCOC(=O)[C@H]1C[C@](O)(c2ccc(F)cc2)[C@@H](c2ccc(F)cc2)O1)c1ccc(-c2c3nc(c(-c4c(F)cc(S(=O)(=O)[O-])cc4F)c4ccc([nH]4)c(-c4c(F)cc(S(=O)(=O)[O-])cc4F)c4nc(c(-c5c(F)cc(S(=O)(=O)[O-])cc5F)c5ccc2[nH]5)C=C4)C=C3)cc1
REMARK SMILES IDX 5 1 4 2 3 3 2 4 1 5 32 6 33 7 97 8 34 9 96 10 35 11 36 12
REMARK SMILES IDX 37 13 90 14 38 15 95 16 89 17 91 18 39 19 94 20 88 21 87 22
REMARK SMILES IDX 40 24 74 25 53 26 73 27 54 28 57 29 72 30 92 31 55 32 56 33
REMARK SMILES IDX 71 35 93 36 58 37 41 38 42 39 51 40 43 41 44 42 50 43 52 44
REMARK SMILES IDX 45 45 46 46 47 47 48 48 49 49 75 50 76 51 85 52 77 53 78 54
REMARK SMILES IDX 84 55 86 56 79 57 80 58 81 59 82 60 83 61 59 62 60 63 69 64
REMARK SMILES IDX 61 65 62 66 68 67 70 68 63 69 64 70 65 71 66 72 67 73 6 74
REMARK SMILES IDX 7 75 8 76 9 77 10 78 11 79 12 80 13 81 31 82 14 83 23 84
REMARK SMILES IDX 16 85 17 86 22 87 18 88 21 89 19 90 20 91 15 92 24 94 25 95
REMARK SMILES IDX 30 96 26 97 29 98 27 99 28 100
REMARK H PARENT 91 23 57 34 15 93
REMARK Flexibility Score: inf
ROOT
ATOM      1  C   UNL A   1      42.532  22.413  26.487  1.00  0.00     0.202 C 
ENDROOT
BRANCH   1   2
ATOM      2  C   UNL A   1      43.578  23.253  25.749  1.00  0.00     0.261 C 
BRANCH   2   3
ATOM      3  O   UNL A   1      43.775  24.539  26.354  1.00  0.00    -0.460 OA
BRANCH   3   4
ATOM      4  C   UNL A   1      42.940  25.586  26.122  1.00  0.00     0.338 C 
ATOM      5  O   UNL A   1      42.317  25.653  25.065  1.00  0.00    -0.246 OA
BRANCH   4   6
ATOM      6  C   UNL A   1      42.591  26.510  27.247  1.00  0.00     0.060 A 
ATOM      7  C   UNL A   1      43.111  27.796  27.422  1.00  0.00     0.016 A 
ATOM      8  C   UNL A   1      41.619  26.057  28.152  1.00  0.00     0.016 A 
ATOM      9  C   UNL A   1      42.730  28.586  28.494  1.00  0.00     0.010 A 
ATOM     10  C   UNL A   1      41.213  26.857  29.224  1.00  0.00     0.010 A 
ATOM     11  C   UNL A   1      41.790  28.117  29.405  1.00  0.00    -0.014 A 
BRANCH  11  12
ATOM     12  C   UNL A   1      41.559  28.923  30.615  1.00  0.00     0.031 A 
ATOM     13  C   UNL A   1      40.381  29.846  30.624  1.00  0.00     0.074 A 
ATOM     14  C   UNL A   1      42.291  28.697  31.720  1.00  0.00     0.049 A 
ATOM     15  N   UNL A   1      40.002  30.692  31.539  1.00  0.00    -0.248 NA
ATOM     16  C   UNL A   1      39.504  29.796  29.441  1.00  0.00     0.031 C 
ATOM     17  C   UNL A   1      43.349  27.690  31.837  1.00  0.00     0.029 A 
ATOM     18  N   UNL A   1      42.230  29.264  32.964  1.00  0.00    -0.354 N 
ATOM     19  C   UNL A   1      38.859  31.299  31.032  1.00  0.00     0.074 A 
ATOM     20  C   UNL A   1      38.609  30.729  29.729  1.00  0.00     0.031 C 
ATOM     21  C   UNL A   1      43.815  27.690  33.096  1.00  0.00     0.029 A 
ATOM     22  C   UNL A   1      43.142  28.744  33.850  1.00  0.00     0.049 A 
ATOM     23  H   UNL A   1      41.594  29.977  33.201  1.00  0.00     0.167 HD
ATOM     24  C   UNL A   1      38.101  32.256  31.612  1.00  0.00     0.037 A 
ATOM     25  C   UNL A   1      43.416  29.107  35.117  1.00  0.00     0.037 A 
ATOM     26  C   UNL A   1      38.386  32.793  32.914  1.00  0.00     0.049 A 
ATOM     27  C   UNL A   1      42.629  30.245  35.708  1.00  0.00     0.074 A 
ATOM     28  C   UNL A   1      37.764  33.833  33.578  1.00  0.00     0.029 A 
ATOM     29  N   UNL A   1      39.384  32.315  33.756  1.00  0.00    -0.354 N 
ATOM     30  N   UNL A   1      41.632  30.916  35.175  1.00  0.00    -0.248 NA
ATOM     31  C   UNL A   1      43.010  30.696  37.050  1.00  0.00     0.031 C 
ATOM     32  C   UNL A   1      38.412  34.007  34.807  1.00  0.00     0.029 A 
ATOM     33  C   UNL A   1      39.403  33.042  34.931  1.00  0.00     0.049 A 
ATOM     34  H   UNL A   1      39.989  31.567  33.546  1.00  0.00     0.167 HD
ATOM     35  C   UNL A   1      41.259  31.863  36.119  1.00  0.00     0.074 A 
ATOM     36  C   UNL A   1      42.130  31.668  37.263  1.00  0.00     0.031 C 
ATOM     37  C   UNL A   1      40.290  32.810  36.049  1.00  0.00     0.037 A 
BRANCH  24  38
ATOM     38  C   UNL A   1      36.966  32.815  30.801  1.00  0.00     0.058 A 
ATOM     39  C   UNL A   1      35.646  32.421  31.073  1.00  0.00     0.135 A 
ATOM     40  C   UNL A   1      37.167  33.775  29.795  1.00  0.00     0.135 A 
ATOM     41  F   UNL A   1      35.393  31.521  32.034  1.00  0.00    -0.206 F 
ATOM     42  C   UNL A   1      34.567  32.961  30.382  1.00  0.00     0.059 A 
ATOM     43  C   UNL A   1      36.099  34.349  29.109  1.00  0.00     0.059 A 
ATOM     44  F   UNL A   1      38.405  34.217  29.520  1.00  0.00    -0.206 F 
ATOM     45  C   UNL A   1      34.802  33.931  29.407  1.00  0.00     0.060 A 
BRANCH  45  46
ATOM     46  S   UNL A   1      33.382  34.691  28.588  1.00  0.00     0.124 S 
ATOM     47  O   UNL A   1      32.968  33.640  27.666  1.00  0.00    -0.237 OA
ATOM     48  O   UNL A   1      32.481  34.948  29.708  1.00  0.00    -0.237 OA
ATOM     49  O   UNL A   1      33.949  35.886  27.969  1.00  0.00    -0.744 OA
ENDBRANCH  45  46
ENDBRANCH  24  38
BRANCH  25  50
ATOM     50  C   UNL A   1      44.489  28.404  35.873  1.00  0.00     0.058 A 
ATOM     51  C   UNL A   1      44.207  27.260  36.639  1.00  0.00     0.135 A 
ATOM     52  C   UNL A   1      45.800  28.900  35.908  1.00  0.00     0.135 A 
ATOM     53  F   UNL A   1      42.969  26.741  36.642  1.00  0.00    -0.206 F 
ATOM     54  C   UNL A   1      45.169  26.664  37.448  1.00  0.00     0.059 A 
ATOM     55  C   UNL A   1      46.789  28.304  36.690  1.00  0.00     0.059 A 
ATOM     56  F   UNL A   1      46.128  29.979  35.182  1.00  0.00    -0.206 F 
ATOM     57  C   UNL A   1      46.457  27.200  37.475  1.00  0.00     0.060 A 
BRANCH  57  58
ATOM     58  S   UNL A   1      47.675  26.438  38.569  1.00  0.00     0.124 S 
ATOM     59  O   UNL A   1      47.714  25.071  38.058  1.00  0.00    -0.237 OA
ATOM     60  O   UNL A   1      48.863  27.245  38.314  1.00  0.00    -0.237 OA
ATOM     61  O   UNL A   1      47.086  26.595  39.895  1.00  0.00    -0.744 OA
ENDBRANCH  57  58
ENDBRANCH  25  50
BRANCH  37  62
ATOM     62  C   UNL A   1      40.103  33.694  37.247  1.00  0.00     0.058 A 
ATOM     63  C   UNL A   1      39.117  33.392  38.198  1.00  0.00     0.135 A 
ATOM     64  C   UNL A   1      40.826  34.886  37.398  1.00  0.00     0.135 A 
ATOM     65  F   UNL A   1      38.395  32.266  38.090  1.00  0.00    -0.206 F 
ATOM     66  C   UNL A   1      38.835  34.257  39.247  1.00  0.00     0.059 A 
ATOM     67  C   UNL A   1      40.579  35.754  38.456  1.00  0.00     0.059 A 
ATOM     68  F   UNL A   1      41.787  35.210  36.518  1.00  0.00    -0.206 F 
ATOM     69  C   UNL A   1      39.566  35.440  39.363  1.00  0.00     0.060 A 
BRANCH  69  70
ATOM     70  S   UNL A   1      39.182  36.554  40.729  1.00  0.00     0.124 S 
ATOM     71  O   UNL A   1      40.482  36.693  41.376  1.00  0.00    -0.237 OA
ATOM     72  O   UNL A   1      38.690  37.739  40.032  1.00  0.00    -0.237 OA
ATOM     73  O   UNL A   1      38.176  35.821  41.491  1.00  0.00    -0.744 OA
ENDBRANCH  69  70
ENDBRANCH  37  62
ENDBRANCH  11  12
ENDBRANCH   4   6
ENDBRANCH   3   4
ENDBRANCH   2   3
ENDBRANCH   1   2
BRANCH   1  74
ATOM     74  O   UNL A   1      41.210  22.600  25.984  1.00  0.00    -0.374 OA
BRANCH  74  75
ATOM     75  C   UNL A   1      40.178  22.575  26.964  1.00  0.00     0.202 C 
BRANCH  75  76
ATOM     76  C   UNL A   1      38.822  23.000  26.406  1.00  0.00     0.261 C 
BRANCH  76  77
ATOM     77  O   UNL A   1      38.048  21.841  26.048  1.00  0.00    -0.461 OA
BRANCH  77  78
ATOM     78  C   UNL A   1      37.118  22.030  25.061  1.00  0.00     0.335 C 
ATOM     79  O   UNL A   1      37.274  21.754  23.886  1.00  0.00    -0.249 OA
BRANCH  78  80
ATOM     80  C   UNL A   1      35.829  22.605  25.668  1.00  0.00     0.232 C 
ATOM     81  C   UNL A   1      35.049  23.426  24.662  1.00  0.00     0.087 C 
ATOM     82  O   UNL A   1      34.964  21.613  26.211  1.00  0.00    -0.355 OA
ATOM     83  C   UNL A   1      33.705  22.715  24.453  1.00  0.00     0.123 C 
ATOM     84  C   UNL A   1      33.795  21.467  25.386  1.00  0.00     0.186 C 
BRANCH  83  85
ATOM     85  C   UNL A   1      32.579  23.729  24.699  1.00  0.00    -0.013 A 
ATOM     86  C   UNL A   1      31.533  23.794  23.746  1.00  0.00     0.010 A 
ATOM     87  C   UNL A   1      32.523  24.619  25.783  1.00  0.00     0.010 A 
ATOM     88  C   UNL A   1      30.506  24.731  23.849  1.00  0.00     0.039 A 
ATOM     89  C   UNL A   1      31.487  25.554  25.890  1.00  0.00     0.039 A 
ATOM     90  C   UNL A   1      30.497  25.607  24.920  1.00  0.00     0.123 A 
ATOM     91  F   UNL A   1      29.522  26.520  25.021  1.00  0.00    -0.207 F 
ENDBRANCH  83  85
BRANCH  83  92
ATOM     92  O   UNL A   1      33.603  22.379  23.066  1.00  0.00    -0.382 OA
ATOM     93  H   UNL A   1      33.802  23.162  22.528  1.00  0.00     0.212 HD
ENDBRANCH  83  92
BRANCH  84  94
ATOM     94  C   UNL A   1      33.774  20.071  24.769  1.00  0.00    -0.016 A 
ATOM     95  C   UNL A   1      32.646  19.549  24.116  1.00  0.00     0.009 A 
ATOM     96  C   UNL A   1      34.925  19.258  24.844  1.00  0.00     0.009 A 
ATOM     97  C   UNL A   1      32.652  18.255  23.590  1.00  0.00     0.039 A 
ATOM     98  C   UNL A   1      34.935  17.969  24.303  1.00  0.00     0.039 A 
ATOM     99  C   UNL A   1      33.797  17.479  23.680  1.00  0.00     0.123 A 
ATOM    100  F   UNL A   1      33.809  16.249  23.154  1.00  0.00    -0.207 F 
ENDBRANCH  84  94
ENDBRANCH  78  80
ENDBRANCH  77  78
ENDBRANCH  76  77
ENDBRANCH  75  76
ENDBRANCH  74  75
ENDBRANCH   1  74
TORSDOF 20
ENDMDL
MODEL 2
REMARK VINA RESULT:     -11.3      5.361     12.288
REMARK SMILES O=C(OCCOCCOC(=O)[C@H]1C[C@](O)(c2ccc(F)cc2)[C@@H](c2ccc(F)cc2)O1)c1ccc(-c2c3nc(c(-c4c(F)cc(S(=O)(=O)[O-])cc4F)c4ccc([nH]4)c(-c4c(F)cc(S(=O)(=O)[O-])cc4F)c4nc(c(-c5c(F)cc(S(=O)(=O)[O-])cc5F)c5ccc2[nH]5)C=C4)C=C3)cc1
REMARK SMILES IDX 5 1 4 2 3 3 2 4 1 5 32 6 33 7 97 8 34 9 96 10 35 11 36 12
REMARK SMILES IDX 37 13 90 14 38 15 95 16 89 17 91 18 39 19 94 20 88 21 87 22
REMARK SMILES IDX 40 24 74 25 53 26 73 27 54 28 57 29 72 30 92 31 55 32 56 33
REMARK SMILES IDX 71 35 93 36 58 37 41 38 42 39 51 40 43 41 44 42 50 43 52 44
REMARK SMILES IDX 45 45 46 46 47 47 48 48 49 49 75 50 76 51 85 52 77 53 78 54
REMARK SMILES IDX 84 55 86 56 79 57 80 58 81 59 82 60 83 61 59 62 60 63 69 64
REMARK SMILES IDX 61 65 62 66 68 67 70 68 63 69 64 70 65 71 66 72 67 73 6 74
REMARK SMILES IDX 7 75 8 76 9 77 10 78 11 79 12 80 13 81 31 82 14 83 23 84
REMARK SMILES IDX 16 85 17 86 22 87 18 88 21 89 19 90 20 91 15 92 24 94 25 95
REMARK SMILES IDX 30 96 26 97 29 98 27 99 28 100
REMARK H PARENT 91 23 57 34 15 93
REMARK Flexibility Score: inf
ROOT
ATOM      1  C   UNL A   1      34.219  34.120  29.791  1.00  0.00     0.202 C 
ENDROOT
BRANCH   1   2
ATOM      2  C   UNL A   1      34.847  33.021  28.931  1.00  0.00     0.261 C 
BRANCH   2   3
ATOM      3  O   UNL A   1      33.869  32.119  28.394  1.00  0.00    -0.460 OA
BRANCH   3   4
ATOM      4  C   UNL A   1      34.161  30.826  28.093  1.00  0.00     0.338 C 
ATOM      5  O   UNL A   1      33.362  30.150  27.449  1.00  0.00    -0.246 OA
BRANCH   4   6
ATOM      6  C   UNL A   1      35.548  30.312  28.321  1.00  0.00     0.060 A 
ATOM      7  C   UNL A   1      35.987  29.673  29.485  1.00  0.00     0.016 A 
ATOM      8  C   UNL A   1      36.447  30.439  27.252  1.00  0.00     0.016 A 
ATOM      9  C   UNL A   1      37.292  29.227  29.611  1.00  0.00     0.010 A 
ATOM     10  C   UNL A   1      37.760  29.971  27.363  1.00  0.00     0.010 A 
ATOM     11  C   UNL A   1      38.187  29.384  28.558  1.00  0.00    -0.014 A 
BRANCH  11  12
ATOM     12  C   UNL A   1      39.599  29.056  28.814  1.00  0.00     0.031 A 
ATOM     13  C   UNL A   1      40.415  30.044  29.588  1.00  0.00     0.074 A 
ATOM     14  C   UNL A   1      40.070  27.836  28.503  1.00  0.00     0.049 A 
ATOM     15  N   UNL A   1      41.682  30.010  29.891  1.00  0.00    -0.248 NA
ATOM     16  C   UNL A   1      39.698  31.224  30.101  1.00  0.00     0.031 C 
ATOM     17  C   UNL A   1      39.282  26.759  27.898  1.00  0.00     0.029 A 
ATOM     18  N   UNL A   1      41.306  27.280  28.691  1.00  0.00    -0.354 N 
ATOM     19  C   UNL A   1      41.923  31.178  30.604  1.00  0.00     0.074 A 
ATOM     20  C   UNL A   1      40.675  31.901  30.685  1.00  0.00     0.031 C 
ATOM     21  C   UNL A   1      40.048  25.662  27.795  1.00  0.00     0.029 A 
ATOM     22  C   UNL A   1      41.396  25.980  28.256  1.00  0.00     0.049 A 
ATOM     23  H   UNL A   1      42.059  27.766  29.098  1.00  0.00     0.167 HD
ATOM     24  C   UNL A   1      43.093  31.602  31.131  1.00  0.00     0.037 A 
ATOM     25  C   UNL A   1      42.461  25.157  28.212  1.00  0.00     0.037 A 
ATOM     26  C   UNL A   1      44.312  30.848  31.029  1.00  0.00     0.049 A 
ATOM     27  C   UNL A   1      43.779  25.688  28.709  1.00  0.00     0.074 A 
ATOM     28  C   UNL A   1      45.587  31.203  31.426  1.00  0.00     0.029 A 
ATOM     29  N   UNL A   1      44.398  29.569  30.491  1.00  0.00    -0.354 N 
ATOM     30  N   UNL A   1      44.038  26.852  29.262  1.00  0.00    -0.248 NA
ATOM     31  C   UNL A   1      44.949  24.818  28.558  1.00  0.00     0.031 C 
ATOM     32  C   UNL A   1      46.449  30.152  31.093  1.00  0.00     0.029 A 
ATOM     33  C   UNL A   1      45.704  29.121  30.536  1.00  0.00     0.049 A 
ATOM     34  H   UNL A   1      43.638  29.057  30.130  1.00  0.00     0.167 HD
ATOM     35  C   UNL A   1      45.400  26.852  29.534  1.00  0.00     0.074 A 
ATOM     36  C   UNL A   1      45.906  25.565  29.096  1.00  0.00     0.031 C 
ATOM     37  C   UNL A   1      46.164  27.826  30.090  1.00  0.00     0.037 A 
BRANCH  24  38
ATOM     38  C   UNL A   1      43.102  32.960  31.775  1.00  0.00     0.058 A 
ATOM     39  C   UNL A   1      42.958  33.080  33.167  1.00  0.00     0.135 A 
ATOM     40  C   UNL A   1      43.303  34.138  31.036  1.00  0.00     0.135 A 
ATOM     41  F   UNL A   1      42.780  31.987  33.925  1.00  0.00    -0.206 F 
ATOM     42  C   UNL A   1      43.019  34.315  33.803  1.00  0.00     0.059 A 
ATOM     43  C   UNL A   1      43.395  35.382  31.656  1.00  0.00     0.059 A 
ATOM     44  F   UNL A   1      43.485  34.079  29.707  1.00  0.00    -0.206 F 
ATOM     45  C   UNL A   1      43.247  35.460  33.041  1.00  0.00     0.060 A 
BRANCH  45  46
ATOM     46  S   UNL A   1      43.419  37.043  33.894  1.00  0.00     0.124 S 
ATOM     47  O   UNL A   1      44.654  36.847  34.645  1.00  0.00    -0.237 OA
ATOM     48  O   UNL A   1      43.493  37.986  32.782  1.00  0.00    -0.237 OA
ATOM     49  O   UNL A   1      42.202  37.129  34.695  1.00  0.00    -0.744 OA
ENDBRANCH  45  46
ENDBRANCH  24  38
BRANCH  25  50
ATOM     50  C   UNL A   1      42.314  23.784  27.656  1.00  0.00     0.058 A 
ATOM     51  C   UNL A   1      42.249  22.663  28.502  1.00  0.00     0.135 A 
ATOM     52  C   UNL A   1      42.309  23.554  26.274  1.00  0.00     0.135 A 
ATOM     53  F   UNL A   1      42.249  22.824  29.834  1.00  0.00    -0.206 F 
ATOM     54  C   UNL A   1      42.235  21.366  27.999  1.00  0.00     0.059 A 
ATOM     55  C   UNL A   1      42.269  22.264  25.745  1.00  0.00     0.059 A 
ATOM     56  F   UNL A   1      42.351  24.589  25.422  1.00  0.00    -0.206 F 
ATOM     57  C   UNL A   1      42.256  21.176  26.617  1.00  0.00     0.060 A 
BRANCH  57  58
ATOM     58  S   UNL A   1      42.286  19.482  25.990  1.00  0.00     0.124 S 
ATOM     59  O   UNL A   1      42.703  18.738  27.174  1.00  0.00    -0.237 OA
ATOM     60  O   UNL A   1      40.902  19.286  25.572  1.00  0.00    -0.237 OA
ATOM     61  O   UNL A   1      43.264  19.539  24.908  1.00  0.00    -0.744 OA
ENDBRANCH  57  58
ENDBRANCH  25  50
BRANCH  37  62
ATOM     62  C   UNL A   1      47.624  27.531  30.277  1.00  0.00     0.058 A 
ATOM     63  C   UNL A   1      48.074  26.927  31.461  1.00  0.00     0.135 A 
ATOM     64  C   UNL A   1      48.580  27.939  29.336  1.00  0.00     0.135 A 
ATOM     65  F   UNL A   1      47.195  26.528  32.394  1.00  0.00    -0.206 F 
ATOM     66  C   UNL A   1      49.428  26.759  31.717  1.00  0.00     0.059 A 
ATOM     67  C   UNL A   1      49.940  27.756  29.561  1.00  0.00     0.059 A 
ATOM     68  F   UNL A   1      48.195  28.511  28.185  1.00  0.00    -0.206 F 
ATOM     69  C   UNL A   1      50.355  27.184  30.764  1.00  0.00     0.060 A 
BRANCH  69  70
ATOM     70  S   UNL A   1      52.110  26.963  31.117  1.00  0.00     0.124 S 
ATOM     71  O   UNL A   1      52.072  26.298  32.415  1.00  0.00    -0.237 OA
ATOM     72  O   UNL A   1      52.549  26.139  29.994  1.00  0.00    -0.237 OA
ATOM     73  O   UNL A   1      52.628  28.328  31.125  1.00  0.00    -0.744 OA
ENDBRANCH  69  70
ENDBRANCH  37  62
ENDBRANCH  11  12
ENDBRANCH   4   6
ENDBRANCH   3   4
ENDBRANCH   2   3
ENDBRANCH   1   2
BRANCH   1  74
ATOM     74  O   UNL A   1      33.962  33.703  31.131  1.00  0.00    -0.374 OA
BRANCH  74  75
ATOM     75  C   UNL A   1      34.722  32.583  31.574  1.00  0.00     0.202 C 
BRANCH  75  76
ATOM     76  C   UNL A   1      35.289  32.773  32.980  1.00  0.00     0.261 C 
BRANCH  76  77
ATOM     77  O   UNL A   1      36.019  34.009  33.057  1.00  0.00    -0.461 OA
BRANCH  77  78
ATOM     78  C   UNL A   1      37.301  33.974  32.581  1.00  0.00     0.335 C 
ATOM     79  O   UNL A   1      37.614  33.857  31.410  1.00  0.00    -0.249 OA
BRANCH  78  80
ATOM     80  C   UNL A   1      38.291  34.144  33.744  1.00  0.00     0.232 C 
ATOM     81  C   UNL A   1      37.634  33.895  35.085  1.00  0.00     0.087 C 
ATOM     82  O   UNL A   1      39.440  33.308  33.640  1.00  0.00    -0.355 OA
ATOM     83  C   UNL A   1      38.329  32.673  35.702  1.00  0.00     0.123 C 
ATOM     84  C   UNL A   1      39.388  32.266  34.630  1.00  0.00     0.186 C 
BRANCH  83  85
ATOM     85  C   UNL A   1      38.821  33.054  37.105  1.00  0.00    -0.013 A 
ATOM     86  C   UNL A   1      37.919  32.897  38.185  1.00  0.00     0.010 A 
ATOM     87  C   UNL A   1      40.092  33.576  37.395  1.00  0.00     0.010 A 
ATOM     88  C   UNL A   1      38.254  33.283  39.481  1.00  0.00     0.039 A 
ATOM     89  C   UNL A   1      40.431  33.955  38.699  1.00  0.00     0.039 A 
ATOM     90  C   UNL A   1      39.508  33.814  39.724  1.00  0.00     0.123 A 
ATOM     91  F   UNL A   1      39.835  34.200  40.965  1.00  0.00    -0.207 F 
ENDBRANCH  83  85
BRANCH  83  92
ATOM     92  O   UNL A   1      37.331  31.671  35.921  1.00  0.00    -0.382 OA
ATOM     93  H   UNL A   1      37.628  31.065  36.619  1.00  0.00     0.212 HD
ENDBRANCH  83  92
BRANCH  84  94
ATOM     94  C   UNL A   1      39.269  30.910  33.941  1.00  0.00    -0.016 A 
ATOM     95  C   UNL A   1      40.346  30.014  33.844  1.00  0.00     0.009 A 
ATOM     96  C   UNL A   1      38.036  30.521  33.376  1.00  0.00     0.009 A 
ATOM     97  C   UNL A   1      40.209  28.792  33.179  1.00  0.00     0.039 A 
ATOM     98  C   UNL A   1      37.896  29.291  32.724  1.00  0.00     0.039 A 
ATOM     99  C   UNL A   1      38.985  28.438  32.631  1.00  0.00     0.123 A 
ATOM    100  F   UNL A   1      38.851  27.257  32.016  1.00  0.00    -0.207 F 
ENDBRANCH  84  94
ENDBRANCH  78  80
ENDBRANCH  77  78
ENDBRANCH  76  77
ENDBRANCH  75  76
ENDBRANCH  74  75
ENDBRANCH   1  74
TORSDOF 20
ENDMDL
MODEL 3
REMARK VINA RESULT:     -11.2      6.208     10.582
REMARK SMILES O=C(OCCOCCOC(=O)[C@H]1C[C@](O)(c2ccc(F)cc2)[C@@H](c2ccc(F)cc2)O1)c1ccc(-c2c3nc(c(-c4c(F)cc(S(=O)(=O)[O-])cc4F)c4ccc([nH]4)c(-c4c(F)cc(S(=O)(=O)[O-])cc4F)c4nc(c(-c5c(F)cc(S(=O)(=O)[O-])cc5F)c5ccc2[nH]5)C=C4)C=C3)cc1
REMARK SMILES IDX 5 1 4 2 3 3 2 4 1 5 32 6 33 7 97 8 34 9 96 10 35 11 36 12
REMARK SMILES IDX 37 13 90 14 38 15 95 16 89 17 91 18 39 19 94 20 88 21 87 22
REMARK SMILES IDX 40 24 74 25 53 26 73 27 54 28 57 29 72 30 92 31 55 32 56 33
REMARK SMILES IDX 71 35 93 36 58 37 41 38 42 39 51 40 43 41 44 42 50 43 52 44
REMARK SMILES IDX 45 45 46 46 47 47 48 48 49 49 75 50 76 51 85 52 77 53 78 54
REMARK SMILES IDX 84 55 86 56 79 57 80 58 81 59 82 60 83 61 59 62 60 63 69 64
REMARK SMILES IDX 61 65 62 66 68 67 70 68 63 69 64 70 65 71 66 72 67 73 6 74
REMARK SMILES IDX 7 75 8 76 9 77 10 78 11 79 12 80 13 81 31 82 14 83 23 84
REMARK SMILES IDX 16 85 17 86 22 87 18 88 21 89 19 90 20 91 15 92 24 94 25 95
REMARK SMILES IDX 30 96 26 97 29 98 27 99 28 100
REMARK H PARENT 91 23 57 34 15 93
REMARK Flexibility Score: inf
ROOT
ATOM      1  C   UNL A   1      41.400  19.450  26.129  1.00  0.00     0.202 C 
ENDROOT
BRANCH   1   2
ATOM      2  C   UNL A   1      42.656  18.595  25.938  1.00  0.00     0.261 C 
BRANCH   2   3
ATOM      3  O   UNL A   1      43.295  18.833  24.676  1.00  0.00    -0.460 OA
BRANCH   3   4
ATOM      4  C   UNL A   1      44.470  19.508  24.573  1.00  0.00     0.338 C 
ATOM      5  O   UNL A   1      45.415  19.007  23.967  1.00  0.00    -0.246 OA
BRANCH   4   6
ATOM      6  C   UNL A   1      44.528  20.950  24.971  1.00  0.00     0.060 A 
ATOM      7  C   UNL A   1      44.274  22.030  24.119  1.00  0.00     0.016 A 
ATOM      8  C   UNL A   1      44.801  21.217  26.321  1.00  0.00     0.016 A 
ATOM      9  C   UNL A   1      44.349  23.336  24.574  1.00  0.00     0.010 A 
ATOM     10  C   UNL A   1      44.857  22.532  26.792  1.00  0.00     0.010 A 
ATOM     11  C   UNL A   1      44.652  23.593  25.906  1.00  0.00    -0.014 A 
BRANCH  11  12
ATOM     12  C   UNL A   1      44.893  24.995  26.287  1.00  0.00     0.031 A 
ATOM     13  C   UNL A   1      46.235  25.581  25.977  1.00  0.00     0.074 A 
ATOM     14  C   UNL A   1      43.878  25.750  26.740  1.00  0.00     0.049 A 
ATOM     15  N   UNL A   1      46.706  26.762  26.260  1.00  0.00    -0.248 NA
ATOM     16  C   UNL A   1      47.169  24.717  25.233  1.00  0.00     0.031 C 
ATOM     17  C   UNL A   1      42.497  25.290  26.909  1.00  0.00     0.029 A 
ATOM     18  N   UNL A   1      43.836  27.070  27.099  1.00  0.00    -0.354 N 
ATOM     19  C   UNL A   1      48.001  26.776  25.757  1.00  0.00     0.074 A 
ATOM     20  C   UNL A   1      48.245  25.485  25.156  1.00  0.00     0.031 C 
ATOM     21  C   UNL A   1      41.738  26.323  27.308  1.00  0.00     0.029 A 
ATOM     22  C   UNL A   1      42.590  27.493  27.494  1.00  0.00     0.049 A 
ATOM     23  H   UNL A   1      44.624  27.660  27.077  1.00  0.00     0.167 HD
ATOM     24  C   UNL A   1      48.901  27.783  25.809  1.00  0.00     0.037 A 
ATOM     25  C   UNL A   1      42.198  28.687  27.979  1.00  0.00     0.037 A 
ATOM     26  C   UNL A   1      48.614  29.053  26.416  1.00  0.00     0.049 A 
ATOM     27  C   UNL A   1      43.241  29.762  28.125  1.00  0.00     0.074 A 
ATOM     28  C   UNL A   1      49.462  30.124  26.628  1.00  0.00     0.029 A 
ATOM     29  N   UNL A   1      47.366  29.424  26.902  1.00  0.00    -0.354 N 
ATOM     30  N   UNL A   1      44.507  29.729  27.774  1.00  0.00    -0.248 NA
ATOM     31  C   UNL A   1      42.821  31.019  28.751  1.00  0.00     0.031 C 
ATOM     32  C   UNL A   1      48.733  31.127  27.277  1.00  0.00     0.029 A 
ATOM     33  C   UNL A   1      47.419  30.703  27.422  1.00  0.00     0.049 A 
ATOM     34  H   UNL A   1      46.560  28.858  26.878  1.00  0.00     0.167 HD
ATOM     35  C   UNL A   1      45.035  30.964  28.127  1.00  0.00     0.074 A 
ATOM     36  C   UNL A   1      43.945  31.725  28.708  1.00  0.00     0.031 C 
ATOM     37  C   UNL A   1      46.304  31.426  27.990  1.00  0.00     0.037 A 
BRANCH  24  38
ATOM     38  C   UNL A   1      50.276  27.500  25.271  1.00  0.00     0.058 A 
ATOM     39  C   UNL A   1      50.524  27.589  23.892  1.00  0.00     0.135 A 
ATOM     40  C   UNL A   1      51.360  27.195  26.111  1.00  0.00     0.135 A 
ATOM     41  F   UNL A   1      49.529  27.894  23.044  1.00  0.00    -0.206 F 
ATOM     42  C   UNL A   1      51.795  27.391  23.365  1.00  0.00     0.059 A 
ATOM     43  C   UNL A   1      52.647  27.020  25.607  1.00  0.00     0.059 A 
ATOM     44  F   UNL A   1      51.189  27.136  27.441  1.00  0.00    -0.206 F 
ATOM     45  C   UNL A   1      52.853  27.116  24.231  1.00  0.00     0.060 A 
BRANCH  45  46
ATOM     46  S   UNL A   1      54.514  26.958  23.539  1.00  0.00     0.124 S 
ATOM     47  O   UNL A   1      55.112  25.958  24.416  1.00  0.00    -0.237 OA
ATOM     48  O   UNL A   1      54.239  26.523  22.172  1.00  0.00    -0.237 OA
ATOM     49  O   UNL A   1      55.059  28.308  23.657  1.00  0.00    -0.744 OA
ENDBRANCH  45  46
ENDBRANCH  24  38
BRANCH  25  50
ATOM     50  C   UNL A   1      40.779  28.895  28.376  1.00  0.00     0.058 A 
ATOM     51  C   UNL A   1      39.804  29.244  27.425  1.00  0.00     0.135 A 
ATOM     52  C   UNL A   1      40.379  28.823  29.717  1.00  0.00     0.135 A 
ATOM     53  F   UNL A   1      40.129  29.327  26.126  1.00  0.00    -0.206 F 
ATOM     54  C   UNL A   1      38.501  29.563  27.795  1.00  0.00     0.059 A 
ATOM     55  C   UNL A   1      39.072  29.112  30.110  1.00  0.00     0.059 A 
ATOM     56  F   UNL A   1      41.265  28.477  30.663  1.00  0.00    -0.206 F 
ATOM     57  C   UNL A   1      38.146  29.504  29.143  1.00  0.00     0.060 A 
BRANCH  57  58
ATOM     58  S   UNL A   1      36.463  29.968  29.604  1.00  0.00     0.124 S 
ATOM     59  O   UNL A   1      36.556  31.424  29.629  1.00  0.00    -0.237 OA
ATOM     60  O   UNL A   1      35.679  29.401  28.511  1.00  0.00    -0.237 OA
ATOM     61  O   UNL A   1      36.278  29.328  30.902  1.00  0.00    -0.744 OA
ENDBRANCH  57  58
ENDBRANCH  25  50
BRANCH  37  62
ATOM     62  C   UNL A   1      46.579  32.826  28.454  1.00  0.00     0.058 A 
ATOM     63  C   UNL A   1      46.886  33.074  29.800  1.00  0.00     0.135 A 
ATOM     64  C   UNL A   1      46.438  33.925  27.594  1.00  0.00     0.135 A 
ATOM     65  F   UNL A   1      47.023  32.054  30.663  1.00  0.00    -0.206 F 
ATOM     66  C   UNL A   1      47.019  34.369  30.285  1.00  0.00     0.059 A 
ATOM     67  C   UNL A   1      46.593  35.228  28.052  1.00  0.00     0.059 A 
ATOM     68  F   UNL A   1      46.155  33.734  26.296  1.00  0.00    -0.206 F 
ATOM     69  C   UNL A   1      46.863  35.440  29.405  1.00  0.00     0.060 A 
BRANCH  69  70
ATOM     70  S   UNL A   1      47.034  37.114  30.054  1.00  0.00     0.124 S 
ATOM     71  O   UNL A   1      48.407  37.106  30.545  1.00  0.00    -0.237 OA
ATOM     72  O   UNL A   1      46.788  37.931  28.869  1.00  0.00    -0.237 OA
ATOM     73  O   UNL A   1      45.999  37.186  31.081  1.00  0.00    -0.744 OA
ENDBRANCH  69  70
ENDBRANCH  37  62
ENDBRANCH  11  12
ENDBRANCH   4   6
ENDBRANCH   3   4
ENDBRANCH   2   3
ENDBRANCH   1   2
BRANCH   1  74
ATOM     74  O   UNL A   1      41.551  20.444  27.141  1.00  0.00    -0.374 OA
BRANCH  74  75
ATOM     75  C   UNL A   1      40.565  21.471  27.134  1.00  0.00     0.202 C 
BRANCH  75  76
ATOM     76  C   UNL A   1      39.565  21.325  25.989  1.00  0.00     0.261 C 
BRANCH  76  77
ATOM     77  O   UNL A   1      38.425  22.172  26.215  1.00  0.00    -0.461 OA
BRANCH  77  78
ATOM     78  C   UNL A   1      37.410  22.058  25.304  1.00  0.00     0.335 C 
ATOM     79  O   UNL A   1      37.450  21.394  24.285  1.00  0.00    -0.249 OA
BRANCH  78  80
ATOM     80  C   UNL A   1      36.192  22.863  25.783  1.00  0.00     0.232 C 
ATOM     81  C   UNL A   1      35.648  23.765  24.695  1.00  0.00     0.087 C 
ATOM     82  O   UNL A   1      35.129  22.050  26.271  1.00  0.00    -0.355 OA
ATOM     83  C   UNL A   1      34.225  23.283  24.386  1.00  0.00     0.123 C 
ATOM     84  C   UNL A   1      34.024  22.072  25.350  1.00  0.00     0.186 C 
BRANCH  83  85
ATOM     85  C   UNL A   1      33.271  24.479  24.509  1.00  0.00    -0.013 A 
ATOM     86  C   UNL A   1      33.843  25.760  24.700  1.00  0.00     0.010 A 
ATOM     87  C   UNL A   1      31.870  24.394  24.477  1.00  0.00     0.010 A 
ATOM     88  C   UNL A   1      33.054  26.893  24.893  1.00  0.00     0.039 A 
ATOM     89  C   UNL A   1      31.078  25.533  24.662  1.00  0.00     0.039 A 
ATOM     90  C   UNL A   1      31.676  26.766  24.878  1.00  0.00     0.123 A 
ATOM     91  F   UNL A   1      30.910  27.847  25.075  1.00  0.00    -0.207 F 
ENDBRANCH  83  85
BRANCH  83  92
ATOM     92  O   UNL A   1      34.181  22.918  23.002  1.00  0.00    -0.382 OA
ATOM     93  H   UNL A   1      34.998  23.208  22.566  1.00  0.00     0.212 HD
ENDBRANCH  83  92
BRANCH  84  94
ATOM     94  C   UNL A   1      33.816  20.678  24.765  1.00  0.00    -0.016 A 
ATOM     95  C   UNL A   1      32.697  20.343  23.987  1.00  0.00     0.009 A 
ATOM     96  C   UNL A   1      34.779  19.673  25.001  1.00  0.00     0.009 A 
ATOM     97  C   UNL A   1      32.525  19.047  23.493  1.00  0.00     0.039 A 
ATOM     98  C   UNL A   1      34.613  18.381  24.492  1.00  0.00     0.039 A 
ATOM     99  C   UNL A   1      33.486  18.080  23.743  1.00  0.00     0.123 A 
ATOM    100  F   UNL A   1      33.331  16.846  23.248  1.00  0.00    -0.207 F 
ENDBRANCH  84  94
ENDBRANCH  78  80
ENDBRANCH  77  78
ENDBRANCH  76  77
ENDBRANCH  75  76
ENDBRANCH  74  75
ENDBRANCH   1  74
TORSDOF 20
ENDMDL
