MODEL 1
REMARK VINA RESULT:     -10.4      0.000      0.000
REMARK SMILES CC(C)[C@@H](CNC(=O)NC[C@@]1(C)CCCO1)C(=O)OCCOCCOC(=O)c1ccc(-c2c3nc(c(-c4c(F)cc(S(=O)(=O)[O-])cc4F)c4ccc([nH]4)c(-c4c(F)cc(S(=O)(=O)[O-])cc4F)c4nc(c(-c5c(F)cc(S(=O)(=O)[O-])cc5F)c5ccc2[nH]5)C=C4)C=C3)cc1
REMARK SMILES IDX 21 1 20 2 19 3 17 4 18 5 4 6 2 7 1 8 3 9 5 10 6 11 7 12 8 14
REMARK SMILES IDX 9 15 10 17 11 18 12 19 13 20 16 21 14 22 15 23 22 24 23 25
REMARK SMILES IDX 24 26 25 27 26 28 27 29 28 30 29 31 93 32 30 33 92 34 31 35
REMARK SMILES IDX 32 36 33 37 86 38 34 39 91 40 85 41 87 42 35 43 90 44 84 45
REMARK SMILES IDX 83 46 36 48 70 49 49 50 69 51 50 52 53 53 68 54 88 55 51 56
REMARK SMILES IDX 52 57 67 59 89 60 54 61 37 62 38 63 47 64 39 65 40 66 46 67
REMARK SMILES IDX 48 68 41 69 42 70 43 71 44 72 45 73 71 74 72 75 81 76 73 77
REMARK SMILES IDX 74 78 80 79 82 80 75 81 76 82 77 83 78 84 79 85 55 86 56 87
REMARK SMILES IDX 65 88 57 89 58 90 64 91 66 92 59 93 60 94 61 95 62 96 63 97
REMARK H PARENT 6 13 9 16 87 47 53 58
REMARK Flexibility Score: inf
ROOT
ATOM      1  C   UNL A   1      37.516  21.160  25.112  1.00  0.00     0.202 C 
ENDROOT
BRANCH   1   2
ATOM      2  C   UNL A   1      36.117  21.288  25.718  1.00  0.00     0.261 C 
BRANCH   2   3
ATOM      3  O   UNL A   1      35.287  22.274  25.076  1.00  0.00    -0.463 OA
BRANCH   3   4
ATOM      4  C   UNL A   1      35.324  23.510  25.633  1.00  0.00     0.311 C 
ATOM      5  O   UNL A   1      36.348  24.145  25.873  1.00  0.00    -0.252 OA
BRANCH   4   6
ATOM      6  C   UNL A   1      33.965  24.023  26.063  1.00  0.00     0.121 C 
BRANCH   6   7
ATOM      7  C   UNL A   1      33.629  25.514  25.814  1.00  0.00    -0.001 C 
ATOM      8  C   UNL A   1      33.942  25.901  24.358  1.00  0.00     0.008 C 
ATOM      9  C   UNL A   1      32.155  25.829  26.078  1.00  0.00     0.008 C 
ENDBRANCH   6   7
BRANCH   6  10
ATOM     10  C   UNL A   1      32.946  23.034  25.487  1.00  0.00     0.133 C 
BRANCH  10  11
ATOM     11  N   UNL A   1      32.914  23.002  24.039  1.00  0.00    -0.337 N 
ATOM     12  C   UNL A   1      32.616  22.078  23.123  1.00  0.00     0.314 C 
ATOM     13  H   UNL A   1      33.173  23.863  23.637  1.00  0.00     0.165 HD
ATOM     14  O   UNL A   1      32.547  22.452  21.950  1.00  0.00    -0.249 OA
ATOM     15  N   UNL A   1      32.376  20.795  23.383  1.00  0.00    -0.335 N 
ATOM     16  H   UNL A   1      32.024  20.326  22.591  1.00  0.00     0.165 HD
BRANCH  15  17
ATOM     17  C   UNL A   1      32.494  19.900  24.524  1.00  0.00     0.152 C 
BRANCH  17  18
ATOM     18  C   UNL A   1      32.789  18.434  24.133  1.00  0.00     0.083 C 
ATOM     19  C   UNL A   1      32.320  18.196  22.691  1.00  0.00     0.044 C 
ATOM     20  C   UNL A   1      34.252  18.024  24.313  1.00  0.00     0.039 C 
ATOM     21  O   UNL A   1      32.024  17.528  24.967  1.00  0.00    -0.373 OA
ATOM     22  C   UNL A   1      34.153  16.556  24.640  1.00  0.00     0.031 C 
ATOM     23  C   UNL A   1      32.915  16.539  25.507  1.00  0.00     0.161 C 
ENDBRANCH  17  18
ENDBRANCH  15  17
ENDBRANCH  10  11
ENDBRANCH   6  10
ENDBRANCH   4   6
ENDBRANCH   3   4
ENDBRANCH   2   3
ENDBRANCH   1   2
BRANCH   1  24
ATOM     24  O   UNL A   1      38.555  21.919  25.727  1.00  0.00    -0.374 OA
BRANCH  24  25
ATOM     25  C   UNL A   1      39.728  21.218  26.137  1.00  0.00     0.202 C 
BRANCH  25  26
ATOM     26  C   UNL A   1      40.612  21.923  27.170  1.00  0.00     0.261 C 
BRANCH  26  27
ATOM     27  O   UNL A   1      40.123  23.242  27.482  1.00  0.00    -0.460 OA
BRANCH  27  28
ATOM     28  C   UNL A   1      40.994  24.236  27.192  1.00  0.00     0.338 C 
ATOM     29  O   UNL A   1      41.904  24.191  26.369  1.00  0.00    -0.246 OA
BRANCH  28  30
ATOM     30  C   UNL A   1      40.627  25.491  27.869  1.00  0.00     0.060 A 
ATOM     31  C   UNL A   1      41.548  26.541  27.783  1.00  0.00     0.016 A 
ATOM     32  C   UNL A   1      39.503  25.601  28.693  1.00  0.00     0.016 A 
ATOM     33  C   UNL A   1      41.414  27.655  28.605  1.00  0.00     0.010 A 
ATOM     34  C   UNL A   1      39.368  26.727  29.521  1.00  0.00     0.010 A 
ATOM     35  C   UNL A   1      40.363  27.723  29.531  1.00  0.00    -0.014 A 
BRANCH  35  36
ATOM     36  C   UNL A   1      40.476  28.712  30.635  1.00  0.00     0.031 A 
ATOM     37  C   UNL A   1      39.493  29.857  30.686  1.00  0.00     0.074 A 
ATOM     38  C   UNL A   1      41.342  28.528  31.648  1.00  0.00     0.049 A 
ATOM     39  N   UNL A   1      39.312  30.758  31.618  1.00  0.00    -0.248 NA
ATOM     40  C   UNL A   1      38.588  30.001  29.533  1.00  0.00     0.031 C 
ATOM     41  C   UNL A   1      42.324  27.448  31.735  1.00  0.00     0.029 A 
ATOM     42  N   UNL A   1      41.518  29.237  32.810  1.00  0.00    -0.354 N 
ATOM     43  C   UNL A   1      38.277  31.569  31.168  1.00  0.00     0.074 A 
ATOM     44  C   UNL A   1      37.893  31.081  29.862  1.00  0.00     0.031 C 
ATOM     45  C   UNL A   1      42.993  27.561  32.897  1.00  0.00     0.029 A 
ATOM     46  C   UNL A   1      42.493  28.723  33.631  1.00  0.00     0.049 A 
ATOM     47  H   UNL A   1      40.994  30.041  33.035  1.00  0.00     0.167 HD
ATOM     48  C   UNL A   1      37.681  32.614  31.790  1.00  0.00     0.037 A 
ATOM     49  C   UNL A   1      42.925  29.135  34.839  1.00  0.00     0.037 A 
ATOM     50  C   UNL A   1      38.047  33.095  33.096  1.00  0.00     0.049 A 
ATOM     51  C   UNL A   1      42.260  30.312  35.505  1.00  0.00     0.074 A 
ATOM     52  C   UNL A   1      37.498  34.146  33.813  1.00  0.00     0.029 A 
ATOM     53  N   UNL A   1      39.052  32.557  33.884  1.00  0.00    -0.354 N 
ATOM     54  N   UNL A   1      41.265  31.052  35.075  1.00  0.00    -0.248 NA
ATOM     55  C   UNL A   1      42.763  30.698  36.832  1.00  0.00     0.031 C 
ATOM     56  C   UNL A   1      38.195  34.261  35.021  1.00  0.00     0.029 A 
ATOM     57  C   UNL A   1      39.147  33.258  35.074  1.00  0.00     0.049 A 
ATOM     58  H   UNL A   1      39.615  31.789  33.633  1.00  0.00     0.167 HD
ATOM     59  C   UNL A   1      41.004  31.968  36.090  1.00  0.00     0.074 A 
ATOM     60  C   UNL A   1      41.938  31.682  37.160  1.00  0.00     0.031 C 
ATOM     61  C   UNL A   1      40.073  32.953  36.136  1.00  0.00     0.037 A 
BRANCH  48  62
ATOM     62  C   UNL A   1      36.574  33.319  31.057  1.00  0.00     0.058 A 
ATOM     63  C   UNL A   1      36.829  34.128  29.938  1.00  0.00     0.135 A 
ATOM     64  C   UNL A   1      35.239  33.161  31.461  1.00  0.00     0.135 A 
ATOM     65  F   UNL A   1      38.090  34.329  29.523  1.00  0.00    -0.206 F 
ATOM     66  C   UNL A   1      35.801  34.774  29.258  1.00  0.00     0.059 A 
ATOM     67  C   UNL A   1      34.193  33.779  30.781  1.00  0.00     0.059 A 
ATOM     68  F   UNL A   1      34.941  32.401  32.526  1.00  0.00    -0.206 F 
ATOM     69  C   UNL A   1      34.486  34.594  29.689  1.00  0.00     0.060 A 
BRANCH  69  70
ATOM     70  S   UNL A   1      33.159  35.430  28.794  1.00  0.00     0.124 S 
ATOM     71  O   UNL A   1      33.910  36.390  27.991  1.00  0.00    -0.237 OA
ATOM     72  O   UNL A   1      32.539  34.335  28.054  1.00  0.00    -0.237 OA
ATOM     73  O   UNL A   1      32.342  36.005  29.857  1.00  0.00    -0.744 OA
ENDBRANCH  69  70
ENDBRANCH  48  62
BRANCH  49  74
ATOM     74  C   UNL A   1      44.044  28.421  35.513  1.00  0.00     0.058 A 
ATOM     75  C   UNL A   1      43.803  27.386  36.428  1.00  0.00     0.135 A 
ATOM     76  C   UNL A   1      45.377  28.779  35.264  1.00  0.00     0.135 A 
ATOM     77  F   UNL A   1      42.544  27.015  36.705  1.00  0.00    -0.206 F 
ATOM     78  C   UNL A   1      44.845  26.743  37.090  1.00  0.00     0.059 A 
ATOM     79  C   UNL A   1      46.436  28.135  35.896  1.00  0.00     0.059 A 
ATOM     80  F   UNL A   1      45.660  29.758  34.390  1.00  0.00    -0.206 F 
ATOM     81  C   UNL A   1      46.158  27.127  36.818  1.00  0.00     0.060 A 
BRANCH  81  82
ATOM     82  S   UNL A   1      47.507  26.269  37.659  1.00  0.00     0.124 S 
ATOM     83  O   UNL A   1      47.983  27.298  38.577  1.00  0.00    -0.237 OA
ATOM     84  O   UNL A   1      46.820  25.136  38.272  1.00  0.00    -0.237 OA
ATOM     85  O   UNL A   1      48.416  25.926  36.569  1.00  0.00    -0.744 OA
ENDBRANCH  81  82
ENDBRANCH  49  74
BRANCH  61  86
ATOM     86  C   UNL A   1      39.986  33.763  37.399  1.00  0.00     0.058 A 
ATOM     87  C   UNL A   1      39.150  33.389  38.464  1.00  0.00     0.135 A 
ATOM     88  C   UNL A   1      40.769  34.918  37.557  1.00  0.00     0.135 A 
ATOM     89  F   UNL A   1      38.380  32.293  38.365  1.00  0.00    -0.206 F 
ATOM     90  C   UNL A   1      39.063  34.154  39.623  1.00  0.00     0.059 A 
ATOM     91  C   UNL A   1      40.718  35.684  38.718  1.00  0.00     0.059 A 
ATOM     92  F   UNL A   1      41.598  35.312  36.577  1.00  0.00    -0.206 F 
ATOM     93  C   UNL A   1      39.847  35.303  39.738  1.00  0.00     0.060 A 
BRANCH  93  94
ATOM     94  S   UNL A   1      39.729  36.291  41.245  1.00  0.00     0.124 S 
ATOM     95  O   UNL A   1      41.127  36.645  41.474  1.00  0.00    -0.237 OA
ATOM     96  O   UNL A   1      38.856  37.388  40.838  1.00  0.00    -0.237 OA
ATOM     97  O   UNL A   1      39.149  35.363  42.212  1.00  0.00    -0.744 OA
ENDBRANCH  93  94
ENDBRANCH  61  86
ENDBRANCH  35  36
ENDBRANCH  28  30
ENDBRANCH  27  28
ENDBRANCH  26  27
ENDBRANCH  25  26
ENDBRANCH  24  25
ENDBRANCH   1  24
TORSDOF 22
ENDMDL
MODEL 2
REMARK VINA RESULT:     -10.3      4.926     10.089
REMARK SMILES CC(C)[C@@H](CNC(=O)NC[C@@]1(C)CCCO1)C(=O)OCCOCCOC(=O)c1ccc(-c2c3nc(c(-c4c(F)cc(S(=O)(=O)[O-])cc4F)c4ccc([nH]4)c(-c4c(F)cc(S(=O)(=O)[O-])cc4F)c4nc(c(-c5c(F)cc(S(=O)(=O)[O-])cc5F)c5ccc2[nH]5)C=C4)C=C3)cc1
REMARK SMILES IDX 21 1 20 2 19 3 17 4 18 5 4 6 2 7 1 8 3 9 5 10 6 11 7 12 8 14
REMARK SMILES IDX 9 15 10 17 11 18 12 19 13 20 16 21 14 22 15 23 22 24 23 25
REMARK SMILES IDX 24 26 25 27 26 28 27 29 28 30 29 31 93 32 30 33 92 34 31 35
REMARK SMILES IDX 32 36 33 37 86 38 34 39 91 40 85 41 87 42 35 43 90 44 84 45
REMARK SMILES IDX 83 46 36 48 70 49 49 50 69 51 50 52 53 53 68 54 88 55 51 56
REMARK SMILES IDX 52 57 67 59 89 60 54 61 37 62 38 63 47 64 39 65 40 66 46 67
REMARK SMILES IDX 48 68 41 69 42 70 43 71 44 72 45 73 71 74 72 75 81 76 73 77
REMARK SMILES IDX 74 78 80 79 82 80 75 81 76 82 77 83 78 84 79 85 55 86 56 87
REMARK SMILES IDX 65 88 57 89 58 90 64 91 66 92 59 93 60 94 61 95 62 96 63 97
REMARK H PARENT 6 13 9 16 87 47 53 58
REMARK Flexibility Score: inf
ROOT
ATOM      1  C   UNL A   1      31.964  27.695  26.222  1.00  0.00     0.202 C 
ENDROOT
BRANCH   1   2
ATOM      2  C   UNL A   1      31.024  26.488  26.273  1.00  0.00     0.261 C 
BRANCH   2   3
ATOM      3  O   UNL A   1      31.315  25.476  25.292  1.00  0.00    -0.463 OA
BRANCH   3   4
ATOM      4  C   UNL A   1      32.350  24.654  25.601  1.00  0.00     0.311 C 
ATOM      5  O   UNL A   1      32.389  23.906  26.574  1.00  0.00    -0.252 OA
BRANCH   4   6
ATOM      6  C   UNL A   1      33.548  24.819  24.689  1.00  0.00     0.121 C 
BRANCH   6   7
ATOM      7  C   UNL A   1      34.634  23.715  24.696  1.00  0.00    -0.001 C 
ATOM      8  C   UNL A   1      35.035  23.342  23.258  1.00  0.00     0.008 C 
ATOM      9  C   UNL A   1      35.900  24.151  25.439  1.00  0.00     0.008 C 
ENDBRANCH   6   7
BRANCH   6  10
ATOM     10  C   UNL A   1      32.977  25.144  23.305  1.00  0.00     0.133 C 
BRANCH  10  11
ATOM     11  N   UNL A   1      33.639  26.249  22.643  1.00  0.00    -0.337 N 
ATOM     12  C   UNL A   1      33.267  27.465  22.238  1.00  0.00     0.314 C 
ATOM     13  H   UNL A   1      34.585  26.058  22.444  1.00  0.00     0.165 HD
ATOM     14  O   UNL A   1      34.155  28.219  21.836  1.00  0.00    -0.249 OA
ATOM     15  N   UNL A   1      32.017  27.924  22.250  1.00  0.00    -0.335 N 
ATOM     16  H   UNL A   1      31.986  28.891  22.060  1.00  0.00     0.165 HD
BRANCH  15  17
ATOM     17  C   UNL A   1      30.685  27.380  22.467  1.00  0.00     0.152 C 
BRANCH  17  18
ATOM     18  C   UNL A   1      29.631  28.450  22.832  1.00  0.00     0.083 C 
ATOM     19  C   UNL A   1      28.359  27.749  23.331  1.00  0.00     0.044 C 
ATOM     20  C   UNL A   1      30.122  29.488  23.843  1.00  0.00     0.039 C 
ATOM     21  O   UNL A   1      29.248  29.201  21.653  1.00  0.00    -0.373 OA
ATOM     22  C   UNL A   1      29.350  30.725  23.458  1.00  0.00     0.031 C 
ATOM     23  C   UNL A   1      29.349  30.603  21.951  1.00  0.00     0.161 C 
ENDBRANCH  17  18
ENDBRANCH  15  17
ENDBRANCH  10  11
ENDBRANCH   6  10
ENDBRANCH   4   6
ENDBRANCH   3   4
ENDBRANCH   2   3
ENDBRANCH   1   2
BRANCH   1  24
ATOM     24  O   UNL A   1      31.958  28.562  27.355  1.00  0.00    -0.374 OA
BRANCH  24  25
ATOM     25  C   UNL A   1      32.304  29.929  27.139  1.00  0.00     0.202 C 
BRANCH  25  26
ATOM     26  C   UNL A   1      33.800  30.260  27.160  1.00  0.00     0.261 C 
BRANCH  26  27
ATOM     27  O   UNL A   1      34.052  31.562  27.724  1.00  0.00    -0.460 OA
BRANCH  27  28
ATOM     28  C   UNL A   1      34.808  31.540  28.845  1.00  0.00     0.338 C 
ATOM     29  O   UNL A   1      34.540  32.077  29.916  1.00  0.00    -0.246 OA
BRANCH  28  30
ATOM     30  C   UNL A   1      35.959  30.631  28.704  1.00  0.00     0.060 A 
ATOM     31  C   UNL A   1      36.449  30.056  29.881  1.00  0.00     0.016 A 
ATOM     32  C   UNL A   1      36.640  30.463  27.495  1.00  0.00     0.016 A 
ATOM     33  C   UNL A   1      37.681  29.410  29.880  1.00  0.00     0.010 A 
ATOM     34  C   UNL A   1      37.883  29.809  27.496  1.00  0.00     0.010 A 
ATOM     35  C   UNL A   1      38.439  29.344  28.702  1.00  0.00    -0.014 A 
BRANCH  35  36
ATOM     36  C   UNL A   1      39.883  29.008  28.826  1.00  0.00     0.031 A 
ATOM     37  C   UNL A   1      40.810  30.017  29.459  1.00  0.00     0.074 A 
ATOM     38  C   UNL A   1      40.341  27.784  28.508  1.00  0.00     0.049 A 
ATOM     39  N   UNL A   1      42.069  29.894  29.794  1.00  0.00    -0.248 NA
ATOM     40  C   UNL A   1      40.238  31.339  29.764  1.00  0.00     0.031 C 
ATOM     41  C   UNL A   1      39.545  26.710  27.916  1.00  0.00     0.029 A 
ATOM     42  N   UNL A   1      41.589  27.232  28.662  1.00  0.00    -0.354 N 
ATOM     43  C   UNL A   1      42.437  31.116  30.347  1.00  0.00     0.074 A 
ATOM     44  C   UNL A   1      41.281  31.981  30.269  1.00  0.00     0.031 C 
ATOM     45  C   UNL A   1      40.322  25.623  27.767  1.00  0.00     0.029 A 
ATOM     46  C   UNL A   1      41.671  25.925  28.246  1.00  0.00     0.049 A 
ATOM     47  H   UNL A   1      42.354  27.727  29.037  1.00  0.00     0.167 HD
ATOM     48  C   UNL A   1      43.622  31.482  30.892  1.00  0.00     0.037 A 
ATOM     49  C   UNL A   1      42.712  25.068  28.257  1.00  0.00     0.037 A 
ATOM     50  C   UNL A   1      44.771  30.620  30.987  1.00  0.00     0.049 A 
ATOM     51  C   UNL A   1      44.027  25.504  28.852  1.00  0.00     0.074 A 
ATOM     52  C   UNL A   1      46.016  30.900  31.526  1.00  0.00     0.029 A 
ATOM     53  N   UNL A   1      44.816  29.311  30.535  1.00  0.00    -0.354 N 
ATOM     54  N   UNL A   1      44.349  26.655  29.393  1.00  0.00    -0.248 NA
ATOM     55  C   UNL A   1      45.115  24.515  28.855  1.00  0.00     0.031 C 
ATOM     56  C   UNL A   1      46.823  29.768  31.371  1.00  0.00     0.029 A 
ATOM     57  C   UNL A   1      46.069  28.772  30.774  1.00  0.00     0.049 A 
ATOM     58  H   UNL A   1      44.069  28.835  30.107  1.00  0.00     0.167 HD
ATOM     59  C   UNL A   1      45.663  26.517  29.829  1.00  0.00     0.074 A 
ATOM     60  C   UNL A   1      46.073  25.168  29.497  1.00  0.00     0.031 C 
ATOM     61  C   UNL A   1      46.459  27.422  30.451  1.00  0.00     0.037 A 
BRANCH  48  62
ATOM     62  C   UNL A   1      43.739  32.885  31.418  1.00  0.00     0.058 A 
ATOM     63  C   UNL A   1      43.394  33.208  32.740  1.00  0.00     0.135 A 
ATOM     64  C   UNL A   1      44.229  33.914  30.598  1.00  0.00     0.135 A 
ATOM     65  F   UNL A   1      42.901  32.266  33.559  1.00  0.00    -0.206 F 
ATOM     66  C   UNL A   1      43.510  34.508  33.225  1.00  0.00     0.059 A 
ATOM     67  C   UNL A   1      44.375  35.216  31.069  1.00  0.00     0.059 A 
ATOM     68  F   UNL A   1      44.570  33.659  29.325  1.00  0.00    -0.206 F 
ATOM     69  C   UNL A   1      44.000  35.505  32.380  1.00  0.00     0.060 A 
BRANCH  69  70
ATOM     70  S   UNL A   1      44.154  37.186  33.022  1.00  0.00     0.124 S 
ATOM     71  O   UNL A   1      43.053  37.233  33.979  1.00  0.00    -0.237 OA
ATOM     72  O   UNL A   1      45.494  37.181  33.599  1.00  0.00    -0.237 OA
ATOM     73  O   UNL A   1      43.989  38.019  31.835  1.00  0.00    -0.744 OA
ENDBRANCH  69  70
ENDBRANCH  48  62
BRANCH  49  74
ATOM     74  C   UNL A   1      42.554  23.698  27.699  1.00  0.00     0.058 A 
ATOM     75  C   UNL A   1      42.323  22.593  28.530  1.00  0.00     0.135 A 
ATOM     76  C   UNL A   1      42.651  23.470  26.318  1.00  0.00     0.135 A 
ATOM     77  F   UNL A   1      42.232  22.759  29.858  1.00  0.00    -0.206 F 
ATOM     78  C   UNL A   1      42.215  21.304  28.015  1.00  0.00     0.059 A 
ATOM     79  C   UNL A   1      42.523  22.195  25.777  1.00  0.00     0.059 A 
ATOM     80  F   UNL A   1      42.863  24.496  25.479  1.00  0.00    -0.206 F 
ATOM     81  C   UNL A   1      42.319  21.116  26.637  1.00  0.00     0.060 A 
BRANCH  81  82
ATOM     82  S   UNL A   1      42.149  19.445  25.972  1.00  0.00     0.124 S 
ATOM     83  O   UNL A   1      42.648  18.637  27.078  1.00  0.00    -0.237 OA
ATOM     84  O   UNL A   1      40.714  19.358  25.715  1.00  0.00    -0.237 OA
ATOM     85  O   UNL A   1      42.990  19.472  24.779  1.00  0.00    -0.744 OA
ENDBRANCH  81  82
ENDBRANCH  49  74
BRANCH  61  86
ATOM     86  C   UNL A   1      47.834  26.971  30.857  1.00  0.00     0.058 A 
ATOM     87  C   UNL A   1      48.072  26.329  32.082  1.00  0.00     0.135 A 
ATOM     88  C   UNL A   1      48.927  27.161  29.994  1.00  0.00     0.135 A 
ATOM     89  F   UNL A   1      47.063  26.121  32.943  1.00  0.00    -0.206 F 
ATOM     90  C   UNL A   1      49.351  25.929  32.457  1.00  0.00     0.059 A 
ATOM     91  C   UNL A   1      50.210  26.746  30.337  1.00  0.00     0.059 A 
ATOM     92  F   UNL A   1      48.752  27.755  28.803  1.00  0.00    -0.206 F 
ATOM     93  C   UNL A   1      50.415  26.148  31.579  1.00  0.00     0.060 A 
BRANCH  93  94
ATOM     94  S   UNL A   1      52.072  25.626  32.071  1.00  0.00     0.124 S 
ATOM     95  O   UNL A   1      51.870  24.202  32.319  1.00  0.00    -0.237 OA
ATOM     96  O   UNL A   1      52.871  25.957  30.896  1.00  0.00    -0.237 OA
ATOM     97  O   UNL A   1      52.344  26.437  33.255  1.00  0.00    -0.744 OA
ENDBRANCH  93  94
ENDBRANCH  61  86
ENDBRANCH  35  36
ENDBRANCH  28  30
ENDBRANCH  27  28
ENDBRANCH  26  27
ENDBRANCH  25  26
ENDBRANCH  24  25
ENDBRANCH   1  24
TORSDOF 22
ENDMDL
MODEL 3
REMARK VINA RESULT:     -10.2      2.388      8.163
REMARK SMILES CC(C)[C@@H](CNC(=O)NC[C@@]1(C)CCCO1)C(=O)OCCOCCOC(=O)c1ccc(-c2c3nc(c(-c4c(F)cc(S(=O)(=O)[O-])cc4F)c4ccc([nH]4)c(-c4c(F)cc(S(=O)(=O)[O-])cc4F)c4nc(c(-c5c(F)cc(S(=O)(=O)[O-])cc5F)c5ccc2[nH]5)C=C4)C=C3)cc1
REMARK SMILES IDX 21 1 20 2 19 3 17 4 18 5 4 6 2 7 1 8 3 9 5 10 6 11 7 12 8 14
REMARK SMILES IDX 9 15 10 17 11 18 12 19 13 20 16 21 14 22 15 23 22 24 23 25
REMARK SMILES IDX 24 26 25 27 26 28 27 29 28 30 29 31 93 32 30 33 92 34 31 35
REMARK SMILES IDX 32 36 33 37 86 38 34 39 91 40 85 41 87 42 35 43 90 44 84 45
REMARK SMILES IDX 83 46 36 48 70 49 49 50 69 51 50 52 53 53 68 54 88 55 51 56
REMARK SMILES IDX 52 57 67 59 89 60 54 61 37 62 38 63 47 64 39 65 40 66 46 67
REMARK SMILES IDX 48 68 41 69 42 70 43 71 44 72 45 73 71 74 72 75 81 76 73 77
REMARK SMILES IDX 74 78 80 79 82 80 75 81 76 82 77 83 78 84 79 85 55 86 56 87
REMARK SMILES IDX 65 88 57 89 58 90 64 91 66 92 59 93 60 94 61 95 62 96 63 97
REMARK H PARENT 6 13 9 16 87 47 53 58
REMARK Flexibility Score: inf
ROOT
ATOM      1  C   UNL A   1      31.841  28.482  27.648  1.00  0.00     0.202 C 
ENDROOT
BRANCH   1   2
ATOM      2  C   UNL A   1      31.306  27.482  26.620  1.00  0.00     0.261 C 
BRANCH   2   3
ATOM      3  O   UNL A   1      31.932  26.187  26.679  1.00  0.00    -0.463 OA
BRANCH   3   4
ATOM      4  C   UNL A   1      32.614  25.826  25.563  1.00  0.00     0.311 C 
ATOM      5  O   UNL A   1      33.831  25.670  25.499  1.00  0.00    -0.252 OA
BRANCH   4   6
ATOM      6  C   UNL A   1      31.746  25.738  24.324  1.00  0.00     0.121 C 
BRANCH   6   7
ATOM      7  C   UNL A   1      32.356  26.172  22.968  1.00  0.00    -0.001 C 
ATOM      8  C   UNL A   1      32.889  24.950  22.201  1.00  0.00     0.008 C 
ATOM      9  C   UNL A   1      31.335  26.880  22.073  1.00  0.00     0.008 C 
ENDBRANCH   6   7
BRANCH   6  10
ATOM     10  C   UNL A   1      31.147  24.328  24.334  1.00  0.00     0.133 C 
BRANCH  10  11
ATOM     11  N   UNL A   1      30.512  23.970  25.585  1.00  0.00    -0.337 N 
ATOM     12  C   UNL A   1      30.589  22.929  26.418  1.00  0.00     0.314 C 
ATOM     13  H   UNL A   1      29.875  24.654  25.895  1.00  0.00     0.165 HD
ATOM     14  O   UNL A   1      30.003  23.029  27.497  1.00  0.00    -0.249 OA
ATOM     15  N   UNL A   1      31.258  21.805  26.173  1.00  0.00    -0.335 N 
ATOM     16  H   UNL A   1      31.315  21.236  26.977  1.00  0.00     0.165 HD
BRANCH  15  17
ATOM     17  C   UNL A   1      31.929  21.189  25.037  1.00  0.00     0.152 C 
BRANCH  17  18
ATOM     18  C   UNL A   1      33.468  21.158  25.169  1.00  0.00     0.083 C 
ATOM     19  C   UNL A   1      33.969  19.743  24.843  1.00  0.00     0.044 C 
ATOM     20  C   UNL A   1      34.187  22.208  24.320  1.00  0.00     0.039 C 
ATOM     21  O   UNL A   1      33.861  21.425  26.538  1.00  0.00    -0.373 OA
ATOM     22  C   UNL A   1      35.420  22.511  25.133  1.00  0.00     0.031 C 
ATOM     23  C   UNL A   1      34.858  22.459  26.535  1.00  0.00     0.161 C 
ENDBRANCH  17  18
ENDBRANCH  15  17
ENDBRANCH  10  11
ENDBRANCH   6  10
ENDBRANCH   4   6
ENDBRANCH   3   4
ENDBRANCH   2   3
ENDBRANCH   1   2
BRANCH   1  24
ATOM     24  O   UNL A   1      33.087  29.108  27.347  1.00  0.00    -0.374 OA
BRANCH  24  25
ATOM     25  C   UNL A   1      33.045  30.375  26.694  1.00  0.00     0.202 C 
BRANCH  25  26
ATOM     26  C   UNL A   1      33.901  31.485  27.311  1.00  0.00     0.261 C 
BRANCH  26  27
ATOM     27  O   UNL A   1      33.106  32.407  28.083  1.00  0.00    -0.460 OA
BRANCH  27  28
ATOM     28  C   UNL A   1      33.684  33.616  28.263  1.00  0.00     0.338 C 
ATOM     29  O   UNL A   1      33.328  34.677  27.758  1.00  0.00    -0.246 OA
BRANCH  28  30
ATOM     30  C   UNL A   1      34.728  33.568  29.302  1.00  0.00     0.060 A 
ATOM     31  C   UNL A   1      35.994  34.041  28.938  1.00  0.00     0.016 A 
ATOM     32  C   UNL A   1      34.533  32.940  30.535  1.00  0.00     0.016 A 
ATOM     33  C   UNL A   1      37.093  33.787  29.752  1.00  0.00     0.010 A 
ATOM     34  C   UNL A   1      35.643  32.686  31.357  1.00  0.00     0.010 A 
ATOM     35  C   UNL A   1      36.936  33.045  30.933  1.00  0.00    -0.014 A 
BRANCH  35  36
ATOM     36  C   UNL A   1      38.158  32.469  31.554  1.00  0.00     0.031 A 
ATOM     37  C   UNL A   1      38.590  32.977  32.909  1.00  0.00     0.074 A 
ATOM     38  C   UNL A   1      38.795  31.424  30.996  1.00  0.00     0.049 A 
ATOM     39  N   UNL A   1      39.534  32.535  33.700  1.00  0.00    -0.248 NA
ATOM     40  C   UNL A   1      37.854  34.133  33.446  1.00  0.00     0.031 C 
ATOM     41  C   UNL A   1      38.461  30.819  29.707  1.00  0.00     0.029 A 
ATOM     42  N   UNL A   1      39.846  30.670  31.459  1.00  0.00    -0.354 N 
ATOM     43  C   UNL A   1      39.503  33.354  34.824  1.00  0.00     0.074 A 
ATOM     44  C   UNL A   1      38.474  34.344  34.597  1.00  0.00     0.031 C 
ATOM     45  C   UNL A   1      39.286  29.780  29.487  1.00  0.00     0.029 A 
ATOM     46  C   UNL A   1      40.209  29.649  30.614  1.00  0.00     0.049 A 
ATOM     47  H   UNL A   1      40.297  30.846  32.317  1.00  0.00     0.167 HD
ATOM     48  C   UNL A   1      40.247  33.280  35.953  1.00  0.00     0.037 A 
ATOM     49  C   UNL A   1      41.169  28.711  30.739  1.00  0.00     0.037 A 
ATOM     50  C   UNL A   1      41.262  32.287  36.191  1.00  0.00     0.049 A 
ATOM     51  C   UNL A   1      41.998  28.659  31.997  1.00  0.00     0.074 A 
ATOM     52  C   UNL A   1      42.066  32.127  37.307  1.00  0.00     0.029 A 
ATOM     53  N   UNL A   1      41.610  31.284  35.301  1.00  0.00    -0.354 N 
ATOM     54  N   UNL A   1      41.937  29.426  33.060  1.00  0.00    -0.248 NA
ATOM     55  C   UNL A   1      43.012  27.598  32.082  1.00  0.00     0.031 C 
ATOM     56  C   UNL A   1      42.923  31.045  37.077  1.00  0.00     0.029 A 
ATOM     57  C   UNL A   1      42.623  30.507  35.837  1.00  0.00     0.049 A 
ATOM     58  H   UNL A   1      41.198  31.144  34.418  1.00  0.00     0.167 HD
ATOM     59  C   UNL A   1      42.882  28.921  33.949  1.00  0.00     0.074 A 
ATOM     60  C   UNL A   1      43.492  27.777  33.304  1.00  0.00     0.031 C 
ATOM     61  C   UNL A   1      43.212  29.362  35.189  1.00  0.00     0.037 A 
BRANCH  48  62
ATOM     62  C   UNL A   1      39.998  34.312  37.017  1.00  0.00     0.058 A 
ATOM     63  C   UNL A   1      40.520  35.612  36.919  1.00  0.00     0.135 A 
ATOM     64  C   UNL A   1      39.206  34.006  38.134  1.00  0.00     0.135 A 
ATOM     65  F   UNL A   1      41.301  35.950  35.881  1.00  0.00    -0.206 F 
ATOM     66  C   UNL A   1      40.282  36.567  37.903  1.00  0.00     0.059 A 
ATOM     67  C   UNL A   1      38.935  34.953  39.119  1.00  0.00     0.059 A 
ATOM     68  F   UNL A   1      38.686  32.777  38.278  1.00  0.00    -0.206 F 
ATOM     69  C   UNL A   1      39.489  36.227  39.000  1.00  0.00     0.060 A 
BRANCH  69  70
ATOM     70  S   UNL A   1      39.181  37.476  40.267  1.00  0.00     0.124 S 
ATOM     71  O   UNL A   1      38.614  36.666  41.341  1.00  0.00    -0.237 OA
ATOM     72  O   UNL A   1      40.516  38.010  40.514  1.00  0.00    -0.237 OA
ATOM     73  O   UNL A   1      38.252  38.395  39.618  1.00  0.00    -0.744 OA
ENDBRANCH  69  70
ENDBRANCH  48  62
BRANCH  49  74
ATOM     74  C   UNL A   1      41.396  27.728  29.645  1.00  0.00     0.058 A 
ATOM     75  C   UNL A   1      42.515  27.818  28.804  1.00  0.00     0.135 A 
ATOM     76  C   UNL A   1      40.482  26.690  29.412  1.00  0.00     0.135 A 
ATOM     77  F   UNL A   1      43.411  28.799  28.982  1.00  0.00    -0.206 F 
ATOM     78  C   UNL A   1      42.710  26.925  27.755  1.00  0.00     0.059 A 
ATOM     79  C   UNL A   1      40.667  25.771  28.384  1.00  0.00     0.059 A 
ATOM     80  F   UNL A   1      39.400  26.557  30.195  1.00  0.00    -0.206 F 
ATOM     81  C   UNL A   1      41.778  25.906  27.552  1.00  0.00     0.060 A 
BRANCH  81  82
ATOM     82  S   UNL A   1      42.052  24.732  26.206  1.00  0.00     0.124 S 
ATOM     83  O   UNL A   1      43.310  24.114  26.608  1.00  0.00    -0.237 OA
ATOM     84  O   UNL A   1      40.868  23.882  26.291  1.00  0.00    -0.237 OA
ATOM     85  O   UNL A   1      42.117  25.587  25.024  1.00  0.00    -0.744 OA
ENDBRANCH  81  82
ENDBRANCH  49  74
BRANCH  61  86
ATOM     86  C   UNL A   1      44.245  28.577  35.949  1.00  0.00     0.058 A 
ATOM     87  C   UNL A   1      45.616  28.855  35.837  1.00  0.00     0.135 A 
ATOM     88  C   UNL A   1      43.854  27.548  36.821  1.00  0.00     0.135 A 
ATOM     89  F   UNL A   1      46.044  29.830  35.018  1.00  0.00    -0.206 F 
ATOM     90  C   UNL A   1      46.567  28.114  36.532  1.00  0.00     0.059 A 
ATOM     91  C   UNL A   1      44.786  26.810  37.545  1.00  0.00     0.059 A 
ATOM     92  F   UNL A   1      42.554  27.251  36.977  1.00  0.00    -0.206 F 
ATOM     93  C   UNL A   1      46.142  27.088  37.379  1.00  0.00     0.060 A 
BRANCH  93  94
ATOM     94  S   UNL A   1      47.381  26.130  38.277  1.00  0.00     0.124 S 
ATOM     95  O   UNL A   1      46.561  25.457  39.280  1.00  0.00    -0.237 OA
ATOM     96  O   UNL A   1      47.937  25.274  37.234  1.00  0.00    -0.237 OA
ATOM     97  O   UNL A   1      48.290  27.151  38.791  1.00  0.00    -0.744 OA
ENDBRANCH  93  94
ENDBRANCH  61  86
ENDBRANCH  35  36
ENDBRANCH  28  30
ENDBRANCH  27  28
ENDBRANCH  26  27
ENDBRANCH  25  26
ENDBRANCH  24  25
ENDBRANCH   1  24
TORSDOF 22
ENDMDL
