MODEL 1
REMARK VINA RESULT:     -11.3      0.000      0.000
REMARK SMILES CC[C@@H]1CCC[C@@](Cc2cccc(O)c2)(C(=O)OCCOCCOC(=O)c2ccc(-c3c4nc(c(-c5c(F)cc(S(=O)(=O)[O-])cc5F)c5ccc([nH]5)c(-c5c(F)cc(S(=O)(=O)[O-])cc5F)c5nc(c(-c6c(F)cc(S(=O)(=O)[O-])cc6F)c6ccc3[nH]6)C=C5)C=C4)cc2)C1
REMARK SMILES IDX 21 1 20 2 19 3 18 4 16 5 17 6 7 7 3 8 4 9 93 10 5 11 6 12
REMARK SMILES IDX 2 13 1 14 8 15 9 16 10 17 15 18 11 19 13 20 12 21 14 22
REMARK SMILES IDX 22 24 23 25 24 26 25 27 26 28 27 29 28 30 92 31 29 32 91 33
REMARK SMILES IDX 30 34 31 35 32 36 85 37 33 38 90 39 84 40 86 41 34 42 89 43
REMARK SMILES IDX 83 44 82 45 35 47 69 48 48 49 68 50 49 51 52 52 67 53 87 54
REMARK SMILES IDX 50 55 51 56 66 58 88 59 53 60 36 61 37 62 46 63 38 64 39 65
REMARK SMILES IDX 45 66 47 67 40 68 41 69 42 70 43 71 44 72 70 73 71 74 80 75
REMARK SMILES IDX 72 76 73 77 79 78 81 79 74 80 75 81 76 82 77 83 78 84 54 85
REMARK SMILES IDX 55 86 64 87 56 88 57 89 63 90 65 91 58 92 59 93 60 94 61 95
REMARK SMILES IDX 62 96
REMARK H PARENT 14 23 86 46 52 57
REMARK Flexibility Score: inf
ROOT
ATOM      1  O   UNL A   1      39.269  21.070  25.792  1.00  0.00    -0.374 OA
ENDROOT
BRANCH   1   2
ATOM      2  C   UNL A   1      38.123  21.547  25.092  1.00  0.00     0.202 C 
BRANCH   2   3
ATOM      3  C   UNL A   1      36.888  21.898  25.926  1.00  0.00     0.261 C 
BRANCH   3   4
ATOM      4  O   UNL A   1      35.703  21.139  25.611  1.00  0.00    -0.463 OA
BRANCH   4   5
ATOM      5  C   UNL A   1      34.553  21.613  26.166  1.00  0.00     0.312 C 
ATOM      6  O   UNL A   1      34.334  21.616  27.375  1.00  0.00    -0.252 OA
BRANCH   5   7
ATOM      7  C   UNL A   1      33.495  22.065  25.147  1.00  0.00     0.072 C 
ATOM      8  C   UNL A   1      33.970  24.610  25.329  1.00  0.00    -0.010 C 
ATOM      9  C   UNL A   1      34.231  24.681  23.823  1.00  0.00     0.003 C 
ATOM     10  C   UNL A   1      32.980  23.460  25.616  1.00  0.00     0.022 C 
ATOM     11  C   UNL A   1      34.804  23.367  23.310  1.00  0.00     0.001 C 
ATOM     12  C   UNL A   1      33.947  22.158  23.670  1.00  0.00     0.019 C 
BRANCH   8  13
ATOM     13  C   UNL A   1      33.452  25.926  25.941  1.00  0.00     0.000 C 
ATOM     14  C   UNL A   1      33.470  27.117  24.994  1.00  0.00     0.004 C 
ENDBRANCH   8  13
BRANCH   7  15
ATOM     15  C   UNL A   1      32.325  21.032  25.287  1.00  0.00     0.054 C 
BRANCH  15  16
ATOM     16  C   UNL A   1      32.561  19.692  24.617  1.00  0.00    -0.043 A 
ATOM     17  C   UNL A   1      33.235  18.657  25.282  1.00  0.00     0.004 A 
ATOM     18  C   UNL A   1      32.150  19.482  23.292  1.00  0.00     0.049 A 
ATOM     19  C   UNL A   1      33.545  17.466  24.618  1.00  0.00     0.004 A 
ATOM     20  C   UNL A   1      32.448  18.287  22.646  1.00  0.00     0.115 A 
ATOM     21  C   UNL A   1      33.156  17.281  23.292  1.00  0.00     0.046 A 
BRANCH  20  22
ATOM     22  O   UNL A   1      32.032  18.142  21.354  1.00  0.00    -0.508 OA
ATOM     23  H   UNL A   1      32.453  17.522  20.792  1.00  0.00     0.293 HD
ENDBRANCH  20  22
ENDBRANCH  15  16
ENDBRANCH   7  15
ENDBRANCH   5   7
ENDBRANCH   4   5
ENDBRANCH   3   4
ENDBRANCH   2   3
ENDBRANCH   1   2
BRANCH   1  24
ATOM     24  C   UNL A   1      39.803  21.912  26.812  1.00  0.00     0.202 C 
BRANCH  24  25
ATOM     25  C   UNL A   1      40.697  23.065  26.343  1.00  0.00     0.261 C 
BRANCH  25  26
ATOM     26  O   UNL A   1      39.995  24.324  26.358  1.00  0.00    -0.460 OA
BRANCH  26  27
ATOM     27  C   UNL A   1      40.806  25.406  26.260  1.00  0.00     0.338 C 
ATOM     28  O   UNL A   1      41.267  25.887  25.240  1.00  0.00    -0.246 OA
BRANCH  27  29
ATOM     29  C   UNL A   1      40.949  26.066  27.570  1.00  0.00     0.060 A 
ATOM     30  C   UNL A   1      39.888  25.950  28.477  1.00  0.00     0.016 A 
ATOM     31  C   UNL A   1      42.020  26.920  27.833  1.00  0.00     0.016 A 
ATOM     32  C   UNL A   1      39.864  26.741  29.625  1.00  0.00     0.010 A 
ATOM     33  C   UNL A   1      41.990  27.719  28.984  1.00  0.00     0.010 A 
ATOM     34  C   UNL A   1      40.890  27.667  29.860  1.00  0.00    -0.014 A 
BRANCH  34  35
ATOM     35  C   UNL A   1      40.715  28.687  30.926  1.00  0.00     0.031 A 
ATOM     36  C   UNL A   1      41.634  28.663  32.120  1.00  0.00     0.074 A 
ATOM     37  C   UNL A   1      39.789  29.656  30.810  1.00  0.00     0.049 A 
ATOM     38  N   UNL A   1      41.672  29.467  33.153  1.00  0.00    -0.248 NA
ATOM     39  C   UNL A   1      42.647  27.596  32.152  1.00  0.00     0.031 C 
ATOM     40  C   UNL A   1      38.867  29.815  29.687  1.00  0.00     0.029 A 
ATOM     41  N   UNL A   1      39.476  30.694  31.652  1.00  0.00    -0.354 N 
ATOM     42  C   UNL A   1      42.708  29.002  33.956  1.00  0.00     0.074 A 
ATOM     43  C   UNL A   1      43.258  27.834  33.304  1.00  0.00     0.031 C 
ATOM     44  C   UNL A   1      38.087  30.886  29.912  1.00  0.00     0.029 A 
ATOM     45  C   UNL A   1      38.438  31.474  31.204  1.00  0.00     0.049 A 
ATOM     46  H   UNL A   1      39.951  30.864  32.498  1.00  0.00     0.167 HD
ATOM     47  C   UNL A   1      43.166  29.508  35.126  1.00  0.00     0.037 A 
ATOM     48  C   UNL A   1      37.832  32.533  31.778  1.00  0.00     0.037 A 
ATOM     49  C   UNL A   1      42.626  30.673  35.776  1.00  0.00     0.049 A 
ATOM     50  C   UNL A   1      38.318  33.041  33.110  1.00  0.00     0.074 A 
ATOM     51  C   UNL A   1      43.040  31.273  36.953  1.00  0.00     0.029 A 
ATOM     52  N   UNL A   1      41.547  31.410  35.311  1.00  0.00    -0.354 N 
ATOM     53  N   UNL A   1      39.315  32.606  33.844  1.00  0.00    -0.248 NA
ATOM     54  C   UNL A   1      37.597  34.183  33.693  1.00  0.00     0.031 C 
ATOM     55  C   UNL A   1      42.187  32.350  37.219  1.00  0.00     0.029 A 
ATOM     56  C   UNL A   1      41.266  32.444  36.189  1.00  0.00     0.049 A 
ATOM     57  H   UNL A   1      41.055  31.225  34.478  1.00  0.00     0.167 HD
ATOM     58  C   UNL A   1      39.355  33.435  34.962  1.00  0.00     0.074 A 
ATOM     59  C   UNL A   1      38.287  34.401  34.805  1.00  0.00     0.031 C 
ATOM     60  C   UNL A   1      40.203  33.401  36.019  1.00  0.00     0.037 A 
BRANCH  47  61
ATOM     61  C   UNL A   1      44.302  28.788  35.796  1.00  0.00     0.058 A 
ATOM     62  C   UNL A   1      45.640  29.130  35.547  1.00  0.00     0.135 A 
ATOM     63  C   UNL A   1      44.047  27.766  36.724  1.00  0.00     0.135 A 
ATOM     64  F   UNL A   1      45.938  30.090  34.657  1.00  0.00    -0.206 F 
ATOM     65  C   UNL A   1      46.688  28.469  36.179  1.00  0.00     0.059 A 
ATOM     66  C   UNL A   1      45.078  27.105  37.383  1.00  0.00     0.059 A 
ATOM     67  F   UNL A   1      42.784  27.399  36.995  1.00  0.00    -0.206 F 
ATOM     68  C   UNL A   1      46.397  27.455  37.093  1.00  0.00     0.060 A 
BRANCH  68  69
ATOM     69  S   UNL A   1      47.765  26.604  37.911  1.00  0.00     0.124 S 
ATOM     70  O   UNL A   1      48.830  26.755  36.924  1.00  0.00    -0.237 OA
ATOM     71  O   UNL A   1      47.926  27.376  39.139  1.00  0.00    -0.237 OA
ATOM     72  O   UNL A   1      47.262  25.246  38.090  1.00  0.00    -0.744 OA
ENDBRANCH  68  69
ENDBRANCH  47  61
BRANCH  48  73
ATOM     73  C   UNL A   1      36.681  33.183  31.097  1.00  0.00     0.058 A 
ATOM     74  C   UNL A   1      35.370  33.013  31.565  1.00  0.00     0.135 A 
ATOM     75  C   UNL A   1      36.875  33.985  29.962  1.00  0.00     0.135 A 
ATOM     76  F   UNL A   1      35.136  32.246  32.641  1.00  0.00    -0.206 F 
ATOM     77  C   UNL A   1      34.288  33.610  30.928  1.00  0.00     0.059 A 
ATOM     78  C   UNL A   1      35.811  34.608  29.319  1.00  0.00     0.059 A 
ATOM     79  F   UNL A   1      38.111  34.186  29.482  1.00  0.00    -0.206 F 
ATOM     80  C   UNL A   1      34.519  34.408  29.805  1.00  0.00     0.060 A 
BRANCH  80  81
ATOM     81  S   UNL A   1      33.118  35.227  29.014  1.00  0.00     0.124 S 
ATOM     82  O   UNL A   1      33.752  36.414  28.452  1.00  0.00    -0.237 OA
ATOM     83  O   UNL A   1      32.676  34.222  28.052  1.00  0.00    -0.237 OA
ATOM     84  O   UNL A   1      32.202  35.464  30.126  1.00  0.00    -0.744 OA
ENDBRANCH  80  81
ENDBRANCH  48  73
BRANCH  60  85
ATOM     85  C   UNL A   1      40.029  34.449  37.083  1.00  0.00     0.058 A 
ATOM     86  C   UNL A   1      40.650  35.703  36.988  1.00  0.00     0.135 A 
ATOM     87  C   UNL A   1      39.185  34.215  38.181  1.00  0.00     0.135 A 
ATOM     88  F   UNL A   1      41.471  35.974  35.960  1.00  0.00    -0.206 F 
ATOM     89  C   UNL A   1      40.453  36.686  37.954  1.00  0.00     0.059 A 
ATOM     90  C   UNL A   1      38.958  35.191  39.147  1.00  0.00     0.059 A 
ATOM     91  F   UNL A   1      38.559  33.035  38.313  1.00  0.00    -0.206 F 
ATOM     92  C   UNL A   1      39.605  36.420  39.029  1.00  0.00     0.060 A 
BRANCH  92  93
ATOM     93  S   UNL A   1      39.327  37.715  40.258  1.00  0.00     0.124 S 
ATOM     94  O   UNL A   1      40.632  38.364  40.300  1.00  0.00    -0.237 OA
ATOM     95  O   UNL A   1      38.250  38.496  39.655  1.00  0.00    -0.237 OA
ATOM     96  O   UNL A   1      38.955  36.970  41.457  1.00  0.00    -0.744 OA
ENDBRANCH  92  93
ENDBRANCH  60  85
ENDBRANCH  34  35
ENDBRANCH  27  29
ENDBRANCH  26  27
ENDBRANCH  25  26
ENDBRANCH  24  25
ENDBRANCH   1  24
TORSDOF 21
ENDMDL
MODEL 2
REMARK VINA RESULT:     -10.9      1.686      3.408
REMARK SMILES CC[C@@H]1CCC[C@@](Cc2cccc(O)c2)(C(=O)OCCOCCOC(=O)c2ccc(-c3c4nc(c(-c5c(F)cc(S(=O)(=O)[O-])cc5F)c5ccc([nH]5)c(-c5c(F)cc(S(=O)(=O)[O-])cc5F)c5nc(c(-c6c(F)cc(S(=O)(=O)[O-])cc6F)c6ccc3[nH]6)C=C5)C=C4)cc2)C1
REMARK SMILES IDX 21 1 20 2 19 3 18 4 16 5 17 6 7 7 3 8 4 9 93 10 5 11 6 12
REMARK SMILES IDX 2 13 1 14 8 15 9 16 10 17 15 18 11 19 13 20 12 21 14 22
REMARK SMILES IDX 22 24 23 25 24 26 25 27 26 28 27 29 28 30 92 31 29 32 91 33
REMARK SMILES IDX 30 34 31 35 32 36 85 37 33 38 90 39 84 40 86 41 34 42 89 43
REMARK SMILES IDX 83 44 82 45 35 47 69 48 48 49 68 50 49 51 52 52 67 53 87 54
REMARK SMILES IDX 50 55 51 56 66 58 88 59 53 60 36 61 37 62 46 63 38 64 39 65
REMARK SMILES IDX 45 66 47 67 40 68 41 69 42 70 43 71 44 72 70 73 71 74 80 75
REMARK SMILES IDX 72 76 73 77 79 78 81 79 74 80 75 81 76 82 77 83 78 84 54 85
REMARK SMILES IDX 55 86 64 87 56 88 57 89 63 90 65 91 58 92 59 93 60 94 61 95
REMARK SMILES IDX 62 96
REMARK H PARENT 14 23 86 46 52 57
REMARK Flexibility Score: inf
ROOT
ATOM      1  O   UNL A   1      38.307  21.593  25.428  1.00  0.00    -0.374 OA
ENDROOT
BRANCH   1   2
ATOM      2  C   UNL A   1      36.897  21.431  25.550  1.00  0.00     0.202 C 
BRANCH   2   3
ATOM      3  C   UNL A   1      36.019  22.122  24.503  1.00  0.00     0.261 C 
BRANCH   3   4
ATOM      4  O   UNL A   1      35.372  23.330  24.951  1.00  0.00    -0.463 OA
BRANCH   4   5
ATOM      5  C   UNL A   1      34.656  23.985  23.996  1.00  0.00     0.312 C 
ATOM      6  O   UNL A   1      34.921  23.940  22.798  1.00  0.00    -0.252 OA
BRANCH   5   7
ATOM      7  C   UNL A   1      33.531  24.877  24.546  1.00  0.00     0.072 C 
ATOM      8  C   UNL A   1      32.141  24.990  22.356  1.00  0.00    -0.010 C 
ATOM      9  C   UNL A   1      30.917  24.440  23.090  1.00  0.00     0.003 C 
ATOM     10  C   UNL A   1      33.029  25.757  23.361  1.00  0.00     0.022 C 
ATOM     11  C   UNL A   1      31.336  23.512  24.223  1.00  0.00     0.001 C 
ATOM     12  C   UNL A   1      32.323  24.154  25.191  1.00  0.00     0.019 C 
BRANCH   8  13
ATOM     13  C   UNL A   1      31.801  25.887  21.151  1.00  0.00     0.000 C 
ATOM     14  C   UNL A   1      32.526  25.522  19.863  1.00  0.00     0.004 C 
ENDBRANCH   8  13
BRANCH   7  15
ATOM     15  C   UNL A   1      34.223  25.810  25.598  1.00  0.00     0.054 C 
BRANCH  15  16
ATOM     16  C   UNL A   1      33.467  27.081  25.933  1.00  0.00    -0.043 A 
ATOM     17  C   UNL A   1      33.734  28.283  25.262  1.00  0.00     0.004 A 
ATOM     18  C   UNL A   1      32.514  27.084  26.963  1.00  0.00     0.049 A 
ATOM     19  C   UNL A   1      33.111  29.471  25.654  1.00  0.00     0.004 A 
ATOM     20  C   UNL A   1      31.885  28.269  27.333  1.00  0.00     0.115 A 
ATOM     21  C   UNL A   1      32.187  29.467  26.698  1.00  0.00     0.046 A 
BRANCH  20  22
ATOM     22  O   UNL A   1      30.975  28.215  28.347  1.00  0.00    -0.508 OA
ATOM     23  H   UNL A   1      31.253  28.327  29.235  1.00  0.00     0.293 HD
ENDBRANCH  20  22
ENDBRANCH  15  16
ENDBRANCH   7  15
ENDBRANCH   5   7
ENDBRANCH   4   5
ENDBRANCH   3   4
ENDBRANCH   2   3
ENDBRANCH   1   2
BRANCH   1  24
ATOM     24  C   UNL A   1      38.938  22.487  26.343  1.00  0.00     0.202 C 
BRANCH  24  25
ATOM     25  C   UNL A   1      40.438  22.276  26.577  1.00  0.00     0.261 C 
BRANCH  25  26
ATOM     26  O   UNL A   1      40.961  23.202  27.550  1.00  0.00    -0.460 OA
BRANCH  26  27
ATOM     27  C   UNL A   1      41.520  24.310  27.007  1.00  0.00     0.338 C 
ATOM     28  O   UNL A   1      42.191  24.371  25.991  1.00  0.00    -0.246 OA
BRANCH  27  29
ATOM     29  C   UNL A   1      41.077  25.519  27.724  1.00  0.00     0.060 A 
ATOM     30  C   UNL A   1      41.981  26.584  27.825  1.00  0.00     0.016 A 
ATOM     31  C   UNL A   1      39.873  25.538  28.429  1.00  0.00     0.016 A 
ATOM     32  C   UNL A   1      41.710  27.648  28.685  1.00  0.00     0.010 A 
ATOM     33  C   UNL A   1      39.607  26.605  29.298  1.00  0.00     0.010 A 
ATOM     34  C   UNL A   1      40.546  27.640  29.465  1.00  0.00    -0.014 A 
BRANCH  34  35
ATOM     35  C   UNL A   1      40.405  28.625  30.568  1.00  0.00     0.031 A 
ATOM     36  C   UNL A   1      41.318  28.522  31.763  1.00  0.00     0.074 A 
ATOM     37  C   UNL A   1      39.516  29.632  30.487  1.00  0.00     0.049 A 
ATOM     38  N   UNL A   1      41.382  29.284  32.825  1.00  0.00    -0.248 NA
ATOM     39  C   UNL A   1      42.290  27.418  31.756  1.00  0.00     0.031 C 
ATOM     40  C   UNL A   1      38.605  29.867  29.368  1.00  0.00     0.029 A 
ATOM     41  N   UNL A   1      39.239  30.648  31.367  1.00  0.00    -0.354 N 
ATOM     42  C   UNL A   1      42.396  28.752  33.613  1.00  0.00     0.074 A 
ATOM     43  C   UNL A   1      42.905  27.589  32.918  1.00  0.00     0.031 C 
ATOM     44  C   UNL A   1      37.864  30.957  29.632  1.00  0.00     0.029 A 
ATOM     45  C   UNL A   1      38.232  31.482  30.946  1.00  0.00     0.049 A 
ATOM     46  H   UNL A   1      39.716  30.768  32.220  1.00  0.00     0.167 HD
ATOM     47  C   UNL A   1      42.869  29.196  34.802  1.00  0.00     0.037 A 
ATOM     48  C   UNL A   1      37.663  32.540  31.558  1.00  0.00     0.037 A 
ATOM     49  C   UNL A   1      42.369  30.355  35.495  1.00  0.00     0.049 A 
ATOM     50  C   UNL A   1      38.162  32.980  32.910  1.00  0.00     0.074 A 
ATOM     51  C   UNL A   1      42.801  30.894  36.694  1.00  0.00     0.029 A 
ATOM     52  N   UNL A   1      41.320  31.148  35.055  1.00  0.00    -0.354 N 
ATOM     53  N   UNL A   1      39.140  32.481  33.629  1.00  0.00    -0.248 NA
ATOM     54  C   UNL A   1      37.481  34.124  33.533  1.00  0.00     0.031 C 
ATOM     55  C   UNL A   1      41.987  31.991  36.999  1.00  0.00     0.029 A 
ATOM     56  C   UNL A   1      41.074  32.158  35.971  1.00  0.00     0.049 A 
ATOM     57  H   UNL A   1      40.825  31.013  34.215  1.00  0.00     0.167 HD
ATOM     58  C   UNL A   1      39.206  33.265  34.777  1.00  0.00     0.074 A 
ATOM     59  C   UNL A   1      38.175  34.275  34.655  1.00  0.00     0.031 C 
ATOM     60  C   UNL A   1      40.048  33.160  35.835  1.00  0.00     0.037 A 
BRANCH  47  61
ATOM     61  C   UNL A   1      43.974  28.409  35.447  1.00  0.00     0.058 A 
ATOM     62  C   UNL A   1      45.324  28.659  35.154  1.00  0.00     0.135 A 
ATOM     63  C   UNL A   1      43.681  27.417  36.395  1.00  0.00     0.135 A 
ATOM     64  F   UNL A   1      45.657  29.587  34.243  1.00  0.00    -0.206 F 
ATOM     65  C   UNL A   1      46.345  27.937  35.763  1.00  0.00     0.059 A 
ATOM     66  C   UNL A   1      44.687  26.696  37.032  1.00  0.00     0.059 A 
ATOM     67  F   UNL A   1      42.406  27.137  36.709  1.00  0.00    -0.206 F 
ATOM     68  C   UNL A   1      46.015  26.954  36.698  1.00  0.00     0.060 A 
BRANCH  68  69
ATOM     69  S   UNL A   1      47.349  26.024  37.485  1.00  0.00     0.124 S 
ATOM     70  O   UNL A   1      46.991  24.653  37.135  1.00  0.00    -0.237 OA
ATOM     71  O   UNL A   1      48.536  26.556  36.824  1.00  0.00    -0.237 OA
ATOM     72  O   UNL A   1      47.216  26.368  38.897  1.00  0.00    -0.744 OA
ENDBRANCH  68  69
ENDBRANCH  47  61
BRANCH  48  73
ATOM     73  C   UNL A   1      36.539  33.258  30.900  1.00  0.00     0.058 A 
ATOM     74  C   UNL A   1      35.219  33.103  31.344  1.00  0.00     0.135 A 
ATOM     75  C   UNL A   1      36.769  34.111  29.810  1.00  0.00     0.135 A 
ATOM     76  F   UNL A   1      34.950  32.288  32.376  1.00  0.00    -0.206 F 
ATOM     77  C   UNL A   1      34.162  33.763  30.727  1.00  0.00     0.059 A 
ATOM     78  C   UNL A   1      35.732  34.798  29.188  1.00  0.00     0.059 A 
ATOM     79  F   UNL A   1      38.017  34.301  29.354  1.00  0.00    -0.206 F 
ATOM     80  C   UNL A   1      34.429  34.610  29.649  1.00  0.00     0.060 A 
BRANCH  80  81
ATOM     81  S   UNL A   1      33.062  35.510  28.887  1.00  0.00     0.124 S 
ATOM     82  O   UNL A   1      32.412  34.456  28.115  1.00  0.00    -0.237 OA
ATOM     83  O   UNL A   1      32.327  35.996  30.051  1.00  0.00    -0.237 OA
ATOM     84  O   UNL A   1      33.738  36.542  28.107  1.00  0.00    -0.744 OA
ENDBRANCH  80  81
ENDBRANCH  48  73
BRANCH  60  85
ATOM     85  C   UNL A   1      39.909  34.172  36.937  1.00  0.00     0.058 A 
ATOM     86  C   UNL A   1      40.503  35.440  36.850  1.00  0.00     0.135 A 
ATOM     87  C   UNL A   1      39.125  33.890  38.068  1.00  0.00     0.135 A 
ATOM     88  F   UNL A   1      41.267  35.757  35.792  1.00  0.00    -0.206 F 
ATOM     89  C   UNL A   1      40.337  36.390  37.853  1.00  0.00     0.059 A 
ATOM     90  C   UNL A   1      38.929  34.833  39.073  1.00  0.00     0.059 A 
ATOM     91  F   UNL A   1      38.526  32.696  38.195  1.00  0.00    -0.206 F 
ATOM     92  C   UNL A   1      39.548  36.077  38.961  1.00  0.00     0.060 A 
BRANCH  92  93
ATOM     93  S   UNL A   1      39.308  37.329  40.240  1.00  0.00     0.124 S 
ATOM     94  O   UNL A   1      40.685  37.692  40.556  1.00  0.00    -0.237 OA
ATOM     95  O   UNL A   1      38.529  38.348  39.542  1.00  0.00    -0.237 OA
ATOM     96  O   UNL A   1      38.590  36.610  41.288  1.00  0.00    -0.744 OA
ENDBRANCH  92  93
ENDBRANCH  60  85
ENDBRANCH  34  35
ENDBRANCH  27  29
ENDBRANCH  26  27
ENDBRANCH  25  26
ENDBRANCH  24  25
ENDBRANCH   1  24
TORSDOF 21
ENDMDL
MODEL 3
REMARK VINA RESULT:     -10.9      6.201      8.384
REMARK SMILES CC[C@@H]1CCC[C@@](Cc2cccc(O)c2)(C(=O)OCCOCCOC(=O)c2ccc(-c3c4nc(c(-c5c(F)cc(S(=O)(=O)[O-])cc5F)c5ccc([nH]5)c(-c5c(F)cc(S(=O)(=O)[O-])cc5F)c5nc(c(-c6c(F)cc(S(=O)(=O)[O-])cc6F)c6ccc3[nH]6)C=C5)C=C4)cc2)C1
REMARK SMILES IDX 21 1 20 2 19 3 18 4 16 5 17 6 7 7 3 8 4 9 93 10 5 11 6 12
REMARK SMILES IDX 2 13 1 14 8 15 9 16 10 17 15 18 11 19 13 20 12 21 14 22
REMARK SMILES IDX 22 24 23 25 24 26 25 27 26 28 27 29 28 30 92 31 29 32 91 33
REMARK SMILES IDX 30 34 31 35 32 36 85 37 33 38 90 39 84 40 86 41 34 42 89 43
REMARK SMILES IDX 83 44 82 45 35 47 69 48 48 49 68 50 49 51 52 52 67 53 87 54
REMARK SMILES IDX 50 55 51 56 66 58 88 59 53 60 36 61 37 62 46 63 38 64 39 65
REMARK SMILES IDX 45 66 47 67 40 68 41 69 42 70 43 71 44 72 70 73 71 74 80 75
REMARK SMILES IDX 72 76 73 77 79 78 81 79 74 80 75 81 76 82 77 83 78 84 54 85
REMARK SMILES IDX 55 86 64 87 56 88 57 89 63 90 65 91 58 92 59 93 60 94 61 95
REMARK SMILES IDX 62 96
REMARK H PARENT 14 23 86 46 52 57
REMARK Flexibility Score: inf
ROOT
ATOM      1  O   UNL A   1      37.652  22.185  25.371  1.00  0.00    -0.374 OA
ENDROOT
BRANCH   1   2
ATOM      2  C   UNL A   1      37.148  23.473  25.712  1.00  0.00     0.202 C 
BRANCH   2   3
ATOM      3  C   UNL A   1      35.647  23.588  25.989  1.00  0.00     0.261 C 
BRANCH   3   4
ATOM      4  O   UNL A   1      34.868  22.430  25.625  1.00  0.00    -0.463 OA
BRANCH   4   5
ATOM      5  C   UNL A   1      33.537  22.526  25.894  1.00  0.00     0.312 C 
ATOM      6  O   UNL A   1      33.085  22.753  27.013  1.00  0.00    -0.252 OA
BRANCH   5   7
ATOM      7  C   UNL A   1      32.623  22.229  24.694  1.00  0.00     0.072 C 
ATOM      8  C   UNL A   1      31.964  24.691  24.204  1.00  0.00    -0.010 C 
ATOM      9  C   UNL A   1      32.479  24.556  22.769  1.00  0.00     0.003 C 
ATOM     10  C   UNL A   1      31.496  23.306  24.704  1.00  0.00     0.022 C 
ATOM     11  C   UNL A   1      33.633  23.565  22.699  1.00  0.00     0.001 C 
ATOM     12  C   UNL A   1      33.294  22.205  23.299  1.00  0.00     0.019 C 
BRANCH   8  13
ATOM     13  C   UNL A   1      30.837  25.728  24.372  1.00  0.00     0.000 C 
ATOM     14  C   UNL A   1      29.959  25.518  25.598  1.00  0.00     0.004 C 
ENDBRANCH   8  13
BRANCH   7  15
ATOM     15  C   UNL A   1      31.979  20.834  25.004  1.00  0.00     0.054 C 
BRANCH  15  16
ATOM     16  C   UNL A   1      32.644  19.650  24.330  1.00  0.00    -0.043 A 
ATOM     17  C   UNL A   1      32.153  19.132  23.123  1.00  0.00     0.004 A 
ATOM     18  C   UNL A   1      33.741  19.017  24.935  1.00  0.00     0.049 A 
ATOM     19  C   UNL A   1      32.705  17.974  22.567  1.00  0.00     0.004 A 
ATOM     20  C   UNL A   1      34.294  17.875  24.365  1.00  0.00     0.115 A 
ATOM     21  C   UNL A   1      33.776  17.338  23.193  1.00  0.00     0.046 A 
BRANCH  20  22
ATOM     22  O   UNL A   1      35.353  17.297  25.002  1.00  0.00    -0.508 OA
ATOM     23  H   UNL A   1      35.229  16.515  25.504  1.00  0.00     0.293 HD
ENDBRANCH  20  22
ENDBRANCH  15  16
ENDBRANCH   7  15
ENDBRANCH   5   7
ENDBRANCH   4   5
ENDBRANCH   3   4
ENDBRANCH   2   3
ENDBRANCH   1   2
BRANCH   1  24
ATOM     24  C   UNL A   1      38.906  21.808  25.937  1.00  0.00     0.202 C 
BRANCH  24  25
ATOM     25  C   UNL A   1      39.328  20.347  25.744  1.00  0.00     0.261 C 
BRANCH  25  26
ATOM     26  O   UNL A   1      40.219  19.909  26.789  1.00  0.00    -0.460 OA
BRANCH  26  27
ATOM     27  C   UNL A   1      41.476  19.638  26.360  1.00  0.00     0.338 C 
ATOM     28  O   UNL A   1      41.846  18.649  25.751  1.00  0.00    -0.246 OA
BRANCH  27  29
ATOM     29  C   UNL A   1      42.359  20.797  26.579  1.00  0.00     0.060 A 
ATOM     30  C   UNL A   1      42.437  21.320  27.877  1.00  0.00     0.016 A 
ATOM     31  C   UNL A   1      42.957  21.461  25.508  1.00  0.00     0.016 A 
ATOM     32  C   UNL A   1      43.062  22.547  28.097  1.00  0.00     0.010 A 
ATOM     33  C   UNL A   1      43.578  22.698  25.731  1.00  0.00     0.010 A 
ATOM     34  C   UNL A   1      43.592  23.267  27.018  1.00  0.00    -0.014 A 
BRANCH  34  35
ATOM     35  C   UNL A   1      44.001  24.680  27.220  1.00  0.00     0.031 A 
ATOM     36  C   UNL A   1      45.442  25.065  27.003  1.00  0.00     0.074 A 
ATOM     37  C   UNL A   1      43.095  25.623  27.541  1.00  0.00     0.049 A 
ATOM     38  N   UNL A   1      46.011  26.239  27.104  1.00  0.00    -0.248 NA
ATOM     39  C   UNL A   1      46.361  23.984  26.614  1.00  0.00     0.031 C 
ATOM     40  C   UNL A   1      41.666  25.389  27.739  1.00  0.00     0.029 A 
ATOM     41  N   UNL A   1      43.249  26.971  27.752  1.00  0.00    -0.354 N 
ATOM     42  C   UNL A   1      47.352  26.039  26.796  1.00  0.00     0.074 A 
ATOM     43  C   UNL A   1      47.517  24.627  26.526  1.00  0.00     0.031 C 
ATOM     44  C   UNL A   1      41.073  26.555  28.048  1.00  0.00     0.029 A 
ATOM     45  C   UNL A   1      42.083  27.612  28.093  1.00  0.00     0.049 A 
ATOM     46  H   UNL A   1      44.114  27.434  27.668  1.00  0.00     0.167 HD
ATOM     47  C   UNL A   1      48.353  26.949  26.733  1.00  0.00     0.037 A 
ATOM     48  C   UNL A   1      41.860  28.901  28.418  1.00  0.00     0.037 A 
ATOM     49  C   UNL A   1      48.192  28.355  26.996  1.00  0.00     0.049 A 
ATOM     50  C   UNL A   1      43.001  29.885  28.402  1.00  0.00     0.074 A 
ATOM     51  C   UNL A   1      49.145  29.357  26.934  1.00  0.00     0.029 A 
ATOM     52  N   UNL A   1      47.004  28.958  27.379  1.00  0.00    -0.354 N 
ATOM     53  N   UNL A   1      44.257  29.683  28.082  1.00  0.00    -0.248 NA
ATOM     54  C   UNL A   1      42.694  31.269  28.791  1.00  0.00     0.031 C 
ATOM     55  C   UNL A   1      48.542  30.560  27.319  1.00  0.00     0.029 A 
ATOM     56  C   UNL A   1      47.204  30.313  27.582  1.00  0.00     0.049 A 
ATOM     57  H   UNL A   1      46.144  28.490  27.489  1.00  0.00     0.167 HD
ATOM     58  C   UNL A   1      44.885  30.920  28.209  1.00  0.00     0.074 A 
ATOM     59  C   UNL A   1      43.869  31.863  28.628  1.00  0.00     0.031 C 
ATOM     60  C   UNL A   1      46.184  31.243  27.994  1.00  0.00     0.037 A 
BRANCH  47  61
ATOM     61  C   UNL A   1      49.725  26.447  26.385  1.00  0.00     0.058 A 
ATOM     62  C   UNL A   1      50.188  26.425  25.061  1.00  0.00     0.135 A 
ATOM     63  C   UNL A   1      50.601  26.015  27.394  1.00  0.00     0.135 A 
ATOM     64  F   UNL A   1      49.385  26.813  24.057  1.00  0.00    -0.206 F 
ATOM     65  C   UNL A   1      51.465  25.971  24.745  1.00  0.00     0.059 A 
ATOM     66  C   UNL A   1      51.889  25.577  27.104  1.00  0.00     0.059 A 
ATOM     67  F   UNL A   1      50.206  26.014  28.677  1.00  0.00    -0.206 F 
ATOM     68  C   UNL A   1      52.307  25.545  25.774  1.00  0.00     0.060 A 
BRANCH  68  69
ATOM     69  S   UNL A   1      53.963  24.961  25.353  1.00  0.00     0.124 S 
ATOM     70  O   UNL A   1      54.677  25.185  26.607  1.00  0.00    -0.237 OA
ATOM     71  O   UNL A   1      53.724  23.565  25.002  1.00  0.00    -0.237 OA
ATOM     72  O   UNL A   1      54.356  25.823  24.243  1.00  0.00    -0.744 OA
ENDBRANCH  68  69
ENDBRANCH  47  61
BRANCH  48  73
ATOM     73  C   UNL A   1      40.492  29.339  28.800  1.00  0.00     0.058 A 
ATOM     74  C   UNL A   1      40.152  29.573  30.141  1.00  0.00     0.135 A 
ATOM     75  C   UNL A   1      39.498  29.529  27.829  1.00  0.00     0.135 A 
ATOM     76  F   UNL A   1      41.067  29.394  31.105  1.00  0.00    -0.206 F 
ATOM     77  C   UNL A   1      38.872  29.974  30.507  1.00  0.00     0.059 A 
ATOM     78  C   UNL A   1      38.216  29.948  28.168  1.00  0.00     0.059 A 
ATOM     79  F   UNL A   1      39.776  29.328  26.531  1.00  0.00    -0.206 F 
ATOM     80  C   UNL A   1      37.910  30.160  29.512  1.00  0.00     0.060 A 
BRANCH  80  81
ATOM     81  S   UNL A   1      36.265  30.736  29.985  1.00  0.00     0.124 S 
ATOM     82  O   UNL A   1      36.536  32.119  30.362  1.00  0.00    -0.237 OA
ATOM     83  O   UNL A   1      35.506  30.545  28.753  1.00  0.00    -0.237 OA
ATOM     84  O   UNL A   1      35.903  29.840  31.080  1.00  0.00    -0.744 OA
ENDBRANCH  80  81
ENDBRANCH  48  73
BRANCH  60  85
ATOM     85  C   UNL A   1      46.583  32.679  28.185  1.00  0.00     0.058 A 
ATOM     86  C   UNL A   1      46.425  33.628  27.164  1.00  0.00     0.135 A 
ATOM     87  C   UNL A   1      47.075  33.123  29.423  1.00  0.00     0.135 A 
ATOM     88  F   UNL A   1      45.964  33.254  25.959  1.00  0.00    -0.206 F 
ATOM     89  C   UNL A   1      46.757  34.966  27.358  1.00  0.00     0.059 A 
ATOM     90  C   UNL A   1      47.393  34.460  29.645  1.00  0.00     0.059 A 
ATOM     91  F   UNL A   1      47.235  32.257  30.436  1.00  0.00    -0.206 F 
ATOM     92  C   UNL A   1      47.240  35.372  28.603  1.00  0.00     0.060 A 
BRANCH  92  93
ATOM     93  S   UNL A   1      47.632  37.116  28.857  1.00  0.00     0.124 S 
ATOM     94  O   UNL A   1      46.812  37.435  30.021  1.00  0.00    -0.237 OA
ATOM     95  O   UNL A   1      49.073  37.086  29.086  1.00  0.00    -0.237 OA
ATOM     96  O   UNL A   1      47.217  37.742  27.605  1.00  0.00    -0.744 OA
ENDBRANCH  92  93
ENDBRANCH  60  85
ENDBRANCH  34  35
ENDBRANCH  27  29
ENDBRANCH  26  27
ENDBRANCH  25  26
ENDBRANCH  24  25
ENDBRANCH   1  24
TORSDOF 21
ENDMDL
