MODEL 1
REMARK VINA RESULT:     -11.8      0.000      0.000
REMARK SMILES O=C(OCCOCCOC(=O)c1[nH]ncc1C[N@H+]1CCC[C@@H](C(=O)c2ccc(Oc3ccccc3)cc2)C1)c1ccc(-c2c3nc(c(-c4c(F)cc(S(=O)(=O)[O-])cc4F)c4ccc([nH]4)c(-c4c(F)cc(S(=O)(=O)[O-])cc4F)c4nc(c(-c5c(F)cc(S(=O)(=O)[O-])cc5F)c5ccc2[nH]5)C=C4)C=C3)cc1
REMARK SMILES IDX 7 1 6 2 5 3 4 4 3 5 2 6 1 7 39 8 40 9 104 10 41 11 103 12
REMARK SMILES IDX 42 13 43 14 44 15 97 16 45 17 102 18 96 19 98 20 46 21
REMARK SMILES IDX 101 22 95 23 94 24 47 26 81 27 60 28 80 29 61 30 64 31 79 32
REMARK SMILES IDX 99 33 62 34 63 35 78 37 100 38 65 39 48 40 49 41 58 42 50 43
REMARK SMILES IDX 51 44 57 45 59 46 52 47 53 48 54 49 55 50 56 51 82 52 83 53
REMARK SMILES IDX 92 54 84 55 85 56 91 57 93 58 86 59 87 60 88 61 89 62 90 63
REMARK SMILES IDX 66 64 67 65 76 66 68 67 69 68 75 69 77 70 70 71 71 72 72 73
REMARK SMILES IDX 73 74 74 75 8 76 9 77 10 78 11 79 12 80 13 81 16 82 14 83
REMARK SMILES IDX 15 85 17 86 18 87 19 88 38 89 20 91 22 92 21 93 23 94 24 95
REMARK SMILES IDX 25 96 26 97 37 98 27 99 36 100 28 101 29 102 30 103 31 104
REMARK SMILES IDX 35 105 32 106 34 107 33 108
REMARK H PARENT 98 25 64 36 13 84 18 90
REMARK Flexibility Score: inf
ROOT
ATOM      1  C   UNL A   1      37.776  21.928  25.000  1.00  0.00     0.202 C 
ENDROOT
BRANCH   1   2
ATOM      2  O   UNL A   1      38.770  22.405  25.916  1.00  0.00    -0.374 OA
BRANCH   2   3
ATOM      3  C   UNL A   1      39.577  21.417  26.554  1.00  0.00     0.202 C 
BRANCH   3   4
ATOM      4  C   UNL A   1      39.735  20.124  25.757  1.00  0.00     0.261 C 
BRANCH   4   5
ATOM      5  O   UNL A   1      40.953  19.472  26.146  1.00  0.00    -0.460 OA
BRANCH   5   6
ATOM      6  C   UNL A   1      42.228  19.828  25.877  1.00  0.00     0.338 C 
ATOM      7  O   UNL A   1      42.977  18.980  25.396  1.00  0.00    -0.246 OA
BRANCH   6   8
ATOM      8  C   UNL A   1      42.790  21.188  26.139  1.00  0.00     0.060 A 
ATOM      9  C   UNL A   1      42.978  22.187  25.180  1.00  0.00     0.016 A 
ATOM     10  C   UNL A   1      43.041  21.511  27.484  1.00  0.00     0.016 A 
ATOM     11  C   UNL A   1      43.434  23.453  25.527  1.00  0.00     0.010 A 
ATOM     12  C   UNL A   1      43.476  22.786  27.845  1.00  0.00     0.010 A 
ATOM     13  C   UNL A   1      43.683  23.755  26.860  1.00  0.00    -0.014 A 
BRANCH  13  14
ATOM     14  C   UNL A   1      44.256  25.068  27.189  1.00  0.00     0.031 A 
ATOM     15  C   UNL A   1      43.358  26.097  27.796  1.00  0.00     0.074 A 
ATOM     16  C   UNL A   1      45.568  25.286  27.000  1.00  0.00     0.049 A 
ATOM     17  N   UNL A   1      43.609  27.342  28.089  1.00  0.00    -0.248 NA
ATOM     18  C   UNL A   1      41.992  25.656  28.126  1.00  0.00     0.031 C 
ATOM     19  C   UNL A   1      46.522  24.292  26.506  1.00  0.00     0.029 A 
ATOM     20  N   UNL A   1      46.325  26.407  27.203  1.00  0.00    -0.354 N 
ATOM     21  C   UNL A   1      42.424  27.845  28.610  1.00  0.00     0.074 A 
ATOM     22  C   UNL A   1      41.457  26.771  28.600  1.00  0.00     0.031 C 
ATOM     23  C   UNL A   1      47.740  24.854  26.431  1.00  0.00     0.029 A 
ATOM     24  C   UNL A   1      47.635  26.258  26.817  1.00  0.00     0.049 A 
ATOM     25  H   UNL A   1      45.967  27.239  27.589  1.00  0.00     0.167 HD
ATOM     26  C   UNL A   1      42.173  29.104  29.037  1.00  0.00     0.037 A 
ATOM     27  C   UNL A   1      48.620  27.173  26.741  1.00  0.00     0.037 A 
ATOM     28  C   UNL A   1      43.158  30.150  29.007  1.00  0.00     0.049 A 
ATOM     29  C   UNL A   1      48.305  28.583  27.158  1.00  0.00     0.074 A 
ATOM     30  C   UNL A   1      43.021  31.479  29.354  1.00  0.00     0.029 A 
ATOM     31  N   UNL A   1      44.472  29.974  28.589  1.00  0.00    -0.354 N 
ATOM     32  N   UNL A   1      47.170  29.069  27.611  1.00  0.00    -0.248 NA
ATOM     33  C   UNL A   1      49.383  29.572  27.047  1.00  0.00     0.031 C 
ATOM     34  C   UNL A   1      44.244  32.115  29.109  1.00  0.00     0.029 A 
ATOM     35  C   UNL A   1      45.155  31.173  28.651  1.00  0.00     0.049 A 
ATOM     36  H   UNL A   1      44.860  29.118  28.293  1.00  0.00     0.167 HD
ATOM     37  C   UNL A   1      47.397  30.419  27.843  1.00  0.00     0.074 A 
ATOM     38  C   UNL A   1      48.784  30.670  27.494  1.00  0.00     0.031 C 
ATOM     39  C   UNL A   1      46.542  31.369  28.297  1.00  0.00     0.037 A 
BRANCH  26  40
ATOM     40  C   UNL A   1      40.766  29.401  29.471  1.00  0.00     0.058 A 
ATOM     41  C   UNL A   1      39.719  29.553  28.548  1.00  0.00     0.135 A 
ATOM     42  C   UNL A   1      40.481  29.625  30.827  1.00  0.00     0.135 A 
ATOM     43  F   UNL A   1      39.943  29.381  27.235  1.00  0.00    -0.206 F 
ATOM     44  C   UNL A   1      38.452  29.969  28.949  1.00  0.00     0.059 A 
ATOM     45  C   UNL A   1      39.217  30.020  31.253  1.00  0.00     0.059 A 
ATOM     46  F   UNL A   1      41.449  29.503  31.749  1.00  0.00    -0.206 F 
ATOM     47  C   UNL A   1      38.216  30.216  30.303  1.00  0.00     0.060 A 
BRANCH  47  48
ATOM     48  S   UNL A   1      36.596  30.833  30.804  1.00  0.00     0.124 S 
ATOM     49  O   UNL A   1      36.966  31.977  31.633  1.00  0.00    -0.237 OA
ATOM     50  O   UNL A   1      35.971  31.155  29.526  1.00  0.00    -0.237 OA
ATOM     51  O   UNL A   1      36.009  29.704  31.519  1.00  0.00    -0.744 OA
ENDBRANCH  47  48
ENDBRANCH  26  40
BRANCH  27  52
ATOM     52  C   UNL A   1      49.950  26.779  26.204  1.00  0.00     0.058 A 
ATOM     53  C   UNL A   1      50.288  26.981  24.859  1.00  0.00     0.135 A 
ATOM     54  C   UNL A   1      50.938  26.251  27.052  1.00  0.00     0.135 A 
ATOM     55  F   UNL A   1      49.379  27.475  24.006  1.00  0.00    -0.206 F 
ATOM     56  C   UNL A   1      51.561  26.685  24.376  1.00  0.00     0.059 A 
ATOM     57  C   UNL A   1      52.223  25.969  26.598  1.00  0.00     0.059 A 
ATOM     58  F   UNL A   1      50.670  26.047  28.352  1.00  0.00    -0.206 F 
ATOM     59  C   UNL A   1      52.525  26.188  25.256  1.00  0.00     0.060 A 
BRANCH  59  60
ATOM     60  S   UNL A   1      54.199  25.894  24.642  1.00  0.00     0.124 S 
ATOM     61  O   UNL A   1      54.981  26.804  25.470  1.00  0.00    -0.237 OA
ATOM     62  O   UNL A   1      54.380  24.471  24.910  1.00  0.00    -0.237 OA
ATOM     63  O   UNL A   1      54.105  26.249  23.228  1.00  0.00    -0.744 OA
ENDBRANCH  59  60
ENDBRANCH  27  52
BRANCH  39  64
ATOM     64  C   UNL A   1      47.083  32.758  28.458  1.00  0.00     0.058 A 
ATOM     65  C   UNL A   1      47.784  33.136  29.611  1.00  0.00     0.135 A 
ATOM     66  C   UNL A   1      46.995  33.677  27.401  1.00  0.00     0.135 A 
ATOM     67  F   UNL A   1      47.887  32.291  30.649  1.00  0.00    -0.206 F 
ATOM     68  C   UNL A   1      48.388  34.384  29.710  1.00  0.00     0.059 A 
ATOM     69  C   UNL A   1      47.607  34.922  27.471  1.00  0.00     0.059 A 
ATOM     70  F   UNL A   1      46.340  33.351  26.275  1.00  0.00    -0.206 F 
ATOM     71  C   UNL A   1      48.301  35.266  28.631  1.00  0.00     0.060 A 
BRANCH  71  72
ATOM     72  S   UNL A   1      49.161  36.849  28.735  1.00  0.00     0.124 S 
ATOM     73  O   UNL A   1      48.049  37.792  28.683  1.00  0.00    -0.237 OA
ATOM     74  O   UNL A   1      49.848  36.749  30.019  1.00  0.00    -0.237 OA
ATOM     75  O   UNL A   1      50.033  36.839  27.564  1.00  0.00    -0.744 OA
ENDBRANCH  71  72
ENDBRANCH  39  64
ENDBRANCH  13  14
ENDBRANCH   6   8
ENDBRANCH   5   6
ENDBRANCH   4   5
ENDBRANCH   3   4
ENDBRANCH   2   3
ENDBRANCH   1   2
BRANCH   1  76
ATOM     76  C   UNL A   1      36.428  21.871  25.735  1.00  0.00     0.261 C 
BRANCH  76  77
ATOM     77  O   UNL A   1      35.553  20.993  25.008  1.00  0.00    -0.459 OA
BRANCH  77  78
ATOM     78  C   UNL A   1      34.347  20.795  25.603  1.00  0.00     0.356 C 
ATOM     79  O   UNL A   1      33.901  21.439  26.543  1.00  0.00    -0.244 OA
BRANCH  78  80
ATOM     80  C   UNL A   1      33.600  19.839  24.838  1.00  0.00     0.152 A 
ATOM     81  N   UNL A   1      33.747  18.494  25.028  1.00  0.00    -0.271 N 
ATOM     82  C   UNL A   1      32.630  19.973  23.855  1.00  0.00     0.059 A 
ATOM     83  N   UNL A   1      32.833  17.753  24.377  1.00  0.00    -0.183 NA
ATOM     84  H   UNL A   1      34.457  18.104  25.588  1.00  0.00     0.190 HD
ATOM     85  C   UNL A   1      32.157  18.654  23.663  1.00  0.00     0.145 A 
BRANCH  82  86
ATOM     86  C   UNL A   1      32.202  21.209  23.133  1.00  0.00     0.303 C 
BRANCH  86  87
ATOM     87  N   UNL A   1      32.846  22.417  23.686  1.00  0.00    -0.330 N 
ATOM     88  C   UNL A   1      33.807  23.050  22.771  1.00  0.00     0.262 C 
ATOM     89  C   UNL A   1      31.860  23.364  24.218  1.00  0.00     0.274 C 
ATOM     90  H   UNL A   1      33.409  22.098  24.473  1.00  0.00     0.348 HD
ATOM     91  C   UNL A   1      34.515  24.247  23.408  1.00  0.00     0.062 C 
ATOM     92  C   UNL A   1      32.531  24.559  24.895  1.00  0.00     0.116 C 
ATOM     93  C   UNL A   1      33.498  25.257  23.937  1.00  0.00     0.023 C 
BRANCH  92  94
ATOM     94  C   UNL A   1      31.440  25.399  25.550  1.00  0.00     0.171 C 
ATOM     95  O   UNL A   1      31.270  25.372  26.771  1.00  0.00    -0.294 OA
BRANCH  94  96
ATOM     96  C   UNL A   1      30.552  26.282  24.763  1.00  0.00     0.018 A 
ATOM     97  C   UNL A   1      29.207  25.919  24.674  1.00  0.00     0.015 A 
ATOM     98  C   UNL A   1      31.021  27.402  24.073  1.00  0.00     0.015 A 
ATOM     99  C   UNL A   1      28.323  26.700  23.932  1.00  0.00     0.048 A 
ATOM    100  C   UNL A   1      30.124  28.200  23.351  1.00  0.00     0.048 A 
ATOM    101  C   UNL A   1      28.773  27.849  23.274  1.00  0.00     0.127 A 
BRANCH 101 102
ATOM    102  O   UNL A   1      27.791  28.527  22.587  1.00  0.00    -0.457 OA
BRANCH 102 103
ATOM    103  C   UNL A   1      27.899  29.884  22.434  1.00  0.00     0.127 A 
ATOM    104  C   UNL A   1      28.209  30.379  21.168  1.00  0.00     0.047 A 
ATOM    105  C   UNL A   1      27.818  30.742  23.532  1.00  0.00     0.047 A 
ATOM    106  C   UNL A   1      28.397  31.749  20.989  1.00  0.00     0.004 A 
ATOM    107  C   UNL A   1      27.991  32.114  23.347  1.00  0.00     0.004 A 
ATOM    108  C   UNL A   1      28.280  32.616  22.077  1.00  0.00     0.000 A 
ENDBRANCH 102 103
ENDBRANCH 101 102
ENDBRANCH  94  96
ENDBRANCH  92  94
ENDBRANCH  86  87
ENDBRANCH  82  86
ENDBRANCH  78  80
ENDBRANCH  77  78
ENDBRANCH  76  77
ENDBRANCH   1  76
TORSDOF 23
ENDMDL
MODEL 2
REMARK VINA RESULT:     -11.6      0.689      7.810
REMARK SMILES O=C(OCCOCCOC(=O)c1[nH]ncc1C[N@H+]1CCC[C@@H](C(=O)c2ccc(Oc3ccccc3)cc2)C1)c1ccc(-c2c3nc(c(-c4c(F)cc(S(=O)(=O)[O-])cc4F)c4ccc([nH]4)c(-c4c(F)cc(S(=O)(=O)[O-])cc4F)c4nc(c(-c5c(F)cc(S(=O)(=O)[O-])cc5F)c5ccc2[nH]5)C=C4)C=C3)cc1
REMARK SMILES IDX 7 1 6 2 5 3 4 4 3 5 2 6 1 7 39 8 40 9 104 10 41 11 103 12
REMARK SMILES IDX 42 13 43 14 44 15 97 16 45 17 102 18 96 19 98 20 46 21
REMARK SMILES IDX 101 22 95 23 94 24 47 26 81 27 60 28 80 29 61 30 64 31 79 32
REMARK SMILES IDX 99 33 62 34 63 35 78 37 100 38 65 39 48 40 49 41 58 42 50 43
REMARK SMILES IDX 51 44 57 45 59 46 52 47 53 48 54 49 55 50 56 51 82 52 83 53
REMARK SMILES IDX 92 54 84 55 85 56 91 57 93 58 86 59 87 60 88 61 89 62 90 63
REMARK SMILES IDX 66 64 67 65 76 66 68 67 69 68 75 69 77 70 70 71 71 72 72 73
REMARK SMILES IDX 73 74 74 75 8 76 9 77 10 78 11 79 12 80 13 81 16 82 14 83
REMARK SMILES IDX 15 85 17 86 18 87 19 88 38 89 20 91 22 92 21 93 23 94 24 95
REMARK SMILES IDX 25 96 26 97 37 98 27 99 36 100 28 101 29 102 30 103 31 104
REMARK SMILES IDX 35 105 32 106 34 107 33 108
REMARK H PARENT 98 25 64 36 13 84 18 90
REMARK Flexibility Score: inf
ROOT
ATOM      1  C   UNL A   1      37.861  21.706  24.908  1.00  0.00     0.202 C 
ENDROOT
BRANCH   1   2
ATOM      2  O   UNL A   1      38.968  22.007  25.767  1.00  0.00    -0.374 OA
BRANCH   2   3
ATOM      3  C   UNL A   1      39.537  20.910  26.482  1.00  0.00     0.202 C 
BRANCH   3   4
ATOM      4  C   UNL A   1      39.857  19.694  25.615  1.00  0.00     0.261 C 
BRANCH   4   5
ATOM      5  O   UNL A   1      41.144  19.176  25.983  1.00  0.00    -0.460 OA
BRANCH   5   6
ATOM      6  C   UNL A   1      42.368  19.694  25.744  1.00  0.00     0.338 C 
ATOM      7  O   UNL A   1      43.198  18.984  25.179  1.00  0.00    -0.246 OA
BRANCH   6   8
ATOM      8  C   UNL A   1      42.781  21.077  26.134  1.00  0.00     0.060 A 
ATOM      9  C   UNL A   1      43.010  21.518  27.441  1.00  0.00     0.016 A 
ATOM     10  C   UNL A   1      43.067  21.962  25.081  1.00  0.00     0.016 A 
ATOM     11  C   UNL A   1      43.470  22.802  27.706  1.00  0.00     0.010 A 
ATOM     12  C   UNL A   1      43.551  23.246  25.335  1.00  0.00     0.010 A 
ATOM     13  C   UNL A   1      43.742  23.667  26.654  1.00  0.00    -0.014 A 
BRANCH  13  14
ATOM     14  C   UNL A   1      44.134  25.050  26.964  1.00  0.00     0.031 A 
ATOM     15  C   UNL A   1      45.569  25.431  26.792  1.00  0.00     0.074 A 
ATOM     16  C   UNL A   1      43.196  25.941  27.325  1.00  0.00     0.049 A 
ATOM     17  N   UNL A   1      46.165  26.553  27.081  1.00  0.00    -0.248 NA
ATOM     18  C   UNL A   1      46.449  24.407  26.204  1.00  0.00     0.031 C 
ATOM     19  C   UNL A   1      41.762  25.662  27.414  1.00  0.00     0.029 A 
ATOM     20  N   UNL A   1      43.304  27.258  27.679  1.00  0.00    -0.354 N 
ATOM     21  C   UNL A   1      47.498  26.363  26.740  1.00  0.00     0.074 A 
ATOM     22  C   UNL A   1      47.621  25.022  26.216  1.00  0.00     0.031 C 
ATOM     23  C   UNL A   1      41.123  26.774  27.814  1.00  0.00     0.029 A 
ATOM     24  C   UNL A   1      42.111  27.820  28.061  1.00  0.00     0.049 A 
ATOM     25  H   UNL A   1      44.155  27.754  27.663  1.00  0.00     0.167 HD
ATOM     26  C   UNL A   1      48.523  27.234  26.877  1.00  0.00     0.037 A 
ATOM     27  C   UNL A   1      41.860  29.031  28.595  1.00  0.00     0.037 A 
ATOM     28  C   UNL A   1      48.360  28.553  27.426  1.00  0.00     0.049 A 
ATOM     29  C   UNL A   1      43.022  29.963  28.801  1.00  0.00     0.074 A 
ATOM     30  C   UNL A   1      49.320  29.513  27.674  1.00  0.00     0.029 A 
ATOM     31  N   UNL A   1      47.139  29.087  27.825  1.00  0.00    -0.354 N 
ATOM     32  N   UNL A   1      44.291  29.766  28.517  1.00  0.00    -0.248 NA
ATOM     33  C   UNL A   1      42.735  31.268  29.406  1.00  0.00     0.031 C 
ATOM     34  C   UNL A   1      48.684  30.615  28.258  1.00  0.00     0.029 A 
ATOM     35  C   UNL A   1      47.322  30.358  28.335  1.00  0.00     0.049 A 
ATOM     36  H   UNL A   1      46.272  28.627  27.753  1.00  0.00     0.167 HD
ATOM     37  C   UNL A   1      44.954  30.923  28.905  1.00  0.00     0.074 A 
ATOM     38  C   UNL A   1      43.942  31.822  29.430  1.00  0.00     0.031 C 
ATOM     39  C   UNL A   1      46.276  31.218  28.840  1.00  0.00     0.037 A 
BRANCH  26  40
ATOM     40  C   UNL A   1      49.889  26.732  26.509  1.00  0.00     0.058 A 
ATOM     41  C   UNL A   1      50.344  26.715  25.181  1.00  0.00     0.135 A 
ATOM     42  C   UNL A   1      50.721  26.174  27.493  1.00  0.00     0.135 A 
ATOM     43  F   UNL A   1      49.574  27.207  24.196  1.00  0.00    -0.206 F 
ATOM     44  C   UNL A   1      51.552  26.116  24.834  1.00  0.00     0.059 A 
ATOM     45  C   UNL A   1      51.943  25.590  27.172  1.00  0.00     0.059 A 
ATOM     46  F   UNL A   1      50.330  26.155  28.777  1.00  0.00    -0.206 F 
ATOM     47  C   UNL A   1      52.336  25.541  25.836  1.00  0.00     0.060 A 
BRANCH  47  48
ATOM     48  S   UNL A   1      53.860  24.695  25.368  1.00  0.00     0.124 S 
ATOM     49  O   UNL A   1      54.333  25.537  24.272  1.00  0.00    -0.237 OA
ATOM     50  O   UNL A   1      54.646  24.756  26.596  1.00  0.00    -0.237 OA
ATOM     51  O   UNL A   1      53.405  23.363  24.984  1.00  0.00    -0.744 OA
ENDBRANCH  47  48
ENDBRANCH  26  40
BRANCH  27  52
ATOM     52  C   UNL A   1      40.475  29.380  29.008  1.00  0.00     0.058 A 
ATOM     53  C   UNL A   1      40.107  29.452  30.358  1.00  0.00     0.135 A 
ATOM     54  C   UNL A   1      39.504  29.718  28.050  1.00  0.00     0.135 A 
ATOM     55  F   UNL A   1      40.993  29.133  31.313  1.00  0.00    -0.206 F 
ATOM     56  C   UNL A   1      38.831  29.857  30.745  1.00  0.00     0.059 A 
ATOM     57  C   UNL A   1      38.231  30.147  28.411  1.00  0.00     0.059 A 
ATOM     58  F   UNL A   1      39.807  29.676  26.742  1.00  0.00    -0.206 F 
ATOM     59  C   UNL A   1      37.902  30.212  29.764  1.00  0.00     0.060 A 
BRANCH  59  60
ATOM     60  S   UNL A   1      36.281  30.823  30.277  1.00  0.00     0.124 S 
ATOM     61  O   UNL A   1      36.621  32.128  30.833  1.00  0.00    -0.237 OA
ATOM     62  O   UNL A   1      35.544  30.838  29.017  1.00  0.00    -0.237 OA
ATOM     63  O   UNL A   1      35.835  29.822  31.242  1.00  0.00    -0.744 OA
ENDBRANCH  59  60
ENDBRANCH  27  52
BRANCH  39  64
ATOM     64  C   UNL A   1      46.701  32.569  29.332  1.00  0.00     0.058 A 
ATOM     65  C   UNL A   1      47.098  32.768  30.661  1.00  0.00     0.135 A 
ATOM     66  C   UNL A   1      46.818  33.642  28.434  1.00  0.00     0.135 A 
ATOM     67  F   UNL A   1      46.996  31.772  31.555  1.00  0.00    -0.206 F 
ATOM     68  C   UNL A   1      47.605  33.991  31.086  1.00  0.00     0.059 A 
ATOM     69  C   UNL A   1      47.340  34.866  28.833  1.00  0.00     0.059 A 
ATOM     70  F   UNL A   1      46.457  33.491  27.150  1.00  0.00    -0.206 F 
ATOM     71  C   UNL A   1      47.731  35.030  30.161  1.00  0.00     0.060 A 
BRANCH  71  72
ATOM     72  S   UNL A   1      48.470  36.585  30.703  1.00  0.00     0.124 S 
ATOM     73  O   UNL A   1      49.103  36.188  31.956  1.00  0.00    -0.237 OA
ATOM     74  O   UNL A   1      49.379  36.899  29.605  1.00  0.00    -0.237 OA
ATOM     75  O   UNL A   1      47.322  37.478  30.832  1.00  0.00    -0.744 OA
ENDBRANCH  71  72
ENDBRANCH  39  64
ENDBRANCH  13  14
ENDBRANCH   6   8
ENDBRANCH   5   6
ENDBRANCH   4   5
ENDBRANCH   3   4
ENDBRANCH   2   3
ENDBRANCH   1   2
BRANCH   1  76
ATOM     76  C   UNL A   1      36.585  21.649  25.763  1.00  0.00     0.261 C 
BRANCH  76  77
ATOM     77  O   UNL A   1      35.526  21.104  24.960  1.00  0.00    -0.459 OA
BRANCH  77  78
ATOM     78  C   UNL A   1      34.383  20.847  25.650  1.00  0.00     0.356 C 
ATOM     79  O   UNL A   1      34.006  21.441  26.651  1.00  0.00    -0.244 OA
BRANCH  78  80
ATOM     80  C   UNL A   1      33.595  19.901  24.914  1.00  0.00     0.152 A 
ATOM     81  N   UNL A   1      33.674  18.559  25.155  1.00  0.00    -0.271 N 
ATOM     82  C   UNL A   1      32.641  20.046  23.917  1.00  0.00     0.059 A 
ATOM     83  N   UNL A   1      32.729  17.840  24.523  1.00  0.00    -0.183 NA
ATOM     84  H   UNL A   1      34.359  18.156  25.736  1.00  0.00     0.190 HD
ATOM     85  C   UNL A   1      32.104  18.746  23.769  1.00  0.00     0.145 A 
BRANCH  82  86
ATOM     86  C   UNL A   1      32.281  21.274  23.145  1.00  0.00     0.303 C 
BRANCH  86  87
ATOM     87  N   UNL A   1      32.908  22.483  23.715  1.00  0.00    -0.330 N 
ATOM     88  C   UNL A   1      33.882  23.125  22.821  1.00  0.00     0.262 C 
ATOM     89  C   UNL A   1      31.907  23.422  24.233  1.00  0.00     0.274 C 
ATOM     90  H   UNL A   1      33.459  22.163  24.511  1.00  0.00     0.348 HD
ATOM     91  C   UNL A   1      34.572  24.323  23.476  1.00  0.00     0.062 C 
ATOM     92  C   UNL A   1      32.559  24.618  24.928  1.00  0.00     0.116 C 
ATOM     93  C   UNL A   1      33.540  25.325  23.990  1.00  0.00     0.023 C 
BRANCH  92  94
ATOM     94  C   UNL A   1      31.453  25.448  25.567  1.00  0.00     0.171 C 
ATOM     95  O   UNL A   1      31.268  25.424  26.786  1.00  0.00    -0.294 OA
BRANCH  94  96
ATOM     96  C   UNL A   1      30.565  26.320  24.767  1.00  0.00     0.018 A 
ATOM     97  C   UNL A   1      29.221  25.953  24.679  1.00  0.00     0.015 A 
ATOM     98  C   UNL A   1      31.034  27.432  24.064  1.00  0.00     0.015 A 
ATOM     99  C   UNL A   1      28.338  26.724  23.925  1.00  0.00     0.048 A 
ATOM    100  C   UNL A   1      30.139  28.220  23.329  1.00  0.00     0.048 A 
ATOM    101  C   UNL A   1      28.788  27.865  23.253  1.00  0.00     0.127 A 
BRANCH 101 102
ATOM    102  O   UNL A   1      27.806  28.533  22.556  1.00  0.00    -0.457 OA
BRANCH 102 103
ATOM    103  C   UNL A   1      27.899  29.892  22.409  1.00  0.00     0.127 A 
ATOM    104  C   UNL A   1      28.167  30.398  21.137  1.00  0.00     0.047 A 
ATOM    105  C   UNL A   1      27.845  30.742  23.515  1.00  0.00     0.047 A 
ATOM    106  C   UNL A   1      28.338  31.771  20.962  1.00  0.00     0.004 A 
ATOM    107  C   UNL A   1      28.002  32.116  23.334  1.00  0.00     0.004 A 
ATOM    108  C   UNL A   1      28.247  32.629  22.059  1.00  0.00     0.000 A 
ENDBRANCH 102 103
ENDBRANCH 101 102
ENDBRANCH  94  96
ENDBRANCH  92  94
ENDBRANCH  86  87
ENDBRANCH  82  86
ENDBRANCH  78  80
ENDBRANCH  77  78
ENDBRANCH  76  77
ENDBRANCH   1  76
TORSDOF 23
ENDMDL
MODEL 3
REMARK VINA RESULT:     -10.6      3.209      9.099
REMARK SMILES O=C(OCCOCCOC(=O)c1[nH]ncc1C[N@H+]1CCC[C@@H](C(=O)c2ccc(Oc3ccccc3)cc2)C1)c1ccc(-c2c3nc(c(-c4c(F)cc(S(=O)(=O)[O-])cc4F)c4ccc([nH]4)c(-c4c(F)cc(S(=O)(=O)[O-])cc4F)c4nc(c(-c5c(F)cc(S(=O)(=O)[O-])cc5F)c5ccc2[nH]5)C=C4)C=C3)cc1
REMARK SMILES IDX 7 1 6 2 5 3 4 4 3 5 2 6 1 7 39 8 40 9 104 10 41 11 103 12
REMARK SMILES IDX 42 13 43 14 44 15 97 16 45 17 102 18 96 19 98 20 46 21
REMARK SMILES IDX 101 22 95 23 94 24 47 26 81 27 60 28 80 29 61 30 64 31 79 32
REMARK SMILES IDX 99 33 62 34 63 35 78 37 100 38 65 39 48 40 49 41 58 42 50 43
REMARK SMILES IDX 51 44 57 45 59 46 52 47 53 48 54 49 55 50 56 51 82 52 83 53
REMARK SMILES IDX 92 54 84 55 85 56 91 57 93 58 86 59 87 60 88 61 89 62 90 63
REMARK SMILES IDX 66 64 67 65 76 66 68 67 69 68 75 69 77 70 70 71 71 72 72 73
REMARK SMILES IDX 73 74 74 75 8 76 9 77 10 78 11 79 12 80 13 81 16 82 14 83
REMARK SMILES IDX 15 85 17 86 18 87 19 88 38 89 20 91 22 92 21 93 23 94 24 95
REMARK SMILES IDX 25 96 26 97 37 98 27 99 36 100 28 101 29 102 30 103 31 104
REMARK SMILES IDX 35 105 32 106 34 107 33 108
REMARK H PARENT 98 25 64 36 13 84 18 90
REMARK Flexibility Score: inf
ROOT
ATOM      1  C   UNL A   1      34.216  19.556  24.557  1.00  0.00     0.202 C 
ENDROOT
BRANCH   1   2
ATOM      2  O   UNL A   1      35.564  19.658  25.032  1.00  0.00    -0.374 OA
BRANCH   2   3
ATOM      3  C   UNL A   1      36.167  20.950  24.970  1.00  0.00     0.202 C 
BRANCH   3   4
ATOM      4  C   UNL A   1      37.693  20.930  24.924  1.00  0.00     0.261 C 
BRANCH   4   5
ATOM      5  O   UNL A   1      38.204  22.067  25.637  1.00  0.00    -0.460 OA
BRANCH   5   6
ATOM      6  C   UNL A   1      39.352  22.183  26.338  1.00  0.00     0.338 C 
ATOM      7  O   UNL A   1      39.948  21.153  26.649  1.00  0.00    -0.246 OA
BRANCH   6   8
ATOM      8  C   UNL A   1      39.941  23.487  26.769  1.00  0.00     0.060 A 
ATOM      9  C   UNL A   1      39.670  24.731  26.192  1.00  0.00     0.016 A 
ATOM     10  C   UNL A   1      40.746  23.458  27.920  1.00  0.00     0.016 A 
ATOM     11  C   UNL A   1      40.202  25.906  26.709  1.00  0.00     0.010 A 
ATOM     12  C   UNL A   1      41.267  24.634  28.461  1.00  0.00     0.010 A 
ATOM     13  C   UNL A   1      41.001  25.859  27.844  1.00  0.00    -0.014 A 
BRANCH  13  14
ATOM     14  C   UNL A   1      41.630  27.102  28.314  1.00  0.00     0.031 A 
ATOM     15  C   UNL A   1      43.100  27.271  28.106  1.00  0.00     0.074 A 
ATOM     16  C   UNL A   1      40.867  28.071  28.849  1.00  0.00     0.049 A 
ATOM     17  N   UNL A   1      43.885  28.231  28.507  1.00  0.00    -0.248 NA
ATOM     18  C   UNL A   1      43.774  26.215  27.332  1.00  0.00     0.031 C 
ATOM     19  C   UNL A   1      39.411  28.013  28.988  1.00  0.00     0.029 A 
ATOM     20  N   UNL A   1      41.207  29.289  29.371  1.00  0.00    -0.354 N 
ATOM     21  C   UNL A   1      45.153  27.881  28.062  1.00  0.00     0.074 A 
ATOM     22  C   UNL A   1      45.032  26.627  27.355  1.00  0.00     0.031 C 
ATOM     23  C   UNL A   1      38.983  29.144  29.573  1.00  0.00     0.029 A 
ATOM     24  C   UNL A   1      40.139  29.973  29.898  1.00  0.00     0.049 A 
ATOM     25  H   UNL A   1      42.127  29.640  29.369  1.00  0.00     0.167 HD
ATOM     26  C   UNL A   1      46.314  28.549  28.252  1.00  0.00     0.037 A 
ATOM     27  C   UNL A   1      40.115  31.119  30.605  1.00  0.00     0.037 A 
ATOM     28  C   UNL A   1      46.394  29.784  28.983  1.00  0.00     0.049 A 
ATOM     29  C   UNL A   1      41.422  31.815  30.863  1.00  0.00     0.074 A 
ATOM     30  C   UNL A   1      47.509  30.534  29.299  1.00  0.00     0.029 A 
ATOM     31  N   UNL A   1      45.295  30.444  29.525  1.00  0.00    -0.354 N 
ATOM     32  N   UNL A   1      42.629  31.461  30.478  1.00  0.00    -0.248 NA
ATOM     33  C   UNL A   1      41.380  33.049  31.655  1.00  0.00     0.031 C 
ATOM     34  C   UNL A   1      47.089  31.628  30.065  1.00  0.00     0.029 A 
ATOM     35  C   UNL A   1      45.706  31.583  30.190  1.00  0.00     0.049 A 
ATOM     36  H   UNL A   1      44.361  30.143  29.445  1.00  0.00     0.167 HD
ATOM     37  C   UNL A   1      43.490  32.429  30.976  1.00  0.00     0.074 A 
ATOM     38  C   UNL A   1      42.663  33.393  31.680  1.00  0.00     0.031 C 
ATOM     39  C   UNL A   1      44.839  32.516  30.871  1.00  0.00     0.037 A 
BRANCH  26  40
ATOM     40  C   UNL A   1      47.562  27.894  27.736  1.00  0.00     0.058 A 
ATOM     41  C   UNL A   1      48.382  27.103  28.557  1.00  0.00     0.135 A 
ATOM     42  C   UNL A   1      47.991  28.135  26.422  1.00  0.00     0.135 A 
ATOM     43  F   UNL A   1      48.035  26.866  29.833  1.00  0.00    -0.206 F 
ATOM     44  C   UNL A   1      49.608  26.619  28.109  1.00  0.00     0.059 A 
ATOM     45  C   UNL A   1      49.203  27.643  25.945  1.00  0.00     0.059 A 
ATOM     46  F   UNL A   1      47.250  28.893  25.598  1.00  0.00    -0.206 F 
ATOM     47  C   UNL A   1      50.017  26.909  26.807  1.00  0.00     0.060 A 
BRANCH  47  48
ATOM     48  S   UNL A   1      51.643  26.348  26.261  1.00  0.00     0.124 S 
ATOM     49  O   UNL A   1      51.634  26.757  24.859  1.00  0.00    -0.237 OA
ATOM     50  O   UNL A   1      52.544  27.096  27.131  1.00  0.00    -0.237 OA
ATOM     51  O   UNL A   1      51.602  24.908  26.495  1.00  0.00    -0.744 OA
ENDBRANCH  47  48
ENDBRANCH  26  40
BRANCH  27  52
ATOM     52  C   UNL A   1      38.824  31.621  31.146  1.00  0.00     0.058 A 
ATOM     53  C   UNL A   1      38.299  31.145  32.355  1.00  0.00     0.135 A 
ATOM     54  C   UNL A   1      38.121  32.646  30.490  1.00  0.00     0.135 A 
ATOM     55  F   UNL A   1      38.927  30.163  33.018  1.00  0.00    -0.206 F 
ATOM     56  C   UNL A   1      37.131  31.673  32.901  1.00  0.00     0.059 A 
ATOM     57  C   UNL A   1      36.965  33.205  31.026  1.00  0.00     0.059 A 
ATOM     58  F   UNL A   1      38.585  33.146  29.333  1.00  0.00    -0.206 F 
ATOM     59  C   UNL A   1      36.476  32.711  32.234  1.00  0.00     0.060 A 
BRANCH  59  60
ATOM     60  S   UNL A   1      35.014  33.453  32.994  1.00  0.00     0.124 S 
ATOM     61  O   UNL A   1      33.943  32.644  32.423  1.00  0.00    -0.237 OA
ATOM     62  O   UNL A   1      35.273  33.257  34.416  1.00  0.00    -0.237 OA
ATOM     63  O   UNL A   1      35.068  34.840  32.540  1.00  0.00    -0.744 OA
ENDBRANCH  59  60
ENDBRANCH  27  52
BRANCH  39  64
ATOM     64  C   UNL A   1      45.502  33.698  31.513  1.00  0.00     0.058 A 
ATOM     65  C   UNL A   1      45.591  34.930  30.852  1.00  0.00     0.135 A 
ATOM     66  C   UNL A   1      45.948  33.621  32.842  1.00  0.00     0.135 A 
ATOM     67  F   UNL A   1      45.183  35.047  29.578  1.00  0.00    -0.206 F 
ATOM     68  C   UNL A   1      46.098  36.056  31.491  1.00  0.00     0.059 A 
ATOM     69  C   UNL A   1      46.440  34.738  33.506  1.00  0.00     0.059 A 
ATOM     70  F   UNL A   1      45.872  32.462  33.514  1.00  0.00    -0.206 F 
ATOM     71  C   UNL A   1      46.510  35.951  32.821  1.00  0.00     0.060 A 
BRANCH  71  72
ATOM     72  S   UNL A   1      47.085  37.437  33.668  1.00  0.00     0.124 S 
ATOM     73  O   UNL A   1      48.332  36.970  34.266  1.00  0.00    -0.237 OA
ATOM     74  O   UNL A   1      47.225  38.390  32.571  1.00  0.00    -0.237 OA
ATOM     75  O   UNL A   1      46.007  37.729  34.609  1.00  0.00    -0.744 OA
ENDBRANCH  71  72
ENDBRANCH  39  64
ENDBRANCH  13  14
ENDBRANCH   6   8
ENDBRANCH   5   6
ENDBRANCH   4   5
ENDBRANCH   3   4
ENDBRANCH   2   3
ENDBRANCH   1   2
BRANCH   1  76
ATOM     76  C   UNL A   1      33.354  20.570  25.327  1.00  0.00     0.261 C 
BRANCH  76  77
ATOM     77  O   UNL A   1      32.862  21.546  24.394  1.00  0.00    -0.459 OA
BRANCH  77  78
ATOM     78  C   UNL A   1      32.936  22.827  24.843  1.00  0.00     0.356 C 
ATOM     79  O   UNL A   1      33.106  23.167  26.006  1.00  0.00    -0.244 OA
BRANCH  78  80
ATOM     80  C   UNL A   1      32.974  23.715  23.716  1.00  0.00     0.152 A 
ATOM     81  N   UNL A   1      34.130  23.955  23.030  1.00  0.00    -0.271 N 
ATOM     82  C   UNL A   1      31.995  24.454  23.068  1.00  0.00     0.059 A 
ATOM     83  N   UNL A   1      33.949  24.646  21.890  1.00  0.00    -0.183 NA
ATOM     84  H   UNL A   1      35.014  23.650  23.340  1.00  0.00     0.190 HD
ATOM     85  C   UNL A   1      32.650  24.950  21.917  1.00  0.00     0.145 A 
BRANCH  82  86
ATOM     86  C   UNL A   1      30.584  24.706  23.493  1.00  0.00     0.303 C 
BRANCH  86  87
ATOM     87  N   UNL A   1      30.505  25.741  24.543  1.00  0.00    -0.330 N 
ATOM     88  C   UNL A   1      30.436  25.199  25.908  1.00  0.00     0.262 C 
ATOM     89  C   UNL A   1      31.552  26.756  24.387  1.00  0.00     0.274 C 
ATOM     90  H   UNL A   1      29.610  26.209  24.405  1.00  0.00     0.348 HD
ATOM     91  C   UNL A   1      30.270  26.295  26.961  1.00  0.00     0.062 C 
ATOM     92  C   UNL A   1      31.398  27.889  25.401  1.00  0.00     0.116 C 
ATOM     93  C   UNL A   1      31.375  27.342  26.830  1.00  0.00     0.023 C 
BRANCH  92  94
ATOM     94  C   UNL A   1      32.424  28.963  25.062  1.00  0.00     0.171 C 
ATOM     95  O   UNL A   1      32.943  29.011  23.944  1.00  0.00    -0.294 OA
BRANCH  94  96
ATOM     96  C   UNL A   1      32.834  29.993  26.041  1.00  0.00     0.018 A 
ATOM     97  C   UNL A   1      34.085  29.840  26.642  1.00  0.00     0.015 A 
ATOM     98  C   UNL A   1      32.001  31.049  26.419  1.00  0.00     0.015 A 
ATOM     99  C   UNL A   1      34.521  30.767  27.586  1.00  0.00     0.048 A 
ATOM    100  C   UNL A   1      32.454  31.994  27.349  1.00  0.00     0.048 A 
ATOM    101  C   UNL A   1      33.713  31.853  27.939  1.00  0.00     0.127 A 
BRANCH 101 102
ATOM    102  O   UNL A   1      34.274  32.692  28.877  1.00  0.00    -0.457 OA
BRANCH 102 103
ATOM    103  C   UNL A   1      33.977  34.029  28.839  1.00  0.00     0.127 A 
ATOM    104  C   UNL A   1      34.651  34.824  27.911  1.00  0.00     0.047 A 
ATOM    105  C   UNL A   1      33.117  34.604  29.775  1.00  0.00     0.047 A 
ATOM    106  C   UNL A   1      34.427  36.201  27.891  1.00  0.00     0.004 A 
ATOM    107  C   UNL A   1      32.884  35.978  29.742  1.00  0.00     0.004 A 
ATOM    108  C   UNL A   1      33.538  36.775  28.800  1.00  0.00     0.000 A 
ENDBRANCH 102 103
ENDBRANCH 101 102
ENDBRANCH  94  96
ENDBRANCH  92  94
ENDBRANCH  86  87
ENDBRANCH  82  86
ENDBRANCH  78  80
ENDBRANCH  77  78
ENDBRANCH  76  77
ENDBRANCH   1  76
TORSDOF 23
ENDMDL
