MODEL 1
REMARK VINA RESULT:     -12.0      0.000      0.000
REMARK SMILES O=C(OCCOCCOC(=O)[C@H]1Cc2ccc(Cl)cc2C[N@@H+]1Cc1ccccc1Cl)c1ccc(-c2c3nc(c(-c4c(F)cc(S(=O)(=O)[O-])cc4F)c4ccc([nH]4)c(-c4c(F)cc(S(=O)(=O)[O-])cc4F)c4nc(c(-c5c(F)cc(S(=O)(=O)[O-])cc5F)c5ccc2[nH]5)C=C4)C=C3)cc1
REMARK SMILES IDX 5 1 4 2 3 3 2 4 1 5 31 6 32 7 96 8 33 9 95 10 34 11 35 12
REMARK SMILES IDX 36 13 89 14 37 15 94 16 88 17 90 18 38 19 93 20 87 21 86 22
REMARK SMILES IDX 39 24 73 25 52 26 72 27 53 28 56 29 71 30 91 31 54 32 55 33
REMARK SMILES IDX 70 35 92 36 57 37 40 38 41 39 50 40 42 41 43 42 49 43 51 44
REMARK SMILES IDX 44 45 45 46 46 47 47 48 48 49 74 50 75 51 84 52 76 53 77 54
REMARK SMILES IDX 83 55 85 56 78 57 79 58 80 59 81 60 82 61 58 62 59 63 68 64
REMARK SMILES IDX 60 65 61 66 67 67 69 68 62 69 63 70 64 71 65 72 66 73 6 74
REMARK SMILES IDX 7 75 8 76 9 77 10 78 11 79 12 80 13 81 22 82 14 83 21 84
REMARK SMILES IDX 15 86 20 87 16 88 19 89 17 90 18 91 23 92 24 93 25 94 29 95
REMARK SMILES IDX 26 96 28 97 30 98 27 99
REMARK H PARENT 90 23 56 34 22 85
REMARK Flexibility Score: inf
ROOT
ATOM      1  C   UNL A   1      37.338  23.326  25.648  1.00  0.00     0.202 C 
ENDROOT
BRANCH   1   2
ATOM      2  C   UNL A   1      38.190  24.234  26.534  1.00  0.00     0.261 C 
BRANCH   2   3
ATOM      3  O   UNL A   1      39.521  24.426  26.045  1.00  0.00    -0.460 OA
BRANCH   3   4
ATOM      4  C   UNL A   1      40.305  25.498  26.303  1.00  0.00     0.338 C 
ATOM      5  O   UNL A   1      41.074  25.885  25.423  1.00  0.00    -0.246 OA
BRANCH   4   6
ATOM      6  C   UNL A   1      40.185  26.310  27.559  1.00  0.00     0.060 A 
ATOM      7  C   UNL A   1      41.070  27.395  27.669  1.00  0.00     0.016 A 
ATOM      8  C   UNL A   1      39.349  26.040  28.648  1.00  0.00     0.016 A 
ATOM      9  C   UNL A   1      41.129  28.161  28.834  1.00  0.00     0.010 A 
ATOM     10  C   UNL A   1      39.417  26.780  29.824  1.00  0.00     0.010 A 
ATOM     11  C   UNL A   1      40.302  27.848  29.917  1.00  0.00    -0.014 A 
BRANCH  11  12
ATOM     12  C   UNL A   1      40.201  28.746  31.076  1.00  0.00     0.031 A 
ATOM     13  C   UNL A   1      41.041  28.545  32.295  1.00  0.00     0.074 A 
ATOM     14  C   UNL A   1      39.259  29.702  31.002  1.00  0.00     0.049 A 
ATOM     15  N   UNL A   1      41.139  29.310  33.348  1.00  0.00    -0.248 NA
ATOM     16  C   UNL A   1      41.865  27.327  32.354  1.00  0.00     0.031 C 
ATOM     17  C   UNL A   1      38.331  29.873  29.877  1.00  0.00     0.029 A 
ATOM     18  N   UNL A   1      38.915  30.697  31.871  1.00  0.00    -0.354 N 
ATOM     19  C   UNL A   1      42.059  28.690  34.183  1.00  0.00     0.074 A 
ATOM     20  C   UNL A   1      42.449  27.453  33.540  1.00  0.00     0.031 C 
ATOM     21  C   UNL A   1      37.543  30.930  30.114  1.00  0.00     0.029 A 
ATOM     22  C   UNL A   1      37.907  31.504  31.403  1.00  0.00     0.049 A 
ATOM     23  H   UNL A   1      39.348  30.824  32.747  1.00  0.00     0.167 HD
ATOM     24  C   UNL A   1      42.537  29.142  35.366  1.00  0.00     0.037 A 
ATOM     25  C   UNL A   1      37.360  32.604  31.948  1.00  0.00     0.037 A 
ATOM     26  C   UNL A   1      42.090  30.371  35.974  1.00  0.00     0.049 A 
ATOM     27  C   UNL A   1      37.930  33.099  33.243  1.00  0.00     0.074 A 
ATOM     28  C   UNL A   1      42.534  30.969  37.140  1.00  0.00     0.029 A 
ATOM     29  N   UNL A   1      41.083  31.184  35.466  1.00  0.00    -0.354 N 
ATOM     30  N   UNL A   1      38.888  32.572  33.969  1.00  0.00    -0.248 NA
ATOM     31  C   UNL A   1      37.371  34.341  33.785  1.00  0.00     0.031 C 
ATOM     32  C   UNL A   1      41.765  32.116  37.360  1.00  0.00     0.029 A 
ATOM     33  C   UNL A   1      40.878  32.267  36.304  1.00  0.00     0.049 A 
ATOM     34  H   UNL A   1      40.589  31.015  34.632  1.00  0.00     0.167 HD
ATOM     35  C   UNL A   1      39.064  33.428  35.047  1.00  0.00     0.074 A 
ATOM     36  C   UNL A   1      38.119  34.516  34.865  1.00  0.00     0.031 C 
ATOM     37  C   UNL A   1      39.924  33.328  36.090  1.00  0.00     0.037 A 
BRANCH  24  38
ATOM     38  C   UNL A   1      43.607  28.346  36.065  1.00  0.00     0.058 A 
ATOM     39  C   UNL A   1      44.964  28.693  35.949  1.00  0.00     0.135 A 
ATOM     40  C   UNL A   1      43.277  27.300  36.944  1.00  0.00     0.135 A 
ATOM     41  F   UNL A   1      45.341  29.675  35.116  1.00  0.00    -0.206 F 
ATOM     42  C   UNL A   1      45.951  28.036  36.678  1.00  0.00     0.059 A 
ATOM     43  C   UNL A   1      44.247  26.645  37.702  1.00  0.00     0.059 A 
ATOM     44  F   UNL A   1      41.998  26.923  37.095  1.00  0.00    -0.206 F 
ATOM     45  C   UNL A   1      45.582  27.021  37.563  1.00  0.00     0.060 A 
BRANCH  45  46
ATOM     46  S   UNL A   1      46.874  26.227  38.544  1.00  0.00     0.124 S 
ATOM     47  O   UNL A   1      46.181  25.991  39.807  1.00  0.00    -0.237 OA
ATOM     48  O   UNL A   1      47.173  25.036  37.756  1.00  0.00    -0.237 OA
ATOM     49  O   UNL A   1      47.935  27.228  38.590  1.00  0.00    -0.744 OA
ENDBRANCH  45  46
ENDBRANCH  24  38
BRANCH  25  50
ATOM     50  C   UNL A   1      36.290  33.325  31.215  1.00  0.00     0.058 A 
ATOM     51  C   UNL A   1      34.970  33.328  31.690  1.00  0.00     0.135 A 
ATOM     52  C   UNL A   1      36.578  34.097  30.077  1.00  0.00     0.135 A 
ATOM     53  F   UNL A   1      34.649  32.619  32.782  1.00  0.00    -0.206 F 
ATOM     54  C   UNL A   1      33.971  34.059  31.057  1.00  0.00     0.059 A 
ATOM     55  C   UNL A   1      35.600  34.855  29.441  1.00  0.00     0.059 A 
ATOM     56  F   UNL A   1      37.833  34.156  29.605  1.00  0.00    -0.206 F 
ATOM     57  C   UNL A   1      34.297  34.823  29.935  1.00  0.00     0.060 A 
BRANCH  57  58
ATOM     58  S   UNL A   1      33.000  35.807  29.155  1.00  0.00     0.124 S 
ATOM     59  O   UNL A   1      32.374  34.825  28.277  1.00  0.00    -0.237 OA
ATOM     60  O   UNL A   1      32.208  36.234  30.303  1.00  0.00    -0.237 OA
ATOM     61  O   UNL A   1      33.741  36.870  28.484  1.00  0.00    -0.744 OA
ENDBRANCH  57  58
ENDBRANCH  25  50
BRANCH  37  62
ATOM     62  C   UNL A   1      39.885  34.427  37.111  1.00  0.00     0.058 A 
ATOM     63  C   UNL A   1      40.590  35.625  36.920  1.00  0.00     0.135 A 
ATOM     64  C   UNL A   1      39.070  34.310  38.248  1.00  0.00     0.135 A 
ATOM     65  F   UNL A   1      41.389  35.777  35.853  1.00  0.00    -0.206 F 
ATOM     66  C   UNL A   1      40.496  36.669  37.831  1.00  0.00     0.059 A 
ATOM     67  C   UNL A   1      38.940  35.353  39.156  1.00  0.00     0.059 A 
ATOM     68  F   UNL A   1      38.372  33.185  38.467  1.00  0.00    -0.206 F 
ATOM     69  C   UNL A   1      39.661  36.527  38.942  1.00  0.00     0.060 A 
BRANCH  69  70
ATOM     70  S   UNL A   1      39.507  37.916  40.082  1.00  0.00     0.124 S 
ATOM     71  O   UNL A   1      40.762  38.625  39.854  1.00  0.00    -0.237 OA
ATOM     72  O   UNL A   1      38.305  38.585  39.594  1.00  0.00    -0.237 OA
ATOM     73  O   UNL A   1      39.375  37.275  41.386  1.00  0.00    -0.744 OA
ENDBRANCH  69  70
ENDBRANCH  37  62
ENDBRANCH  11  12
ENDBRANCH   4   6
ENDBRANCH   3   4
ENDBRANCH   2   3
ENDBRANCH   1   2
BRANCH   1  74
ATOM     74  O   UNL A   1      36.230  23.990  25.047  1.00  0.00    -0.374 OA
BRANCH  74  75
ATOM     75  C   UNL A   1      35.174  23.152  24.567  1.00  0.00     0.202 C 
BRANCH  75  76
ATOM     76  C   UNL A   1      34.685  23.648  23.210  1.00  0.00     0.261 C 
BRANCH  76  77
ATOM     77  O   UNL A   1      33.483  24.392  23.447  1.00  0.00    -0.459 OA
BRANCH  77  78
ATOM     78  C   UNL A   1      33.411  25.639  22.877  1.00  0.00     0.365 C 
ATOM     79  O   UNL A   1      33.665  25.873  21.705  1.00  0.00    -0.245 OA
BRANCH  78  80
ATOM     80  C   UNL A   1      32.864  26.632  23.933  1.00  0.00     0.300 C 
ATOM     81  C   UNL A   1      34.070  26.967  24.848  1.00  0.00     0.113 C 
ATOM     82  N   UNL A   1      32.172  27.817  23.358  1.00  0.00    -0.315 N 
ATOM     83  C   UNL A   1      33.923  28.188  25.700  1.00  0.00    -0.033 A 
ATOM     84  C   UNL A   1      31.869  28.815  24.387  1.00  0.00     0.300 C 
ATOM     85  H   UNL A   1      32.847  28.206  22.699  1.00  0.00     0.349 HD
ATOM     86  C   UNL A   1      34.781  28.395  26.788  1.00  0.00     0.006 A 
ATOM     87  C   UNL A   1      32.957  29.140  25.375  1.00  0.00     0.011 A 
ATOM     88  C   UNL A   1      34.675  29.554  27.552  1.00  0.00     0.021 A 
ATOM     89  C   UNL A   1      32.871  30.314  26.135  1.00  0.00     0.030 A 
ATOM     90  C   UNL A   1      33.730  30.518  27.212  1.00  0.00     0.041 A 
ATOM     91  Cl  UNL A   1      33.590  31.950  28.153  1.00  0.00    -0.084 Cl
BRANCH  82  92
ATOM     92  C   UNL A   1      30.954  27.509  22.532  1.00  0.00     0.301 C 
BRANCH  92  93
ATOM     93  C   UNL A   1      29.766  28.481  22.537  1.00  0.00     0.025 A 
ATOM     94  C   UNL A   1      29.850  29.706  21.840  1.00  0.00     0.011 A 
ATOM     95  C   UNL A   1      28.524  28.191  23.132  1.00  0.00     0.049 A 
ATOM     96  C   UNL A   1      28.838  30.669  21.895  1.00  0.00     0.001 A 
ATOM     97  C   UNL A   1      27.491  29.145  23.158  1.00  0.00     0.021 A 
ATOM     98  Cl  UNL A   1      28.155  26.648  23.808  1.00  0.00    -0.084 Cl
ATOM     99  C   UNL A   1      27.661  30.398  22.576  1.00  0.00     0.002 A 
ENDBRANCH  92  93
ENDBRANCH  82  92
ENDBRANCH  78  80
ENDBRANCH  77  78
ENDBRANCH  76  77
ENDBRANCH  75  76
ENDBRANCH  74  75
ENDBRANCH   1  74
TORSDOF 19
ENDMDL
MODEL 2
REMARK VINA RESULT:     -12.0      4.181     10.029
REMARK SMILES O=C(OCCOCCOC(=O)[C@H]1Cc2ccc(Cl)cc2C[N@@H+]1Cc1ccccc1Cl)c1ccc(-c2c3nc(c(-c4c(F)cc(S(=O)(=O)[O-])cc4F)c4ccc([nH]4)c(-c4c(F)cc(S(=O)(=O)[O-])cc4F)c4nc(c(-c5c(F)cc(S(=O)(=O)[O-])cc5F)c5ccc2[nH]5)C=C4)C=C3)cc1
REMARK SMILES IDX 5 1 4 2 3 3 2 4 1 5 31 6 32 7 96 8 33 9 95 10 34 11 35 12
REMARK SMILES IDX 36 13 89 14 37 15 94 16 88 17 90 18 38 19 93 20 87 21 86 22
REMARK SMILES IDX 39 24 73 25 52 26 72 27 53 28 56 29 71 30 91 31 54 32 55 33
REMARK SMILES IDX 70 35 92 36 57 37 40 38 41 39 50 40 42 41 43 42 49 43 51 44
REMARK SMILES IDX 44 45 45 46 46 47 47 48 48 49 74 50 75 51 84 52 76 53 77 54
REMARK SMILES IDX 83 55 85 56 78 57 79 58 80 59 81 60 82 61 58 62 59 63 68 64
REMARK SMILES IDX 60 65 61 66 67 67 69 68 62 69 63 70 64 71 65 72 66 73 6 74
REMARK SMILES IDX 7 75 8 76 9 77 10 78 11 79 12 80 13 81 22 82 14 83 21 84
REMARK SMILES IDX 15 86 20 87 16 88 19 89 17 90 18 91 23 92 24 93 25 94 29 95
REMARK SMILES IDX 26 96 28 97 30 98 27 99
REMARK H PARENT 90 23 56 34 22 85
REMARK Flexibility Score: inf
ROOT
ATOM      1  C   UNL A   1      33.485  27.223  25.240  1.00  0.00     0.202 C 
ENDROOT
BRANCH   1   2
ATOM      2  C   UNL A   1      33.523  28.049  26.525  1.00  0.00     0.261 C 
BRANCH   2   3
ATOM      3  O   UNL A   1      33.812  29.433  26.308  1.00  0.00    -0.460 OA
BRANCH   3   4
ATOM      4  C   UNL A   1      34.360  30.273  27.216  1.00  0.00     0.338 C 
ATOM      5  O   UNL A   1      33.731  31.282  27.532  1.00  0.00    -0.246 OA
BRANCH   4   6
ATOM      6  C   UNL A   1      35.632  29.961  27.948  1.00  0.00     0.060 A 
ATOM      7  C   UNL A   1      36.805  30.013  27.178  1.00  0.00     0.016 A 
ATOM      8  C   UNL A   1      35.746  29.547  29.280  1.00  0.00     0.016 A 
ATOM      9  C   UNL A   1      38.038  29.641  27.717  1.00  0.00     0.010 A 
ATOM     10  C   UNL A   1      36.964  29.149  29.821  1.00  0.00     0.010 A 
ATOM     11  C   UNL A   1      38.115  29.203  29.043  1.00  0.00    -0.014 A 
BRANCH  11  12
ATOM     12  C   UNL A   1      39.415  28.991  29.695  1.00  0.00     0.031 A 
ATOM     13  C   UNL A   1      39.876  29.863  30.818  1.00  0.00     0.074 A 
ATOM     14  C   UNL A   1      40.187  28.023  29.172  1.00  0.00     0.049 A 
ATOM     15  N   UNL A   1      40.944  29.735  31.557  1.00  0.00    -0.248 NA
ATOM     16  C   UNL A   1      39.050  31.035  31.146  1.00  0.00     0.031 C 
ATOM     17  C   UNL A   1      39.830  27.214  28.001  1.00  0.00     0.029 A 
ATOM     18  N   UNL A   1      41.417  27.557  29.537  1.00  0.00    -0.354 N 
ATOM     19  C   UNL A   1      40.906  30.787  32.463  1.00  0.00     0.074 A 
ATOM     20  C   UNL A   1      39.738  31.580  32.143  1.00  0.00     0.031 C 
ATOM     21  C   UNL A   1      40.809  26.330  27.762  1.00  0.00     0.029 A 
ATOM     22  C   UNL A   1      41.857  26.515  28.758  1.00  0.00     0.049 A 
ATOM     23  H   UNL A   1      41.937  27.930  30.286  1.00  0.00     0.167 HD
ATOM     24  C   UNL A   1      41.768  31.037  33.476  1.00  0.00     0.037 A 
ATOM     25  C   UNL A   1      42.974  25.775  28.859  1.00  0.00     0.037 A 
ATOM     26  C   UNL A   1      42.935  30.228  33.731  1.00  0.00     0.049 A 
ATOM     27  C   UNL A   1      43.895  26.054  30.008  1.00  0.00     0.074 A 
ATOM     28  C   UNL A   1      43.856  30.340  34.756  1.00  0.00     0.029 A 
ATOM     29  N   UNL A   1      43.346  29.161  32.939  1.00  0.00    -0.354 N 
ATOM     30  N   UNL A   1      43.789  26.976  30.937  1.00  0.00    -0.248 NA
ATOM     31  C   UNL A   1      45.070  25.187  30.145  1.00  0.00     0.031 C 
ATOM     32  C   UNL A   1      44.846  29.372  34.558  1.00  0.00     0.029 A 
ATOM     33  C   UNL A   1      44.516  28.620  33.440  1.00  0.00     0.049 A 
ATOM     34  H   UNL A   1      42.872  28.838  32.139  1.00  0.00     0.167 HD
ATOM     35  C   UNL A   1      44.872  26.790  31.782  1.00  0.00     0.074 A 
ATOM     36  C   UNL A   1      45.613  25.656  31.260  1.00  0.00     0.031 C 
ATOM     37  C   UNL A   1      45.225  27.490  32.889  1.00  0.00     0.037 A 
BRANCH  24  38
ATOM     38  C   UNL A   1      41.482  32.191  34.401  1.00  0.00     0.058 A 
ATOM     39  C   UNL A   1      41.951  33.484  34.118  1.00  0.00     0.135 A 
ATOM     40  C   UNL A   1      40.641  32.034  35.517  1.00  0.00     0.135 A 
ATOM     41  F   UNL A   1      42.767  33.693  33.072  1.00  0.00    -0.206 F 
ATOM     42  C   UNL A   1      41.599  34.577  34.903  1.00  0.00     0.059 A 
ATOM     43  C   UNL A   1      40.257  33.120  36.303  1.00  0.00     0.059 A 
ATOM     44  F   UNL A   1      40.163  30.822  35.838  1.00  0.00    -0.206 F 
ATOM     45  C   UNL A   1      40.740  34.389  35.987  1.00  0.00     0.060 A 
BRANCH  45  46
ATOM     46  S   UNL A   1      40.247  35.832  36.954  1.00  0.00     0.124 S 
ATOM     47  O   UNL A   1      41.509  36.211  37.583  1.00  0.00    -0.237 OA
ATOM     48  O   UNL A   1      39.757  36.742  35.923  1.00  0.00    -0.237 OA
ATOM     49  O   UNL A   1      39.230  35.309  37.860  1.00  0.00    -0.744 OA
ENDBRANCH  45  46
ENDBRANCH  24  38
BRANCH  25  50
ATOM     50  C   UNL A   1      43.205  24.669  27.896  1.00  0.00     0.058 A 
ATOM     51  C   UNL A   1      43.887  24.896  26.692  1.00  0.00     0.135 A 
ATOM     52  C   UNL A   1      42.829  23.350  28.198  1.00  0.00     0.135 A 
ATOM     53  F   UNL A   1      44.280  26.136  26.367  1.00  0.00    -0.206 F 
ATOM     54  C   UNL A   1      44.177  23.857  25.813  1.00  0.00     0.059 A 
ATOM     55  C   UNL A   1      43.128  22.291  27.346  1.00  0.00     0.059 A 
ATOM     56  F   UNL A   1      42.206  23.075  29.354  1.00  0.00    -0.206 F 
ATOM     57  C   UNL A   1      43.797  22.557  26.152  1.00  0.00     0.060 A 
BRANCH  57  58
ATOM     58  S   UNL A   1      44.225  21.212  25.025  1.00  0.00     0.124 S 
ATOM     59  O   UNL A   1      44.179  21.887  23.733  1.00  0.00    -0.237 OA
ATOM     60  O   UNL A   1      45.551  20.828  25.498  1.00  0.00    -0.237 OA
ATOM     61  O   UNL A   1      43.174  20.228  25.261  1.00  0.00    -0.744 OA
ENDBRANCH  57  58
ENDBRANCH  25  50
BRANCH  37  62
ATOM     62  C   UNL A   1      46.464  27.044  33.609  1.00  0.00     0.058 A 
ATOM     63  C   UNL A   1      46.415  26.042  34.590  1.00  0.00     0.135 A 
ATOM     64  C   UNL A   1      47.717  27.566  33.255  1.00  0.00     0.135 A 
ATOM     65  F   UNL A   1      45.238  25.521  34.968  1.00  0.00    -0.206 F 
ATOM     66  C   UNL A   1      47.572  25.580  35.205  1.00  0.00     0.059 A 
ATOM     67  C   UNL A   1      48.889  27.097  33.837  1.00  0.00     0.059 A 
ATOM     68  F   UNL A   1      47.812  28.521  32.317  1.00  0.00    -0.206 F 
ATOM     69  C   UNL A   1      48.805  26.107  34.815  1.00  0.00     0.060 A 
BRANCH  69  70
ATOM     70  S   UNL A   1      50.299  25.452  35.583  1.00  0.00     0.124 S 
ATOM     71  O   UNL A   1      51.275  25.609  34.509  1.00  0.00    -0.237 OA
ATOM     72  O   UNL A   1      50.472  26.337  36.730  1.00  0.00    -0.237 OA
ATOM     73  O   UNL A   1      49.940  24.075  35.908  1.00  0.00    -0.744 OA
ENDBRANCH  69  70
ENDBRANCH  37  62
ENDBRANCH  11  12
ENDBRANCH   4   6
ENDBRANCH   3   4
ENDBRANCH   2   3
ENDBRANCH   1   2
BRANCH   1  74
ATOM     74  O   UNL A   1      32.173  26.814  24.863  1.00  0.00    -0.374 OA
BRANCH  74  75
ATOM     75  C   UNL A   1      31.202  26.752  25.913  1.00  0.00     0.202 C 
BRANCH  75  76
ATOM     76  C   UNL A   1      30.402  25.458  25.812  1.00  0.00     0.261 C 
BRANCH  76  77
ATOM     77  O   UNL A   1      31.298  24.450  25.327  1.00  0.00    -0.459 OA
BRANCH  77  78
ATOM     78  C   UNL A   1      31.942  23.693  26.274  1.00  0.00     0.365 C 
ATOM     79  O   UNL A   1      31.513  23.497  27.402  1.00  0.00    -0.245 OA
BRANCH  78  80
ATOM     80  C   UNL A   1      33.207  23.072  25.632  1.00  0.00     0.300 C 
ATOM     81  C   UNL A   1      34.397  23.902  26.179  1.00  0.00     0.113 C 
ATOM     82  N   UNL A   1      33.333  21.602  25.827  1.00  0.00    -0.315 N 
ATOM     83  C   UNL A   1      35.749  23.278  26.033  1.00  0.00    -0.033 A 
ATOM     84  C   UNL A   1      34.642  21.111  25.387  1.00  0.00     0.300 C 
ATOM     85  H   UNL A   1      33.246  21.474  26.835  1.00  0.00     0.349 HD
ATOM     86  C   UNL A   1      36.903  24.059  26.175  1.00  0.00     0.006 A 
ATOM     87  C   UNL A   1      35.851  21.907  25.801  1.00  0.00     0.011 A 
ATOM     88  C   UNL A   1      38.163  23.469  26.086  1.00  0.00     0.021 A 
ATOM     89  C   UNL A   1      37.121  21.317  25.735  1.00  0.00     0.030 A 
ATOM     90  C   UNL A   1      38.265  22.096  25.883  1.00  0.00     0.041 A 
ATOM     91  Cl  UNL A   1      39.816  21.361  25.768  1.00  0.00    -0.084 Cl
BRANCH  82  92
ATOM     92  C   UNL A   1      32.223  20.780  25.232  1.00  0.00     0.301 C 
BRANCH  92  93
ATOM     93  C   UNL A   1      32.524  19.377  24.686  1.00  0.00     0.025 A 
ATOM     94  C   UNL A   1      32.722  18.299  25.575  1.00  0.00     0.011 A 
ATOM     95  C   UNL A   1      32.531  19.059  23.315  1.00  0.00     0.049 A 
ATOM     96  C   UNL A   1      33.096  17.026  25.135  1.00  0.00     0.001 A 
ATOM     97  C   UNL A   1      32.873  17.770  22.870  1.00  0.00     0.021 A 
ATOM     98  Cl  UNL A   1      32.065  20.188  22.096  1.00  0.00    -0.084 Cl
ATOM     99  C   UNL A   1      33.195  16.764  23.777  1.00  0.00     0.002 A 
ENDBRANCH  92  93
ENDBRANCH  82  92
ENDBRANCH  78  80
ENDBRANCH  77  78
ENDBRANCH  76  77
ENDBRANCH  75  76
ENDBRANCH  74  75
ENDBRANCH   1  74
TORSDOF 19
ENDMDL
MODEL 3
REMARK VINA RESULT:     -11.9      5.816     10.488
REMARK SMILES O=C(OCCOCCOC(=O)[C@H]1Cc2ccc(Cl)cc2C[N@@H+]1Cc1ccccc1Cl)c1ccc(-c2c3nc(c(-c4c(F)cc(S(=O)(=O)[O-])cc4F)c4ccc([nH]4)c(-c4c(F)cc(S(=O)(=O)[O-])cc4F)c4nc(c(-c5c(F)cc(S(=O)(=O)[O-])cc5F)c5ccc2[nH]5)C=C4)C=C3)cc1
REMARK SMILES IDX 5 1 4 2 3 3 2 4 1 5 31 6 32 7 96 8 33 9 95 10 34 11 35 12
REMARK SMILES IDX 36 13 89 14 37 15 94 16 88 17 90 18 38 19 93 20 87 21 86 22
REMARK SMILES IDX 39 24 73 25 52 26 72 27 53 28 56 29 71 30 91 31 54 32 55 33
REMARK SMILES IDX 70 35 92 36 57 37 40 38 41 39 50 40 42 41 43 42 49 43 51 44
REMARK SMILES IDX 44 45 45 46 46 47 47 48 48 49 74 50 75 51 84 52 76 53 77 54
REMARK SMILES IDX 83 55 85 56 78 57 79 58 80 59 81 60 82 61 58 62 59 63 68 64
REMARK SMILES IDX 60 65 61 66 67 67 69 68 62 69 63 70 64 71 65 72 66 73 6 74
REMARK SMILES IDX 7 75 8 76 9 77 10 78 11 79 12 80 13 81 22 82 14 83 21 84
REMARK SMILES IDX 15 86 20 87 16 88 19 89 17 90 18 91 23 92 24 93 25 94 29 95
REMARK SMILES IDX 26 96 28 97 30 98 27 99
REMARK H PARENT 90 23 56 34 22 85
REMARK Flexibility Score: inf
ROOT
ATOM      1  C   UNL A   1      31.913  28.639  26.352  1.00  0.00     0.202 C 
ENDROOT
BRANCH   1   2
ATOM      2  C   UNL A   1      33.213  29.440  26.402  1.00  0.00     0.261 C 
BRANCH   2   3
ATOM      3  O   UNL A   1      33.855  29.411  27.681  1.00  0.00    -0.460 OA
BRANCH   3   4
ATOM      4  C   UNL A   1      34.798  30.282  28.106  1.00  0.00     0.338 C 
ATOM      5  O   UNL A   1      34.453  31.433  28.371  1.00  0.00    -0.246 OA
BRANCH   4   6
ATOM      6  C   UNL A   1      36.213  29.873  28.392  1.00  0.00     0.060 A 
ATOM      7  C   UNL A   1      37.097  29.937  27.303  1.00  0.00     0.016 A 
ATOM      8  C   UNL A   1      36.704  29.362  29.598  1.00  0.00     0.016 A 
ATOM      9  C   UNL A   1      38.412  29.484  27.415  1.00  0.00     0.010 A 
ATOM     10  C   UNL A   1      38.004  28.882  29.715  1.00  0.00     0.010 A 
ATOM     11  C   UNL A   1      38.864  28.950  28.625  1.00  0.00    -0.014 A 
BRANCH  11  12
ATOM     12  C   UNL A   1      40.288  28.645  28.833  1.00  0.00     0.031 A 
ATOM     13  C   UNL A   1      40.856  27.305  28.497  1.00  0.00     0.074 A 
ATOM     14  C   UNL A   1      41.021  29.613  29.410  1.00  0.00     0.049 A 
ATOM     15  N   UNL A   1      42.104  26.923  28.526  1.00  0.00    -0.248 NA
ATOM     16  C   UNL A   1      39.910  26.252  28.093  1.00  0.00     0.031 C 
ATOM     17  C   UNL A   1      40.488  30.904  29.862  1.00  0.00     0.029 A 
ATOM     18  N   UNL A   1      42.348  29.671  29.723  1.00  0.00    -0.354 N 
ATOM     19  C   UNL A   1      42.104  25.597  28.112  1.00  0.00     0.074 A 
ATOM     20  C   UNL A   1      40.723  25.221  27.893  1.00  0.00     0.031 C 
ATOM     21  C   UNL A   1      41.488  31.638  30.368  1.00  0.00     0.029 A 
ATOM     22  C   UNL A   1      42.723  30.870  30.279  1.00  0.00     0.049 A 
ATOM     23  H   UNL A   1      42.974  28.928  29.565  1.00  0.00     0.167 HD
ATOM     24  C   UNL A   1      43.174  24.791  27.920  1.00  0.00     0.037 A 
ATOM     25  C   UNL A   1      43.939  31.305  30.649  1.00  0.00     0.037 A 
ATOM     26  C   UNL A   1      44.529  25.211  28.183  1.00  0.00     0.049 A 
ATOM     27  C   UNL A   1      45.111  30.404  30.396  1.00  0.00     0.074 A 
ATOM     28  C   UNL A   1      45.705  24.513  27.976  1.00  0.00     0.029 A 
ATOM     29  N   UNL A   1      44.885  26.441  28.724  1.00  0.00    -0.354 N 
ATOM     30  N   UNL A   1      45.116  29.194  29.888  1.00  0.00    -0.248 NA
ATOM     31  C   UNL A   1      46.437  30.926  30.738  1.00  0.00     0.031 C 
ATOM     32  C   UNL A   1      46.765  25.302  28.435  1.00  0.00     0.029 A 
ATOM     33  C   UNL A   1      46.258  26.515  28.877  1.00  0.00     0.049 A 
ATOM     34  H   UNL A   1      44.251  27.156  28.963  1.00  0.00     0.167 HD
ATOM     35  C   UNL A   1      46.449  28.812  29.830  1.00  0.00     0.074 A 
ATOM     36  C   UNL A   1      47.220  29.931  30.341  1.00  0.00     0.031 C 
ATOM     37  C   UNL A   1      46.988  27.647  29.394  1.00  0.00     0.037 A 
BRANCH  24  38
ATOM     38  C   UNL A   1      42.948  23.406  27.374  1.00  0.00     0.058 A 
ATOM     39  C   UNL A   1      43.217  23.101  26.030  1.00  0.00     0.135 A 
ATOM     40  C   UNL A   1      42.568  22.347  28.217  1.00  0.00     0.135 A 
ATOM     41  F   UNL A   1      43.572  24.073  25.174  1.00  0.00    -0.206 F 
ATOM     42  C   UNL A   1      43.120  21.801  25.542  1.00  0.00     0.059 A 
ATOM     43  C   UNL A   1      42.488  21.034  27.754  1.00  0.00     0.059 A 
ATOM     44  F   UNL A   1      42.297  22.577  29.511  1.00  0.00    -0.206 F 
ATOM     45  C   UNL A   1      42.767  20.771  26.414  1.00  0.00     0.060 A 
BRANCH  45  46
ATOM     46  S   UNL A   1      42.709  19.084  25.772  1.00  0.00     0.124 S 
ATOM     47  O   UNL A   1      41.271  18.872  25.628  1.00  0.00    -0.237 OA
ATOM     48  O   UNL A   1      43.458  19.202  24.525  1.00  0.00    -0.237 OA
ATOM     49  O   UNL A   1      43.355  18.296  26.816  1.00  0.00    -0.744 OA
ENDBRANCH  45  46
ENDBRANCH  24  38
BRANCH  25  50
ATOM     50  C   UNL A   1      44.086  32.674  31.205  1.00  0.00     0.058 A 
ATOM     51  C   UNL A   1      44.345  33.766  30.365  1.00  0.00     0.135 A 
ATOM     52  C   UNL A   1      43.882  32.931  32.571  1.00  0.00     0.135 A 
ATOM     53  F   UNL A   1      44.532  33.572  29.051  1.00  0.00    -0.206 F 
ATOM     54  C   UNL A   1      44.412  35.064  30.859  1.00  0.00     0.059 A 
ATOM     55  C   UNL A   1      43.920  34.224  33.084  1.00  0.00     0.059 A 
ATOM     56  F   UNL A   1      43.594  31.924  33.410  1.00  0.00    -0.206 F 
ATOM     57  C   UNL A   1      44.193  35.283  32.220  1.00  0.00     0.060 A 
BRANCH  57  58
ATOM     58  S   UNL A   1      44.232  36.980  32.838  1.00  0.00     0.124 S 
ATOM     59  O   UNL A   1      43.704  37.720  31.698  1.00  0.00    -0.237 OA
ATOM     60  O   UNL A   1      43.361  36.899  34.006  1.00  0.00    -0.237 OA
ATOM     61  O   UNL A   1      45.644  37.198  33.133  1.00  0.00    -0.744 OA
ENDBRANCH  57  58
ENDBRANCH  25  50
BRANCH  37  62
ATOM     62  C   UNL A   1      48.483  27.528  29.448  1.00  0.00     0.058 A 
ATOM     63  C   UNL A   1      49.126  26.913  30.533  1.00  0.00     0.135 A 
ATOM     64  C   UNL A   1      49.269  27.960  28.368  1.00  0.00     0.135 A 
ATOM     65  F   UNL A   1      48.417  26.494  31.592  1.00  0.00    -0.206 F 
ATOM     66  C   UNL A   1      50.505  26.739  30.549  1.00  0.00     0.059 A 
ATOM     67  C   UNL A   1      50.645  27.769  28.351  1.00  0.00     0.059 A 
ATOM     68  F   UNL A   1      48.695  28.546  27.306  1.00  0.00    -0.206 F 
ATOM     69  C   UNL A   1      51.254  27.162  29.449  1.00  0.00     0.060 A 
BRANCH  69  70
ATOM     70  S   UNL A   1      53.034  26.874  29.463  1.00  0.00     0.124 S 
ATOM     71  O   UNL A   1      53.554  28.235  29.369  1.00  0.00    -0.237 OA
ATOM     72  O   UNL A   1      53.231  26.209  30.747  1.00  0.00    -0.237 OA
ATOM     73  O   UNL A   1      53.255  26.036  28.288  1.00  0.00    -0.744 OA
ENDBRANCH  69  70
ENDBRANCH  37  62
ENDBRANCH  11  12
ENDBRANCH   4   6
ENDBRANCH   3   4
ENDBRANCH   2   3
ENDBRANCH   1   2
BRANCH   1  74
ATOM     74  O   UNL A   1      31.969  27.513  25.481  1.00  0.00    -0.374 OA
BRANCH  74  75
ATOM     75  C   UNL A   1      30.726  27.090  24.911  1.00  0.00     0.202 C 
BRANCH  75  76
ATOM     76  C   UNL A   1      30.248  25.808  25.585  1.00  0.00     0.261 C 
BRANCH  76  77
ATOM     77  O   UNL A   1      31.100  24.752  25.124  1.00  0.00    -0.459 OA
BRANCH  77  78
ATOM     78  C   UNL A   1      31.709  23.988  26.088  1.00  0.00     0.365 C 
ATOM     79  O   UNL A   1      31.245  23.793  27.203  1.00  0.00    -0.245 OA
BRANCH  78  80
ATOM     80  C   UNL A   1      32.989  23.359  25.484  1.00  0.00     0.300 C 
ATOM     81  C   UNL A   1      34.166  24.198  26.046  1.00  0.00     0.113 C 
ATOM     82  N   UNL A   1      33.111  21.893  25.701  1.00  0.00    -0.315 N 
ATOM     83  C   UNL A   1      35.521  23.573  25.939  1.00  0.00    -0.033 A 
ATOM     84  C   UNL A   1      34.430  21.397  25.298  1.00  0.00     0.300 C 
ATOM     85  H   UNL A   1      33.002  21.778  26.709  1.00  0.00     0.349 HD
ATOM     86  C   UNL A   1      36.671  24.357  26.096  1.00  0.00     0.006 A 
ATOM     87  C   UNL A   1      35.629  22.199  25.728  1.00  0.00     0.011 A 
ATOM     88  C   UNL A   1      37.933  23.767  26.044  1.00  0.00     0.021 A 
ATOM     89  C   UNL A   1      36.900  21.609  25.699  1.00  0.00     0.030 A 
ATOM     90  C   UNL A   1      38.041  22.391  25.861  1.00  0.00     0.041 A 
ATOM     91  Cl  UNL A   1      39.594  21.656  25.791  1.00  0.00    -0.084 Cl
BRANCH  82  92
ATOM     92  C   UNL A   1      32.016  21.061  25.093  1.00  0.00     0.301 C 
BRANCH  92  93
ATOM     93  C   UNL A   1      32.347  19.687  24.495  1.00  0.00     0.025 A 
ATOM     94  C   UNL A   1      32.582  18.583  25.343  1.00  0.00     0.011 A 
ATOM     95  C   UNL A   1      32.345  19.418  23.114  1.00  0.00     0.049 A 
ATOM     96  C   UNL A   1      32.984  17.337  24.854  1.00  0.00     0.001 A 
ATOM     97  C   UNL A   1      32.716  18.154  22.619  1.00  0.00     0.021 A 
ATOM     98  Cl  UNL A   1      31.837  20.576  21.941  1.00  0.00    -0.084 Cl
ATOM     99  C   UNL A   1      33.074  17.126  23.487  1.00  0.00     0.002 A 
ENDBRANCH  92  93
ENDBRANCH  82  92
ENDBRANCH  78  80
ENDBRANCH  77  78
ENDBRANCH  76  77
ENDBRANCH  75  76
ENDBRANCH  74  75
ENDBRANCH   1  74
TORSDOF 19
ENDMDL
