MODEL 1
REMARK VINA RESULT:     -11.0      0.000      0.000
REMARK SMILES O=C(OCCOCCOC(=O)c1cccn1CC(=O)N1CCS(=O)CC1)c1ccc(-c2c3nc(c(-c4c(F)cc(S(=O)(=O)[O-])cc4F)c4ccc([nH]4)c(-c4c(F)cc(S(=O)(=O)[O-])cc4F)c4nc(c(-c5c(F)cc(S(=O)(=O)[O-])cc5F)c5ccc2[nH]5)C=C4)C=C3)cc1
REMARK SMILES IDX 5 1 4 2 3 3 2 4 1 5 27 6 28 7 92 8 29 9 91 10 30 11 31 12
REMARK SMILES IDX 32 13 85 14 33 15 90 16 84 17 86 18 34 19 89 20 83 21 82 22
REMARK SMILES IDX 35 24 69 25 48 26 68 27 49 28 52 29 67 30 87 31 50 32 51 33
REMARK SMILES IDX 66 35 88 36 53 37 36 38 37 39 46 40 38 41 39 42 45 43 47 44
REMARK SMILES IDX 40 45 41 46 42 47 43 48 44 49 70 50 71 51 80 52 72 53 73 54
REMARK SMILES IDX 79 55 81 56 74 57 75 58 76 59 77 60 78 61 54 62 55 63 64 64
REMARK SMILES IDX 56 65 57 66 63 67 65 68 58 69 59 70 60 71 61 72 62 73 6 74
REMARK SMILES IDX 7 75 8 76 9 77 10 78 11 79 12 80 13 81 16 82 14 83 15 84
REMARK SMILES IDX 17 85 18 86 19 87 20 88 21 89 26 90 22 91 25 92 23 93 24 94
REMARK H PARENT 86 23 52 34
REMARK Flexibility Score: inf
ROOT
ATOM      1  C   UNL A   1      31.710  31.353  26.634  1.00  0.00     0.202 C 
ENDROOT
BRANCH   1   2
ATOM      2  C   UNL A   1      31.823  32.871  26.558  1.00  0.00     0.261 C 
BRANCH   2   3
ATOM      3  O   UNL A   1      31.950  33.507  27.839  1.00  0.00    -0.460 OA
BRANCH   3   4
ATOM      4  C   UNL A   1      32.911  34.382  28.238  1.00  0.00     0.338 C 
ATOM      5  O   UNL A   1      32.666  35.568  28.427  1.00  0.00    -0.246 OA
BRANCH   4   6
ATOM      6  C   UNL A   1      34.094  33.772  28.832  1.00  0.00     0.060 A 
ATOM      7  C   UNL A   1      33.983  32.761  29.776  1.00  0.00     0.016 A 
ATOM      8  C   UNL A   1      35.327  34.359  28.523  1.00  0.00     0.016 A 
ATOM      9  C   UNL A   1      35.024  32.560  30.642  1.00  0.00     0.010 A 
ATOM     10  C   UNL A   1      36.436  34.022  29.270  1.00  0.00     0.010 A 
ATOM     11  C   UNL A   1      36.258  33.157  30.351  1.00  0.00    -0.014 A 
BRANCH  11  12
ATOM     12  C   UNL A   1      37.397  32.482  30.974  1.00  0.00     0.031 A 
ATOM     13  C   UNL A   1      37.657  31.183  30.171  1.00  0.00     0.074 A 
ATOM     14  C   UNL A   1      37.885  33.038  32.118  1.00  0.00     0.049 A 
ATOM     15  N   UNL A   1      37.884  29.976  30.587  1.00  0.00    -0.248 NA
ATOM     16  C   UNL A   1      37.403  31.190  28.692  1.00  0.00     0.031 C 
ATOM     17  C   UNL A   1      37.434  34.315  32.717  1.00  0.00     0.029 A 
ATOM     18  N   UNL A   1      38.848  32.649  33.017  1.00  0.00    -0.354 N 
ATOM     19  C   UNL A   1      38.074  29.180  29.433  1.00  0.00     0.074 A 
ATOM     20  C   UNL A   1      37.509  29.908  28.344  1.00  0.00     0.031 C 
ATOM     21  C   UNL A   1      38.060  34.545  33.895  1.00  0.00     0.029 A 
ATOM     22  C   UNL A   1      38.990  33.468  34.168  1.00  0.00     0.049 A 
ATOM     23  H   UNL A   1      39.404  31.850  32.872  1.00  0.00     0.167 HD
ATOM     24  C   UNL A   1      38.912  28.101  29.399  1.00  0.00     0.037 A 
ATOM     25  C   UNL A   1      39.780  33.249  35.269  1.00  0.00     0.037 A 
ATOM     26  C   UNL A   1      39.538  27.967  30.674  1.00  0.00     0.049 A 
ATOM     27  C   UNL A   1      40.579  32.062  34.913  1.00  0.00     0.074 A 
ATOM     28  C   UNL A   1      39.059  27.593  31.901  1.00  0.00     0.029 A 
ATOM     29  N   UNL A   1      40.722  28.657  30.836  1.00  0.00    -0.354 N 
ATOM     30  N   UNL A   1      41.516  32.041  34.014  1.00  0.00    -0.248 NA
ATOM     31  C   UNL A   1      40.213  30.770  35.505  1.00  0.00     0.031 C 
ATOM     32  C   UNL A   1      39.698  28.493  32.776  1.00  0.00     0.029 A 
ATOM     33  C   UNL A   1      40.725  29.174  32.106  1.00  0.00     0.049 A 
ATOM     34  H   UNL A   1      41.434  28.759  30.164  1.00  0.00     0.167 HD
ATOM     35  C   UNL A   1      41.597  30.706  33.700  1.00  0.00     0.074 A 
ATOM     36  C   UNL A   1      41.044  29.983  34.827  1.00  0.00     0.031 C 
ATOM     37  C   UNL A   1      41.566  30.320  32.396  1.00  0.00     0.037 A 
BRANCH  24  38
ATOM     38  C   UNL A   1      39.528  27.327  28.260  1.00  0.00     0.058 A 
ATOM     39  C   UNL A   1      39.615  25.920  28.413  1.00  0.00     0.135 A 
ATOM     40  C   UNL A   1      40.325  27.885  27.249  1.00  0.00     0.135 A 
ATOM     41  F   UNL A   1      38.827  25.273  29.288  1.00  0.00    -0.206 F 
ATOM     42  C   UNL A   1      40.567  25.154  27.751  1.00  0.00     0.059 A 
ATOM     43  C   UNL A   1      41.252  27.124  26.534  1.00  0.00     0.059 A 
ATOM     44  F   UNL A   1      40.301  29.194  26.976  1.00  0.00    -0.206 F 
ATOM     45  C   UNL A   1      41.413  25.777  26.845  1.00  0.00     0.060 A 
BRANCH  45  46
ATOM     46  S   UNL A   1      42.756  24.815  26.124  1.00  0.00     0.124 S 
ATOM     47  O   UNL A   1      43.740  24.837  27.200  1.00  0.00    -0.237 OA
ATOM     48  O   UNL A   1      42.116  23.527  25.878  1.00  0.00    -0.237 OA
ATOM     49  O   UNL A   1      43.104  25.572  24.926  1.00  0.00    -0.744 OA
ENDBRANCH  45  46
ENDBRANCH  24  38
BRANCH  25  50
ATOM     50  C   UNL A   1      39.940  33.766  36.686  1.00  0.00     0.058 A 
ATOM     51  C   UNL A   1      41.065  34.401  37.226  1.00  0.00     0.135 A 
ATOM     52  C   UNL A   1      38.809  33.764  37.556  1.00  0.00     0.135 A 
ATOM     53  F   UNL A   1      42.248  34.360  36.599  1.00  0.00    -0.206 F 
ATOM     54  C   UNL A   1      41.017  35.124  38.435  1.00  0.00     0.059 A 
ATOM     55  C   UNL A   1      38.715  34.518  38.721  1.00  0.00     0.059 A 
ATOM     56  F   UNL A   1      37.707  33.050  37.282  1.00  0.00    -0.206 F 
ATOM     57  C   UNL A   1      39.818  35.232  39.141  1.00  0.00     0.060 A 
BRANCH  57  58
ATOM     58  S   UNL A   1      39.638  36.395  40.511  1.00  0.00     0.124 S 
ATOM     59  O   UNL A   1      38.980  35.577  41.522  1.00  0.00    -0.237 OA
ATOM     60  O   UNL A   1      41.021  36.768  40.792  1.00  0.00    -0.237 OA
ATOM     61  O   UNL A   1      38.823  37.462  39.935  1.00  0.00    -0.744 OA
ENDBRANCH  57  58
ENDBRANCH  25  50
BRANCH  37  62
ATOM     62  C   UNL A   1      42.088  31.355  31.401  1.00  0.00     0.058 A 
ATOM     63  C   UNL A   1      43.431  31.763  31.435  1.00  0.00     0.135 A 
ATOM     64  C   UNL A   1      41.288  32.024  30.460  1.00  0.00     0.135 A 
ATOM     65  F   UNL A   1      44.289  31.165  32.278  1.00  0.00    -0.206 F 
ATOM     66  C   UNL A   1      43.934  32.775  30.605  1.00  0.00     0.059 A 
ATOM     67  C   UNL A   1      41.754  33.045  29.624  1.00  0.00     0.059 A 
ATOM     68  F   UNL A   1      40.012  31.689  30.313  1.00  0.00    -0.206 F 
ATOM     69  C   UNL A   1      43.088  33.415  29.701  1.00  0.00     0.060 A 
BRANCH  69  70
ATOM     70  S   UNL A   1      43.756  34.698  28.615  1.00  0.00     0.124 S 
ATOM     71  O   UNL A   1      44.584  35.482  29.526  1.00  0.00    -0.237 OA
ATOM     72  O   UNL A   1      44.479  33.910  27.624  1.00  0.00    -0.237 OA
ATOM     73  O   UNL A   1      42.565  35.384  28.117  1.00  0.00    -0.744 OA
ENDBRANCH  69  70
ENDBRANCH  37  62
ENDBRANCH  11  12
ENDBRANCH   4   6
ENDBRANCH   3   4
ENDBRANCH   2   3
ENDBRANCH   1   2
BRANCH   1  74
ATOM     74  O   UNL A   1      32.595  30.687  27.518  1.00  0.00    -0.374 OA
BRANCH  74  75
ATOM     75  C   UNL A   1      33.760  30.065  26.965  1.00  0.00     0.202 C 
BRANCH  75  76
ATOM     76  C   UNL A   1      33.732  28.556  26.734  1.00  0.00     0.261 C 
BRANCH  76  77
ATOM     77  O   UNL A   1      32.707  28.165  25.787  1.00  0.00    -0.459 OA
BRANCH  77  78
ATOM     78  C   UNL A   1      31.741  27.323  26.246  1.00  0.00     0.355 C 
ATOM     79  O   UNL A   1      31.128  27.450  27.293  1.00  0.00    -0.244 OA
BRANCH  78  80
ATOM     80  C   UNL A   1      31.527  26.245  25.307  1.00  0.00     0.128 A 
ATOM     81  C   UNL A   1      32.192  25.029  25.280  1.00  0.00     0.035 A 
ATOM     82  N   UNL A   1      30.540  26.172  24.336  1.00  0.00    -0.333 N 
ATOM     83  C   UNL A   1      31.487  24.162  24.413  1.00  0.00     0.020 A 
ATOM     84  C   UNL A   1      30.444  24.880  23.878  1.00  0.00     0.087 A 
BRANCH  82  85
ATOM     85  C   UNL A   1      29.648  27.237  23.915  1.00  0.00     0.222 C 
BRANCH  85  86
ATOM     86  C   UNL A   1      30.100  28.227  22.832  1.00  0.00     0.242 C 
ATOM     87  O   UNL A   1      30.752  27.742  21.893  1.00  0.00    -0.273 OA
ATOM     88  N   UNL A   1      29.636  29.539  22.739  1.00  0.00    -0.339 N 
ATOM     89  C   UNL A   1      29.776  30.236  21.444  1.00  0.00     0.133 C 
ATOM     90  C   UNL A   1      29.402  30.453  23.862  1.00  0.00     0.133 C 
ATOM     91  C   UNL A   1      28.532  31.026  21.058  1.00  0.00     0.126 C 
ATOM     92  C   UNL A   1      28.143  31.293  23.739  1.00  0.00     0.126 C 
ATOM     93  S   UNL A   1      28.125  32.326  22.254  1.00  0.00     0.025 S 
ATOM     94  O   UNL A   1      29.291  33.266  22.344  1.00  0.00    -0.259 OA
ENDBRANCH  85  86
ENDBRANCH  82  85
ENDBRANCH  78  80
ENDBRANCH  77  78
ENDBRANCH  76  77
ENDBRANCH  75  76
ENDBRANCH  74  75
ENDBRANCH   1  74
TORSDOF 19
ENDMDL
MODEL 2
REMARK VINA RESULT:     -10.7      1.883      3.351
REMARK SMILES O=C(OCCOCCOC(=O)c1cccn1CC(=O)N1CCS(=O)CC1)c1ccc(-c2c3nc(c(-c4c(F)cc(S(=O)(=O)[O-])cc4F)c4ccc([nH]4)c(-c4c(F)cc(S(=O)(=O)[O-])cc4F)c4nc(c(-c5c(F)cc(S(=O)(=O)[O-])cc5F)c5ccc2[nH]5)C=C4)C=C3)cc1
REMARK SMILES IDX 5 1 4 2 3 3 2 4 1 5 27 6 28 7 92 8 29 9 91 10 30 11 31 12
REMARK SMILES IDX 32 13 85 14 33 15 90 16 84 17 86 18 34 19 89 20 83 21 82 22
REMARK SMILES IDX 35 24 69 25 48 26 68 27 49 28 52 29 67 30 87 31 50 32 51 33
REMARK SMILES IDX 66 35 88 36 53 37 36 38 37 39 46 40 38 41 39 42 45 43 47 44
REMARK SMILES IDX 40 45 41 46 42 47 43 48 44 49 70 50 71 51 80 52 72 53 73 54
REMARK SMILES IDX 79 55 81 56 74 57 75 58 76 59 77 60 78 61 54 62 55 63 64 64
REMARK SMILES IDX 56 65 57 66 63 67 65 68 58 69 59 70 60 71 61 72 62 73 6 74
REMARK SMILES IDX 7 75 8 76 9 77 10 78 11 79 12 80 13 81 16 82 14 83 15 84
REMARK SMILES IDX 17 85 18 86 19 87 20 88 21 89 26 90 22 91 25 92 23 93 24 94
REMARK H PARENT 86 23 52 34
REMARK Flexibility Score: inf
ROOT
ATOM      1  C   UNL A   1      31.780  31.270  26.579  1.00  0.00     0.202 C 
ENDROOT
BRANCH   1   2
ATOM      2  C   UNL A   1      31.897  32.788  26.502  1.00  0.00     0.261 C 
BRANCH   2   3
ATOM      3  O   UNL A   1      31.999  33.427  27.784  1.00  0.00    -0.460 OA
BRANCH   3   4
ATOM      4  C   UNL A   1      32.964  34.287  28.205  1.00  0.00     0.338 C 
ATOM      5  O   UNL A   1      32.730  35.474  28.402  1.00  0.00    -0.246 OA
BRANCH   4   6
ATOM      6  C   UNL A   1      34.131  33.658  28.812  1.00  0.00     0.060 A 
ATOM      7  C   UNL A   1      33.994  32.658  29.763  1.00  0.00     0.016 A 
ATOM      8  C   UNL A   1      35.378  34.217  28.505  1.00  0.00     0.016 A 
ATOM      9  C   UNL A   1      35.026  32.443  30.637  1.00  0.00     0.010 A 
ATOM     10  C   UNL A   1      36.475  33.863  29.261  1.00  0.00     0.010 A 
ATOM     11  C   UNL A   1      36.273  33.012  30.349  1.00  0.00    -0.014 A 
BRANCH  11  12
ATOM     12  C   UNL A   1      37.394  32.319  30.984  1.00  0.00     0.031 A 
ATOM     13  C   UNL A   1      37.702  31.063  30.130  1.00  0.00     0.074 A 
ATOM     14  C   UNL A   1      37.829  32.822  32.173  1.00  0.00     0.049 A 
ATOM     15  N   UNL A   1      37.928  29.840  30.495  1.00  0.00    -0.248 NA
ATOM     16  C   UNL A   1      37.509  31.141  28.644  1.00  0.00     0.031 C 
ATOM     17  C   UNL A   1      37.338  34.064  32.815  1.00  0.00     0.029 A 
ATOM     18  N   UNL A   1      38.759  32.399  33.091  1.00  0.00    -0.354 N 
ATOM     19  C   UNL A   1      38.175  29.104  29.313  1.00  0.00     0.074 A 
ATOM     20  C   UNL A   1      37.645  29.879  28.238  1.00  0.00     0.031 C 
ATOM     21  C   UNL A   1      37.913  34.242  34.027  1.00  0.00     0.029 A 
ATOM     22  C   UNL A   1      38.845  33.162  34.285  1.00  0.00     0.049 A 
ATOM     23  H   UNL A   1      39.331  31.614  32.930  1.00  0.00     0.167 HD
ATOM     24  C   UNL A   1      39.027  28.037  29.260  1.00  0.00     0.037 A 
ATOM     25  C   UNL A   1      39.592  32.897  35.406  1.00  0.00     0.037 A 
ATOM     26  C   UNL A   1      39.602  27.847  30.551  1.00  0.00     0.049 A 
ATOM     27  C   UNL A   1      40.419  31.738  35.026  1.00  0.00     0.074 A 
ATOM     28  C   UNL A   1      39.078  27.407  31.738  1.00  0.00     0.029 A 
ATOM     29  N   UNL A   1      40.770  28.540  30.796  1.00  0.00    -0.354 N 
ATOM     30  N   UNL A   1      41.392  31.771  34.165  1.00  0.00    -0.248 NA
ATOM     31  C   UNL A   1      40.045  30.414  35.537  1.00  0.00     0.031 C 
ATOM     32  C   UNL A   1      39.670  28.270  32.682  1.00  0.00     0.029 A 
ATOM     33  C   UNL A   1      40.715  28.994  32.089  1.00  0.00     0.049 A 
ATOM     34  H   UNL A   1      41.507  28.682  30.159  1.00  0.00     0.167 HD
ATOM     35  C   UNL A   1      41.503  30.454  33.790  1.00  0.00     0.074 A 
ATOM     36  C   UNL A   1      40.913  29.670  34.856  1.00  0.00     0.031 C 
ATOM     37  C   UNL A   1      41.529  30.132  32.468  1.00  0.00     0.037 A 
BRANCH  24  38
ATOM     38  C   UNL A   1      39.697  27.327  28.111  1.00  0.00     0.058 A 
ATOM     39  C   UNL A   1      39.768  25.912  28.183  1.00  0.00     0.135 A 
ATOM     40  C   UNL A   1      40.551  27.936  27.179  1.00  0.00     0.135 A 
ATOM     41  F   UNL A   1      38.929  25.222  28.975  1.00  0.00    -0.206 F 
ATOM     42  C   UNL A   1      40.748  25.178  27.527  1.00  0.00     0.059 A 
ATOM     43  C   UNL A   1      41.510  27.210  26.470  1.00  0.00     0.059 A 
ATOM     44  F   UNL A   1      40.550  29.260  26.985  1.00  0.00    -0.206 F 
ATOM     45  C   UNL A   1      41.646  25.846  26.707  1.00  0.00     0.060 A 
BRANCH  45  46
ATOM     46  S   UNL A   1      43.019  24.916  26.002  1.00  0.00     0.124 S 
ATOM     47  O   UNL A   1      42.369  23.661  25.643  1.00  0.00    -0.237 OA
ATOM     48  O   UNL A   1      43.424  25.763  24.883  1.00  0.00    -0.237 OA
ATOM     49  O   UNL A   1      43.976  24.847  27.103  1.00  0.00    -0.744 OA
ENDBRANCH  45  46
ENDBRANCH  24  38
BRANCH  25  50
ATOM     50  C   UNL A   1      39.687  33.345  36.852  1.00  0.00     0.058 A 
ATOM     51  C   UNL A   1      38.635  33.442  37.771  1.00  0.00     0.135 A 
ATOM     52  C   UNL A   1      40.975  33.559  37.428  1.00  0.00     0.135 A 
ATOM     53  F   UNL A   1      37.360  33.413  37.366  1.00  0.00    -0.206 F 
ATOM     54  C   UNL A   1      38.854  33.558  39.160  1.00  0.00     0.059 A 
ATOM     55  C   UNL A   1      41.222  33.614  38.795  1.00  0.00     0.059 A 
ATOM     56  F   UNL A   1      42.076  33.682  36.672  1.00  0.00    -0.206 F 
ATOM     57  C   UNL A   1      40.154  33.575  39.666  1.00  0.00     0.060 A 
BRANCH  57  58
ATOM     58  S   UNL A   1      40.473  33.406  41.435  1.00  0.00     0.124 S 
ATOM     59  O   UNL A   1      41.149  34.660  41.746  1.00  0.00    -0.237 OA
ATOM     60  O   UNL A   1      39.129  33.252  41.985  1.00  0.00    -0.237 OA
ATOM     61  O   UNL A   1      41.304  32.207  41.510  1.00  0.00    -0.744 OA
ENDBRANCH  57  58
ENDBRANCH  25  50
BRANCH  37  62
ATOM     62  C   UNL A   1      42.078  31.221  31.548  1.00  0.00     0.058 A 
ATOM     63  C   UNL A   1      43.417  31.632  31.648  1.00  0.00     0.135 A 
ATOM     64  C   UNL A   1      41.306  31.936  30.617  1.00  0.00     0.135 A 
ATOM     65  F   UNL A   1      44.249  30.993  32.487  1.00  0.00    -0.206 F 
ATOM     66  C   UNL A   1      43.942  32.689  30.890  1.00  0.00     0.059 A 
ATOM     67  C   UNL A   1      41.794  33.001  29.852  1.00  0.00     0.059 A 
ATOM     68  F   UNL A   1      40.038  31.604  30.410  1.00  0.00    -0.206 F 
ATOM     69  C   UNL A   1      43.122  33.372  29.994  1.00  0.00     0.060 A 
BRANCH  69  70
ATOM     70  S   UNL A   1      43.818  34.713  29.000  1.00  0.00     0.124 S 
ATOM     71  O   UNL A   1      43.014  34.654  27.784  1.00  0.00    -0.237 OA
ATOM     72  O   UNL A   1      43.589  35.874  29.853  1.00  0.00    -0.237 OA
ATOM     73  O   UNL A   1      45.219  34.330  28.834  1.00  0.00    -0.744 OA
ENDBRANCH  69  70
ENDBRANCH  37  62
ENDBRANCH  11  12
ENDBRANCH   4   6
ENDBRANCH   3   4
ENDBRANCH   2   3
ENDBRANCH   1   2
BRANCH   1  74
ATOM     74  O   UNL A   1      32.680  30.601  27.446  1.00  0.00    -0.374 OA
BRANCH  74  75
ATOM     75  C   UNL A   1      33.961  30.225  26.929  1.00  0.00     0.202 C 
BRANCH  75  76
ATOM     76  C   UNL A   1      34.225  28.747  26.657  1.00  0.00     0.261 C 
BRANCH  76  77
ATOM     77  O   UNL A   1      33.169  28.136  25.874  1.00  0.00    -0.459 OA
BRANCH  77  78
ATOM     78  C   UNL A   1      33.251  28.279  24.523  1.00  0.00     0.355 C 
ATOM     79  O   UNL A   1      34.278  28.451  23.888  1.00  0.00    -0.244 OA
BRANCH  78  80
ATOM     80  C   UNL A   1      31.936  28.190  23.929  1.00  0.00     0.128 A 
ATOM     81  C   UNL A   1      30.994  29.204  23.851  1.00  0.00     0.035 A 
ATOM     82  N   UNL A   1      31.414  27.118  23.220  1.00  0.00    -0.333 N 
ATOM     83  C   UNL A   1      29.986  28.799  22.945  1.00  0.00     0.020 A 
ATOM     84  C   UNL A   1      30.294  27.524  22.535  1.00  0.00     0.087 A 
BRANCH  82  85
ATOM     85  C   UNL A   1      31.987  25.789  23.100  1.00  0.00     0.222 C 
BRANCH  85  86
ATOM     86  C   UNL A   1      31.367  24.619  23.877  1.00  0.00     0.242 C 
ATOM     87  O   UNL A   1      30.369  24.092  23.359  1.00  0.00    -0.273 OA
ATOM     88  N   UNL A   1      31.981  24.000  24.966  1.00  0.00    -0.339 N 
ATOM     89  C   UNL A   1      31.532  22.643  25.340  1.00  0.00     0.133 C 
ATOM     90  C   UNL A   1      32.723  24.676  26.037  1.00  0.00     0.133 C 
ATOM     91  C   UNL A   1      32.687  21.707  25.671  1.00  0.00     0.126 C 
ATOM     92  C   UNL A   1      33.988  23.960  26.476  1.00  0.00     0.126 C 
ATOM     93  S   UNL A   1      33.677  22.282  27.077  1.00  0.00     0.025 S 
ATOM     94  O   UNL A   1      32.779  22.390  28.273  1.00  0.00    -0.259 OA
ENDBRANCH  85  86
ENDBRANCH  82  85
ENDBRANCH  78  80
ENDBRANCH  77  78
ENDBRANCH  76  77
ENDBRANCH  75  76
ENDBRANCH  74  75
ENDBRANCH   1  74
TORSDOF 19
ENDMDL
MODEL 3
REMARK VINA RESULT:     -10.7      5.750     11.397
REMARK SMILES O=C(OCCOCCOC(=O)c1cccn1CC(=O)N1CCS(=O)CC1)c1ccc(-c2c3nc(c(-c4c(F)cc(S(=O)(=O)[O-])cc4F)c4ccc([nH]4)c(-c4c(F)cc(S(=O)(=O)[O-])cc4F)c4nc(c(-c5c(F)cc(S(=O)(=O)[O-])cc5F)c5ccc2[nH]5)C=C4)C=C3)cc1
REMARK SMILES IDX 5 1 4 2 3 3 2 4 1 5 27 6 28 7 92 8 29 9 91 10 30 11 31 12
REMARK SMILES IDX 32 13 85 14 33 15 90 16 84 17 86 18 34 19 89 20 83 21 82 22
REMARK SMILES IDX 35 24 69 25 48 26 68 27 49 28 52 29 67 30 87 31 50 32 51 33
REMARK SMILES IDX 66 35 88 36 53 37 36 38 37 39 46 40 38 41 39 42 45 43 47 44
REMARK SMILES IDX 40 45 41 46 42 47 43 48 44 49 70 50 71 51 80 52 72 53 73 54
REMARK SMILES IDX 79 55 81 56 74 57 75 58 76 59 77 60 78 61 54 62 55 63 64 64
REMARK SMILES IDX 56 65 57 66 63 67 65 68 58 69 59 70 60 71 61 72 62 73 6 74
REMARK SMILES IDX 7 75 8 76 9 77 10 78 11 79 12 80 13 81 16 82 14 83 15 84
REMARK SMILES IDX 17 85 18 86 19 87 20 88 21 89 26 90 22 91 25 92 23 93 24 94
REMARK H PARENT 86 23 52 34
REMARK Flexibility Score: inf
ROOT
ATOM      1  C   UNL A   1      38.154  19.983  24.723  1.00  0.00     0.202 C 
ENDROOT
BRANCH   1   2
ATOM      2  C   UNL A   1      38.999  19.384  25.843  1.00  0.00     0.261 C 
BRANCH   2   3
ATOM      3  O   UNL A   1      40.372  19.172  25.482  1.00  0.00    -0.460 OA
BRANCH   3   4
ATOM      4  C   UNL A   1      41.470  19.349  26.263  1.00  0.00     0.338 C 
ATOM      5  O   UNL A   1      42.307  18.466  26.410  1.00  0.00    -0.246 OA
BRANCH   4   6
ATOM      6  C   UNL A   1      41.810  20.738  26.545  1.00  0.00     0.060 A 
ATOM      7  C   UNL A   1      41.956  21.664  25.523  1.00  0.00     0.016 A 
ATOM      8  C   UNL A   1      42.133  21.049  27.872  1.00  0.00     0.016 A 
ATOM      9  C   UNL A   1      42.722  22.775  25.752  1.00  0.00     0.010 A 
ATOM     10  C   UNL A   1      42.738  22.258  28.149  1.00  0.00     0.010 A 
ATOM     11  C   UNL A   1      43.065  23.087  27.074  1.00  0.00    -0.014 A 
BRANCH  11  12
ATOM     12  C   UNL A   1      43.382  24.500  27.280  1.00  0.00     0.031 A 
ATOM     13  C   UNL A   1      42.041  25.245  27.495  1.00  0.00     0.074 A 
ATOM     14  C   UNL A   1      44.688  24.860  27.136  1.00  0.00     0.049 A 
ATOM     15  N   UNL A   1      41.613  26.359  26.985  1.00  0.00    -0.248 NA
ATOM     16  C   UNL A   1      40.929  24.532  28.207  1.00  0.00     0.031 C 
ATOM     17  C   UNL A   1      45.817  23.932  26.899  1.00  0.00     0.029 A 
ATOM     18  N   UNL A   1      45.337  26.070  27.149  1.00  0.00    -0.354 N 
ATOM     19  C   UNL A   1      40.332  26.590  27.538  1.00  0.00     0.074 A 
ATOM     20  C   UNL A   1      39.878  25.335  28.044  1.00  0.00     0.031 C 
ATOM     21  C   UNL A   1      46.973  24.612  26.719  1.00  0.00     0.029 A 
ATOM     22  C   UNL A   1      46.724  26.035  26.845  1.00  0.00     0.049 A 
ATOM     23  H   UNL A   1      44.869  26.911  27.356  1.00  0.00     0.167 HD
ATOM     24  C   UNL A   1      39.838  27.840  27.783  1.00  0.00     0.037 A 
ATOM     25  C   UNL A   1      47.579  27.094  26.671  1.00  0.00     0.037 A 
ATOM     26  C   UNL A   1      40.826  28.802  27.417  1.00  0.00     0.049 A 
ATOM     27  C   UNL A   1      46.777  28.274  27.043  1.00  0.00     0.074 A 
ATOM     28  C   UNL A   1      41.318  29.201  26.203  1.00  0.00     0.029 A 
ATOM     29  N   UNL A   1      41.717  29.154  28.410  1.00  0.00    -0.354 N 
ATOM     30  N   UNL A   1      46.386  28.554  28.250  1.00  0.00    -0.248 NA
ATOM     31  C   UNL A   1      46.253  29.130  25.972  1.00  0.00     0.031 C 
ATOM     32  C   UNL A   1      42.700  29.327  26.449  1.00  0.00     0.029 A 
ATOM     33  C   UNL A   1      42.953  29.277  27.828  1.00  0.00     0.049 A 
ATOM     34  H   UNL A   1      41.505  29.292  29.361  1.00  0.00     0.167 HD
ATOM     35  C   UNL A   1      45.318  29.391  28.030  1.00  0.00     0.074 A 
ATOM     36  C   UNL A   1      45.492  29.941  26.701  1.00  0.00     0.031 C 
ATOM     37  C   UNL A   1      44.135  29.149  28.658  1.00  0.00     0.037 A 
BRANCH  24  38
ATOM     38  C   UNL A   1      38.699  28.335  28.639  1.00  0.00     0.058 A 
ATOM     39  C   UNL A   1      37.920  29.400  28.120  1.00  0.00     0.135 A 
ATOM     40  C   UNL A   1      38.565  28.090  30.014  1.00  0.00     0.135 A 
ATOM     41  F   UNL A   1      37.904  29.661  26.802  1.00  0.00    -0.206 F 
ATOM     42  C   UNL A   1      37.218  30.279  28.936  1.00  0.00     0.059 A 
ATOM     43  C   UNL A   1      37.821  28.930  30.845  1.00  0.00     0.059 A 
ATOM     44  F   UNL A   1      39.212  27.086  30.617  1.00  0.00    -0.206 F 
ATOM     45  C   UNL A   1      37.214  30.060  30.306  1.00  0.00     0.060 A 
BRANCH  45  46
ATOM     46  S   UNL A   1      36.452  31.299  31.370  1.00  0.00     0.124 S 
ATOM     47  O   UNL A   1      35.361  31.777  30.528  1.00  0.00    -0.237 OA
ATOM     48  O   UNL A   1      36.056  30.508  32.531  1.00  0.00    -0.237 OA
ATOM     49  O   UNL A   1      37.537  32.247  31.609  1.00  0.00    -0.744 OA
ENDBRANCH  45  46
ENDBRANCH  24  38
BRANCH  25  50
ATOM     50  C   UNL A   1      48.962  27.372  26.113  1.00  0.00     0.058 A 
ATOM     51  C   UNL A   1      49.382  27.200  24.788  1.00  0.00     0.135 A 
ATOM     52  C   UNL A   1      49.929  28.012  26.944  1.00  0.00     0.135 A 
ATOM     53  F   UNL A   1      48.652  26.488  23.920  1.00  0.00    -0.206 F 
ATOM     54  C   UNL A   1      50.571  27.773  24.292  1.00  0.00     0.059 A 
ATOM     55  C   UNL A   1      51.077  28.638  26.470  1.00  0.00     0.059 A 
ATOM     56  F   UNL A   1      49.774  28.097  28.273  1.00  0.00    -0.206 F 
ATOM     57  C   UNL A   1      51.377  28.547  25.127  1.00  0.00     0.060 A 
BRANCH  57  58
ATOM     58  S   UNL A   1      52.726  29.547  24.463  1.00  0.00     0.124 S 
ATOM     59  O   UNL A   1      53.658  29.588  25.583  1.00  0.00    -0.237 OA
ATOM     60  O   UNL A   1      53.155  28.769  23.304  1.00  0.00    -0.237 OA
ATOM     61  O   UNL A   1      52.073  30.814  24.140  1.00  0.00    -0.744 OA
ENDBRANCH  57  58
ENDBRANCH  25  50
BRANCH  37  62
ATOM     62  C   UNL A   1      44.249  28.417  29.994  1.00  0.00     0.058 A 
ATOM     63  C   UNL A   1      44.947  28.995  31.067  1.00  0.00     0.135 A 
ATOM     64  C   UNL A   1      43.762  27.121  30.232  1.00  0.00     0.135 A 
ATOM     65  F   UNL A   1      45.428  30.244  30.954  1.00  0.00    -0.206 F 
ATOM     66  C   UNL A   1      45.157  28.324  32.281  1.00  0.00     0.059 A 
ATOM     67  C   UNL A   1      43.961  26.419  31.426  1.00  0.00     0.059 A 
ATOM     68  F   UNL A   1      43.051  26.496  29.301  1.00  0.00    -0.206 F 
ATOM     69  C   UNL A   1      44.662  27.032  32.453  1.00  0.00     0.060 A 
BRANCH  69  70
ATOM     70  S   UNL A   1      44.913  26.189  34.033  1.00  0.00     0.124 S 
ATOM     71  O   UNL A   1      46.362  26.250  34.196  1.00  0.00    -0.237 OA
ATOM     72  O   UNL A   1      44.140  27.021  34.948  1.00  0.00    -0.237 OA
ATOM     73  O   UNL A   1      44.374  24.851  33.801  1.00  0.00    -0.744 OA
ENDBRANCH  69  70
ENDBRANCH  37  62
ENDBRANCH  11  12
ENDBRANCH   4   6
ENDBRANCH   3   4
ENDBRANCH   2   3
ENDBRANCH   1   2
BRANCH   1  74
ATOM     74  O   UNL A   1      37.582  21.257  24.963  1.00  0.00    -0.374 OA
BRANCH  74  75
ATOM     75  C   UNL A   1      38.327  22.194  25.748  1.00  0.00     0.202 C 
BRANCH  75  76
ATOM     76  C   UNL A   1      37.698  23.554  26.041  1.00  0.00     0.261 C 
BRANCH  76  77
ATOM     77  O   UNL A   1      36.642  23.882  25.104  1.00  0.00    -0.459 OA
BRANCH  77  78
ATOM     78  C   UNL A   1      35.375  23.917  25.601  1.00  0.00     0.355 C 
ATOM     79  O   UNL A   1      35.004  23.393  26.637  1.00  0.00    -0.244 OA
BRANCH  78  80
ATOM     80  C   UNL A   1      34.514  24.679  24.724  1.00  0.00     0.128 A 
ATOM     81  C   UNL A   1      34.136  26.003  24.884  1.00  0.00     0.035 A 
ATOM     82  N   UNL A   1      34.004  24.272  23.500  1.00  0.00    -0.333 N 
ATOM     83  C   UNL A   1      33.550  26.442  23.673  1.00  0.00     0.020 A 
ATOM     84  C   UNL A   1      33.523  25.365  22.819  1.00  0.00     0.087 A 
BRANCH  82  85
ATOM     85  C   UNL A   1      34.049  22.936  22.936  1.00  0.00     0.222 C 
BRANCH  85  86
ATOM     86  C   UNL A   1      32.893  21.959  23.196  1.00  0.00     0.242 C 
ATOM     87  O   UNL A   1      31.809  22.249  22.665  1.00  0.00    -0.273 OA
ATOM     88  N   UNL A   1      33.057  20.702  23.778  1.00  0.00    -0.339 N 
ATOM     89  C   UNL A   1      31.995  19.696  23.571  1.00  0.00     0.133 C 
ATOM     90  C   UNL A   1      33.943  20.381  24.902  1.00  0.00     0.133 C 
ATOM     91  C   UNL A   1      32.544  18.311  23.258  1.00  0.00     0.126 C 
ATOM     92  C   UNL A   1      34.683  19.062  24.764  1.00  0.00     0.126 C 
ATOM     93  S   UNL A   1      33.574  17.643  24.592  1.00  0.00     0.025 S 
ATOM     94  O   UNL A   1      32.742  17.568  25.837  1.00  0.00    -0.259 OA
ENDBRANCH  85  86
ENDBRANCH  82  85
ENDBRANCH  78  80
ENDBRANCH  77  78
ENDBRANCH  76  77
ENDBRANCH  75  76
ENDBRANCH  74  75
ENDBRANCH   1  74
TORSDOF 19
ENDMDL
