MODEL 1
REMARK VINA RESULT:     -11.5      0.000      0.000
REMARK SMILES Cc1ccccc1C[C@H](C[C@@H]1Cc2ccccc21)C(=O)OCCOCCOC(=O)c1ccc(-c2c3nc(c(-c4c(F)cc(S(=O)(=O)[O-])cc4F)c4ccc([nH]4)c(-c4c(F)cc(S(=O)(=O)[O-])cc4F)c4nc(c(-c5c(F)cc(S(=O)(=O)[O-])cc5F)c5ccc2[nH]5)C=C4)C=C3)cc1
REMARK SMILES IDX 25 1 24 2 23 3 22 4 21 5 19 6 20 7 9 8 8 9 7 10 1 11 2 12
REMARK SMILES IDX 3 13 4 14 6 15 5 16 10 17 11 18 12 19 18 20 13 21 17 22
REMARK SMILES IDX 14 23 16 24 15 25 26 26 27 27 28 28 29 29 30 30 31 31 95 32
REMARK SMILES IDX 32 33 94 34 33 35 34 36 35 37 88 38 36 39 93 40 87 41 89 42
REMARK SMILES IDX 37 43 92 44 86 45 85 46 38 48 72 49 51 50 71 51 52 52 55 53
REMARK SMILES IDX 70 54 90 55 53 56 54 57 69 59 91 60 56 61 39 62 40 63 49 64
REMARK SMILES IDX 41 65 42 66 48 67 50 68 43 69 44 70 45 71 46 72 47 73 73 74
REMARK SMILES IDX 74 75 83 76 75 77 76 78 82 79 84 80 77 81 78 82 79 83 80 84
REMARK SMILES IDX 81 85 57 86 58 87 67 88 59 89 60 90 66 91 68 92 61 93 62 94
REMARK SMILES IDX 63 95 64 96 65 97
REMARK H PARENT 89 47 55 58
REMARK Flexibility Score: inf
ROOT
ATOM      1  C   UNL A   1      36.495  20.688  25.001  1.00  0.00     0.202 C 
ENDROOT
BRANCH   1   2
ATOM      2  O   UNL A   1      35.175  21.163  24.920  1.00  0.00    -0.374 OA
BRANCH   2   3
ATOM      3  C   UNL A   1      34.417  21.091  26.114  1.00  0.00     0.202 C 
BRANCH   3   4
ATOM      4  C   UNL A   1      33.181  21.908  25.873  1.00  0.00     0.261 C 
BRANCH   4   5
ATOM      5  O   UNL A   1      33.381  23.006  24.991  1.00  0.00    -0.463 OA
BRANCH   5   6
ATOM      6  C   UNL A   1      32.442  23.302  24.063  1.00  0.00     0.309 C 
ATOM      7  O   UNL A   1      31.984  22.576  23.209  1.00  0.00    -0.252 OA
BRANCH   6   8
ATOM      8  C   UNL A   1      31.953  24.707  24.327  1.00  0.00     0.104 C 
BRANCH   8   9
ATOM      9  C   UNL A   1      31.433  25.421  23.072  1.00  0.00     0.051 C 
BRANCH   9  10
ATOM     10  C   UNL A   1      31.985  26.716  22.484  1.00  0.00    -0.044 A 
ATOM     11  C   UNL A   1      29.907  28.168  22.534  1.00  0.00     0.044 C 
ATOM     12  C   UNL A   1      31.331  27.899  22.892  1.00  0.00    -0.048 A 
ATOM     13  C   UNL A   1      32.078  28.960  23.373  1.00  0.00     0.004 A 
ATOM     14  C   UNL A   1      33.424  28.950  23.134  1.00  0.00     0.000 A 
ATOM     15  C   UNL A   1      33.281  26.858  21.998  1.00  0.00     0.004 A 
ATOM     16  C   UNL A   1      33.972  28.033  22.249  1.00  0.00     0.000 A 
ENDBRANCH   9  10
ENDBRANCH   8   9
BRANCH   8  17
ATOM     17  C   UNL A   1      33.095  25.483  25.103  1.00  0.00     0.024 C 
BRANCH  17  18
ATOM     18  C   UNL A   1      32.626  26.304  26.322  1.00  0.00     0.025 C 
ATOM     19  C   UNL A   1      31.220  27.036  26.466  1.00  0.00     0.044 C 
ATOM     20  C   UNL A   1      33.209  27.704  26.481  1.00  0.00    -0.041 A 
ATOM     21  C   UNL A   1      31.998  28.257  26.829  1.00  0.00    -0.044 A 
ATOM     22  C   UNL A   1      34.354  28.464  26.496  1.00  0.00     0.004 A 
ATOM     23  C   UNL A   1      31.842  29.567  27.218  1.00  0.00     0.004 A 
ATOM     24  C   UNL A   1      34.237  29.804  26.896  1.00  0.00     0.000 A 
ATOM     25  C   UNL A   1      32.991  30.349  27.266  1.00  0.00     0.000 A 
ENDBRANCH  17  18
ENDBRANCH   8  17
ENDBRANCH   6   8
ENDBRANCH   5   6
ENDBRANCH   4   5
ENDBRANCH   3   4
ENDBRANCH   2   3
ENDBRANCH   1   2
BRANCH   1  26
ATOM     26  C   UNL A   1      37.505  21.830  24.932  1.00  0.00     0.261 C 
BRANCH  26  27
ATOM     27  O   UNL A   1      37.847  22.250  26.273  1.00  0.00    -0.460 OA
BRANCH  27  28
ATOM     28  C   UNL A   1      39.169  22.505  26.500  1.00  0.00     0.338 C 
ATOM     29  O   UNL A   1      40.030  21.640  26.493  1.00  0.00    -0.246 OA
BRANCH  28  30
ATOM     30  C   UNL A   1      39.417  23.960  26.725  1.00  0.00     0.060 A 
ATOM     31  C   UNL A   1      40.150  24.726  25.799  1.00  0.00     0.016 A 
ATOM     32  C   UNL A   1      39.072  24.521  27.948  1.00  0.00     0.016 A 
ATOM     33  C   UNL A   1      40.668  25.987  26.151  1.00  0.00     0.010 A 
ATOM     34  C   UNL A   1      39.648  25.720  28.319  1.00  0.00     0.010 A 
ATOM     35  C   UNL A   1      40.475  26.457  27.441  1.00  0.00    -0.014 A 
BRANCH  35  36
ATOM     36  C   UNL A   1      41.090  27.637  28.085  1.00  0.00     0.031 A 
ATOM     37  C   UNL A   1      40.142  28.757  28.404  1.00  0.00     0.074 A 
ATOM     38  C   UNL A   1      42.295  27.526  28.693  1.00  0.00     0.049 A 
ATOM     39  N   UNL A   1      40.285  29.705  29.265  1.00  0.00    -0.248 NA
ATOM     40  C   UNL A   1      38.862  28.845  27.697  1.00  0.00     0.031 C 
ATOM     41  C   UNL A   1      42.674  28.147  29.946  1.00  0.00     0.029 A 
ATOM     42  N   UNL A   1      43.446  26.827  28.365  1.00  0.00    -0.354 N 
ATOM     43  C   UNL A   1      39.105  30.441  29.318  1.00  0.00     0.074 A 
ATOM     44  C   UNL A   1      38.238  29.822  28.356  1.00  0.00     0.031 C 
ATOM     45  C   UNL A   1      43.983  28.032  30.188  1.00  0.00     0.029 A 
ATOM     46  C   UNL A   1      44.537  27.469  28.990  1.00  0.00     0.049 A 
ATOM     47  H   UNL A   1      43.495  26.024  27.796  1.00  0.00     0.167 HD
ATOM     48  C   UNL A   1      39.006  31.513  30.161  1.00  0.00     0.037 A 
ATOM     49  C   UNL A   1      45.480  28.054  28.208  1.00  0.00     0.037 A 
ATOM     50  C   UNL A   1      40.354  31.951  30.554  1.00  0.00     0.049 A 
ATOM     51  C   UNL A   1      45.373  29.567  28.356  1.00  0.00     0.074 A 
ATOM     52  C   UNL A   1      40.996  32.213  31.745  1.00  0.00     0.029 A 
ATOM     53  N   UNL A   1      41.340  32.072  29.560  1.00  0.00    -0.354 N 
ATOM     54  N   UNL A   1      44.266  30.245  28.600  1.00  0.00    -0.248 NA
ATOM     55  C   UNL A   1      46.575  30.387  28.488  1.00  0.00     0.031 C 
ATOM     56  C   UNL A   1      42.367  32.457  31.462  1.00  0.00     0.029 A 
ATOM     57  C   UNL A   1      42.587  32.261  30.106  1.00  0.00     0.049 A 
ATOM     58  H   UNL A   1      41.160  32.026  28.593  1.00  0.00     0.167 HD
ATOM     59  C   UNL A   1      44.599  31.547  28.923  1.00  0.00     0.074 A 
ATOM     60  C   UNL A   1      46.053  31.563  28.866  1.00  0.00     0.031 C 
ATOM     61  C   UNL A   1      43.748  32.560  29.286  1.00  0.00     0.037 A 
BRANCH  48  62
ATOM     62  C   UNL A   1      37.709  32.157  30.711  1.00  0.00     0.058 A 
ATOM     63  C   UNL A   1      37.056  33.198  29.998  1.00  0.00     0.135 A 
ATOM     64  C   UNL A   1      37.096  31.893  31.959  1.00  0.00     0.135 A 
ATOM     65  F   UNL A   1      37.431  33.558  28.766  1.00  0.00    -0.206 F 
ATOM     66  C   UNL A   1      35.974  33.939  30.492  1.00  0.00     0.059 A 
ATOM     67  C   UNL A   1      35.982  32.594  32.460  1.00  0.00     0.059 A 
ATOM     68  F   UNL A   1      37.534  30.939  32.784  1.00  0.00    -0.206 F 
ATOM     69  C   UNL A   1      35.439  33.636  31.729  1.00  0.00     0.060 A 
BRANCH  69  70
ATOM     70  S   UNL A   1      34.025  34.582  32.324  1.00  0.00     0.124 S 
ATOM     71  O   UNL A   1      33.396  33.643  33.248  1.00  0.00    -0.237 OA
ATOM     72  O   UNL A   1      34.661  35.742  32.938  1.00  0.00    -0.237 OA
ATOM     73  O   UNL A   1      33.265  34.862  31.109  1.00  0.00    -0.744 OA
ENDBRANCH  69  70
ENDBRANCH  48  62
BRANCH  49  74
ATOM     74  C   UNL A   1      45.786  27.111  27.065  1.00  0.00     0.058 A 
ATOM     75  C   UNL A   1      45.228  27.530  25.821  1.00  0.00     0.135 A 
ATOM     76  C   UNL A   1      47.018  26.434  26.990  1.00  0.00     0.135 A 
ATOM     77  F   UNL A   1      44.054  28.185  25.810  1.00  0.00    -0.206 F 
ATOM     78  C   UNL A   1      45.964  27.534  24.634  1.00  0.00     0.059 A 
ATOM     79  C   UNL A   1      47.757  26.394  25.792  1.00  0.00     0.059 A 
ATOM     80  F   UNL A   1      47.616  26.005  28.111  1.00  0.00    -0.206 F 
ATOM     81  C   UNL A   1      47.257  27.020  24.646  1.00  0.00     0.060 A 
BRANCH  81  82
ATOM     82  S   UNL A   1      48.321  27.372  23.217  1.00  0.00     0.124 S 
ATOM     83  O   UNL A   1      49.479  27.997  23.843  1.00  0.00    -0.237 OA
ATOM     84  O   UNL A   1      48.542  26.033  22.672  1.00  0.00    -0.237 OA
ATOM     85  O   UNL A   1      47.500  28.250  22.392  1.00  0.00    -0.744 OA
ENDBRANCH  81  82
ENDBRANCH  49  74
BRANCH  61  86
ATOM     86  C   UNL A   1      44.019  34.035  29.021  1.00  0.00     0.058 A 
ATOM     87  C   UNL A   1      43.629  34.695  27.846  1.00  0.00     0.135 A 
ATOM     88  C   UNL A   1      44.516  34.889  30.047  1.00  0.00     0.135 A 
ATOM     89  F   UNL A   1      42.990  34.061  26.853  1.00  0.00    -0.206 F 
ATOM     90  C   UNL A   1      43.814  36.060  27.657  1.00  0.00     0.059 A 
ATOM     91  C   UNL A   1      44.669  36.259  29.895  1.00  0.00     0.059 A 
ATOM     92  F   UNL A   1      44.822  34.448  31.274  1.00  0.00    -0.206 F 
ATOM     93  C   UNL A   1      44.336  36.833  28.685  1.00  0.00     0.060 A 
BRANCH  93  94
ATOM     94  S   UNL A   1      44.487  38.603  28.448  1.00  0.00     0.124 S 
ATOM     95  O   UNL A   1      44.041  38.745  27.065  1.00  0.00    -0.237 OA
ATOM     96  O   UNL A   1      43.581  39.128  29.464  1.00  0.00    -0.237 OA
ATOM     97  O   UNL A   1      45.903  38.862  28.684  1.00  0.00    -0.744 OA
ENDBRANCH  93  94
ENDBRANCH  61  86
ENDBRANCH  35  36
ENDBRANCH  28  30
ENDBRANCH  27  28
ENDBRANCH  26  27
ENDBRANCH   1  26
TORSDOF 21
ENDMDL
MODEL 2
REMARK VINA RESULT:     -11.5      1.099      2.499
REMARK SMILES Cc1ccccc1C[C@H](C[C@@H]1Cc2ccccc21)C(=O)OCCOCCOC(=O)c1ccc(-c2c3nc(c(-c4c(F)cc(S(=O)(=O)[O-])cc4F)c4ccc([nH]4)c(-c4c(F)cc(S(=O)(=O)[O-])cc4F)c4nc(c(-c5c(F)cc(S(=O)(=O)[O-])cc5F)c5ccc2[nH]5)C=C4)C=C3)cc1
REMARK SMILES IDX 25 1 24 2 23 3 22 4 21 5 19 6 20 7 9 8 8 9 7 10 1 11 2 12
REMARK SMILES IDX 3 13 4 14 6 15 5 16 10 17 11 18 12 19 18 20 13 21 17 22
REMARK SMILES IDX 14 23 16 24 15 25 26 26 27 27 28 28 29 29 30 30 31 31 95 32
REMARK SMILES IDX 32 33 94 34 33 35 34 36 35 37 88 38 36 39 93 40 87 41 89 42
REMARK SMILES IDX 37 43 92 44 86 45 85 46 38 48 72 49 51 50 71 51 52 52 55 53
REMARK SMILES IDX 70 54 90 55 53 56 54 57 69 59 91 60 56 61 39 62 40 63 49 64
REMARK SMILES IDX 41 65 42 66 48 67 50 68 43 69 44 70 45 71 46 72 47 73 73 74
REMARK SMILES IDX 74 75 83 76 75 77 76 78 82 79 84 80 77 81 78 82 79 83 80 84
REMARK SMILES IDX 81 85 57 86 58 87 67 88 59 89 60 90 66 91 68 92 61 93 62 94
REMARK SMILES IDX 63 95 64 96 65 97
REMARK H PARENT 89 47 55 58
REMARK Flexibility Score: inf
ROOT
ATOM      1  C   UNL A   1      36.744  20.812  25.261  1.00  0.00     0.202 C 
ENDROOT
BRANCH   1   2
ATOM      2  O   UNL A   1      35.868  21.493  26.123  1.00  0.00    -0.374 OA
BRANCH   2   3
ATOM      3  C   UNL A   1      34.486  21.304  25.878  1.00  0.00     0.202 C 
BRANCH   3   4
ATOM      4  C   UNL A   1      34.332  21.233  24.387  1.00  0.00     0.261 C 
BRANCH   4   5
ATOM      5  O   UNL A   1      33.913  22.456  23.793  1.00  0.00    -0.463 OA
BRANCH   5   6
ATOM      6  C   UNL A   1      34.838  23.336  23.346  1.00  0.00     0.309 C 
ATOM      7  O   UNL A   1      35.865  23.099  22.751  1.00  0.00    -0.252 OA
BRANCH   6   8
ATOM      8  C   UNL A   1      34.325  24.731  23.622  1.00  0.00     0.104 C 
BRANCH   8   9
ATOM      9  C   UNL A   1      34.393  25.127  25.102  1.00  0.00     0.051 C 
BRANCH   9  10
ATOM     10  C   UNL A   1      33.210  25.211  26.063  1.00  0.00    -0.044 A 
ATOM     11  C   UNL A   1      33.296  27.668  26.685  1.00  0.00     0.044 C 
ATOM     12  C   UNL A   1      32.581  26.473  26.147  1.00  0.00    -0.048 A 
ATOM     13  C   UNL A   1      31.207  26.560  26.012  1.00  0.00     0.004 A 
ATOM     14  C   UNL A   1      30.482  25.406  26.128  1.00  0.00     0.000 A 
ATOM     15  C   UNL A   1      32.458  24.113  26.467  1.00  0.00     0.004 A 
ATOM     16  C   UNL A   1      31.083  24.245  26.590  1.00  0.00     0.000 A 
ENDBRANCH   9  10
ENDBRANCH   8   9
BRANCH   8  17
ATOM     17  C   UNL A   1      32.888  24.859  22.968  1.00  0.00     0.024 C 
BRANCH  17  18
ATOM     18  C   UNL A   1      32.591  26.212  22.286  1.00  0.00     0.025 C 
ATOM     19  C   UNL A   1      33.291  27.599  22.628  1.00  0.00     0.044 C 
ATOM     20  C   UNL A   1      31.305  26.925  22.692  1.00  0.00    -0.041 A 
ATOM     21  C   UNL A   1      31.912  28.158  22.752  1.00  0.00    -0.044 A 
ATOM     22  C   UNL A   1      29.951  26.803  22.887  1.00  0.00     0.004 A 
ATOM     23  C   UNL A   1      31.234  29.330  22.991  1.00  0.00     0.004 A 
ATOM     24  C   UNL A   1      29.222  27.978  23.126  1.00  0.00     0.000 A 
ATOM     25  C   UNL A   1      29.857  29.235  23.166  1.00  0.00     0.000 A 
ENDBRANCH  17  18
ENDBRANCH   8  17
ENDBRANCH   6   8
ENDBRANCH   5   6
ENDBRANCH   4   5
ENDBRANCH   3   4
ENDBRANCH   2   3
ENDBRANCH   1   2
BRANCH   1  26
ATOM     26  C   UNL A   1      38.171  21.341  25.382  1.00  0.00     0.261 C 
BRANCH  26  27
ATOM     27  O   UNL A   1      38.156  22.601  26.092  1.00  0.00    -0.460 OA
BRANCH  27  28
ATOM     28  C   UNL A   1      39.275  22.888  26.821  1.00  0.00     0.338 C 
ATOM     29  O   UNL A   1      40.069  22.039  27.194  1.00  0.00    -0.246 OA
BRANCH  28  30
ATOM     30  C   UNL A   1      39.407  24.354  27.069  1.00  0.00     0.060 A 
ATOM     31  C   UNL A   1      40.030  25.198  26.131  1.00  0.00     0.016 A 
ATOM     32  C   UNL A   1      39.072  24.859  28.319  1.00  0.00     0.016 A 
ATOM     33  C   UNL A   1      40.454  26.493  26.490  1.00  0.00     0.010 A 
ATOM     34  C   UNL A   1      39.559  26.095  28.693  1.00  0.00     0.010 A 
ATOM     35  C   UNL A   1      40.280  26.919  27.798  1.00  0.00    -0.014 A 
BRANCH  35  36
ATOM     36  C   UNL A   1      40.820  28.133  28.443  1.00  0.00     0.031 A 
ATOM     37  C   UNL A   1      39.844  29.265  28.594  1.00  0.00     0.074 A 
ATOM     38  C   UNL A   1      41.950  28.062  29.186  1.00  0.00     0.049 A 
ATOM     39  N   UNL A   1      39.891  30.258  29.413  1.00  0.00    -0.248 NA
ATOM     40  C   UNL A   1      38.650  29.309  27.745  1.00  0.00     0.031 C 
ATOM     41  C   UNL A   1      42.187  28.750  30.438  1.00  0.00     0.029 A 
ATOM     42  N   UNL A   1      43.130  27.352  29.026  1.00  0.00    -0.354 N 
ATOM     43  C   UNL A   1      38.713  30.990  29.295  1.00  0.00     0.074 A 
ATOM     44  C   UNL A   1      37.958  30.316  28.277  1.00  0.00     0.031 C 
ATOM     45  C   UNL A   1      43.462  28.655  30.830  1.00  0.00     0.029 A 
ATOM     46  C   UNL A   1      44.145  28.031  29.733  1.00  0.00     0.049 A 
ATOM     47  H   UNL A   1      43.241  26.520  28.510  1.00  0.00     0.167 HD
ATOM     48  C   UNL A   1      38.522  32.104  30.063  1.00  0.00     0.037 A 
ATOM     49  C   UNL A   1      45.170  28.578  29.031  1.00  0.00     0.037 A 
ATOM     50  C   UNL A   1      39.818  32.569  30.580  1.00  0.00     0.049 A 
ATOM     51  C   UNL A   1      45.048  30.097  29.085  1.00  0.00     0.074 A 
ATOM     52  C   UNL A   1      40.323  32.898  31.820  1.00  0.00     0.029 A 
ATOM     53  N   UNL A   1      40.909  32.642  29.697  1.00  0.00    -0.354 N 
ATOM     54  N   UNL A   1      43.922  30.782  29.168  1.00  0.00    -0.248 NA
ATOM     55  C   UNL A   1      46.229  30.929  29.306  1.00  0.00     0.031 C 
ATOM     56  C   UNL A   1      41.718  33.134  31.679  1.00  0.00     0.029 A 
ATOM     57  C   UNL A   1      42.088  32.866  30.368  1.00  0.00     0.049 A 
ATOM     58  H   UNL A   1      40.837  32.545  28.720  1.00  0.00     0.167 HD
ATOM     59  C   UNL A   1      44.218  32.100  29.456  1.00  0.00     0.074 A 
ATOM     60  C   UNL A   1      45.669  32.120  29.560  1.00  0.00     0.031 C 
ATOM     61  C   UNL A   1      43.333  33.127  29.668  1.00  0.00     0.037 A 
BRANCH  48  62
ATOM     62  C   UNL A   1      37.172  32.770  30.430  1.00  0.00     0.058 A 
ATOM     63  C   UNL A   1      36.410  33.457  29.447  1.00  0.00     0.135 A 
ATOM     64  C   UNL A   1      36.602  32.872  31.722  1.00  0.00     0.135 A 
ATOM     65  F   UNL A   1      36.734  33.429  28.150  1.00  0.00    -0.206 F 
ATOM     66  C   UNL A   1      35.264  34.216  29.720  1.00  0.00     0.059 A 
ATOM     67  C   UNL A   1      35.428  33.593  32.016  1.00  0.00     0.059 A 
ATOM     68  F   UNL A   1      37.143  32.285  32.791  1.00  0.00    -0.206 F 
ATOM     69  C   UNL A   1      34.775  34.285  31.011  1.00  0.00     0.060 A 
BRANCH  69  70
ATOM     70  S   UNL A   1      33.279  35.239  31.328  1.00  0.00     0.124 S 
ATOM     71  O   UNL A   1      32.526  35.046  30.092  1.00  0.00    -0.237 OA
ATOM     72  O   UNL A   1      32.733  34.581  32.510  1.00  0.00    -0.237 OA
ATOM     73  O   UNL A   1      33.777  36.594  31.548  1.00  0.00    -0.744 OA
ENDBRANCH  69  70
ENDBRANCH  48  62
BRANCH  49  74
ATOM     74  C   UNL A   1      45.601  27.577  27.982  1.00  0.00     0.058 A 
ATOM     75  C   UNL A   1      45.363  28.021  26.647  1.00  0.00     0.135 A 
ATOM     76  C   UNL A   1      46.738  26.771  28.169  1.00  0.00     0.135 A 
ATOM     77  F   UNL A   1      44.296  28.798  26.387  1.00  0.00    -0.206 F 
ATOM     78  C   UNL A   1      46.326  27.913  25.640  1.00  0.00     0.059 A 
ATOM     79  C   UNL A   1      47.701  26.619  27.153  1.00  0.00     0.059 A 
ATOM     80  F   UNL A   1      47.040  26.310  29.392  1.00  0.00    -0.206 F 
ATOM     81  C   UNL A   1      47.522  27.264  25.925  1.00  0.00     0.060 A 
BRANCH  81  82
ATOM     82  S   UNL A   1      48.892  27.461  24.749  1.00  0.00     0.124 S 
ATOM     83  O   UNL A   1      49.684  28.514  25.374  1.00  0.00    -0.237 OA
ATOM     84  O   UNL A   1      49.492  26.127  24.762  1.00  0.00    -0.237 OA
ATOM     85  O   UNL A   1      48.223  27.829  23.507  1.00  0.00    -0.744 OA
ENDBRANCH  81  82
ENDBRANCH  49  74
BRANCH  61  86
ATOM     86  C   UNL A   1      43.634  34.587  29.355  1.00  0.00     0.058 A 
ATOM     87  C   UNL A   1      44.119  35.498  30.306  1.00  0.00     0.135 A 
ATOM     88  C   UNL A   1      43.629  35.070  28.016  1.00  0.00     0.135 A 
ATOM     89  F   UNL A   1      44.343  35.146  31.579  1.00  0.00    -0.206 F 
ATOM     90  C   UNL A   1      44.464  36.805  29.982  1.00  0.00     0.059 A 
ATOM     91  C   UNL A   1      44.010  36.356  27.664  1.00  0.00     0.059 A 
ATOM     92  F   UNL A   1      43.313  34.299  26.966  1.00  0.00    -0.206 F 
ATOM     93  C   UNL A   1      44.405  37.226  28.660  1.00  0.00     0.060 A 
BRANCH  93  94
ATOM     94  S   UNL A   1      44.935  38.890  28.255  1.00  0.00     0.124 S 
ATOM     95  O   UNL A   1      44.434  39.637  29.405  1.00  0.00    -0.237 OA
ATOM     96  O   UNL A   1      46.384  38.741  28.179  1.00  0.00    -0.237 OA
ATOM     97  O   UNL A   1      44.269  39.163  26.986  1.00  0.00    -0.744 OA
ENDBRANCH  93  94
ENDBRANCH  61  86
ENDBRANCH  35  36
ENDBRANCH  28  30
ENDBRANCH  27  28
ENDBRANCH  26  27
ENDBRANCH   1  26
TORSDOF 21
ENDMDL
MODEL 3
REMARK VINA RESULT:     -11.4      1.919      3.029
REMARK SMILES Cc1ccccc1C[C@H](C[C@@H]1Cc2ccccc21)C(=O)OCCOCCOC(=O)c1ccc(-c2c3nc(c(-c4c(F)cc(S(=O)(=O)[O-])cc4F)c4ccc([nH]4)c(-c4c(F)cc(S(=O)(=O)[O-])cc4F)c4nc(c(-c5c(F)cc(S(=O)(=O)[O-])cc5F)c5ccc2[nH]5)C=C4)C=C3)cc1
REMARK SMILES IDX 25 1 24 2 23 3 22 4 21 5 19 6 20 7 9 8 8 9 7 10 1 11 2 12
REMARK SMILES IDX 3 13 4 14 6 15 5 16 10 17 11 18 12 19 18 20 13 21 17 22
REMARK SMILES IDX 14 23 16 24 15 25 26 26 27 27 28 28 29 29 30 30 31 31 95 32
REMARK SMILES IDX 32 33 94 34 33 35 34 36 35 37 88 38 36 39 93 40 87 41 89 42
REMARK SMILES IDX 37 43 92 44 86 45 85 46 38 48 72 49 51 50 71 51 52 52 55 53
REMARK SMILES IDX 70 54 90 55 53 56 54 57 69 59 91 60 56 61 39 62 40 63 49 64
REMARK SMILES IDX 41 65 42 66 48 67 50 68 43 69 44 70 45 71 46 72 47 73 73 74
REMARK SMILES IDX 74 75 83 76 75 77 76 78 82 79 84 80 77 81 78 82 79 83 80 84
REMARK SMILES IDX 81 85 57 86 58 87 67 88 59 89 60 90 66 91 68 92 61 93 62 94
REMARK SMILES IDX 63 95 64 96 65 97
REMARK H PARENT 89 47 55 58
REMARK Flexibility Score: inf
ROOT
ATOM      1  C   UNL A   1      36.670  21.952  24.826  1.00  0.00     0.202 C 
ENDROOT
BRANCH   1   2
ATOM      2  O   UNL A   1      35.999  20.915  25.494  1.00  0.00    -0.374 OA
BRANCH   2   3
ATOM      3  C   UNL A   1      34.842  20.410  24.851  1.00  0.00     0.202 C 
BRANCH   3   4
ATOM      4  C   UNL A   1      33.687  20.738  25.752  1.00  0.00     0.261 C 
BRANCH   4   5
ATOM      5  O   UNL A   1      32.428  20.756  25.089  1.00  0.00    -0.463 OA
BRANCH   5   6
ATOM      6  C   UNL A   1      32.349  21.191  23.811  1.00  0.00     0.309 C 
ATOM      7  O   UNL A   1      32.175  20.534  22.810  1.00  0.00    -0.252 OA
BRANCH   6   8
ATOM      8  C   UNL A   1      32.413  22.701  23.828  1.00  0.00     0.104 C 
BRANCH   8   9
ATOM      9  C   UNL A   1      31.064  23.374  23.542  1.00  0.00     0.051 C 
BRANCH   9  10
ATOM     10  C   UNL A   1      30.399  24.448  24.399  1.00  0.00    -0.044 A 
ATOM     11  C   UNL A   1      30.289  23.253  26.632  1.00  0.00     0.044 C 
ATOM     12  C   UNL A   1      30.703  24.404  25.777  1.00  0.00    -0.048 A 
ATOM     13  C   UNL A   1      31.126  25.554  26.419  1.00  0.00     0.004 A 
ATOM     14  C   UNL A   1      30.924  26.748  25.783  1.00  0.00     0.000 A 
ATOM     15  C   UNL A   1      29.938  25.663  23.902  1.00  0.00     0.004 A 
ATOM     16  C   UNL A   1      30.122  26.813  24.653  1.00  0.00     0.000 A 
ENDBRANCH   9  10
ENDBRANCH   8   9
BRANCH   8  17
ATOM     17  C   UNL A   1      33.591  23.149  22.868  1.00  0.00     0.024 C 
BRANCH  17  18
ATOM     18  C   UNL A   1      34.390  24.384  23.335  1.00  0.00     0.025 C 
ATOM     19  C   UNL A   1      34.469  24.931  24.827  1.00  0.00     0.044 C 
ATOM     20  C   UNL A   1      33.799  25.753  23.017  1.00  0.00    -0.041 A 
ATOM     21  C   UNL A   1      34.098  26.261  24.260  1.00  0.00    -0.044 A 
ATOM     22  C   UNL A   1      33.253  26.558  22.046  1.00  0.00     0.004 A 
ATOM     23  C   UNL A   1      33.893  27.574  24.616  1.00  0.00     0.004 A 
ATOM     24  C   UNL A   1      33.037  27.907  22.369  1.00  0.00     0.000 A 
ATOM     25  C   UNL A   1      33.365  28.414  23.641  1.00  0.00     0.000 A 
ENDBRANCH  17  18
ENDBRANCH   8  17
ENDBRANCH   6   8
ENDBRANCH   5   6
ENDBRANCH   4   5
ENDBRANCH   3   4
ENDBRANCH   2   3
ENDBRANCH   1   2
BRANCH   1  26
ATOM     26  C   UNL A   1      37.635  22.683  25.757  1.00  0.00     0.261 C 
BRANCH  26  27
ATOM     27  O   UNL A   1      38.929  22.038  25.708  1.00  0.00    -0.460 OA
BRANCH  27  28
ATOM     28  C   UNL A   1      39.756  22.280  26.768  1.00  0.00     0.338 C 
ATOM     29  O   UNL A   1      40.235  21.396  27.461  1.00  0.00    -0.246 OA
BRANCH  28  30
ATOM     30  C   UNL A   1      40.015  23.740  26.940  1.00  0.00     0.060 A 
ATOM     31  C   UNL A   1      40.579  24.507  25.903  1.00  0.00     0.016 A 
ATOM     32  C   UNL A   1      39.863  24.307  28.198  1.00  0.00     0.016 A 
ATOM     33  C   UNL A   1      41.129  25.779  26.159  1.00  0.00     0.010 A 
ATOM     34  C   UNL A   1      40.473  25.517  28.464  1.00  0.00     0.010 A 
ATOM     35  C   UNL A   1      41.137  26.258  27.460  1.00  0.00    -0.014 A 
BRANCH  35  36
ATOM     36  C   UNL A   1      41.830  27.451  27.989  1.00  0.00     0.031 A 
ATOM     37  C   UNL A   1      40.930  28.576  28.415  1.00  0.00     0.074 A 
ATOM     38  C   UNL A   1      43.109  27.356  28.426  1.00  0.00     0.049 A 
ATOM     39  N   UNL A   1      41.187  29.541  29.229  1.00  0.00    -0.248 NA
ATOM     40  C   UNL A   1      39.564  28.647  27.892  1.00  0.00     0.031 C 
ATOM     41  C   UNL A   1      43.654  28.002  29.602  1.00  0.00     0.029 A 
ATOM     42  N   UNL A   1      44.207  26.652  27.955  1.00  0.00    -0.354 N 
ATOM     43  C   UNL A   1      40.022  30.275  29.431  1.00  0.00     0.074 A 
ATOM     44  C   UNL A   1      39.033  29.635  28.612  1.00  0.00     0.031 C 
ATOM     45  C   UNL A   1      44.986  27.895  29.661  1.00  0.00     0.029 A 
ATOM     46  C   UNL A   1      45.371  27.309  28.410  1.00  0.00     0.049 A 
ATOM     47  H   UNL A   1      44.179  25.838  27.400  1.00  0.00     0.167 HD
ATOM     48  C   UNL A   1      40.036  31.364  30.259  1.00  0.00     0.037 A 
ATOM     49  C   UNL A   1      46.193  27.880  27.493  1.00  0.00     0.037 A 
ATOM     50  C   UNL A   1      41.423  31.812  30.452  1.00  0.00     0.049 A 
ATOM     51  C   UNL A   1      46.099  29.395  27.625  1.00  0.00     0.074 A 
ATOM     52  C   UNL A   1      42.223  32.100  31.537  1.00  0.00     0.029 A 
ATOM     53  N   UNL A   1      42.261  31.915  29.329  1.00  0.00    -0.354 N 
ATOM     54  N   UNL A   1      45.035  30.076  28.008  1.00  0.00    -0.248 NA
ATOM     55  C   UNL A   1      47.305  30.221  27.572  1.00  0.00     0.031 C 
ATOM     56  C   UNL A   1      43.541  32.341  31.062  1.00  0.00     0.029 A 
ATOM     57  C   UNL A   1      43.571  32.118  29.692  1.00  0.00     0.049 A 
ATOM     58  H   UNL A   1      41.948  31.850  28.397  1.00  0.00     0.167 HD
ATOM     59  C   UNL A   1      45.402  31.385  28.255  1.00  0.00     0.074 A 
ATOM     60  C   UNL A   1      46.834  31.403  27.996  1.00  0.00     0.031 C 
ATOM     61  C   UNL A   1      44.605  32.403  28.714  1.00  0.00     0.037 A 
BRANCH  48  62
ATOM     62  C   UNL A   1      38.825  32.015  30.971  1.00  0.00     0.058 A 
ATOM     63  C   UNL A   1      38.016  31.263  31.865  1.00  0.00     0.135 A 
ATOM     64  C   UNL A   1      38.326  33.324  30.766  1.00  0.00     0.135 A 
ATOM     65  F   UNL A   1      38.346  30.026  32.250  1.00  0.00    -0.206 F 
ATOM     66  C   UNL A   1      36.819  31.723  32.429  1.00  0.00     0.059 A 
ATOM     67  C   UNL A   1      37.149  33.826  31.355  1.00  0.00     0.059 A 
ATOM     68  F   UNL A   1      38.942  34.209  29.980  1.00  0.00    -0.206 F 
ATOM     69  C   UNL A   1      36.384  33.009  32.169  1.00  0.00     0.060 A 
BRANCH  69  70
ATOM     70  S   UNL A   1      34.859  33.587  32.936  1.00  0.00     0.124 S 
ATOM     71  O   UNL A   1      33.861  32.708  32.334  1.00  0.00    -0.237 OA
ATOM     72  O   UNL A   1      35.120  33.368  34.354  1.00  0.00    -0.237 OA
ATOM     73  O   UNL A   1      34.780  34.987  32.529  1.00  0.00    -0.744 OA
ENDBRANCH  69  70
ENDBRANCH  48  62
BRANCH  49  74
ATOM     74  C   UNL A   1      46.342  26.915  26.338  1.00  0.00     0.058 A 
ATOM     75  C   UNL A   1      47.135  25.772  26.654  1.00  0.00     0.135 A 
ATOM     76  C   UNL A   1      45.289  26.701  25.428  1.00  0.00     0.135 A 
ATOM     77  F   UNL A   1      48.159  25.896  27.517  1.00  0.00    -0.206 F 
ATOM     78  C   UNL A   1      46.743  24.473  26.321  1.00  0.00     0.059 A 
ATOM     79  C   UNL A   1      44.903  25.400  25.051  1.00  0.00     0.059 A 
ATOM     80  F   UNL A   1      44.491  27.719  25.075  1.00  0.00    -0.206 F 
ATOM     81  C   UNL A   1      45.585  24.295  25.571  1.00  0.00     0.060 A 
BRANCH  81  82
ATOM     82  S   UNL A   1      44.890  22.619  25.473  1.00  0.00     0.124 S 
ATOM     83  O   UNL A   1      44.161  22.664  24.212  1.00  0.00    -0.237 OA
ATOM     84  O   UNL A   1      46.098  21.795  25.475  1.00  0.00    -0.237 OA
ATOM     85  O   UNL A   1      44.069  22.522  26.673  1.00  0.00    -0.744 OA
ENDBRANCH  81  82
ENDBRANCH  49  74
BRANCH  61  86
ATOM     86  C   UNL A   1      44.830  33.873  28.384  1.00  0.00     0.058 A 
ATOM     87  C   UNL A   1      45.646  34.721  29.147  1.00  0.00     0.135 A 
ATOM     88  C   UNL A   1      44.378  34.429  27.153  1.00  0.00     0.135 A 
ATOM     89  F   UNL A   1      46.286  34.295  30.245  1.00  0.00    -0.206 F 
ATOM     90  C   UNL A   1      45.903  36.039  28.784  1.00  0.00     0.059 A 
ATOM     91  C   UNL A   1      44.658  35.726  26.751  1.00  0.00     0.059 A 
ATOM     92  F   UNL A   1      43.691  33.723  26.246  1.00  0.00    -0.206 F 
ATOM     93  C   UNL A   1      45.404  36.534  27.587  1.00  0.00     0.060 A 
BRANCH  93  94
ATOM     94  S   UNL A   1      45.819  38.208  27.100  1.00  0.00     0.124 S 
ATOM     95  O   UNL A   1      46.383  38.734  28.339  1.00  0.00    -0.237 OA
ATOM     96  O   UNL A   1      46.767  37.987  26.014  1.00  0.00    -0.237 OA
ATOM     97  O   UNL A   1      44.536  38.777  26.700  1.00  0.00    -0.744 OA
ENDBRANCH  93  94
ENDBRANCH  61  86
ENDBRANCH  35  36
ENDBRANCH  28  30
ENDBRANCH  27  28
ENDBRANCH  26  27
ENDBRANCH   1  26
TORSDOF 21
ENDMDL
