MODEL 1
REMARK VINA RESULT:     -10.1      0.000      0.000
REMARK SMILES CC(C)N(CC(=O)OCCOCCOC(=O)c1ccc(-c2c3nc(c(-c4c(F)cc(S(=O)(=O)[O-])cc4F)c4ccc([nH]4)c(-c4c(F)cc(S(=O)(=O)[O-])cc4F)c4nc(c(-c5c(F)cc(S(=O)(=O)[O-])cc5F)c5ccc2[nH]5)C=C4)C=C3)cc1)C(=O)NC1C(C)(C)C1(C)C
REMARK SMILES IDX 11 1 10 2 9 3 8 4 6 5 7 6 5 7 4 8 2 9 1 10 3 11 83 12 84 13
REMARK SMILES IDX 85 14 86 16 87 17 90 18 88 19 89 20 91 21 92 22 12 23 13 24
REMARK SMILES IDX 14 25 15 26 16 27 17 28 18 29 82 30 19 31 81 32 20 33 21 34
REMARK SMILES IDX 22 35 75 36 23 37 80 38 74 39 76 40 24 41 79 42 73 43 72 44
REMARK SMILES IDX 25 46 59 47 38 48 58 49 39 50 42 51 57 52 77 53 40 54 41 55
REMARK SMILES IDX 56 57 78 58 43 59 26 60 27 61 36 62 28 63 29 64 35 65 37 66
REMARK SMILES IDX 30 67 31 68 32 69 33 70 34 71 60 72 61 73 70 74 62 75 63 76
REMARK SMILES IDX 69 77 71 78 64 79 65 80 66 81 67 82 68 83 44 84 45 85 54 86
REMARK SMILES IDX 46 87 47 88 53 89 55 90 48 91 49 92 50 93 51 94 52 95
REMARK H PARENT 85 15 76 45 42 56
REMARK Flexibility Score: inf
ROOT
ATOM      1  O   UNL A   1      38.949  22.298  26.232  1.00  0.00    -0.374 OA
ENDROOT
BRANCH   1   2
ATOM      2  C   UNL A   1      38.205  21.385  25.453  1.00  0.00     0.202 C 
BRANCH   2   3
ATOM      3  C   UNL A   1      37.377  21.949  24.276  1.00  0.00     0.261 C 
BRANCH   3   4
ATOM      4  O   UNL A   1      36.724  23.221  24.451  1.00  0.00    -0.462 OA
BRANCH   4   5
ATOM      5  C   UNL A   1      35.623  23.328  23.672  1.00  0.00     0.325 C 
ATOM      6  O   UNL A   1      35.647  23.042  22.490  1.00  0.00    -0.250 OA
BRANCH   5   7
ATOM      7  C   UNL A   1      34.411  23.938  24.346  1.00  0.00     0.244 C 
BRANCH   7   8
ATOM      8  N   UNL A   1      33.314  24.443  23.529  1.00  0.00    -0.311 N 
BRANCH   8   9
ATOM      9  C   UNL A   1      32.117  23.561  23.517  1.00  0.00     0.081 C 
ATOM     10  C   UNL A   1      30.762  24.237  23.249  1.00  0.00     0.031 C 
ATOM     11  C   UNL A   1      32.293  22.347  22.605  1.00  0.00     0.031 C 
ENDBRANCH   8   9
BRANCH   8  12
ATOM     12  C   UNL A   1      33.285  25.633  22.880  1.00  0.00     0.318 C 
ATOM     13  O   UNL A   1      33.524  25.693  21.665  1.00  0.00    -0.249 OA
ATOM     14  N   UNL A   1      32.986  26.831  23.407  1.00  0.00    -0.334 N 
ATOM     15  H   UNL A   1      33.015  27.480  22.668  1.00  0.00     0.165 HD
BRANCH  14  16
ATOM     16  C   UNL A   1      32.643  27.566  24.587  1.00  0.00     0.096 C 
ATOM     17  C   UNL A   1      31.289  28.260  24.648  1.00  0.00    -0.007 C 
ATOM     18  C   UNL A   1      31.788  27.460  25.850  1.00  0.00    -0.007 C 
ATOM     19  C   UNL A   1      31.193  29.753  24.806  1.00  0.00     0.014 C 
ATOM     20  C   UNL A   1      30.196  27.690  23.762  1.00  0.00     0.014 C 
ATOM     21  C   UNL A   1      30.883  26.363  26.341  1.00  0.00     0.014 C 
ATOM     22  C   UNL A   1      32.453  28.145  27.058  1.00  0.00     0.014 C 
ENDBRANCH  14  16
ENDBRANCH   8  12
ENDBRANCH   7   8
ENDBRANCH   5   7
ENDBRANCH   4   5
ENDBRANCH   3   4
ENDBRANCH   2   3
ENDBRANCH   1   2
BRANCH   1  23
ATOM     23  C   UNL A   1      40.190  21.974  26.854  1.00  0.00     0.202 C 
BRANCH  23  24
ATOM     24  C   UNL A   1      41.606  22.462  26.475  1.00  0.00     0.261 C 
BRANCH  24  25
ATOM     25  O   UNL A   1      42.169  23.521  27.234  1.00  0.00    -0.460 OA
BRANCH  25  26
ATOM     26  C   UNL A   1      42.293  24.686  26.562  1.00  0.00     0.338 C 
ATOM     27  O   UNL A   1      42.564  24.843  25.380  1.00  0.00    -0.246 OA
BRANCH  26  28
ATOM     28  C   UNL A   1      41.775  25.742  27.437  1.00  0.00     0.060 A 
ATOM     29  C   UNL A   1      42.528  26.918  27.548  1.00  0.00     0.016 A 
ATOM     30  C   UNL A   1      40.568  25.581  28.121  1.00  0.00     0.016 A 
ATOM     31  C   UNL A   1      42.088  27.938  28.371  1.00  0.00     0.010 A 
ATOM     32  C   UNL A   1      40.147  26.588  28.981  1.00  0.00     0.010 A 
ATOM     33  C   UNL A   1      40.931  27.745  29.133  1.00  0.00    -0.014 A 
BRANCH  33  34
ATOM     34  C   UNL A   1      40.709  28.654  30.268  1.00  0.00     0.031 A 
ATOM     35  C   UNL A   1      41.604  28.502  31.462  1.00  0.00     0.074 A 
ATOM     36  C   UNL A   1      39.798  29.634  30.180  1.00  0.00     0.049 A 
ATOM     37  N   UNL A   1      41.628  29.189  32.570  1.00  0.00    -0.248 NA
ATOM     38  C   UNL A   1      42.611  27.429  31.394  1.00  0.00     0.031 C 
ATOM     39  C   UNL A   1      38.937  29.884  29.025  1.00  0.00     0.029 A 
ATOM     40  N   UNL A   1      39.453  30.603  31.081  1.00  0.00    -0.354 N 
ATOM     41  C   UNL A   1      42.645  28.627  33.334  1.00  0.00     0.074 A 
ATOM     42  C   UNL A   1      43.192  27.524  32.578  1.00  0.00     0.031 C 
ATOM     43  C   UNL A   1      38.147  30.936  29.294  1.00  0.00     0.029 A 
ATOM     44  C   UNL A   1      38.427  31.407  30.649  1.00  0.00     0.049 A 
ATOM     45  H   UNL A   1      39.895  30.714  31.953  1.00  0.00     0.167 HD
ATOM     46  C   UNL A   1      43.080  29.008  34.557  1.00  0.00     0.037 A 
ATOM     47  C   UNL A   1      37.777  32.391  31.296  1.00  0.00     0.037 A 
ATOM     48  C   UNL A   1      42.503  30.104  35.287  1.00  0.00     0.049 A 
ATOM     49  C   UNL A   1      38.229  32.754  32.685  1.00  0.00     0.074 A 
ATOM     50  C   UNL A   1      42.855  30.593  36.530  1.00  0.00     0.029 A 
ATOM     51  N   UNL A   1      41.433  30.872  34.841  1.00  0.00    -0.354 N 
ATOM     52  N   UNL A   1      39.199  32.231  33.399  1.00  0.00    -0.248 NA
ATOM     53  C   UNL A   1      37.506  33.842  33.353  1.00  0.00     0.031 C 
ATOM     54  C   UNL A   1      41.957  31.613  36.864  1.00  0.00     0.029 A 
ATOM     55  C   UNL A   1      41.089  31.809  35.798  1.00  0.00     0.049 A 
ATOM     56  H   UNL A   1      40.987  30.765  33.970  1.00  0.00     0.167 HD
ATOM     57  C   UNL A   1      39.219  32.938  34.595  1.00  0.00     0.074 A 
ATOM     58  C   UNL A   1      38.170  33.937  34.499  1.00  0.00     0.031 C 
ATOM     59  C   UNL A   1      40.031  32.784  35.673  1.00  0.00     0.037 A 
BRANCH  46  60
ATOM     60  C   UNL A   1      44.180  28.195  35.184  1.00  0.00     0.058 A 
ATOM     61  C   UNL A   1      43.917  27.092  36.015  1.00  0.00     0.135 A 
ATOM     62  C   UNL A   1      45.524  28.542  34.969  1.00  0.00     0.135 A 
ATOM     63  F   UNL A   1      42.652  26.728  36.276  1.00  0.00    -0.206 F 
ATOM     64  C   UNL A   1      44.944  26.392  36.643  1.00  0.00     0.059 A 
ATOM     65  C   UNL A   1      46.567  27.836  35.560  1.00  0.00     0.059 A 
ATOM     66  F   UNL A   1      45.835  29.591  34.192  1.00  0.00    -0.206 F 
ATOM     67  C   UNL A   1      46.266  26.775  36.412  1.00  0.00     0.060 A 
BRANCH  67  68
ATOM     68  S   UNL A   1      47.586  25.873  37.251  1.00  0.00     0.124 S 
ATOM     69  O   UNL A   1      48.353  25.361  36.119  1.00  0.00    -0.237 OA
ATOM     70  O   UNL A   1      48.233  26.922  38.031  1.00  0.00    -0.237 OA
ATOM     71  O   UNL A   1      46.871  24.867  38.028  1.00  0.00    -0.744 OA
ENDBRANCH  67  68
ENDBRANCH  46  60
BRANCH  47  72
ATOM     72  C   UNL A   1      36.638  33.072  30.630  1.00  0.00     0.058 A 
ATOM     73  C   UNL A   1      35.312  32.784  30.974  1.00  0.00     0.135 A 
ATOM     74  C   UNL A   1      36.863  34.081  29.678  1.00  0.00     0.135 A 
ATOM     75  F   UNL A   1      35.044  31.824  31.871  1.00  0.00    -0.206 F 
ATOM     76  C   UNL A   1      34.246  33.476  30.405  1.00  0.00     0.059 A 
ATOM     77  C   UNL A   1      35.818  34.805  29.116  1.00  0.00     0.059 A 
ATOM     78  F   UNL A   1      38.117  34.406  29.324  1.00  0.00    -0.206 F 
ATOM     79  C   UNL A   1      34.511  34.494  29.486  1.00  0.00     0.060 A 
BRANCH  79  80
ATOM     80  S   UNL A   1      33.126  35.448  28.828  1.00  0.00     0.124 S 
ATOM     81  O   UNL A   1      32.482  35.914  30.050  1.00  0.00    -0.237 OA
ATOM     82  O   UNL A   1      33.809  36.466  28.035  1.00  0.00    -0.237 OA
ATOM     83  O   UNL A   1      32.375  34.462  28.054  1.00  0.00    -0.744 OA
ENDBRANCH  79  80
ENDBRANCH  47  72
BRANCH  59  84
ATOM     84  C   UNL A   1      39.831  33.732  36.824  1.00  0.00     0.058 A 
ATOM     85  C   UNL A   1      38.977  33.426  37.894  1.00  0.00     0.135 A 
ATOM     86  C   UNL A   1      40.551  34.937  36.880  1.00  0.00     0.135 A 
ATOM     87  F   UNL A   1      38.262  32.289  37.887  1.00  0.00    -0.206 F 
ATOM     88  C   UNL A   1      38.824  34.294  38.970  1.00  0.00     0.059 A 
ATOM     89  C   UNL A   1      40.440  35.803  37.962  1.00  0.00     0.059 A 
ATOM     90  F   UNL A   1      41.391  35.271  35.887  1.00  0.00    -0.206 F 
ATOM     91  C   UNL A   1      39.564  35.479  38.996  1.00  0.00     0.060 A 
BRANCH  91  92
ATOM     92  S   UNL A   1      39.378  36.581  40.412  1.00  0.00     0.124 S 
ATOM     93  O   UNL A   1      38.180  36.043  41.048  1.00  0.00    -0.237 OA
ATOM     94  O   UNL A   1      40.629  36.371  41.135  1.00  0.00    -0.237 OA
ATOM     95  O   UNL A   1      39.227  37.898  39.802  1.00  0.00    -0.744 OA
ENDBRANCH  91  92
ENDBRANCH  59  84
ENDBRANCH  33  34
ENDBRANCH  26  28
ENDBRANCH  25  26
ENDBRANCH  24  25
ENDBRANCH  23  24
ENDBRANCH   1  23
TORSDOF 21
ENDMDL
MODEL 2
REMARK VINA RESULT:     -10.0      6.333     11.831
REMARK SMILES CC(C)N(CC(=O)OCCOCCOC(=O)c1ccc(-c2c3nc(c(-c4c(F)cc(S(=O)(=O)[O-])cc4F)c4ccc([nH]4)c(-c4c(F)cc(S(=O)(=O)[O-])cc4F)c4nc(c(-c5c(F)cc(S(=O)(=O)[O-])cc5F)c5ccc2[nH]5)C=C4)C=C3)cc1)C(=O)NC1C(C)(C)C1(C)C
REMARK SMILES IDX 11 1 10 2 9 3 8 4 6 5 7 6 5 7 4 8 2 9 1 10 3 11 83 12 84 13
REMARK SMILES IDX 85 14 86 16 87 17 90 18 88 19 89 20 91 21 92 22 12 23 13 24
REMARK SMILES IDX 14 25 15 26 16 27 17 28 18 29 82 30 19 31 81 32 20 33 21 34
REMARK SMILES IDX 22 35 75 36 23 37 80 38 74 39 76 40 24 41 79 42 73 43 72 44
REMARK SMILES IDX 25 46 59 47 38 48 58 49 39 50 42 51 57 52 77 53 40 54 41 55
REMARK SMILES IDX 56 57 78 58 43 59 26 60 27 61 36 62 28 63 29 64 35 65 37 66
REMARK SMILES IDX 30 67 31 68 32 69 33 70 34 71 60 72 61 73 70 74 62 75 63 76
REMARK SMILES IDX 69 77 71 78 64 79 65 80 66 81 67 82 68 83 44 84 45 85 54 86
REMARK SMILES IDX 46 87 47 88 53 89 55 90 48 91 49 92 50 93 51 94 52 95
REMARK H PARENT 85 15 76 45 42 56
REMARK Flexibility Score: inf
ROOT
ATOM      1  O   UNL A   1      34.997  30.439  27.728  1.00  0.00    -0.374 OA
ENDROOT
BRANCH   1   2
ATOM      2  C   UNL A   1      34.037  30.081  26.756  1.00  0.00     0.202 C 
BRANCH   2   3
ATOM      3  C   UNL A   1      32.594  29.803  27.236  1.00  0.00     0.261 C 
BRANCH   3   4
ATOM      4  O   UNL A   1      31.725  29.042  26.374  1.00  0.00    -0.462 OA
BRANCH   4   5
ATOM      5  C   UNL A   1      31.367  27.866  26.939  1.00  0.00     0.325 C 
ATOM      6  O   UNL A   1      31.504  27.662  28.131  1.00  0.00    -0.250 OA
BRANCH   5   7
ATOM      7  C   UNL A   1      30.905  26.798  25.969  1.00  0.00     0.244 C 
BRANCH   7   8
ATOM      8  N   UNL A   1      31.805  25.704  25.624  1.00  0.00    -0.311 N 
BRANCH   8   9
ATOM      9  C   UNL A   1      32.713  26.008  24.487  1.00  0.00     0.081 C 
ATOM     10  C   UNL A   1      32.099  26.757  23.292  1.00  0.00     0.031 C 
ATOM     11  C   UNL A   1      34.004  26.694  24.934  1.00  0.00     0.031 C 
ENDBRANCH   8   9
BRANCH   8  12
ATOM     12  C   UNL A   1      31.917  24.524  26.284  1.00  0.00     0.318 C 
ATOM     13  O   UNL A   1      31.180  24.271  27.249  1.00  0.00    -0.249 OA
ATOM     14  N   UNL A   1      32.755  23.517  25.996  1.00  0.00    -0.334 N 
ATOM     15  H   UNL A   1      32.559  22.795  26.635  1.00  0.00     0.165 HD
BRANCH  14  16
ATOM     16  C   UNL A   1      33.814  23.047  25.156  1.00  0.00     0.096 C 
ATOM     17  C   UNL A   1      33.730  21.634  24.595  1.00  0.00    -0.007 C 
ATOM     18  C   UNL A   1      34.144  22.790  23.685  1.00  0.00    -0.007 C 
ATOM     19  C   UNL A   1      34.779  20.607  24.924  1.00  0.00     0.014 C 
ATOM     20  C   UNL A   1      32.339  21.037  24.472  1.00  0.00     0.014 C 
ATOM     21  C   UNL A   1      33.321  22.984  22.440  1.00  0.00     0.014 C 
ATOM     22  C   UNL A   1      35.622  23.076  23.363  1.00  0.00     0.014 C 
ENDBRANCH  14  16
ENDBRANCH   8  12
ENDBRANCH   7   8
ENDBRANCH   5   7
ENDBRANCH   4   5
ENDBRANCH   3   4
ENDBRANCH   2   3
ENDBRANCH   1   2
BRANCH   1  23
ATOM     23  C   UNL A   1      35.025  31.707  28.378  1.00  0.00     0.202 C 
BRANCH  23  24
ATOM     24  C   UNL A   1      35.138  32.004  29.890  1.00  0.00     0.261 C 
BRANCH  24  25
ATOM     25  O   UNL A   1      36.414  31.876  30.498  1.00  0.00    -0.460 OA
BRANCH  25  26
ATOM     26  C   UNL A   1      36.785  30.603  30.759  1.00  0.00     0.338 C 
ATOM     27  O   UNL A   1      36.068  29.669  31.091  1.00  0.00    -0.246 OA
BRANCH  26  28
ATOM     28  C   UNL A   1      38.173  30.459  30.312  1.00  0.00     0.060 A 
ATOM     29  C   UNL A   1      38.394  30.265  28.943  1.00  0.00     0.016 A 
ATOM     30  C   UNL A   1      39.231  30.529  31.220  1.00  0.00     0.016 A 
ATOM     31  C   UNL A   1      39.686  30.111  28.473  1.00  0.00     0.010 A 
ATOM     32  C   UNL A   1      40.526  30.331  30.754  1.00  0.00     0.010 A 
ATOM     33  C   UNL A   1      40.743  30.082  29.388  1.00  0.00    -0.014 A 
BRANCH  33  34
ATOM     34  C   UNL A   1      42.025  29.532  28.923  1.00  0.00     0.031 A 
ATOM     35  C   UNL A   1      43.207  30.455  28.900  1.00  0.00     0.074 A 
ATOM     36  C   UNL A   1      42.133  28.229  28.627  1.00  0.00     0.049 A 
ATOM     37  N   UNL A   1      44.442  30.210  28.559  1.00  0.00    -0.248 NA
ATOM     38  C   UNL A   1      42.961  31.845  29.322  1.00  0.00     0.031 C 
ATOM     39  C   UNL A   1      41.042  27.257  28.689  1.00  0.00     0.029 A 
ATOM     40  N   UNL A   1      43.216  27.502  28.218  1.00  0.00    -0.354 N 
ATOM     41  C   UNL A   1      45.118  31.413  28.717  1.00  0.00     0.074 A 
ATOM     42  C   UNL A   1      44.152  32.396  29.153  1.00  0.00     0.031 C 
ATOM     43  C   UNL A   1      41.511  26.055  28.316  1.00  0.00     0.029 A 
ATOM     44  C   UNL A   1      42.923  26.186  27.958  1.00  0.00     0.049 A 
ATOM     45  H   UNL A   1      44.118  27.883  28.119  1.00  0.00     0.167 HD
ATOM     46  C   UNL A   1      46.431  31.668  28.518  1.00  0.00     0.037 A 
ATOM     47  C   UNL A   1      43.707  25.213  27.462  1.00  0.00     0.037 A 
ATOM     48  C   UNL A   1      47.364  30.668  28.071  1.00  0.00     0.049 A 
ATOM     49  C   UNL A   1      45.151  25.533  27.178  1.00  0.00     0.074 A 
ATOM     50  C   UNL A   1      48.718  30.796  27.835  1.00  0.00     0.029 A 
ATOM     51  N   UNL A   1      47.025  29.352  27.773  1.00  0.00    -0.354 N 
ATOM     52  N   UNL A   1      45.790  26.668  27.341  1.00  0.00    -0.248 NA
ATOM     53  C   UNL A   1      45.980  24.443  26.651  1.00  0.00     0.031 C 
ATOM     54  C   UNL A   1      49.187  29.576  27.333  1.00  0.00     0.029 A 
ATOM     55  C   UNL A   1      48.139  28.666  27.323  1.00  0.00     0.049 A 
ATOM     56  H   UNL A   1      46.125  28.966  27.869  1.00  0.00     0.167 HD
ATOM     57  C   UNL A   1      47.104  26.427  26.957  1.00  0.00     0.074 A 
ATOM     58  C   UNL A   1      47.167  25.030  26.566  1.00  0.00     0.031 C 
ATOM     59  C   UNL A   1      48.164  27.275  26.932  1.00  0.00     0.037 A 
BRANCH  46  60
ATOM     60  C   UNL A   1      46.901  33.082  28.724  1.00  0.00     0.058 A 
ATOM     61  C   UNL A   1      46.948  34.018  27.676  1.00  0.00     0.135 A 
ATOM     62  C   UNL A   1      47.339  33.502  29.991  1.00  0.00     0.135 A 
ATOM     63  F   UNL A   1      46.565  33.667  26.438  1.00  0.00    -0.206 F 
ATOM     64  C   UNL A   1      47.450  35.302  27.867  1.00  0.00     0.059 A 
ATOM     65  C   UNL A   1      47.814  34.791  30.213  1.00  0.00     0.059 A 
ATOM     66  F   UNL A   1      47.326  32.650  31.027  1.00  0.00    -0.206 F 
ATOM     67  C   UNL A   1      47.885  35.678  29.139  1.00  0.00     0.060 A 
BRANCH  67  68
ATOM     68  S   UNL A   1      48.555  37.339  29.369  1.00  0.00     0.124 S 
ATOM     69  O   UNL A   1      47.721  38.117  28.458  1.00  0.00    -0.237 OA
ATOM     70  O   UNL A   1      48.329  37.572  30.791  1.00  0.00    -0.237 OA
ATOM     71  O   UNL A   1      49.952  37.199  28.973  1.00  0.00    -0.744 OA
ENDBRANCH  67  68
ENDBRANCH  46  60
BRANCH  47  72
ATOM     72  C   UNL A   1      43.127  23.871  27.200  1.00  0.00     0.058 A 
ATOM     73  C   UNL A   1      42.902  22.957  28.237  1.00  0.00     0.135 A 
ATOM     74  C   UNL A   1      42.721  23.505  25.905  1.00  0.00     0.135 A 
ATOM     75  F   UNL A   1      43.279  23.256  29.489  1.00  0.00    -0.206 F 
ATOM     76  C   UNL A   1      42.287  21.730  28.004  1.00  0.00     0.059 A 
ATOM     77  C   UNL A   1      42.082  22.298  25.651  1.00  0.00     0.059 A 
ATOM     78  F   UNL A   1      42.901  24.352  24.879  1.00  0.00    -0.206 F 
ATOM     79  C   UNL A   1      41.870  21.415  26.709  1.00  0.00     0.060 A 
BRANCH  79  80
ATOM     80  S   UNL A   1      40.989  19.862  26.437  1.00  0.00     0.124 S 
ATOM     81  O   UNL A   1      40.960  19.300  27.782  1.00  0.00    -0.237 OA
ATOM     82  O   UNL A   1      39.709  20.328  25.910  1.00  0.00    -0.237 OA
ATOM     83  O   UNL A   1      41.834  19.159  25.475  1.00  0.00    -0.744 OA
ENDBRANCH  79  80
ENDBRANCH  47  72
BRANCH  59  84
ATOM     84  C   UNL A   1      49.486  26.711  26.491  1.00  0.00     0.058 A 
ATOM     85  C   UNL A   1      49.951  26.860  25.176  1.00  0.00     0.135 A 
ATOM     86  C   UNL A   1      50.321  26.061  27.415  1.00  0.00     0.135 A 
ATOM     87  F   UNL A   1      49.189  27.468  24.252  1.00  0.00    -0.206 F 
ATOM     88  C   UNL A   1      51.190  26.362  24.785  1.00  0.00     0.059 A 
ATOM     89  C   UNL A   1      51.577  25.588  27.055  1.00  0.00     0.059 A 
ATOM     90  F   UNL A   1      49.927  25.904  28.689  1.00  0.00    -0.206 F 
ATOM     91  C   UNL A   1      51.997  25.731  25.734  1.00  0.00     0.060 A 
BRANCH  91  92
ATOM     92  S   UNL A   1      53.615  25.118  25.220  1.00  0.00     0.124 S 
ATOM     93  O   UNL A   1      54.478  25.656  26.266  1.00  0.00    -0.237 OA
ATOM     94  O   UNL A   1      53.420  23.671  25.242  1.00  0.00    -0.237 OA
ATOM     95  O   UNL A   1      53.796  25.701  23.895  1.00  0.00    -0.744 OA
ENDBRANCH  91  92
ENDBRANCH  59  84
ENDBRANCH  33  34
ENDBRANCH  26  28
ENDBRANCH  25  26
ENDBRANCH  24  25
ENDBRANCH  23  24
ENDBRANCH   1  23
TORSDOF 21
ENDMDL
MODEL 3
REMARK VINA RESULT:     -10.0      6.175      8.401
REMARK SMILES CC(C)N(CC(=O)OCCOCCOC(=O)c1ccc(-c2c3nc(c(-c4c(F)cc(S(=O)(=O)[O-])cc4F)c4ccc([nH]4)c(-c4c(F)cc(S(=O)(=O)[O-])cc4F)c4nc(c(-c5c(F)cc(S(=O)(=O)[O-])cc5F)c5ccc2[nH]5)C=C4)C=C3)cc1)C(=O)NC1C(C)(C)C1(C)C
REMARK SMILES IDX 11 1 10 2 9 3 8 4 6 5 7 6 5 7 4 8 2 9 1 10 3 11 83 12 84 13
REMARK SMILES IDX 85 14 86 16 87 17 90 18 88 19 89 20 91 21 92 22 12 23 13 24
REMARK SMILES IDX 14 25 15 26 16 27 17 28 18 29 82 30 19 31 81 32 20 33 21 34
REMARK SMILES IDX 22 35 75 36 23 37 80 38 74 39 76 40 24 41 79 42 73 43 72 44
REMARK SMILES IDX 25 46 59 47 38 48 58 49 39 50 42 51 57 52 77 53 40 54 41 55
REMARK SMILES IDX 56 57 78 58 43 59 26 60 27 61 36 62 28 63 29 64 35 65 37 66
REMARK SMILES IDX 30 67 31 68 32 69 33 70 34 71 60 72 61 73 70 74 62 75 63 76
REMARK SMILES IDX 69 77 71 78 64 79 65 80 66 81 67 82 68 83 44 84 45 85 54 86
REMARK SMILES IDX 46 87 47 88 53 89 55 90 48 91 49 92 50 93 51 94 52 95
REMARK H PARENT 85 15 76 45 42 56
REMARK Flexibility Score: inf
ROOT
ATOM      1  O   UNL A   1      38.902  22.532  26.316  1.00  0.00    -0.374 OA
ENDROOT
BRANCH   1   2
ATOM      2  C   UNL A   1      38.144  23.674  25.975  1.00  0.00     0.202 C 
BRANCH   2   3
ATOM      3  C   UNL A   1      36.607  23.588  26.122  1.00  0.00     0.261 C 
BRANCH   3   4
ATOM      4  O   UNL A   1      35.792  24.276  25.154  1.00  0.00    -0.462 OA
BRANCH   4   5
ATOM      5  C   UNL A   1      34.598  24.641  25.676  1.00  0.00     0.325 C 
ATOM      6  O   UNL A   1      34.161  25.769  25.543  1.00  0.00    -0.250 OA
BRANCH   5   7
ATOM      7  C   UNL A   1      33.917  23.590  26.529  1.00  0.00     0.244 C 
BRANCH   7   8
ATOM      8  N   UNL A   1      32.576  23.139  26.176  1.00  0.00    -0.311 N 
BRANCH   8   9
ATOM      9  C   UNL A   1      32.553  21.873  25.397  1.00  0.00     0.081 C 
ATOM     10  C   UNL A   1      32.939  21.968  23.911  1.00  0.00     0.031 C 
ATOM     11  C   UNL A   1      33.339  20.751  26.076  1.00  0.00     0.031 C 
ENDBRANCH   8   9
BRANCH   8  12
ATOM     12  C   UNL A   1      31.412  23.721  26.557  1.00  0.00     0.318 C 
ATOM     13  O   UNL A   1      30.739  23.237  27.480  1.00  0.00    -0.249 OA
ATOM     14  N   UNL A   1      30.869  24.840  26.053  1.00  0.00    -0.334 N 
ATOM     15  H   UNL A   1      30.051  25.014  26.571  1.00  0.00     0.165 HD
BRANCH  14  16
ATOM     16  C   UNL A   1      30.974  25.887  25.083  1.00  0.00     0.096 C 
ATOM     17  C   UNL A   1      30.961  25.518  23.605  1.00  0.00    -0.007 C 
ATOM     18  C   UNL A   1      30.120  26.694  24.103  1.00  0.00    -0.007 C 
ATOM     19  C   UNL A   1      32.134  25.837  22.719  1.00  0.00     0.014 C 
ATOM     20  C   UNL A   1      30.286  24.208  23.241  1.00  0.00     0.014 C 
ATOM     21  C   UNL A   1      28.649  26.636  23.797  1.00  0.00     0.014 C 
ATOM     22  C   UNL A   1      30.607  28.148  23.973  1.00  0.00     0.014 C 
ENDBRANCH  14  16
ENDBRANCH   8  12
ENDBRANCH   7   8
ENDBRANCH   5   7
ENDBRANCH   4   5
ENDBRANCH   3   4
ENDBRANCH   2   3
ENDBRANCH   1   2
BRANCH   1  23
ATOM     23  C   UNL A   1      38.665  21.238  25.769  1.00  0.00     0.202 C 
BRANCH  23  24
ATOM     24  C   UNL A   1      39.633  20.034  25.707  1.00  0.00     0.261 C 
BRANCH  24  25
ATOM     25  O   UNL A   1      40.654  19.951  26.689  1.00  0.00    -0.460 OA
BRANCH  25  26
ATOM     26  C   UNL A   1      41.895  19.760  26.192  1.00  0.00     0.338 C 
ATOM     27  O   UNL A   1      42.284  18.840  25.486  1.00  0.00    -0.246 OA
BRANCH  26  28
ATOM     28  C   UNL A   1      42.644  20.999  26.419  1.00  0.00     0.060 A 
ATOM     29  C   UNL A   1      42.672  21.509  27.723  1.00  0.00     0.016 A 
ATOM     30  C   UNL A   1      43.315  21.635  25.371  1.00  0.00     0.016 A 
ATOM     31  C   UNL A   1      43.355  22.683  27.985  1.00  0.00     0.010 A 
ATOM     32  C   UNL A   1      43.965  22.837  25.626  1.00  0.00     0.010 A 
ATOM     33  C   UNL A   1      43.946  23.376  26.925  1.00  0.00    -0.014 A 
BRANCH  33  34
ATOM     34  C   UNL A   1      44.310  24.782  27.154  1.00  0.00     0.031 A 
ATOM     35  C   UNL A   1      45.746  25.168  26.958  1.00  0.00     0.074 A 
ATOM     36  C   UNL A   1      43.361  25.687  27.436  1.00  0.00     0.049 A 
ATOM     37  N   UNL A   1      46.312  26.337  27.072  1.00  0.00    -0.248 NA
ATOM     38  C   UNL A   1      46.668  24.084  26.577  1.00  0.00     0.031 C 
ATOM     39  C   UNL A   1      41.935  25.398  27.578  1.00  0.00     0.029 A 
ATOM     40  N   UNL A   1      43.460  27.034  27.648  1.00  0.00    -0.354 N 
ATOM     41  C   UNL A   1      47.656  26.130  26.787  1.00  0.00     0.074 A 
ATOM     42  C   UNL A   1      47.828  24.719  26.525  1.00  0.00     0.031 C 
ATOM     43  C   UNL A   1      41.289  26.538  27.869  1.00  0.00     0.029 A 
ATOM     44  C   UNL A   1      42.262  27.625  27.966  1.00  0.00     0.049 A 
ATOM     45  H   UNL A   1      44.305  27.532  27.580  1.00  0.00     0.167 HD
ATOM     46  C   UNL A   1      48.653  27.043  26.744  1.00  0.00     0.037 A 
ATOM     47  C   UNL A   1      41.998  28.895  28.320  1.00  0.00     0.037 A 
ATOM     48  C   UNL A   1      48.448  28.439  27.024  1.00  0.00     0.049 A 
ATOM     49  C   UNL A   1      43.133  29.884  28.337  1.00  0.00     0.074 A 
ATOM     50  C   UNL A   1      49.372  29.466  27.011  1.00  0.00     0.029 A 
ATOM     51  N   UNL A   1      47.228  28.999  27.387  1.00  0.00    -0.354 N 
ATOM     52  N   UNL A   1      44.400  29.688  28.053  1.00  0.00    -0.248 NA
ATOM     53  C   UNL A   1      42.805  31.263  28.714  1.00  0.00     0.031 C 
ATOM     54  C   UNL A   1      48.725  30.634  27.428  1.00  0.00     0.029 A 
ATOM     55  C   UNL A   1      47.382  30.352  27.634  1.00  0.00     0.049 A 
ATOM     56  H   UNL A   1      46.380  28.506  27.457  1.00  0.00     0.167 HD
ATOM     57  C   UNL A   1      45.020  30.923  28.196  1.00  0.00     0.074 A 
ATOM     58  C   UNL A   1      43.982  31.862  28.579  1.00  0.00     0.031 C 
ATOM     59  C   UNL A   1      46.326  31.257  28.024  1.00  0.00     0.037 A 
BRANCH  46  60
ATOM     60  C   UNL A   1      50.039  26.541  26.447  1.00  0.00     0.058 A 
ATOM     61  C   UNL A   1      50.897  26.065  27.454  1.00  0.00     0.135 A 
ATOM     62  C   UNL A   1      50.529  26.560  25.131  1.00  0.00     0.135 A 
ATOM     63  F   UNL A   1      50.493  26.046  28.734  1.00  0.00    -0.206 F 
ATOM     64  C   UNL A   1      52.202  25.668  27.172  1.00  0.00     0.059 A 
ATOM     65  C   UNL A   1      51.818  26.137  24.821  1.00  0.00     0.059 A 
ATOM     66  F   UNL A   1      49.758  27.012  24.130  1.00  0.00    -0.206 F 
ATOM     67  C   UNL A   1      52.654  25.712  25.853  1.00  0.00     0.060 A 
BRANCH  67  68
ATOM     68  S   UNL A   1      54.355  25.216  25.505  1.00  0.00     0.124 S 
ATOM     69  O   UNL A   1      55.085  25.927  26.550  1.00  0.00    -0.237 OA
ATOM     70  O   UNL A   1      54.292  23.765  25.649  1.00  0.00    -0.237 OA
ATOM     71  O   UNL A   1      54.579  25.699  24.146  1.00  0.00    -0.744 OA
ENDBRANCH  67  68
ENDBRANCH  46  60
BRANCH  47  72
ATOM     72  C   UNL A   1      40.611  29.275  28.691  1.00  0.00     0.058 A 
ATOM     73  C   UNL A   1      39.614  29.441  27.722  1.00  0.00     0.135 A 
ATOM     74  C   UNL A   1      40.241  29.411  30.041  1.00  0.00     0.135 A 
ATOM     75  F   UNL A   1      39.918  29.329  26.420  1.00  0.00    -0.206 F 
ATOM     76  C   UNL A   1      38.297  29.722  28.075  1.00  0.00     0.059 A 
ATOM     77  C   UNL A   1      38.928  29.664  30.419  1.00  0.00     0.059 A 
ATOM     78  F   UNL A   1      41.157  29.247  31.009  1.00  0.00    -0.206 F 
ATOM     79  C   UNL A   1      37.962  29.819  29.427  1.00  0.00     0.060 A 
BRANCH  79  80
ATOM     80  S   UNL A   1      36.233  30.088  29.873  1.00  0.00     0.124 S 
ATOM     81  O   UNL A   1      35.539  29.517  28.724  1.00  0.00    -0.237 OA
ATOM     82  O   UNL A   1      36.123  29.342  31.123  1.00  0.00    -0.237 OA
ATOM     83  O   UNL A   1      36.142  31.539  30.010  1.00  0.00    -0.744 OA
ENDBRANCH  79  80
ENDBRANCH  47  72
BRANCH  59  84
ATOM     84  C   UNL A   1      46.698  32.700  28.224  1.00  0.00     0.058 A 
ATOM     85  C   UNL A   1      46.586  33.642  27.190  1.00  0.00     0.135 A 
ATOM     86  C   UNL A   1      47.117  33.154  29.486  1.00  0.00     0.135 A 
ATOM     87  F   UNL A   1      46.195  33.260  25.964  1.00  0.00    -0.206 F 
ATOM     88  C   UNL A   1      46.902  34.982  27.394  1.00  0.00     0.059 A 
ATOM     89  C   UNL A   1      47.404  34.493  29.720  1.00  0.00     0.059 A 
ATOM     90  F   UNL A   1      47.229  32.294  30.511  1.00  0.00    -0.206 F 
ATOM     91  C   UNL A   1      47.306  35.398  28.664  1.00  0.00     0.060 A 
BRANCH  91  92
ATOM     92  S   UNL A   1      47.682  37.144  28.922  1.00  0.00     0.124 S 
ATOM     93  O   UNL A   1      47.832  37.617  27.550  1.00  0.00    -0.237 OA
ATOM     94  O   UNL A   1      46.496  37.616  29.630  1.00  0.00    -0.237 OA
ATOM     95  O   UNL A   1      48.908  37.115  29.713  1.00  0.00    -0.744 OA
ENDBRANCH  91  92
ENDBRANCH  59  84
ENDBRANCH  33  34
ENDBRANCH  26  28
ENDBRANCH  25  26
ENDBRANCH  24  25
ENDBRANCH  23  24
ENDBRANCH   1  23
TORSDOF 21
ENDMDL
