MODEL 1
REMARK VINA RESULT:     -12.6      0.000      0.000
REMARK SMILES O=C(OCCOCCOC(=O)[C@H]1Cc2c([nH]c3ccccc23)[C@H](c2c[nH]c3ccccc23)[NH2+]1)c1ccc(-c2c3nc(c(-c4c(F)cc(S(=O)(=O)[O-])cc4F)c4ccc([nH]4)c(-c4c(F)cc(S(=O)(=O)[O-])cc4F)c4nc(c(-c5c(F)cc(S(=O)(=O)[O-])cc5F)c5ccc2[nH]5)C=C4)C=C3)cc1
REMARK SMILES IDX 5 1 4 2 3 3 2 4 1 5 34 6 35 7 99 8 36 9 98 10 37 11 38 12
REMARK SMILES IDX 39 13 92 14 40 15 97 16 91 17 93 18 41 19 96 20 90 21 89 22
REMARK SMILES IDX 42 24 76 25 55 26 75 27 56 28 59 29 74 30 94 31 57 32 58 33
REMARK SMILES IDX 73 35 95 36 60 37 43 38 44 39 53 40 45 41 46 42 52 43 54 44
REMARK SMILES IDX 47 45 48 46 49 47 50 48 51 49 77 50 78 51 87 52 79 53 80 54
REMARK SMILES IDX 86 55 88 56 81 57 82 58 83 59 84 60 85 61 61 62 62 63 71 64
REMARK SMILES IDX 63 65 64 66 70 67 72 68 65 69 66 70 67 71 68 72 69 73 6 74
REMARK SMILES IDX 7 75 8 76 9 77 10 78 11 79 12 80 13 81 33 82 14 83 23 84
REMARK SMILES IDX 15 87 22 88 16 89 17 90 21 91 18 93 20 94 19 95 24 96 25 97
REMARK SMILES IDX 32 98 26 99 27 100 31 101 28 103 30 104 29 105
REMARK H PARENT 93 23 59 34 33 85 33 86 16 92 26 102
REMARK Flexibility Score: inf
ROOT
ATOM      1  C   UNL A   1      42.962  22.143  25.574  1.00  0.00     0.202 C 
ENDROOT
BRANCH   1   2
ATOM      2  C   UNL A   1      43.219  23.602  25.170  1.00  0.00     0.261 C 
BRANCH   2   3
ATOM      3  O   UNL A   1      43.016  24.528  26.253  1.00  0.00    -0.460 OA
BRANCH   3   4
ATOM      4  C   UNL A   1      42.400  25.735  26.141  1.00  0.00     0.338 C 
ATOM      5  O   UNL A   1      42.149  26.200  25.036  1.00  0.00    -0.246 OA
BRANCH   4   6
ATOM      6  C   UNL A   1      42.046  26.508  27.360  1.00  0.00     0.060 A 
ATOM      7  C   UNL A   1      42.652  27.725  27.662  1.00  0.00     0.016 A 
ATOM      8  C   UNL A   1      41.033  26.040  28.202  1.00  0.00     0.016 A 
ATOM      9  C   UNL A   1      42.392  28.401  28.829  1.00  0.00     0.010 A 
ATOM     10  C   UNL A   1      40.675  26.778  29.334  1.00  0.00     0.010 A 
ATOM     11  C   UNL A   1      41.368  27.955  29.648  1.00  0.00    -0.014 A 
BRANCH  11  12
ATOM     12  C   UNL A   1      41.075  28.780  30.825  1.00  0.00     0.031 A 
ATOM     13  C   UNL A   1      39.901  29.697  30.779  1.00  0.00     0.074 A 
ATOM     14  C   UNL A   1      41.787  28.564  31.949  1.00  0.00     0.049 A 
ATOM     15  N   UNL A   1      39.519  30.576  31.660  1.00  0.00    -0.248 NA
ATOM     16  C   UNL A   1      39.031  29.607  29.592  1.00  0.00     0.031 C 
ATOM     17  C   UNL A   1      42.854  27.563  32.093  1.00  0.00     0.029 A 
ATOM     18  N   UNL A   1      41.707  29.136  33.186  1.00  0.00    -0.354 N 
ATOM     19  C   UNL A   1      38.404  31.191  31.109  1.00  0.00     0.074 A 
ATOM     20  C   UNL A   1      38.144  30.561  29.835  1.00  0.00     0.031 C 
ATOM     21  C   UNL A   1      43.311  27.582  33.353  1.00  0.00     0.029 A 
ATOM     22  C   UNL A   1      42.648  28.661  34.069  1.00  0.00     0.049 A 
ATOM     23  H   UNL A   1      41.041  29.822  33.422  1.00  0.00     0.167 HD
ATOM     24  C   UNL A   1      37.694  32.215  31.630  1.00  0.00     0.037 A 
ATOM     25  C   UNL A   1      42.981  29.108  35.293  1.00  0.00     0.037 A 
ATOM     26  C   UNL A   1      37.989  32.787  32.915  1.00  0.00     0.049 A 
ATOM     27  C   UNL A   1      42.230  30.302  35.811  1.00  0.00     0.074 A 
ATOM     28  C   UNL A   1      37.375  33.849  33.549  1.00  0.00     0.029 A 
ATOM     29  N   UNL A   1      38.996  32.335  33.760  1.00  0.00    -0.354 N 
ATOM     30  N   UNL A   1      41.217  30.933  35.261  1.00  0.00    -0.248 NA
ATOM     31  C   UNL A   1      42.682  30.874  37.083  1.00  0.00     0.031 C 
ATOM     32  C   UNL A   1      38.042  34.066  34.760  1.00  0.00     0.029 A 
ATOM     33  C   UNL A   1      39.045  33.116  34.897  1.00  0.00     0.049 A 
ATOM     34  H   UNL A   1      39.587  31.569  33.574  1.00  0.00     0.167 HD
ATOM     35  C   UNL A   1      40.917  31.984  36.114  1.00  0.00     0.074 A 
ATOM     36  C   UNL A   1      41.835  31.883  37.233  1.00  0.00     0.031 C 
ATOM     37  C   UNL A   1      39.982  32.958  35.984  1.00  0.00     0.037 A 
BRANCH  24  38
ATOM     38  C   UNL A   1      36.624  32.823  30.776  1.00  0.00     0.058 A 
ATOM     39  C   UNL A   1      35.265  32.523  30.942  1.00  0.00     0.135 A 
ATOM     40  C   UNL A   1      36.977  33.724  29.758  1.00  0.00     0.135 A 
ATOM     41  F   UNL A   1      34.877  31.639  31.875  1.00  0.00    -0.206 F 
ATOM     42  C   UNL A   1      34.292  33.090  30.124  1.00  0.00     0.059 A 
ATOM     43  C   UNL A   1      36.021  34.317  28.940  1.00  0.00     0.059 A 
ATOM     44  F   UNL A   1      38.268  34.026  29.542  1.00  0.00    -0.206 F 
ATOM     45  C   UNL A   1      34.681  33.986  29.125  1.00  0.00     0.060 A 
BRANCH  45  46
ATOM     46  S   UNL A   1      33.410  34.720  28.073  1.00  0.00     0.124 S 
ATOM     47  O   UNL A   1      34.216  35.300  27.002  1.00  0.00    -0.237 OA
ATOM     48  O   UNL A   1      32.605  33.560  27.701  1.00  0.00    -0.237 OA
ATOM     49  O   UNL A   1      32.751  35.680  28.952  1.00  0.00    -0.744 OA
ENDBRANCH  45  46
ENDBRANCH  24  38
BRANCH  25  50
ATOM     50  C   UNL A   1      44.132  28.517  36.029  1.00  0.00     0.058 A 
ATOM     51  C   UNL A   1      43.958  27.489  36.966  1.00  0.00     0.135 A 
ATOM     52  C   UNL A   1      45.442  28.982  35.813  1.00  0.00     0.135 A 
ATOM     53  F   UNL A   1      42.730  27.011  37.216  1.00  0.00    -0.206 F 
ATOM     54  C   UNL A   1      45.032  26.960  37.677  1.00  0.00     0.059 A 
ATOM     55  C   UNL A   1      46.535  28.449  36.488  1.00  0.00     0.059 A 
ATOM     56  F   UNL A   1      45.673  29.958  34.921  1.00  0.00    -0.206 F 
ATOM     57  C   UNL A   1      46.318  27.450  37.433  1.00  0.00     0.060 A 
BRANCH  57  58
ATOM     58  S   UNL A   1      47.710  26.760  38.354  1.00  0.00     0.124 S 
ATOM     59  O   UNL A   1      47.154  26.672  39.700  1.00  0.00    -0.237 OA
ATOM     60  O   UNL A   1      47.935  25.489  37.672  1.00  0.00    -0.237 OA
ATOM     61  O   UNL A   1      48.761  27.756  38.168  1.00  0.00    -0.744 OA
ENDBRANCH  57  58
ENDBRANCH  25  50
BRANCH  37  62
ATOM     62  C   UNL A   1      39.917  33.977  37.079  1.00  0.00     0.058 A 
ATOM     63  C   UNL A   1      40.504  35.241  36.925  1.00  0.00     0.135 A 
ATOM     64  C   UNL A   1      39.183  33.717  38.245  1.00  0.00     0.135 A 
ATOM     65  F   UNL A   1      41.225  35.524  35.829  1.00  0.00    -0.206 F 
ATOM     66  C   UNL A   1      40.363  36.220  37.898  1.00  0.00     0.059 A 
ATOM     67  C   UNL A   1      39.010  34.690  39.220  1.00  0.00     0.059 A 
ATOM     68  F   UNL A   1      38.600  32.521  38.425  1.00  0.00    -0.206 F 
ATOM     69  C   UNL A   1      39.606  35.938  39.037  1.00  0.00     0.060 A 
BRANCH  69  70
ATOM     70  S   UNL A   1      39.361  37.246  40.254  1.00  0.00     0.124 S 
ATOM     71  O   UNL A   1      38.623  36.542  41.296  1.00  0.00    -0.237 OA
ATOM     72  O   UNL A   1      40.731  37.623  40.590  1.00  0.00    -0.237 OA
ATOM     73  O   UNL A   1      38.604  38.254  39.519  1.00  0.00    -0.744 OA
ENDBRANCH  69  70
ENDBRANCH  37  62
ENDBRANCH  11  12
ENDBRANCH   4   6
ENDBRANCH   3   4
ENDBRANCH   2   3
ENDBRANCH   1   2
BRANCH   1  74
ATOM     74  O   UNL A   1      42.014  21.840  26.601  1.00  0.00    -0.374 OA
BRANCH  74  75
ATOM     75  C   UNL A   1      40.742  21.316  26.205  1.00  0.00     0.202 C 
BRANCH  75  76
ATOM     76  C   UNL A   1      39.628  22.273  26.637  1.00  0.00     0.261 C 
BRANCH  76  77
ATOM     77  O   UNL A   1      38.477  21.955  25.846  1.00  0.00    -0.459 OA
BRANCH  77  78
ATOM     78  C   UNL A   1      37.572  22.974  25.734  1.00  0.00     0.365 C 
ATOM     79  O   UNL A   1      37.765  24.122  26.082  1.00  0.00    -0.245 OA
BRANCH  78  80
ATOM     80  C   UNL A   1      36.300  22.427  25.091  1.00  0.00     0.298 C 
ATOM     81  C   UNL A   1      36.157  20.950  25.479  1.00  0.00     0.115 C 
ATOM     82  N   UNL A   1      35.101  23.165  25.575  1.00  0.00    -0.323 N 
ATOM     83  C   UNL A   1      34.872  20.466  24.919  1.00  0.00    -0.006 A 
ATOM     84  C   UNL A   1      33.837  22.829  24.919  1.00  0.00     0.264 C 
ATOM     85  H   UNL A   1      35.270  24.161  25.436  1.00  0.00     0.347 HD
ATOM     86  H   UNL A   1      34.985  22.896  26.552  1.00  0.00     0.347 HD
ATOM     87  C   UNL A   1      33.831  21.341  24.651  1.00  0.00     0.083 A 
ATOM     88  C   UNL A   1      34.490  19.166  24.537  1.00  0.00     0.003 A 
ATOM     89  N   UNL A   1      32.796  20.582  24.168  1.00  0.00    -0.353 N 
ATOM     90  C   UNL A   1      33.196  19.265  24.031  1.00  0.00     0.046 A 
ATOM     91  C   UNL A   1      35.139  17.919  24.557  1.00  0.00     0.010 A 
ATOM     92  H   UNL A   1      31.899  20.925  23.952  1.00  0.00     0.166 HD
ATOM     93  C   UNL A   1      32.523  18.157  23.505  1.00  0.00     0.026 A 
ATOM     94  C   UNL A   1      34.484  16.807  24.029  1.00  0.00     0.001 A 
ATOM     95  C   UNL A   1      33.198  16.929  23.504  1.00  0.00     0.002 A 
BRANCH  84  96
ATOM     96  C   UNL A   1      33.544  23.742  23.729  1.00  0.00     0.041 A 
ATOM     97  C   UNL A   1      33.020  23.288  22.523  1.00  0.00     0.093 A 
ATOM     98  C   UNL A   1      33.576  25.199  23.596  1.00  0.00     0.009 A 
ATOM     99  N   UNL A   1      32.853  24.341  21.671  1.00  0.00    -0.361 N 
ATOM    100  C   UNL A   1      33.182  25.516  22.292  1.00  0.00     0.046 A 
ATOM    101  C   UNL A   1      33.876  26.306  24.430  1.00  0.00     0.011 A 
ATOM    102  H   UNL A   1      32.539  24.266  20.740  1.00  0.00     0.166 HD
ATOM    103  C   UNL A   1      33.136  26.826  21.789  1.00  0.00     0.026 A 
ATOM    104  C   UNL A   1      33.830  27.621  23.954  1.00  0.00     0.001 A 
ATOM    105  C   UNL A   1      33.476  27.876  22.642  1.00  0.00     0.002 A 
ENDBRANCH  84  96
ENDBRANCH  78  80
ENDBRANCH  77  78
ENDBRANCH  76  77
ENDBRANCH  75  76
ENDBRANCH  74  75
ENDBRANCH   1  74
TORSDOF 18
ENDMDL
MODEL 2
REMARK VINA RESULT:     -12.6      0.711      8.045
REMARK SMILES O=C(OCCOCCOC(=O)[C@H]1Cc2c([nH]c3ccccc23)[C@H](c2c[nH]c3ccccc23)[NH2+]1)c1ccc(-c2c3nc(c(-c4c(F)cc(S(=O)(=O)[O-])cc4F)c4ccc([nH]4)c(-c4c(F)cc(S(=O)(=O)[O-])cc4F)c4nc(c(-c5c(F)cc(S(=O)(=O)[O-])cc5F)c5ccc2[nH]5)C=C4)C=C3)cc1
REMARK SMILES IDX 5 1 4 2 3 3 2 4 1 5 34 6 35 7 99 8 36 9 98 10 37 11 38 12
REMARK SMILES IDX 39 13 92 14 40 15 97 16 91 17 93 18 41 19 96 20 90 21 89 22
REMARK SMILES IDX 42 24 76 25 55 26 75 27 56 28 59 29 74 30 94 31 57 32 58 33
REMARK SMILES IDX 73 35 95 36 60 37 43 38 44 39 53 40 45 41 46 42 52 43 54 44
REMARK SMILES IDX 47 45 48 46 49 47 50 48 51 49 77 50 78 51 87 52 79 53 80 54
REMARK SMILES IDX 86 55 88 56 81 57 82 58 83 59 84 60 85 61 61 62 62 63 71 64
REMARK SMILES IDX 63 65 64 66 70 67 72 68 65 69 66 70 67 71 68 72 69 73 6 74
REMARK SMILES IDX 7 75 8 76 9 77 10 78 11 79 12 80 13 81 33 82 14 83 23 84
REMARK SMILES IDX 15 87 22 88 16 89 17 90 21 91 18 93 20 94 19 95 24 96 25 97
REMARK SMILES IDX 32 98 26 99 27 100 31 101 28 103 30 104 29 105
REMARK H PARENT 93 23 59 34 33 85 33 86 16 92 26 102
REMARK Flexibility Score: inf
ROOT
ATOM      1  C   UNL A   1      42.827  21.751  25.632  1.00  0.00     0.202 C 
ENDROOT
BRANCH   1   2
ATOM      2  C   UNL A   1      42.922  23.246  25.295  1.00  0.00     0.261 C 
BRANCH   2   3
ATOM      3  O   UNL A   1      42.278  24.083  26.272  1.00  0.00    -0.460 OA
BRANCH   3   4
ATOM      4  C   UNL A   1      41.986  25.400  26.100  1.00  0.00     0.338 C 
ATOM      5  O   UNL A   1      41.931  25.878  24.973  1.00  0.00    -0.246 OA
BRANCH   4   6
ATOM      6  C   UNL A   1      41.751  26.273  27.280  1.00  0.00     0.060 A 
ATOM      7  C   UNL A   1      42.345  27.527  27.398  1.00  0.00     0.016 A 
ATOM      8  C   UNL A   1      40.862  25.859  28.276  1.00  0.00     0.016 A 
ATOM      9  C   UNL A   1      42.201  28.301  28.522  1.00  0.00     0.010 A 
ATOM     10  C   UNL A   1      40.615  26.689  29.374  1.00  0.00     0.010 A 
ATOM     11  C   UNL A   1      41.298  27.907  29.495  1.00  0.00    -0.014 A 
BRANCH  11  12
ATOM     12  C   UNL A   1      41.116  28.829  30.622  1.00  0.00     0.031 A 
ATOM     13  C   UNL A   1      42.082  28.771  31.755  1.00  0.00     0.074 A 
ATOM     14  C   UNL A   1      40.175  29.789  30.516  1.00  0.00     0.049 A 
ATOM     15  N   UNL A   1      42.054  29.419  32.884  1.00  0.00    -0.248 NA
ATOM     16  C   UNL A   1      43.241  27.874  31.596  1.00  0.00     0.031 C 
ATOM     17  C   UNL A   1      39.299  29.986  29.352  1.00  0.00     0.029 A 
ATOM     18  N   UNL A   1      39.818  30.795  31.368  1.00  0.00    -0.354 N 
ATOM     19  C   UNL A   1      43.153  28.964  33.598  1.00  0.00     0.074 A 
ATOM     20  C   UNL A   1      43.852  28.013  32.765  1.00  0.00     0.031 C 
ATOM     21  C   UNL A   1      38.522  31.060  29.560  1.00  0.00     0.029 A 
ATOM     22  C   UNL A   1      38.771  31.556  30.905  1.00  0.00     0.049 A 
ATOM     23  H   UNL A   1      40.267  30.958  32.229  1.00  0.00     0.167 HD
ATOM     24  C   UNL A   1      43.508  29.305  34.856  1.00  0.00     0.037 A 
ATOM     25  C   UNL A   1      38.048  32.498  31.537  1.00  0.00     0.037 A 
ATOM     26  C   UNL A   1      42.783  30.275  35.630  1.00  0.00     0.049 A 
ATOM     27  C   UNL A   1      38.413  32.795  32.964  1.00  0.00     0.074 A 
ATOM     28  C   UNL A   1      43.011  30.690  36.926  1.00  0.00     0.029 A 
ATOM     29  N   UNL A   1      41.680  30.980  35.164  1.00  0.00    -0.354 N 
ATOM     30  N   UNL A   1      39.413  32.314  33.670  1.00  0.00    -0.248 NA
ATOM     31  C   UNL A   1      37.543  33.719  33.697  1.00  0.00     0.031 C 
ATOM     32  C   UNL A   1      42.015  31.615  37.260  1.00  0.00     0.029 A 
ATOM     33  C   UNL A   1      41.191  31.805  36.158  1.00  0.00     0.049 A 
ATOM     34  H   UNL A   1      41.302  30.903  34.257  1.00  0.00     0.167 HD
ATOM     35  C   UNL A   1      39.286  32.869  34.934  1.00  0.00     0.074 A 
ATOM     36  C   UNL A   1      38.132  33.748  34.885  1.00  0.00     0.031 C 
ATOM     37  C   UNL A   1      40.038  32.665  36.044  1.00  0.00     0.037 A 
BRANCH  24  38
ATOM     38  C   UNL A   1      44.647  28.559  35.481  1.00  0.00     0.058 A 
ATOM     39  C   UNL A   1      44.460  27.405  36.254  1.00  0.00     0.135 A 
ATOM     40  C   UNL A   1      45.961  29.023  35.303  1.00  0.00     0.135 A 
ATOM     41  F   UNL A   1      43.222  26.941  36.486  1.00  0.00    -0.206 F 
ATOM     42  C   UNL A   1      45.535  26.739  36.836  1.00  0.00     0.059 A 
ATOM     43  C   UNL A   1      47.053  28.365  35.860  1.00  0.00     0.059 A 
ATOM     44  F   UNL A   1      46.192  30.138  34.590  1.00  0.00    -0.206 F 
ATOM     45  C   UNL A   1      46.828  27.228  36.633  1.00  0.00     0.060 A 
BRANCH  45  46
ATOM     46  S   UNL A   1      48.216  26.354  37.389  1.00  0.00     0.124 S 
ATOM     47  O   UNL A   1      48.085  25.028  36.792  1.00  0.00    -0.237 OA
ATOM     48  O   UNL A   1      49.361  27.140  36.941  1.00  0.00    -0.237 OA
ATOM     49  O   UNL A   1      47.929  26.429  38.818  1.00  0.00    -0.744 OA
ENDBRANCH  45  46
ENDBRANCH  24  38
BRANCH  25  50
ATOM     50  C   UNL A   1      36.861  33.110  30.881  1.00  0.00     0.058 A 
ATOM     51  C   UNL A   1      36.993  34.080  29.877  1.00  0.00     0.135 A 
ATOM     52  C   UNL A   1      35.557  32.740  31.257  1.00  0.00     0.135 A 
ATOM     53  F   UNL A   1      38.213  34.475  29.483  1.00  0.00    -0.206 F 
ATOM     54  C   UNL A   1      35.881  34.676  29.287  1.00  0.00     0.059 A 
ATOM     55  C   UNL A   1      34.431  33.298  30.660  1.00  0.00     0.059 A 
ATOM     56  F   UNL A   1      35.366  31.809  32.205  1.00  0.00    -0.206 F 
ATOM     57  C   UNL A   1      34.602  34.280  29.688  1.00  0.00     0.060 A 
BRANCH  57  58
ATOM     58  S   UNL A   1      33.163  35.051  28.919  1.00  0.00     0.124 S 
ATOM     59  O   UNL A   1      32.770  34.034  27.949  1.00  0.00    -0.237 OA
ATOM     60  O   UNL A   1      32.263  35.233  30.053  1.00  0.00    -0.237 OA
ATOM     61  O   UNL A   1      33.704  36.284  28.355  1.00  0.00    -0.744 OA
ENDBRANCH  57  58
ENDBRANCH  25  50
BRANCH  37  62
ATOM     62  C   UNL A   1      39.629  33.405  37.278  1.00  0.00     0.058 A 
ATOM     63  C   UNL A   1      38.682  32.868  38.162  1.00  0.00     0.135 A 
ATOM     64  C   UNL A   1      40.257  34.610  37.622  1.00  0.00     0.135 A 
ATOM     65  F   UNL A   1      38.050  31.722  37.862  1.00  0.00    -0.206 F 
ATOM     66  C   UNL A   1      38.372  33.505  39.355  1.00  0.00     0.059 A 
ATOM     67  C   UNL A   1      39.978  35.253  38.821  1.00  0.00     0.059 A 
ATOM     68  F   UNL A   1      41.175  35.153  36.806  1.00  0.00    -0.206 F 
ATOM     69  C   UNL A   1      39.032  34.692  39.680  1.00  0.00     0.060 A 
BRANCH  69  70
ATOM     70  S   UNL A   1      38.681  35.466  41.271  1.00  0.00     0.124 S 
ATOM     71  O   UNL A   1      39.757  34.934  42.099  1.00  0.00    -0.237 OA
ATOM     72  O   UNL A   1      38.767  36.888  40.953  1.00  0.00    -0.237 OA
ATOM     73  O   UNL A   1      37.341  34.983  41.592  1.00  0.00    -0.744 OA
ENDBRANCH  69  70
ENDBRANCH  37  62
ENDBRANCH  11  12
ENDBRANCH   4   6
ENDBRANCH   3   4
ENDBRANCH   2   3
ENDBRANCH   1   2
BRANCH   1  74
ATOM     74  O   UNL A   1      41.991  21.309  26.705  1.00  0.00    -0.374 OA
BRANCH  74  75
ATOM     75  C   UNL A   1      40.669  20.863  26.385  1.00  0.00     0.202 C 
BRANCH  75  76
ATOM     76  C   UNL A   1      39.664  21.989  26.638  1.00  0.00     0.261 C 
BRANCH  76  77
ATOM     77  O   UNL A   1      38.612  21.831  25.679  1.00  0.00    -0.459 OA
BRANCH  77  78
ATOM     78  C   UNL A   1      37.700  22.851  25.671  1.00  0.00     0.365 C 
ATOM     79  O   UNL A   1      37.907  23.978  26.075  1.00  0.00    -0.245 OA
BRANCH  78  80
ATOM     80  C   UNL A   1      36.399  22.335  25.060  1.00  0.00     0.298 C 
ATOM     81  C   UNL A   1      36.232  20.861  25.448  1.00  0.00     0.115 C 
ATOM     82  N   UNL A   1      35.230  23.099  25.576  1.00  0.00    -0.323 N 
ATOM     83  C   UNL A   1      34.922  20.409  24.920  1.00  0.00    -0.006 A 
ATOM     84  C   UNL A   1      33.942  22.795  24.953  1.00  0.00     0.264 C 
ATOM     85  H   UNL A   1      35.419  24.092  25.435  1.00  0.00     0.347 HD
ATOM     86  H   UNL A   1      35.134  22.830  26.555  1.00  0.00     0.347 HD
ATOM     87  C   UNL A   1      33.895  21.308  24.681  1.00  0.00     0.083 A 
ATOM     88  C   UNL A   1      34.500  19.119  24.546  1.00  0.00     0.003 A 
ATOM     89  N   UNL A   1      32.830  20.575  24.224  1.00  0.00    -0.353 N 
ATOM     90  C   UNL A   1      33.195  19.249  24.073  1.00  0.00     0.046 A 
ATOM     91  C   UNL A   1      35.120  17.857  24.546  1.00  0.00     0.010 A 
ATOM     92  H   UNL A   1      31.937  20.939  24.032  1.00  0.00     0.166 HD
ATOM     93  C   UNL A   1      32.483  18.158  23.563  1.00  0.00     0.026 A 
ATOM     94  C   UNL A   1      34.426  16.762  24.032  1.00  0.00     0.001 A 
ATOM     95  C   UNL A   1      33.130  16.915  23.541  1.00  0.00     0.002 A 
BRANCH  84  96
ATOM     96  C   UNL A   1      33.640  23.718  23.773  1.00  0.00     0.041 A 
ATOM     97  C   UNL A   1      33.155  23.268  22.550  1.00  0.00     0.093 A 
ATOM     98  C   UNL A   1      33.624  25.177  23.665  1.00  0.00     0.009 A 
ATOM     99  N   UNL A   1      32.967  24.329  21.713  1.00  0.00    -0.361 N 
ATOM    100  C   UNL A   1      33.243  25.503  22.359  1.00  0.00     0.046 A 
ATOM    101  C   UNL A   1      33.871  26.279  24.523  1.00  0.00     0.011 A 
ATOM    102  H   UNL A   1      32.672  24.259  20.775  1.00  0.00     0.166 HD
ATOM    103  C   UNL A   1      33.162  26.820  21.878  1.00  0.00     0.026 A 
ATOM    104  C   UNL A   1      33.788  27.600  24.068  1.00  0.00     0.001 A 
ATOM    105  C   UNL A   1      33.450  27.865  22.754  1.00  0.00     0.002 A 
ENDBRANCH  84  96
ENDBRANCH  78  80
ENDBRANCH  77  78
ENDBRANCH  76  77
ENDBRANCH  75  76
ENDBRANCH  74  75
ENDBRANCH   1  74
TORSDOF 18
ENDMDL
MODEL 3
REMARK VINA RESULT:     -12.5      6.255     12.244
REMARK SMILES O=C(OCCOCCOC(=O)[C@H]1Cc2c([nH]c3ccccc23)[C@H](c2c[nH]c3ccccc23)[NH2+]1)c1ccc(-c2c3nc(c(-c4c(F)cc(S(=O)(=O)[O-])cc4F)c4ccc([nH]4)c(-c4c(F)cc(S(=O)(=O)[O-])cc4F)c4nc(c(-c5c(F)cc(S(=O)(=O)[O-])cc5F)c5ccc2[nH]5)C=C4)C=C3)cc1
REMARK SMILES IDX 5 1 4 2 3 3 2 4 1 5 34 6 35 7 99 8 36 9 98 10 37 11 38 12
REMARK SMILES IDX 39 13 92 14 40 15 97 16 91 17 93 18 41 19 96 20 90 21 89 22
REMARK SMILES IDX 42 24 76 25 55 26 75 27 56 28 59 29 74 30 94 31 57 32 58 33
REMARK SMILES IDX 73 35 95 36 60 37 43 38 44 39 53 40 45 41 46 42 52 43 54 44
REMARK SMILES IDX 47 45 48 46 49 47 50 48 51 49 77 50 78 51 87 52 79 53 80 54
REMARK SMILES IDX 86 55 88 56 81 57 82 58 83 59 84 60 85 61 61 62 62 63 71 64
REMARK SMILES IDX 63 65 64 66 70 67 72 68 65 69 66 70 67 71 68 72 69 73 6 74
REMARK SMILES IDX 7 75 8 76 9 77 10 78 11 79 12 80 13 81 33 82 14 83 23 84
REMARK SMILES IDX 15 87 22 88 16 89 17 90 21 91 18 93 20 94 19 95 24 96 25 97
REMARK SMILES IDX 32 98 26 99 27 100 31 101 28 103 30 104 29 105
REMARK H PARENT 93 23 59 34 33 85 33 86 16 92 26 102
REMARK Flexibility Score: inf
ROOT
ATOM      1  C   UNL A   1      34.781  33.082  30.542  1.00  0.00     0.202 C 
ENDROOT
BRANCH   1   2
ATOM      2  C   UNL A   1      35.991  32.429  31.226  1.00  0.00     0.261 C 
BRANCH   2   3
ATOM      3  O   UNL A   1      36.142  31.039  30.889  1.00  0.00    -0.460 OA
BRANCH   3   4
ATOM      4  C   UNL A   1      37.032  30.189  31.467  1.00  0.00     0.338 C 
ATOM      5  O   UNL A   1      36.785  29.681  32.555  1.00  0.00    -0.246 OA
BRANCH   4   6
ATOM      6  C   UNL A   1      38.321  29.885  30.792  1.00  0.00     0.060 A 
ATOM      7  C   UNL A   1      39.382  29.284  31.466  1.00  0.00     0.016 A 
ATOM      8  C   UNL A   1      38.462  30.148  29.427  1.00  0.00     0.016 A 
ATOM      9  C   UNL A   1      40.603  29.080  30.873  1.00  0.00     0.010 A 
ATOM     10  C   UNL A   1      39.662  29.838  28.780  1.00  0.00     0.010 A 
ATOM     11  C   UNL A   1      40.735  29.312  29.514  1.00  0.00    -0.014 A 
BRANCH  11  12
ATOM     12  C   UNL A   1      42.035  28.977  28.923  1.00  0.00     0.031 A 
ATOM     13  C   UNL A   1      42.236  27.607  28.371  1.00  0.00     0.074 A 
ATOM     14  C   UNL A   1      42.939  29.964  28.768  1.00  0.00     0.049 A 
ATOM     15  N   UNL A   1      43.323  27.072  27.896  1.00  0.00    -0.248 NA
ATOM     16  C   UNL A   1      41.056  26.723  28.337  1.00  0.00     0.031 C 
ATOM     17  C   UNL A   1      42.731  31.368  29.155  1.00  0.00     0.029 A 
ATOM     18  N   UNL A   1      44.189  29.959  28.219  1.00  0.00    -0.354 N 
ATOM     19  C   UNL A   1      42.979  25.769  27.565  1.00  0.00     0.074 A 
ATOM     20  C   UNL A   1      41.574  25.602  27.856  1.00  0.00     0.031 C 
ATOM     21  C   UNL A   1      43.810  32.086  28.812  1.00  0.00     0.029 A 
ATOM     22  C   UNL A   1      44.818  31.180  28.282  1.00  0.00     0.049 A 
ATOM     23  H   UNL A   1      44.600  29.159  27.818  1.00  0.00     0.167 HD
ATOM     24  C   UNL A   1      43.796  24.804  27.089  1.00  0.00     0.037 A 
ATOM     25  C   UNL A   1      46.095  31.504  28.011  1.00  0.00     0.037 A 
ATOM     26  C   UNL A   1      45.184  25.038  26.798  1.00  0.00     0.049 A 
ATOM     27  C   UNL A   1      47.001  30.391  27.565  1.00  0.00     0.074 A 
ATOM     28  C   UNL A   1      46.134  24.145  26.345  1.00  0.00     0.029 A 
ATOM     29  N   UNL A   1      45.816  26.268  26.940  1.00  0.00    -0.354 N 
ATOM     30  N   UNL A   1      46.696  29.137  27.316  1.00  0.00    -0.248 NA
ATOM     31  C   UNL A   1      48.422  30.713  27.401  1.00  0.00     0.031 C 
ATOM     32  C   UNL A   1      47.353  24.826  26.257  1.00  0.00     0.029 A 
ATOM     33  C   UNL A   1      47.154  26.152  26.616  1.00  0.00     0.049 A 
ATOM     34  H   UNL A   1      45.375  27.100  27.229  1.00  0.00     0.167 HD
ATOM     35  C   UNL A   1      47.888  28.517  26.976  1.00  0.00     0.074 A 
ATOM     36  C   UNL A   1      48.915  29.542  27.019  1.00  0.00     0.031 C 
ATOM     37  C   UNL A   1      48.126  27.217  26.672  1.00  0.00     0.037 A 
BRANCH  24  38
ATOM     38  C   UNL A   1      43.233  23.423  26.957  1.00  0.00     0.058 A 
ATOM     39  C   UNL A   1      43.067  22.568  28.056  1.00  0.00     0.135 A 
ATOM     40  C   UNL A   1      42.858  22.943  25.691  1.00  0.00     0.135 A 
ATOM     41  F   UNL A   1      43.446  22.962  29.282  1.00  0.00    -0.206 F 
ATOM     42  C   UNL A   1      42.556  21.282  27.904  1.00  0.00     0.059 A 
ATOM     43  C   UNL A   1      42.328  21.669  25.518  1.00  0.00     0.059 A 
ATOM     44  F   UNL A   1      43.018  23.715  24.603  1.00  0.00    -0.206 F 
ATOM     45  C   UNL A   1      42.190  20.842  26.629  1.00  0.00     0.060 A 
BRANCH  45  46
ATOM     46  S   UNL A   1      41.523  19.174  26.445  1.00  0.00     0.124 S 
ATOM     47  O   UNL A   1      41.468  18.727  27.834  1.00  0.00    -0.237 OA
ATOM     48  O   UNL A   1      40.233  19.422  25.809  1.00  0.00    -0.237 OA
ATOM     49  O   UNL A   1      42.512  18.502  25.609  1.00  0.00    -0.744 OA
ENDBRANCH  45  46
ENDBRANCH  24  38
BRANCH  25  50
ATOM     50  C   UNL A   1      46.602  32.879  28.276  1.00  0.00     0.058 A 
ATOM     51  C   UNL A   1      47.114  33.246  29.528  1.00  0.00     0.135 A 
ATOM     52  C   UNL A   1      46.572  33.864  27.273  1.00  0.00     0.135 A 
ATOM     53  F   UNL A   1      47.161  32.348  30.524  1.00  0.00    -0.206 F 
ATOM     54  C   UNL A   1      47.558  34.542  29.783  1.00  0.00     0.059 A 
ATOM     55  C   UNL A   1      47.038  35.156  27.494  1.00  0.00     0.059 A 
ATOM     56  F   UNL A   1      46.102  33.569  26.051  1.00  0.00    -0.206 F 
ATOM     57  C   UNL A   1      47.512  35.491  28.760  1.00  0.00     0.060 A 
BRANCH  57  58
ATOM     58  S   UNL A   1      48.091  37.169  29.092  1.00  0.00     0.124 S 
ATOM     59  O   UNL A   1      47.167  37.961  28.288  1.00  0.00    -0.237 OA
ATOM     60  O   UNL A   1      47.930  37.273  30.539  1.00  0.00    -0.237 OA
ATOM     61  O   UNL A   1      49.474  37.145  28.624  1.00  0.00    -0.744 OA
ENDBRANCH  57  58
ENDBRANCH  25  50
BRANCH  37  62
ATOM     62  C   UNL A   1      49.544  26.847  26.367  1.00  0.00     0.058 A 
ATOM     63  C   UNL A   1      50.379  26.308  27.356  1.00  0.00     0.135 A 
ATOM     64  C   UNL A   1      50.034  26.947  25.057  1.00  0.00     0.135 A 
ATOM     65  F   UNL A   1      49.950  26.208  28.623  1.00  0.00    -0.206 F 
ATOM     66  C   UNL A   1      51.662  25.875  27.053  1.00  0.00     0.059 A 
ATOM     67  C   UNL A   1      51.307  26.498  24.728  1.00  0.00     0.059 A 
ATOM     68  F   UNL A   1      49.263  27.451  24.081  1.00  0.00    -0.206 F 
ATOM     69  C   UNL A   1      52.113  25.965  25.734  1.00  0.00     0.060 A 
BRANCH  69  70
ATOM     70  S   UNL A   1      53.751  25.323  25.338  1.00  0.00     0.124 S 
ATOM     71  O   UNL A   1      53.524  23.884  25.402  1.00  0.00    -0.237 OA
ATOM     72  O   UNL A   1      53.989  25.870  24.006  1.00  0.00    -0.237 OA
ATOM     73  O   UNL A   1      54.595  25.874  26.394  1.00  0.00    -0.744 OA
ENDBRANCH  69  70
ENDBRANCH  37  62
ENDBRANCH  11  12
ENDBRANCH   4   6
ENDBRANCH   3   4
ENDBRANCH   2   3
ENDBRANCH   1   2
BRANCH   1  74
ATOM     74  O   UNL A   1      34.930  33.709  29.265  1.00  0.00    -0.374 OA
BRANCH  74  75
ATOM     75  C   UNL A   1      34.192  33.171  28.163  1.00  0.00     0.202 C 
BRANCH  75  76
ATOM     76  C   UNL A   1      34.798  31.832  27.734  1.00  0.00     0.261 C 
BRANCH  76  77
ATOM     77  O   UNL A   1      33.718  31.020  27.261  1.00  0.00    -0.459 OA
BRANCH  77  78
ATOM     78  C   UNL A   1      34.038  29.700  27.095  1.00  0.00     0.365 C 
ATOM     79  O   UNL A   1      35.048  29.167  27.511  1.00  0.00    -0.245 OA
BRANCH  78  80
ATOM     80  C   UNL A   1      32.912  29.020  26.319  1.00  0.00     0.298 C 
ATOM     81  C   UNL A   1      32.258  30.061  25.402  1.00  0.00     0.115 C 
ATOM     82  N   UNL A   1      33.442  27.911  25.478  1.00  0.00    -0.323 N 
ATOM     83  C   UNL A   1      31.230  29.359  24.596  1.00  0.00    -0.006 A 
ATOM     84  C   UNL A   1      32.439  27.089  24.801  1.00  0.00     0.264 C 
ATOM     85  H   UNL A   1      33.992  27.298  26.080  1.00  0.00     0.347 HD
ATOM     86  H   UNL A   1      33.980  28.358  24.737  1.00  0.00     0.347 HD
ATOM     87  C   UNL A   1      31.318  27.998  24.348  1.00  0.00     0.083 A 
ATOM     88  C   UNL A   1      30.050  29.858  24.012  1.00  0.00     0.003 A 
ATOM     89  N   UNL A   1      30.240  27.672  23.568  1.00  0.00    -0.353 N 
ATOM     90  C   UNL A   1      29.420  28.774  23.403  1.00  0.00     0.046 A 
ATOM     91  C   UNL A   1      29.453  31.129  23.967  1.00  0.00     0.010 A 
ATOM     92  H   UNL A   1      30.073  26.782  23.181  1.00  0.00     0.166 HD
ATOM     93  C   UNL A   1      28.181  28.904  22.767  1.00  0.00     0.026 A 
ATOM     94  C   UNL A   1      28.213  31.272  23.344  1.00  0.00     0.001 A 
ATOM     95  C   UNL A   1      27.585  30.172  22.761  1.00  0.00     0.002 A 
BRANCH  84  96
ATOM     96  C   UNL A   1      32.040  25.867  25.627  1.00  0.00     0.041 A 
ATOM     97  C   UNL A   1      30.723  25.552  25.946  1.00  0.00     0.093 A 
ATOM     98  C   UNL A   1      32.823  24.733  26.119  1.00  0.00     0.009 A 
ATOM     99  N   UNL A   1      30.691  24.397  26.672  1.00  0.00    -0.361 N 
ATOM    100  C   UNL A   1      31.950  23.875  26.795  1.00  0.00     0.046 A 
ATOM    101  C   UNL A   1      34.176  24.311  26.063  1.00  0.00     0.011 A 
ATOM    102  H   UNL A   1      29.876  23.995  27.052  1.00  0.00     0.166 HD
ATOM    103  C   UNL A   1      32.362  22.697  27.440  1.00  0.00     0.026 A 
ATOM    104  C   UNL A   1      34.608  23.137  26.692  1.00  0.00     0.001 A 
ATOM    105  C   UNL A   1      33.710  22.347  27.385  1.00  0.00     0.002 A 
ENDBRANCH  84  96
ENDBRANCH  78  80
ENDBRANCH  77  78
ENDBRANCH  76  77
ENDBRANCH  75  76
ENDBRANCH  74  75
ENDBRANCH   1  74
TORSDOF 18
ENDMDL
