MODEL 1
REMARK VINA RESULT:      -9.3      0.000      0.000
REMARK SMILES CC[C@@H]1CCCN1C(=O)N(CC(=O)OCCOCCOC(=O)c1ccc(-c2c3nc(c(-c4c(F)cc(S(=O)(=O)[O-])cc4F)c4ccc([nH]4)c(-c4c(F)cc(S(=O)(=O)[O-])cc4F)c4nc(c(-c5c(F)cc(S(=O)(=O)[O-])cc5F)c5ccc2[nH]5)C=C4)C=C3)cc1)CC(F)(F)F
REMARK SMILES IDX 16 1 15 2 14 3 12 4 13 5 11 6 10 7 8 8 9 9 7 10 3 11 4 12
REMARK SMILES IDX 5 13 6 14 2 15 1 16 89 17 90 18 91 19 92 20 93 21 17 22
REMARK SMILES IDX 18 23 19 24 20 25 21 26 22 27 23 28 24 29 88 30 25 31 87 32
REMARK SMILES IDX 26 33 27 34 28 35 81 36 29 37 86 38 80 39 82 40 30 41 85 42
REMARK SMILES IDX 79 43 78 44 31 46 65 47 44 48 64 49 45 50 48 51 63 52 83 53
REMARK SMILES IDX 46 54 47 55 62 57 84 58 49 59 32 60 33 61 42 62 34 63 35 64
REMARK SMILES IDX 41 65 43 66 36 67 37 68 38 69 39 70 40 71 66 72 67 73 76 74
REMARK SMILES IDX 68 75 69 76 75 77 77 78 70 79 71 80 72 81 73 82 74 83 50 84
REMARK SMILES IDX 51 85 60 86 52 87 53 88 59 89 61 90 54 91 55 92 56 93 57 94
REMARK SMILES IDX 58 95
REMARK H PARENT 82 45 48 56
REMARK Flexibility Score: inf
ROOT
ATOM      1  C   UNL A   1      31.389  28.914  24.112  1.00  0.00     0.202 C 
ENDROOT
BRANCH   1   2
ATOM      2  C   UNL A   1      30.845  27.492  24.319  1.00  0.00     0.261 C 
BRANCH   2   3
ATOM      3  O   UNL A   1      31.355  26.796  25.471  1.00  0.00    -0.462 OA
BRANCH   3   4
ATOM      4  C   UNL A   1      32.336  25.896  25.197  1.00  0.00     0.325 C 
ATOM      5  O   UNL A   1      32.769  25.659  24.070  1.00  0.00    -0.250 OA
BRANCH   4   6
ATOM      6  C   UNL A   1      32.967  25.255  26.433  1.00  0.00     0.244 C 
BRANCH   6   7
ATOM      7  N   UNL A   1      33.095  23.817  26.559  1.00  0.00    -0.304 N 
BRANCH   7   8
ATOM      8  C   UNL A   1      34.225  23.051  26.574  1.00  0.00     0.321 C 
ATOM      9  O   UNL A   1      34.336  22.280  27.540  1.00  0.00    -0.248 OA
BRANCH   8  10
ATOM     10  N   UNL A   1      35.221  23.039  25.626  1.00  0.00    -0.322 N 
ATOM     11  C   UNL A   1      36.712  23.010  25.503  1.00  0.00     0.086 C 
ATOM     12  C   UNL A   1      36.914  23.413  24.026  1.00  0.00     0.027 C 
ATOM     13  C   UNL A   1      35.832  22.655  23.308  1.00  0.00     0.024 C 
ATOM     14  C   UNL A   1      34.679  22.716  24.288  1.00  0.00     0.122 C 
BRANCH  11  15
ATOM     15  C   UNL A   1      37.677  23.879  26.310  1.00  0.00     0.022 C 
ATOM     16  C   UNL A   1      39.040  23.211  26.518  1.00  0.00     0.006 C 
ENDBRANCH  11  15
ENDBRANCH   8  10
ENDBRANCH   7   8
BRANCH   7  17
ATOM     17  C   UNL A   1      31.831  23.113  26.923  1.00  0.00     0.237 C 
BRANCH  17  18
ATOM     18  C   UNL A   1      31.015  22.402  25.826  1.00  0.00     0.406 C 
ATOM     19  F   UNL A   1      31.540  21.216  25.455  1.00  0.00    -0.169 F 
ATOM     20  F   UNL A   1      29.776  22.120  26.321  1.00  0.00    -0.169 F 
ATOM     21  F   UNL A   1      30.829  23.166  24.732  1.00  0.00    -0.169 F 
ENDBRANCH  17  18
ENDBRANCH   7  17
ENDBRANCH   6   7
ENDBRANCH   4   6
ENDBRANCH   3   4
ENDBRANCH   2   3
ENDBRANCH   1   2
BRANCH   1  22
ATOM     22  O   UNL A   1      30.930  29.953  24.969  1.00  0.00    -0.374 OA
BRANCH  22  23
ATOM     23  C   UNL A   1      31.880  30.667  25.754  1.00  0.00     0.202 C 
BRANCH  23  24
ATOM     24  C   UNL A   1      33.085  29.915  26.329  1.00  0.00     0.261 C 
BRANCH  24  25
ATOM     25  O   UNL A   1      33.459  30.364  27.643  1.00  0.00    -0.460 OA
BRANCH  25  26
ATOM     26  C   UNL A   1      34.575  31.135  27.664  1.00  0.00     0.338 C 
ATOM     27  O   UNL A   1      34.622  32.357  27.567  1.00  0.00    -0.246 OA
BRANCH  26  28
ATOM     28  C   UNL A   1      35.768  30.347  28.019  1.00  0.00     0.060 A 
ATOM     29  C   UNL A   1      35.781  29.729  29.277  1.00  0.00     0.016 A 
ATOM     30  C   UNL A   1      36.908  30.343  27.216  1.00  0.00     0.016 A 
ATOM     31  C   UNL A   1      36.956  29.157  29.760  1.00  0.00     0.010 A 
ATOM     32  C   UNL A   1      38.088  29.765  27.702  1.00  0.00     0.010 A 
ATOM     33  C   UNL A   1      38.129  29.216  28.995  1.00  0.00    -0.014 A 
BRANCH  33  34
ATOM     34  C   UNL A   1      39.422  28.867  29.636  1.00  0.00     0.031 A 
ATOM     35  C   UNL A   1      39.833  29.594  30.890  1.00  0.00     0.074 A 
ATOM     36  C   UNL A   1      40.186  27.873  29.152  1.00  0.00     0.049 A 
ATOM     37  N   UNL A   1      40.890  29.424  31.641  1.00  0.00    -0.248 NA
ATOM     38  C   UNL A   1      38.923  30.650  31.364  1.00  0.00     0.031 C 
ATOM     39  C   UNL A   1      39.876  27.066  27.973  1.00  0.00     0.029 A 
ATOM     40  N   UNL A   1      41.379  27.364  29.605  1.00  0.00    -0.354 N 
ATOM     41  C   UNL A   1      40.772  30.344  32.676  1.00  0.00     0.074 A 
ATOM     42  C   UNL A   1      39.560  31.096  32.437  1.00  0.00     0.031 C 
ATOM     43  C   UNL A   1      40.853  26.159  27.797  1.00  0.00     0.029 A 
ATOM     44  C   UNL A   1      41.867  26.336  28.835  1.00  0.00     0.049 A 
ATOM     45  H   UNL A   1      41.841  27.704  30.404  1.00  0.00     0.167 HD
ATOM     46  C   UNL A   1      41.590  30.536  33.738  1.00  0.00     0.037 A 
ATOM     47  C   UNL A   1      43.006  25.625  28.951  1.00  0.00     0.037 A 
ATOM     48  C   UNL A   1      42.802  29.795  33.970  1.00  0.00     0.049 A 
ATOM     49  C   UNL A   1      43.943  25.910  30.097  1.00  0.00     0.074 A 
ATOM     50  C   UNL A   1      43.700  29.914  35.016  1.00  0.00     0.029 A 
ATOM     51  N   UNL A   1      43.290  28.798  33.137  1.00  0.00    -0.354 N 
ATOM     52  N   UNL A   1      43.809  26.771  31.077  1.00  0.00    -0.248 NA
ATOM     53  C   UNL A   1      45.184  25.123  30.152  1.00  0.00     0.031 C 
ATOM     54  C   UNL A   1      44.753  29.019  34.793  1.00  0.00     0.029 A 
ATOM     55  C   UNL A   1      44.487  28.310  33.633  1.00  0.00     0.049 A 
ATOM     56  H   UNL A   1      42.850  28.485  32.314  1.00  0.00     0.167 HD
ATOM     57  C   UNL A   1      44.934  26.611  31.880  1.00  0.00     0.074 A 
ATOM     58  C   UNL A   1      45.735  25.566  31.273  1.00  0.00     0.031 C 
ATOM     59  C   UNL A   1      45.271  27.266  33.019  1.00  0.00     0.037 A 
BRANCH  46  60
ATOM     60  C   UNL A   1      41.206  31.612  34.716  1.00  0.00     0.058 A 
ATOM     61  C   UNL A   1      41.668  32.931  34.578  1.00  0.00     0.135 A 
ATOM     62  C   UNL A   1      40.367  31.322  35.804  1.00  0.00     0.135 A 
ATOM     63  F   UNL A   1      42.486  33.258  33.566  1.00  0.00    -0.206 F 
ATOM     64  C   UNL A   1      41.341  33.916  35.505  1.00  0.00     0.059 A 
ATOM     65  C   UNL A   1      40.007  32.298  36.729  1.00  0.00     0.059 A 
ATOM     66  F   UNL A   1      39.897  30.078  35.983  1.00  0.00    -0.206 F 
ATOM     67  C   UNL A   1      40.515  33.588  36.581  1.00  0.00     0.060 A 
BRANCH  67  68
ATOM     68  S   UNL A   1      40.115  34.870  37.788  1.00  0.00     0.124 S 
ATOM     69  O   UNL A   1      40.908  34.444  38.937  1.00  0.00    -0.237 OA
ATOM     70  O   UNL A   1      40.572  36.085  37.120  1.00  0.00    -0.237 OA
ATOM     71  O   UNL A   1      38.669  34.751  37.945  1.00  0.00    -0.744 OA
ENDBRANCH  67  68
ENDBRANCH  46  60
BRANCH  47  72
ATOM     72  C   UNL A   1      43.320  24.566  27.956  1.00  0.00     0.058 A 
ATOM     73  C   UNL A   1      44.123  24.839  26.838  1.00  0.00     0.135 A 
ATOM     74  C   UNL A   1      42.837  23.258  28.110  1.00  0.00     0.135 A 
ATOM     75  F   UNL A   1      44.598  26.079  26.641  1.00  0.00    -0.206 F 
ATOM     76  C   UNL A   1      44.433  23.855  25.907  1.00  0.00     0.059 A 
ATOM     77  C   UNL A   1      43.151  22.251  27.204  1.00  0.00     0.059 A 
ATOM     78  F   UNL A   1      42.071  22.944  29.167  1.00  0.00    -0.206 F 
ATOM     79  C   UNL A   1      43.946  22.561  26.101  1.00  0.00     0.060 A 
BRANCH  79  80
ATOM     80  S   UNL A   1      44.408  21.272  24.922  1.00  0.00     0.124 S 
ATOM     81  O   UNL A   1      44.388  22.005  23.662  1.00  0.00    -0.237 OA
ATOM     82  O   UNL A   1      45.724  20.870  25.407  1.00  0.00    -0.237 OA
ATOM     83  O   UNL A   1      43.356  20.273  25.090  1.00  0.00    -0.744 OA
ENDBRANCH  79  80
ENDBRANCH  47  72
BRANCH  59  84
ATOM     84  C   UNL A   1      46.545  26.855  33.705  1.00  0.00     0.058 A 
ATOM     85  C   UNL A   1      47.767  27.488  33.431  1.00  0.00     0.135 A 
ATOM     86  C   UNL A   1      46.530  25.855  34.691  1.00  0.00     0.135 A 
ATOM     87  F   UNL A   1      47.837  28.446  32.494  1.00  0.00    -0.206 F 
ATOM     88  C   UNL A   1      48.936  27.128  34.096  1.00  0.00     0.059 A 
ATOM     89  C   UNL A   1      47.682  25.496  35.385  1.00  0.00     0.059 A 
ATOM     90  F   UNL A   1      45.384  25.225  34.999  1.00  0.00    -0.206 F 
ATOM     91  C   UNL A   1      48.883  26.131  35.072  1.00  0.00     0.060 A 
BRANCH  91  92
ATOM     92  S   UNL A   1      50.398  25.697  35.954  1.00  0.00     0.124 S 
ATOM     93  O   UNL A   1      51.029  27.003  36.114  1.00  0.00    -0.237 OA
ATOM     94  O   UNL A   1      49.886  25.086  37.178  1.00  0.00    -0.237 OA
ATOM     95  O   UNL A   1      51.073  24.781  35.040  1.00  0.00    -0.744 OA
ENDBRANCH  91  92
ENDBRANCH  59  84
ENDBRANCH  33  34
ENDBRANCH  26  28
ENDBRANCH  25  26
ENDBRANCH  24  25
ENDBRANCH  23  24
ENDBRANCH  22  23
ENDBRANCH   1  22
TORSDOF 23
ENDMDL
MODEL 2
REMARK VINA RESULT:      -9.2      3.466      9.395
REMARK SMILES CC[C@@H]1CCCN1C(=O)N(CC(=O)OCCOCCOC(=O)c1ccc(-c2c3nc(c(-c4c(F)cc(S(=O)(=O)[O-])cc4F)c4ccc([nH]4)c(-c4c(F)cc(S(=O)(=O)[O-])cc4F)c4nc(c(-c5c(F)cc(S(=O)(=O)[O-])cc5F)c5ccc2[nH]5)C=C4)C=C3)cc1)CC(F)(F)F
REMARK SMILES IDX 16 1 15 2 14 3 12 4 13 5 11 6 10 7 8 8 9 9 7 10 3 11 4 12
REMARK SMILES IDX 5 13 6 14 2 15 1 16 89 17 90 18 91 19 92 20 93 21 17 22
REMARK SMILES IDX 18 23 19 24 20 25 21 26 22 27 23 28 24 29 88 30 25 31 87 32
REMARK SMILES IDX 26 33 27 34 28 35 81 36 29 37 86 38 80 39 82 40 30 41 85 42
REMARK SMILES IDX 79 43 78 44 31 46 65 47 44 48 64 49 45 50 48 51 63 52 83 53
REMARK SMILES IDX 46 54 47 55 62 57 84 58 49 59 32 60 33 61 42 62 34 63 35 64
REMARK SMILES IDX 41 65 43 66 36 67 37 68 38 69 39 70 40 71 66 72 67 73 76 74
REMARK SMILES IDX 68 75 69 76 75 77 77 78 70 79 71 80 72 81 73 82 74 83 50 84
REMARK SMILES IDX 51 85 60 86 52 87 53 88 59 89 61 90 54 91 55 92 56 93 57 94
REMARK SMILES IDX 58 95
REMARK H PARENT 82 45 48 56
REMARK Flexibility Score: inf
ROOT
ATOM      1  C   UNL A   1      37.778  23.183  25.858  1.00  0.00     0.202 C 
ENDROOT
BRANCH   1   2
ATOM      2  C   UNL A   1      36.939  23.293  24.575  1.00  0.00     0.261 C 
BRANCH   2   3
ATOM      3  O   UNL A   1      35.540  22.991  24.723  1.00  0.00    -0.462 OA
BRANCH   3   4
ATOM      4  C   UNL A   1      34.749  24.075  24.942  1.00  0.00     0.325 C 
ATOM      5  O   UNL A   1      34.617  25.010  24.154  1.00  0.00    -0.250 OA
BRANCH   4   6
ATOM      6  C   UNL A   1      33.918  24.001  26.223  1.00  0.00     0.244 C 
BRANCH   6   7
ATOM      7  N   UNL A   1      33.032  22.885  26.488  1.00  0.00    -0.304 N 
BRANCH   7   8
ATOM      8  C   UNL A   1      33.244  21.551  26.288  1.00  0.00     0.321 C 
ATOM      9  O   UNL A   1      33.689  20.928  27.265  1.00  0.00    -0.248 OA
BRANCH   8  10
ATOM     10  N   UNL A   1      32.996  20.843  25.136  1.00  0.00    -0.322 N 
ATOM     11  C   UNL A   1      32.889  21.026  23.656  1.00  0.00     0.086 C 
ATOM     12  C   UNL A   1      32.189  19.719  23.225  1.00  0.00     0.027 C 
ATOM     13  C   UNL A   1      32.868  18.670  24.061  1.00  0.00     0.024 C 
ATOM     14  C   UNL A   1      33.087  19.385  25.377  1.00  0.00     0.122 C 
BRANCH  11  15
ATOM     15  C   UNL A   1      32.128  22.158  22.963  1.00  0.00     0.022 C 
ATOM     16  C   UNL A   1      32.994  22.924  21.959  1.00  0.00     0.006 C 
ENDBRANCH  11  15
ENDBRANCH   8  10
ENDBRANCH   7   8
BRANCH   7  17
ATOM     17  C   UNL A   1      31.809  23.236  27.267  1.00  0.00     0.237 C 
BRANCH  17  18
ATOM     18  C   UNL A   1      30.440  23.259  26.562  1.00  0.00     0.406 C 
ATOM     19  F   UNL A   1      29.400  23.330  27.419  1.00  0.00    -0.169 F 
ATOM     20  F   UNL A   1      30.365  24.385  25.796  1.00  0.00    -0.169 F 
ATOM     21  F   UNL A   1      30.258  22.214  25.732  1.00  0.00    -0.169 F 
ENDBRANCH  17  18
ENDBRANCH   7  17
ENDBRANCH   6   7
ENDBRANCH   4   6
ENDBRANCH   3   4
ENDBRANCH   2   3
ENDBRANCH   1   2
BRANCH   1  22
ATOM     22  O   UNL A   1      38.501  21.983  26.101  1.00  0.00    -0.374 OA
BRANCH  22  23
ATOM     23  C   UNL A   1      39.919  22.047  26.220  1.00  0.00     0.202 C 
BRANCH  23  24
ATOM     24  C   UNL A   1      40.545  23.149  27.082  1.00  0.00     0.261 C 
BRANCH  24  25
ATOM     25  O   UNL A   1      41.474  23.975  26.358  1.00  0.00    -0.460 OA
BRANCH  25  26
ATOM     26  C   UNL A   1      41.123  25.284  26.308  1.00  0.00     0.338 C 
ATOM     27  O   UNL A   1      40.692  25.889  25.332  1.00  0.00    -0.246 OA
BRANCH  26  28
ATOM     28  C   UNL A   1      41.134  25.898  27.647  1.00  0.00     0.060 A 
ATOM     29  C   UNL A   1      39.927  25.909  28.360  1.00  0.00     0.016 A 
ATOM     30  C   UNL A   1      42.247  26.585  28.128  1.00  0.00     0.016 A 
ATOM     31  C   UNL A   1      39.815  26.660  29.528  1.00  0.00     0.010 A 
ATOM     32  C   UNL A   1      42.134  27.337  29.304  1.00  0.00     0.010 A 
ATOM     33  C   UNL A   1      40.903  27.418  29.980  1.00  0.00    -0.014 A 
BRANCH  33  34
ATOM     34  C   UNL A   1      40.683  28.427  31.046  1.00  0.00     0.031 A 
ATOM     35  C   UNL A   1      41.560  28.395  32.271  1.00  0.00     0.074 A 
ATOM     36  C   UNL A   1      39.767  29.400  30.897  1.00  0.00     0.049 A 
ATOM     37  N   UNL A   1      41.578  29.201  33.301  1.00  0.00    -0.248 NA
ATOM     38  C   UNL A   1      42.554  27.311  32.338  1.00  0.00     0.031 C 
ATOM     39  C   UNL A   1      38.890  29.564  29.740  1.00  0.00     0.029 A 
ATOM     40  N   UNL A   1      39.433  30.443  31.725  1.00  0.00    -0.354 N 
ATOM     41  C   UNL A   1      42.585  28.728  34.135  1.00  0.00     0.074 A 
ATOM     42  C   UNL A   1      43.129  27.542  33.509  1.00  0.00     0.031 C 
ATOM     43  C   UNL A   1      38.118  30.649  29.929  1.00  0.00     0.029 A 
ATOM     44  C   UNL A   1      38.430  31.241  31.229  1.00  0.00     0.049 A 
ATOM     45  H   UNL A   1      39.869  30.604  32.592  1.00  0.00     0.167 HD
ATOM     46  C   UNL A   1      43.027  29.241  35.308  1.00  0.00     0.037 A 
ATOM     47  C   UNL A   1      37.829  32.321  31.766  1.00  0.00     0.037 A 
ATOM     48  C   UNL A   1      42.478  30.414  35.935  1.00  0.00     0.049 A 
ATOM     49  C   UNL A   1      38.283  32.828  33.111  1.00  0.00     0.074 A 
ATOM     50  C   UNL A   1      42.855  31.015  37.123  1.00  0.00     0.029 A 
ATOM     51  N   UNL A   1      41.425  31.163  35.426  1.00  0.00    -0.354 N 
ATOM     52  N   UNL A   1      39.247  32.381  33.879  1.00  0.00    -0.248 NA
ATOM     53  C   UNL A   1      37.567  33.990  33.659  1.00  0.00     0.031 C 
ATOM     54  C   UNL A   1      42.004  32.102  37.354  1.00  0.00     0.029 A 
ATOM     55  C   UNL A   1      41.126  32.206  36.287  1.00  0.00     0.049 A 
ATOM     56  H   UNL A   1      40.960  30.980  34.578  1.00  0.00     0.167 HD
ATOM     57  C   UNL A   1      39.272  33.221  34.988  1.00  0.00     0.074 A 
ATOM     58  C   UNL A   1      38.229  34.208  34.786  1.00  0.00     0.031 C 
ATOM     59  C   UNL A   1      40.088  33.183  36.071  1.00  0.00     0.037 A 
BRANCH  46  60
ATOM     60  C   UNL A   1      44.148  28.514  35.997  1.00  0.00     0.058 A 
ATOM     61  C   UNL A   1      45.491  28.866  35.790  1.00  0.00     0.135 A 
ATOM     62  C   UNL A   1      43.876  27.452  36.875  1.00  0.00     0.135 A 
ATOM     63  F   UNL A   1      45.806  29.863  34.949  1.00  0.00    -0.206 F 
ATOM     64  C   UNL A   1      46.528  28.167  36.401  1.00  0.00     0.059 A 
ATOM     65  C   UNL A   1      44.898  26.755  37.516  1.00  0.00     0.059 A 
ATOM     66  F   UNL A   1      42.610  27.074  37.109  1.00  0.00    -0.206 F 
ATOM     67  C   UNL A   1      46.221  27.109  37.257  1.00  0.00     0.060 A 
BRANCH  67  68
ATOM     68  S   UNL A   1      47.576  26.196  38.027  1.00  0.00     0.124 S 
ATOM     69  O   UNL A   1      48.736  26.951  37.561  1.00  0.00    -0.237 OA
ATOM     70  O   UNL A   1      47.271  26.320  39.449  1.00  0.00    -0.237 OA
ATOM     71  O   UNL A   1      47.439  24.853  37.474  1.00  0.00    -0.744 OA
ENDBRANCH  67  68
ENDBRANCH  46  60
BRANCH  47  72
ATOM     72  C   UNL A   1      36.734  33.001  31.026  1.00  0.00     0.058 A 
ATOM     73  C   UNL A   1      35.390  32.799  31.375  1.00  0.00     0.135 A 
ATOM     74  C   UNL A   1      37.009  33.877  29.964  1.00  0.00     0.135 A 
ATOM     75  F   UNL A   1      35.076  31.961  32.375  1.00  0.00    -0.206 F 
ATOM     76  C   UNL A   1      34.358  33.438  30.698  1.00  0.00     0.059 A 
ATOM     77  C   UNL A   1      35.996  34.544  29.286  1.00  0.00     0.059 A 
ATOM     78  F   UNL A   1      38.279  34.109  29.597  1.00  0.00    -0.206 F 
ATOM     79  C   UNL A   1      34.671  34.314  29.656  1.00  0.00     0.060 A 
BRANCH  79  80
ATOM     80  S   UNL A   1      33.328  35.191  28.825  1.00  0.00     0.124 S 
ATOM     81  O   UNL A   1      34.057  36.231  28.107  1.00  0.00    -0.237 OA
ATOM     82  O   UNL A   1      32.738  34.140  28.002  1.00  0.00    -0.237 OA
ATOM     83  O   UNL A   1      32.494  35.651  29.931  1.00  0.00    -0.744 OA
ENDBRANCH  79  80
ENDBRANCH  47  72
BRANCH  59  84
ATOM     84  C   UNL A   1      39.910  34.254  37.111  1.00  0.00     0.058 A 
ATOM     85  C   UNL A   1      40.395  35.557  36.919  1.00  0.00     0.135 A 
ATOM     86  C   UNL A   1      39.196  33.987  38.291  1.00  0.00     0.135 A 
ATOM     87  F   UNL A   1      41.090  35.863  35.812  1.00  0.00    -0.206 F 
ATOM     88  C   UNL A   1      40.197  36.554  37.870  1.00  0.00     0.059 A 
ATOM     89  C   UNL A   1      38.965  34.975  39.244  1.00  0.00     0.059 A 
ATOM     90  F   UNL A   1      38.701  32.760  38.519  1.00  0.00    -0.206 F 
ATOM     91  C   UNL A   1      39.479  36.253  39.030  1.00  0.00     0.060 A 
BRANCH  91  92
ATOM     92  S   UNL A   1      39.195  37.563  40.240  1.00  0.00     0.124 S 
ATOM     93  O   UNL A   1      38.649  36.810  41.364  1.00  0.00    -0.237 OA
ATOM     94  O   UNL A   1      40.536  38.108  40.434  1.00  0.00    -0.237 OA
ATOM     95  O   UNL A   1      38.256  38.452  39.564  1.00  0.00    -0.744 OA
ENDBRANCH  91  92
ENDBRANCH  59  84
ENDBRANCH  33  34
ENDBRANCH  26  28
ENDBRANCH  25  26
ENDBRANCH  24  25
ENDBRANCH  23  24
ENDBRANCH  22  23
ENDBRANCH   1  22
TORSDOF 23
ENDMDL
MODEL 3
REMARK VINA RESULT:      -9.1      4.398      9.812
REMARK SMILES CC[C@@H]1CCCN1C(=O)N(CC(=O)OCCOCCOC(=O)c1ccc(-c2c3nc(c(-c4c(F)cc(S(=O)(=O)[O-])cc4F)c4ccc([nH]4)c(-c4c(F)cc(S(=O)(=O)[O-])cc4F)c4nc(c(-c5c(F)cc(S(=O)(=O)[O-])cc5F)c5ccc2[nH]5)C=C4)C=C3)cc1)CC(F)(F)F
REMARK SMILES IDX 16 1 15 2 14 3 12 4 13 5 11 6 10 7 8 8 9 9 7 10 3 11 4 12
REMARK SMILES IDX 5 13 6 14 2 15 1 16 89 17 90 18 91 19 92 20 93 21 17 22
REMARK SMILES IDX 18 23 19 24 20 25 21 26 22 27 23 28 24 29 88 30 25 31 87 32
REMARK SMILES IDX 26 33 27 34 28 35 81 36 29 37 86 38 80 39 82 40 30 41 85 42
REMARK SMILES IDX 79 43 78 44 31 46 65 47 44 48 64 49 45 50 48 51 63 52 83 53
REMARK SMILES IDX 46 54 47 55 62 57 84 58 49 59 32 60 33 61 42 62 34 63 35 64
REMARK SMILES IDX 41 65 43 66 36 67 37 68 38 69 39 70 40 71 66 72 67 73 76 74
REMARK SMILES IDX 68 75 69 76 75 77 77 78 70 79 71 80 72 81 73 82 74 83 50 84
REMARK SMILES IDX 51 85 60 86 52 87 53 88 59 89 61 90 54 91 55 92 56 93 57 94
REMARK SMILES IDX 58 95
REMARK H PARENT 82 45 48 56
REMARK Flexibility Score: inf
ROOT
ATOM      1  C   UNL A   1      34.283  21.028  25.285  1.00  0.00     0.202 C 
ENDROOT
BRANCH   1   2
ATOM      2  C   UNL A   1      33.453  21.685  26.399  1.00  0.00     0.261 C 
BRANCH   2   3
ATOM      3  O   UNL A   1      32.046  21.822  26.125  1.00  0.00    -0.462 OA
BRANCH   3   4
ATOM      4  C   UNL A   1      31.526  23.037  26.442  1.00  0.00     0.325 C 
ATOM      5  O   UNL A   1      31.417  23.470  27.588  1.00  0.00    -0.250 OA
BRANCH   4   6
ATOM      6  C   UNL A   1      31.178  23.909  25.235  1.00  0.00     0.244 C 
BRANCH   6   7
ATOM      7  N   UNL A   1      31.749  25.229  25.064  1.00  0.00    -0.304 N 
BRANCH   7   8
ATOM      8  C   UNL A   1      32.970  25.582  24.565  1.00  0.00     0.321 C 
ATOM      9  O   UNL A   1      33.827  24.683  24.564  1.00  0.00    -0.248 OA
BRANCH   8  10
ATOM     10  N   UNL A   1      33.326  26.806  24.053  1.00  0.00    -0.322 N 
ATOM     11  C   UNL A   1      33.859  28.137  24.479  1.00  0.00     0.086 C 
ATOM     12  C   UNL A   1      33.560  29.009  23.241  1.00  0.00     0.027 C 
ATOM     13  C   UNL A   1      33.911  28.109  22.089  1.00  0.00     0.024 C 
ATOM     14  C   UNL A   1      33.456  26.750  22.579  1.00  0.00     0.122 C 
BRANCH  11  15
ATOM     15  C   UNL A   1      33.363  28.937  25.685  1.00  0.00     0.022 C 
ATOM     16  C   UNL A   1      34.206  28.697  26.941  1.00  0.00     0.006 C 
ENDBRANCH  11  15
ENDBRANCH   8  10
ENDBRANCH   7   8
BRANCH   7  17
ATOM     17  C   UNL A   1      30.790  26.352  25.280  1.00  0.00     0.237 C 
BRANCH  17  18
ATOM     18  C   UNL A   1      29.865  26.791  24.128  1.00  0.00     0.406 C 
ATOM     19  F   UNL A   1      29.956  28.107  23.845  1.00  0.00    -0.169 F 
ATOM     20  F   UNL A   1      30.247  26.141  22.992  1.00  0.00    -0.169 F 
ATOM     21  F   UNL A   1      28.574  26.472  24.341  1.00  0.00    -0.169 F 
ENDBRANCH  17  18
ENDBRANCH   7  17
ENDBRANCH   6   7
ENDBRANCH   4   6
ENDBRANCH   3   4
ENDBRANCH   2   3
ENDBRANCH   1   2
BRANCH   1  22
ATOM     22  O   UNL A   1      35.699  21.003  25.413  1.00  0.00    -0.374 OA
BRANCH  22  23
ATOM     23  C   UNL A   1      36.485  21.788  24.522  1.00  0.00     0.202 C 
BRANCH  23  24
ATOM     24  C   UNL A   1      37.501  22.778  25.102  1.00  0.00     0.261 C 
BRANCH  24  25
ATOM     25  O   UNL A   1      38.150  22.293  26.290  1.00  0.00    -0.460 OA
BRANCH  25  26
ATOM     26  C   UNL A   1      39.450  22.663  26.398  1.00  0.00     0.338 C 
ATOM     27  O   UNL A   1      40.426  22.024  26.020  1.00  0.00    -0.246 OA
BRANCH  26  28
ATOM     28  C   UNL A   1      39.579  24.054  26.865  1.00  0.00     0.060 A 
ATOM     29  C   UNL A   1      40.140  24.983  25.978  1.00  0.00     0.016 A 
ATOM     30  C   UNL A   1      39.308  24.411  28.186  1.00  0.00     0.016 A 
ATOM     31  C   UNL A   1      40.488  26.254  26.428  1.00  0.00     0.010 A 
ATOM     32  C   UNL A   1      39.657  25.690  28.636  1.00  0.00     0.010 A 
ATOM     33  C   UNL A   1      40.295  26.598  27.772  1.00  0.00    -0.014 A 
BRANCH  33  34
ATOM     34  C   UNL A   1      40.930  27.833  28.297  1.00  0.00     0.031 A 
ATOM     35  C   UNL A   1      42.426  27.982  28.196  1.00  0.00     0.074 A 
ATOM     36  C   UNL A   1      40.184  28.837  28.790  1.00  0.00     0.049 A 
ATOM     37  N   UNL A   1      43.186  28.988  28.543  1.00  0.00    -0.248 NA
ATOM     38  C   UNL A   1      43.160  26.844  27.618  1.00  0.00     0.031 C 
ATOM     39  C   UNL A   1      38.726  28.831  28.899  1.00  0.00     0.029 A 
ATOM     40  N   UNL A   1      40.555  30.065  29.281  1.00  0.00    -0.354 N 
ATOM     41  C   UNL A   1      44.485  28.610  28.223  1.00  0.00     0.074 A 
ATOM     42  C   UNL A   1      44.414  27.267  27.688  1.00  0.00     0.031 C 
ATOM     43  C   UNL A   1      38.324  30.003  29.421  1.00  0.00     0.029 A 
ATOM     44  C   UNL A   1      39.496  30.831  29.705  1.00  0.00     0.049 A 
ATOM     45  H   UNL A   1      41.490  30.366  29.327  1.00  0.00     0.167 HD
ATOM     46  C   UNL A   1      45.631  29.320  28.348  1.00  0.00     0.037 A 
ATOM     47  C   UNL A   1      39.476  32.057  30.263  1.00  0.00     0.037 A 
ATOM     48  C   UNL A   1      45.702  30.652  28.890  1.00  0.00     0.049 A 
ATOM     49  C   UNL A   1      40.772  32.799  30.468  1.00  0.00     0.074 A 
ATOM     50  C   UNL A   1      46.815  31.457  29.060  1.00  0.00     0.029 A 
ATOM     51  N   UNL A   1      44.613  31.373  29.359  1.00  0.00    -0.354 N 
ATOM     52  N   UNL A   1      41.990  32.436  30.144  1.00  0.00    -0.248 NA
ATOM     53  C   UNL A   1      40.689  34.118  31.111  1.00  0.00     0.031 C 
ATOM     54  C   UNL A   1      46.404  32.647  29.669  1.00  0.00     0.029 A 
ATOM     55  C   UNL A   1      45.030  32.604  29.838  1.00  0.00     0.049 A 
ATOM     56  H   UNL A   1      43.680  31.056  29.352  1.00  0.00     0.167 HD
ATOM     57  C   UNL A   1      42.815  33.491  30.520  1.00  0.00     0.074 A 
ATOM     58  C   UNL A   1      41.955  34.510  31.089  1.00  0.00     0.031 C 
ATOM     59  C   UNL A   1      44.161  33.609  30.399  1.00  0.00     0.037 A 
BRANCH  46  60
ATOM     60  C   UNL A   1      46.905  28.652  27.910  1.00  0.00     0.058 A 
ATOM     61  C   UNL A   1      47.385  28.773  26.596  1.00  0.00     0.135 A 
ATOM     62  C   UNL A   1      47.654  27.881  28.814  1.00  0.00     0.135 A 
ATOM     63  F   UNL A   1      46.699  29.484  25.689  1.00  0.00    -0.206 F 
ATOM     64  C   UNL A   1      48.545  28.124  26.184  1.00  0.00     0.059 A 
ATOM     65  C   UNL A   1      48.831  27.244  28.429  1.00  0.00     0.059 A 
ATOM     66  F   UNL A   1      47.241  27.733  30.082  1.00  0.00    -0.206 F 
ATOM     67  C   UNL A   1      49.258  27.356  27.107  1.00  0.00     0.060 A 
BRANCH  67  68
ATOM     68  S   UNL A   1      50.749  26.501  26.553  1.00  0.00     0.124 S 
ATOM     69  O   UNL A   1      51.692  27.608  26.435  1.00  0.00    -0.237 OA
ATOM     70  O   UNL A   1      51.002  25.570  27.649  1.00  0.00    -0.237 OA
ATOM     71  O   UNL A   1      50.341  25.885  25.294  1.00  0.00    -0.744 OA
ENDBRANCH  67  68
ENDBRANCH  46  60
BRANCH  47  72
ATOM     72  C   UNL A   1      38.180  32.666  30.664  1.00  0.00     0.058 A 
ATOM     73  C   UNL A   1      37.410  33.397  29.747  1.00  0.00     0.135 A 
ATOM     74  C   UNL A   1      37.680  32.517  31.966  1.00  0.00     0.135 A 
ATOM     75  F   UNL A   1      37.853  33.577  28.493  1.00  0.00    -0.206 F 
ATOM     76  C   UNL A   1      36.191  33.961  30.107  1.00  0.00     0.059 A 
ATOM     77  C   UNL A   1      36.454  33.054  32.344  1.00  0.00     0.059 A 
ATOM     78  F   UNL A   1      38.376  31.821  32.878  1.00  0.00    -0.206 F 
ATOM     79  C   UNL A   1      35.719  33.780  31.408  1.00  0.00     0.060 A 
BRANCH  79  80
ATOM     80  S   UNL A   1      34.104  34.460  31.849  1.00  0.00     0.124 S 
ATOM     81  O   UNL A   1      33.613  33.464  32.794  1.00  0.00    -0.237 OA
ATOM     82  O   UNL A   1      34.461  35.757  32.415  1.00  0.00    -0.237 OA
ATOM     83  O   UNL A   1      33.405  34.517  30.568  1.00  0.00    -0.744 OA
ENDBRANCH  79  80
ENDBRANCH  47  72
BRANCH  59  84
ATOM     84  C   UNL A   1      44.790  34.894  30.861  1.00  0.00     0.058 A 
ATOM     85  C   UNL A   1      45.232  35.066  32.182  1.00  0.00     0.135 A 
ATOM     86  C   UNL A   1      45.003  35.947  29.956  1.00  0.00     0.135 A 
ATOM     87  F   UNL A   1      45.047  34.093  33.088  1.00  0.00    -0.206 F 
ATOM     88  C   UNL A   1      45.846  36.245  32.595  1.00  0.00     0.059 A 
ATOM     89  C   UNL A   1      45.637  37.125  30.342  1.00  0.00     0.059 A 
ATOM     90  F   UNL A   1      44.609  35.831  28.678  1.00  0.00    -0.206 F 
ATOM     91  C   UNL A   1      46.045  37.268  31.667  1.00  0.00     0.060 A 
BRANCH  91  92
ATOM     92  S   UNL A   1      46.876  38.779  32.205  1.00  0.00     0.124 S 
ATOM     93  O   UNL A   1      46.311  38.967  33.537  1.00  0.00    -0.237 OA
ATOM     94  O   UNL A   1      48.284  38.396  32.161  1.00  0.00    -0.237 OA
ATOM     95  O   UNL A   1      46.470  39.763  31.206  1.00  0.00    -0.744 OA
ENDBRANCH  91  92
ENDBRANCH  59  84
ENDBRANCH  33  34
ENDBRANCH  26  28
ENDBRANCH  25  26
ENDBRANCH  24  25
ENDBRANCH  23  24
ENDBRANCH  22  23
ENDBRANCH   1  22
TORSDOF 23
ENDMDL
