MODEL 1
REMARK VINA RESULT:     -12.0      0.000      0.000
REMARK SMILES Cc1ccnc(C(=O)c2[nH]c3ccc(F)cc3c2CC(=O)OCCOCCOC(=O)c2ccc(-c3c4nc(c(-c5c(F)cc(S(=O)(=O)[O-])cc5F)c5ccc([nH]5)c(-c5c(F)cc(S(=O)(=O)[O-])cc5F)c5nc(c(-c6c(F)cc(S(=O)(=O)[O-])cc6F)c6ccc3[nH]6)C=C5)C=C4)cc2)c1
REMARK SMILES IDX 25 1 24 2 23 3 22 4 20 5 21 6 19 7 18 8 9 9 10 10 11 11
REMARK SMILES IDX 17 13 12 14 16 15 13 16 14 17 15 18 7 19 8 20 6 21 1 22 2 23
REMARK SMILES IDX 3 24 97 25 4 26 5 27 26 28 27 29 28 30 29 31 30 32 31 33
REMARK SMILES IDX 32 34 96 35 33 36 95 37 34 38 35 39 36 40 89 41 37 42 94 43
REMARK SMILES IDX 88 44 90 45 38 46 93 47 87 48 86 49 39 51 73 52 52 53 72 54
REMARK SMILES IDX 53 55 56 56 71 57 91 58 54 59 55 60 70 62 92 63 57 64 40 65
REMARK SMILES IDX 41 66 50 67 42 68 43 69 49 70 51 71 44 72 45 73 46 74 47 75
REMARK SMILES IDX 48 76 74 77 75 78 84 79 76 80 77 81 83 82 85 83 78 84 79 85
REMARK SMILES IDX 80 86 81 87 82 88 58 89 59 90 68 91 60 92 61 93 67 94 69 95
REMARK SMILES IDX 62 96 63 97 64 98 65 99 66 100
REMARK H PARENT 10 12 90 50 56 61
REMARK Flexibility Score: inf
ROOT
ATOM      1  O   UNL A   1      36.676  22.048  25.817  1.00  0.00    -0.374 OA
ENDROOT
BRANCH   1   2
ATOM      2  C   UNL A   1      36.244  21.716  24.483  1.00  0.00     0.202 C 
BRANCH   2   3
ATOM      3  C   UNL A   1      35.854  22.893  23.554  1.00  0.00     0.261 C 
BRANCH   3   4
ATOM      4  O   UNL A   1      34.618  23.547  23.925  1.00  0.00    -0.463 OA
BRANCH   4   5
ATOM      5  C   UNL A   1      33.662  23.633  22.952  1.00  0.00     0.310 C 
ATOM      6  O   UNL A   1      33.810  24.214  21.882  1.00  0.00    -0.252 OA
BRANCH   5   7
ATOM      7  C   UNL A   1      32.357  22.959  23.330  1.00  0.00     0.161 C 
BRANCH   7   8
ATOM      8  C   UNL A   1      32.429  21.915  24.412  1.00  0.00     0.000 A 
ATOM      9  C   UNL A   1      32.409  22.061  25.809  1.00  0.00     0.093 A 
ATOM     10  N   UNL A   1      32.752  20.805  26.308  1.00  0.00    -0.352 N 
ATOM     11  C   UNL A   1      32.687  19.830  25.346  1.00  0.00     0.046 A 
ATOM     12  H   UNL A   1      33.011  20.638  27.243  1.00  0.00     0.167 HD
ATOM     13  C   UNL A   1      32.523  20.489  24.132  1.00  0.00     0.007 A 
ATOM     14  C   UNL A   1      32.716  18.429  25.470  1.00  0.00     0.030 A 
ATOM     15  C   UNL A   1      32.430  19.699  22.963  1.00  0.00     0.049 A 
ATOM     16  C   UNL A   1      32.566  17.673  24.304  1.00  0.00     0.041 A 
ATOM     17  C   UNL A   1      32.437  18.306  23.076  1.00  0.00     0.123 A 
ATOM     18  F   UNL A   1      32.294  17.559  21.972  1.00  0.00    -0.207 F 
BRANCH   9  19
ATOM     19  C   UNL A   1      32.273  23.146  26.797  1.00  0.00     0.227 C 
ATOM     20  O   UNL A   1      32.233  22.806  27.985  1.00  0.00    -0.285 OA
BRANCH  19  21
ATOM     21  C   UNL A   1      32.000  24.627  26.528  1.00  0.00     0.113 A 
ATOM     22  C   UNL A   1      33.577  27.917  25.377  1.00  0.00     0.044 C 
ATOM     23  C   UNL A   1      32.566  26.859  25.733  1.00  0.00    -0.047 A 
ATOM     24  C   UNL A   1      31.209  27.131  25.604  1.00  0.00     0.023 A 
ATOM     25  C   UNL A   1      32.955  25.592  26.215  1.00  0.00     0.036 A 
ATOM     26  C   UNL A   1      30.316  26.133  25.943  1.00  0.00     0.112 A 
ATOM     27  N   UNL A   1      30.672  24.911  26.401  1.00  0.00    -0.253 NA
ENDBRANCH  19  21
ENDBRANCH   9  19
ENDBRANCH   7   8
ENDBRANCH   5   7
ENDBRANCH   4   5
ENDBRANCH   3   4
ENDBRANCH   2   3
ENDBRANCH   1   2
BRANCH   1  28
ATOM     28  C   UNL A   1      38.011  22.547  25.814  1.00  0.00     0.202 C 
BRANCH  28  29
ATOM     29  C   UNL A   1      38.242  24.008  26.197  1.00  0.00     0.261 C 
BRANCH  29  30
ATOM     30  O   UNL A   1      39.201  24.150  27.197  1.00  0.00    -0.460 OA
BRANCH  30  31
ATOM     31  C   UNL A   1      40.279  24.896  26.863  1.00  0.00     0.338 C 
ATOM     32  O   UNL A   1      40.994  24.824  25.896  1.00  0.00    -0.246 OA
BRANCH  31  33
ATOM     33  C   UNL A   1      40.130  25.995  27.816  1.00  0.00     0.060 A 
ATOM     34  C   UNL A   1      39.295  25.805  28.917  1.00  0.00     0.016 A 
ATOM     35  C   UNL A   1      41.062  27.043  27.739  1.00  0.00     0.016 A 
ATOM     36  C   UNL A   1      39.399  26.691  29.974  1.00  0.00     0.010 A 
ATOM     37  C   UNL A   1      41.240  27.848  28.829  1.00  0.00     0.010 A 
ATOM     38  C   UNL A   1      40.364  27.705  29.912  1.00  0.00    -0.014 A 
BRANCH  38  39
ATOM     39  C   UNL A   1      40.341  28.832  30.838  1.00  0.00     0.031 A 
ATOM     40  C   UNL A   1      41.256  28.718  32.017  1.00  0.00     0.074 A 
ATOM     41  C   UNL A   1      39.435  29.804  30.673  1.00  0.00     0.049 A 
ATOM     42  N   UNL A   1      41.290  29.426  33.105  1.00  0.00    -0.248 NA
ATOM     43  C   UNL A   1      42.222  27.598  31.993  1.00  0.00     0.031 C 
ATOM     44  C   UNL A   1      38.496  29.914  29.554  1.00  0.00     0.029 A 
ATOM     45  N   UNL A   1      39.140  30.866  31.473  1.00  0.00    -0.354 N 
ATOM     46  C   UNL A   1      42.253  28.820  33.902  1.00  0.00     0.074 A 
ATOM     47  C   UNL A   1      42.726  27.646  33.214  1.00  0.00     0.031 C 
ATOM     48  C   UNL A   1      37.725  30.997  29.742  1.00  0.00     0.029 A 
ATOM     49  C   UNL A   1      38.093  31.622  31.009  1.00  0.00     0.049 A 
ATOM     50  H   UNL A   1      39.628  31.071  32.303  1.00  0.00     0.167 HD
ATOM     51  C   UNL A   1      42.715  29.241  35.098  1.00  0.00     0.037 A 
ATOM     52  C   UNL A   1      37.507  32.689  31.578  1.00  0.00     0.037 A 
ATOM     53  C   UNL A   1      42.224  30.434  35.724  1.00  0.00     0.049 A 
ATOM     54  C   UNL A   1      38.056  33.156  32.900  1.00  0.00     0.074 A 
ATOM     55  C   UNL A   1      42.627  31.021  36.905  1.00  0.00     0.029 A 
ATOM     56  N   UNL A   1      41.209  31.226  35.198  1.00  0.00    -0.354 N 
ATOM     57  N   UNL A   1      39.008  32.619  33.633  1.00  0.00    -0.248 NA
ATOM     58  C   UNL A   1      37.468  34.371  33.469  1.00  0.00     0.031 C 
ATOM     59  C   UNL A   1      41.826  32.149  37.113  1.00  0.00     0.029 A 
ATOM     60  C   UNL A   1      40.961  32.294  36.035  1.00  0.00     0.049 A 
ATOM     61  H   UNL A   1      40.737  31.051  34.352  1.00  0.00     0.167 HD
ATOM     62  C   UNL A   1      39.153  33.447  34.738  1.00  0.00     0.074 A 
ATOM     63  C   UNL A   1      38.195  34.525  34.567  1.00  0.00     0.031 C 
ATOM     64  C   UNL A   1      39.992  33.338  35.801  1.00  0.00     0.037 A 
BRANCH  51  65
ATOM     65  C   UNL A   1      43.771  28.406  35.765  1.00  0.00     0.058 A 
ATOM     66  C   UNL A   1      43.445  27.398  36.691  1.00  0.00     0.135 A 
ATOM     67  C   UNL A   1      45.130  28.635  35.502  1.00  0.00     0.135 A 
ATOM     68  F   UNL A   1      42.162  27.159  37.009  1.00  0.00    -0.206 F 
ATOM     69  C   UNL A   1      44.428  26.672  37.354  1.00  0.00     0.059 A 
ATOM     70  C   UNL A   1      46.129  27.896  36.129  1.00  0.00     0.059 A 
ATOM     71  F   UNL A   1      45.500  29.597  34.644  1.00  0.00    -0.206 F 
ATOM     72  C   UNL A   1      45.768  26.927  37.065  1.00  0.00     0.060 A 
BRANCH  72  73
ATOM     73  S   UNL A   1      47.032  25.966  37.923  1.00  0.00     0.124 S 
ATOM     74  O   UNL A   1      48.249  26.431  37.266  1.00  0.00    -0.237 OA
ATOM     75  O   UNL A   1      46.858  26.393  39.309  1.00  0.00    -0.237 OA
ATOM     76  O   UNL A   1      46.656  24.584  37.645  1.00  0.00    -0.744 OA
ENDBRANCH  72  73
ENDBRANCH  51  65
BRANCH  52  77
ATOM     77  C   UNL A   1      36.393  33.381  30.884  1.00  0.00     0.058 A 
ATOM     78  C   UNL A   1      35.104  33.395  31.436  1.00  0.00     0.135 A 
ATOM     79  C   UNL A   1      36.602  34.094  29.693  1.00  0.00     0.135 A 
ATOM     80  F   UNL A   1      34.856  32.735  32.577  1.00  0.00    -0.206 F 
ATOM     81  C   UNL A   1      34.058  34.080  30.826  1.00  0.00     0.059 A 
ATOM     82  C   UNL A   1      35.577  34.807  29.078  1.00  0.00     0.059 A 
ATOM     83  F   UNL A   1      37.824  34.136  29.139  1.00  0.00    -0.206 F 
ATOM     84  C   UNL A   1      34.306  34.787  29.649  1.00  0.00     0.060 A 
BRANCH  84  85
ATOM     85  S   UNL A   1      32.953  35.724  28.903  1.00  0.00     0.124 S 
ATOM     86  O   UNL A   1      33.673  36.813  28.254  1.00  0.00    -0.237 OA
ATOM     87  O   UNL A   1      32.351  34.736  28.014  1.00  0.00    -0.237 OA
ATOM     88  O   UNL A   1      32.135  36.102  30.052  1.00  0.00    -0.744 OA
ENDBRANCH  84  85
ENDBRANCH  52  77
BRANCH  64  89
ATOM     89  C   UNL A   1      39.925  34.430  36.825  1.00  0.00     0.058 A 
ATOM     90  C   UNL A   1      39.115  34.320  37.964  1.00  0.00     0.135 A 
ATOM     91  C   UNL A   1      40.738  35.567  36.694  1.00  0.00     0.135 A 
ATOM     92  F   UNL A   1      38.320  33.251  38.127  1.00  0.00    -0.206 F 
ATOM     93  C   UNL A   1      39.092  35.318  38.928  1.00  0.00     0.059 A 
ATOM     94  C   UNL A   1      40.755  36.561  37.662  1.00  0.00     0.059 A 
ATOM     95  F   UNL A   1      41.543  35.705  35.628  1.00  0.00    -0.206 F 
ATOM     96  C   UNL A   1      39.918  36.433  38.769  1.00  0.00     0.060 A 
BRANCH  96  97
ATOM     97  S   UNL A   1      39.901  37.705  40.047  1.00  0.00     0.124 S 
ATOM     98  O   UNL A   1      38.745  38.501  39.650  1.00  0.00    -0.237 OA
ATOM     99  O   UNL A   1      39.744  36.920  41.267  1.00  0.00    -0.237 OA
ATOM    100  O   UNL A   1      41.198  38.359  39.892  1.00  0.00    -0.744 OA
ENDBRANCH  96  97
ENDBRANCH  64  89
ENDBRANCH  38  39
ENDBRANCH  31  33
ENDBRANCH  30  31
ENDBRANCH  29  30
ENDBRANCH  28  29
ENDBRANCH   1  28
TORSDOF 20
ENDMDL
MODEL 2
REMARK VINA RESULT:     -11.8      1.803      3.697
REMARK SMILES Cc1ccnc(C(=O)c2[nH]c3ccc(F)cc3c2CC(=O)OCCOCCOC(=O)c2ccc(-c3c4nc(c(-c5c(F)cc(S(=O)(=O)[O-])cc5F)c5ccc([nH]5)c(-c5c(F)cc(S(=O)(=O)[O-])cc5F)c5nc(c(-c6c(F)cc(S(=O)(=O)[O-])cc6F)c6ccc3[nH]6)C=C5)C=C4)cc2)c1
REMARK SMILES IDX 25 1 24 2 23 3 22 4 20 5 21 6 19 7 18 8 9 9 10 10 11 11
REMARK SMILES IDX 17 13 12 14 16 15 13 16 14 17 15 18 7 19 8 20 6 21 1 22 2 23
REMARK SMILES IDX 3 24 97 25 4 26 5 27 26 28 27 29 28 30 29 31 30 32 31 33
REMARK SMILES IDX 32 34 96 35 33 36 95 37 34 38 35 39 36 40 89 41 37 42 94 43
REMARK SMILES IDX 88 44 90 45 38 46 93 47 87 48 86 49 39 51 73 52 52 53 72 54
REMARK SMILES IDX 53 55 56 56 71 57 91 58 54 59 55 60 70 62 92 63 57 64 40 65
REMARK SMILES IDX 41 66 50 67 42 68 43 69 49 70 51 71 44 72 45 73 46 74 47 75
REMARK SMILES IDX 48 76 74 77 75 78 84 79 76 80 77 81 83 82 85 83 78 84 79 85
REMARK SMILES IDX 80 86 81 87 82 88 58 89 59 90 68 91 60 92 61 93 67 94 69 95
REMARK SMILES IDX 62 96 63 97 64 98 65 99 66 100
REMARK H PARENT 10 12 90 50 56 61
REMARK Flexibility Score: inf
ROOT
ATOM      1  O   UNL A   1      36.152  23.514  25.393  1.00  0.00    -0.374 OA
ENDROOT
BRANCH   1   2
ATOM      2  C   UNL A   1      35.439  23.670  24.151  1.00  0.00     0.202 C 
BRANCH   2   3
ATOM      3  C   UNL A   1      34.224  24.630  24.151  1.00  0.00     0.261 C 
BRANCH   3   4
ATOM      4  O   UNL A   1      34.068  25.379  25.379  1.00  0.00    -0.463 OA
BRANCH   4   5
ATOM      5  C   UNL A   1      33.108  26.352  25.377  1.00  0.00     0.310 C 
ATOM      6  O   UNL A   1      32.839  27.064  26.338  1.00  0.00    -0.252 OA
BRANCH   5   7
ATOM      7  C   UNL A   1      32.361  26.456  24.061  1.00  0.00     0.161 C 
BRANCH   7   8
ATOM      8  C   UNL A   1      30.868  26.631  24.148  1.00  0.00     0.000 A 
ATOM      9  C   UNL A   1      29.923  25.936  24.922  1.00  0.00     0.093 A 
ATOM     10  N   UNL A   1      28.684  26.341  24.426  1.00  0.00    -0.352 N 
ATOM     11  C   UNL A   1      28.784  27.446  23.620  1.00  0.00     0.046 A 
ATOM     12  H   UNL A   1      27.836  25.885  24.630  1.00  0.00     0.167 HD
ATOM     13  C   UNL A   1      30.142  27.639  23.389  1.00  0.00     0.007 A 
ATOM     14  C   UNL A   1      27.784  28.301  23.123  1.00  0.00     0.030 A 
ATOM     15  C   UNL A   1      30.521  28.730  22.572  1.00  0.00     0.049 A 
ATOM     16  C   UNL A   1      28.191  29.401  22.365  1.00  0.00     0.041 A 
ATOM     17  C   UNL A   1      29.537  29.598  22.090  1.00  0.00     0.123 A 
ATOM     18  F   UNL A   1      29.904  30.662  21.361  1.00  0.00    -0.207 F 
BRANCH   9  19
ATOM     19  C   UNL A   1      29.907  24.870  25.939  1.00  0.00     0.227 C 
ATOM     20  O   UNL A   1      29.132  25.027  26.889  1.00  0.00    -0.285 OA
BRANCH  19  21
ATOM     21  C   UNL A   1      30.856  23.676  26.056  1.00  0.00     0.113 A 
ATOM     22  C   UNL A   1      32.636  20.919  24.090  1.00  0.00     0.044 C 
ATOM     23  C   UNL A   1      32.257  21.885  25.181  1.00  0.00    -0.047 A 
ATOM     24  C   UNL A   1      32.968  21.891  26.374  1.00  0.00     0.023 A 
ATOM     25  C   UNL A   1      31.180  22.784  25.035  1.00  0.00     0.036 A 
ATOM     26  C   UNL A   1      32.587  22.793  27.349  1.00  0.00     0.112 A 
ATOM     27  N   UNL A   1      31.561  23.665  27.223  1.00  0.00    -0.253 NA
ENDBRANCH  19  21
ENDBRANCH   9  19
ENDBRANCH   7   8
ENDBRANCH   5   7
ENDBRANCH   4   5
ENDBRANCH   3   4
ENDBRANCH   2   3
ENDBRANCH   1   2
BRANCH   1  28
ATOM     28  C   UNL A   1      37.538  23.274  25.162  1.00  0.00     0.202 C 
BRANCH  28  29
ATOM     29  C   UNL A   1      38.516  23.495  26.314  1.00  0.00     0.261 C 
BRANCH  29  30
ATOM     30  O   UNL A   1      39.009  24.797  26.350  1.00  0.00    -0.460 OA
BRANCH  30  31
ATOM     31  C   UNL A   1      40.289  24.920  26.768  1.00  0.00     0.338 C 
ATOM     32  O   UNL A   1      41.299  24.467  26.294  1.00  0.00    -0.246 OA
BRANCH  31  33
ATOM     33  C   UNL A   1      40.135  26.004  27.739  1.00  0.00     0.060 A 
ATOM     34  C   UNL A   1      39.240  25.822  28.793  1.00  0.00     0.016 A 
ATOM     35  C   UNL A   1      41.108  27.016  27.732  1.00  0.00     0.016 A 
ATOM     36  C   UNL A   1      39.325  26.681  29.874  1.00  0.00     0.010 A 
ATOM     37  C   UNL A   1      41.262  27.789  28.848  1.00  0.00     0.010 A 
ATOM     38  C   UNL A   1      40.329  27.657  29.883  1.00  0.00    -0.014 A 
BRANCH  38  39
ATOM     39  C   UNL A   1      40.303  28.764  30.833  1.00  0.00     0.031 A 
ATOM     40  C   UNL A   1      41.206  28.620  32.017  1.00  0.00     0.074 A 
ATOM     41  C   UNL A   1      39.403  29.745  30.680  1.00  0.00     0.049 A 
ATOM     42  N   UNL A   1      41.232  29.304  33.122  1.00  0.00    -0.248 NA
ATOM     43  C   UNL A   1      42.166  27.495  31.979  1.00  0.00     0.031 C 
ATOM     44  C   UNL A   1      38.476  29.883  29.554  1.00  0.00     0.029 A 
ATOM     45  N   UNL A   1      39.106  30.791  31.500  1.00  0.00    -0.354 N 
ATOM     46  C   UNL A   1      42.184  28.676  33.915  1.00  0.00     0.074 A 
ATOM     47  C   UNL A   1      42.657  27.515  33.205  1.00  0.00     0.031 C 
ATOM     48  C   UNL A   1      37.708  30.967  29.758  1.00  0.00     0.029 A 
ATOM     49  C   UNL A   1      38.068  31.561  31.042  1.00  0.00     0.049 A 
ATOM     50  H   UNL A   1      39.587  30.975  32.338  1.00  0.00     0.167 HD
ATOM     51  C   UNL A   1      42.637  29.068  35.124  1.00  0.00     0.037 A 
ATOM     52  C   UNL A   1      37.482  32.619  31.628  1.00  0.00     0.037 A 
ATOM     53  C   UNL A   1      42.146  30.251  35.771  1.00  0.00     0.049 A 
ATOM     54  C   UNL A   1      38.020  33.055  32.965  1.00  0.00     0.074 A 
ATOM     55  C   UNL A   1      42.540  30.810  36.968  1.00  0.00     0.029 A 
ATOM     56  N   UNL A   1      41.139  31.059  35.251  1.00  0.00    -0.354 N 
ATOM     57  N   UNL A   1      38.961  32.497  33.695  1.00  0.00    -0.248 NA
ATOM     58  C   UNL A   1      37.432  34.261  33.554  1.00  0.00     0.031 C 
ATOM     59  C   UNL A   1      41.742  31.937  37.192  1.00  0.00     0.029 A 
ATOM     60  C   UNL A   1      40.889  32.110  36.109  1.00  0.00     0.049 A 
ATOM     61  H   UNL A   1      40.676  30.905  34.397  1.00  0.00     0.167 HD
ATOM     62  C   UNL A   1      39.100  33.301  34.820  1.00  0.00     0.074 A 
ATOM     63  C   UNL A   1      38.149  34.387  34.663  1.00  0.00     0.031 C 
ATOM     64  C   UNL A   1      39.927  33.164  35.888  1.00  0.00     0.037 A 
BRANCH  51  65
ATOM     65  C   UNL A   1      43.681  28.214  35.783  1.00  0.00     0.058 A 
ATOM     66  C   UNL A   1      45.054  28.399  35.537  1.00  0.00     0.135 A 
ATOM     67  C   UNL A   1      43.309  27.175  36.648  1.00  0.00     0.135 A 
ATOM     68  F   UNL A   1      45.468  29.355  34.689  1.00  0.00    -0.206 F 
ATOM     69  C   UNL A   1      46.014  27.565  36.099  1.00  0.00     0.059 A 
ATOM     70  C   UNL A   1      44.255  26.349  37.248  1.00  0.00     0.059 A 
ATOM     71  F   UNL A   1      42.013  26.939  36.903  1.00  0.00    -0.206 F 
ATOM     72  C   UNL A   1      45.605  26.543  36.956  1.00  0.00     0.060 A 
BRANCH  72  73
ATOM     73  S   UNL A   1      46.864  25.478  37.688  1.00  0.00     0.124 S 
ATOM     74  O   UNL A   1      47.932  25.563  36.697  1.00  0.00    -0.237 OA
ATOM     75  O   UNL A   1      47.128  26.140  38.962  1.00  0.00    -0.237 OA
ATOM     76  O   UNL A   1      46.198  24.182  37.785  1.00  0.00    -0.744 OA
ENDBRANCH  72  73
ENDBRANCH  51  65
BRANCH  52  77
ATOM     77  C   UNL A   1      36.378  33.332  30.938  1.00  0.00     0.058 A 
ATOM     78  C   UNL A   1      35.079  33.322  31.465  1.00  0.00     0.135 A 
ATOM     79  C   UNL A   1      36.607  34.089  29.778  1.00  0.00     0.135 A 
ATOM     80  F   UNL A   1      34.812  32.620  32.577  1.00  0.00    -0.206 F 
ATOM     81  C   UNL A   1      34.042  34.025  30.861  1.00  0.00     0.059 A 
ATOM     82  C   UNL A   1      35.590  34.820  29.169  1.00  0.00     0.059 A 
ATOM     83  F   UNL A   1      37.839  34.155  29.249  1.00  0.00    -0.206 F 
ATOM     84  C   UNL A   1      34.309  34.775  29.715  1.00  0.00     0.060 A 
BRANCH  84  85
ATOM     85  S   UNL A   1      32.967  35.733  28.978  1.00  0.00     0.124 S 
ATOM     86  O   UNL A   1      32.387  34.764  28.056  1.00  0.00    -0.237 OA
ATOM     87  O   UNL A   1      32.156  36.071  30.143  1.00  0.00    -0.237 OA
ATOM     88  O   UNL A   1      33.659  36.859  28.358  1.00  0.00    -0.744 OA
ENDBRANCH  84  85
ENDBRANCH  52  77
BRANCH  64  89
ATOM     89  C   UNL A   1      39.857  34.234  36.935  1.00  0.00     0.058 A 
ATOM     90  C   UNL A   1      40.524  35.457  36.781  1.00  0.00     0.135 A 
ATOM     91  C   UNL A   1      39.052  34.053  38.071  1.00  0.00     0.135 A 
ATOM     92  F   UNL A   1      41.307  35.671  35.711  1.00  0.00    -0.206 F 
ATOM     93  C   UNL A   1      40.420  36.458  37.736  1.00  0.00     0.059 A 
ATOM     94  C   UNL A   1      38.907  35.053  39.022  1.00  0.00     0.059 A 
ATOM     95  F   UNL A   1      38.380  32.904  38.249  1.00  0.00    -0.206 F 
ATOM     96  C   UNL A   1      39.605  36.248  38.852  1.00  0.00     0.060 A 
BRANCH  96  97
ATOM     97  S   UNL A   1      39.453  37.570  40.068  1.00  0.00     0.124 S 
ATOM     98  O   UNL A   1      38.422  38.406  39.461  1.00  0.00    -0.237 OA
ATOM     99  O   UNL A   1      39.056  36.843  41.270  1.00  0.00    -0.237 OA
ATOM    100  O   UNL A   1      40.792  38.151  40.107  1.00  0.00    -0.744 OA
ENDBRANCH  96  97
ENDBRANCH  64  89
ENDBRANCH  38  39
ENDBRANCH  31  33
ENDBRANCH  30  31
ENDBRANCH  29  30
ENDBRANCH  28  29
ENDBRANCH   1  28
TORSDOF 20
ENDMDL
MODEL 3
REMARK VINA RESULT:     -11.5      6.978      9.302
REMARK SMILES Cc1ccnc(C(=O)c2[nH]c3ccc(F)cc3c2CC(=O)OCCOCCOC(=O)c2ccc(-c3c4nc(c(-c5c(F)cc(S(=O)(=O)[O-])cc5F)c5ccc([nH]5)c(-c5c(F)cc(S(=O)(=O)[O-])cc5F)c5nc(c(-c6c(F)cc(S(=O)(=O)[O-])cc6F)c6ccc3[nH]6)C=C5)C=C4)cc2)c1
REMARK SMILES IDX 25 1 24 2 23 3 22 4 20 5 21 6 19 7 18 8 9 9 10 10 11 11
REMARK SMILES IDX 17 13 12 14 16 15 13 16 14 17 15 18 7 19 8 20 6 21 1 22 2 23
REMARK SMILES IDX 3 24 97 25 4 26 5 27 26 28 27 29 28 30 29 31 30 32 31 33
REMARK SMILES IDX 32 34 96 35 33 36 95 37 34 38 35 39 36 40 89 41 37 42 94 43
REMARK SMILES IDX 88 44 90 45 38 46 93 47 87 48 86 49 39 51 73 52 52 53 72 54
REMARK SMILES IDX 53 55 56 56 71 57 91 58 54 59 55 60 70 62 92 63 57 64 40 65
REMARK SMILES IDX 41 66 50 67 42 68 43 69 49 70 51 71 44 72 45 73 46 74 47 75
REMARK SMILES IDX 48 76 74 77 75 78 84 79 76 80 77 81 83 82 85 83 78 84 79 85
REMARK SMILES IDX 80 86 81 87 82 88 58 89 59 90 68 91 60 92 61 93 67 94 69 95
REMARK SMILES IDX 62 96 63 97 64 98 65 99 66 100
REMARK H PARENT 10 12 90 50 56 61
REMARK Flexibility Score: inf
ROOT
ATOM      1  O   UNL A   1      40.464  19.909  26.111  1.00  0.00    -0.374 OA
ENDROOT
BRANCH   1   2
ATOM      2  C   UNL A   1      39.886  21.226  26.204  1.00  0.00     0.202 C 
BRANCH   2   3
ATOM      3  C   UNL A   1      38.544  21.461  25.467  1.00  0.00     0.261 C 
BRANCH   3   4
ATOM      4  O   UNL A   1      37.840  22.649  25.897  1.00  0.00    -0.463 OA
BRANCH   4   5
ATOM      5  C   UNL A   1      36.890  23.133  25.042  1.00  0.00     0.310 C 
ATOM      6  O   UNL A   1      36.833  22.869  23.846  1.00  0.00    -0.252 OA
BRANCH   5   7
ATOM      7  C   UNL A   1      35.906  24.076  25.708  1.00  0.00     0.161 C 
BRANCH   7   8
ATOM      8  C   UNL A   1      34.464  23.943  25.294  1.00  0.00     0.000 A 
ATOM      9  C   UNL A   1      33.655  22.799  25.203  1.00  0.00     0.093 A 
ATOM     10  N   UNL A   1      32.503  23.224  24.541  1.00  0.00    -0.352 N 
ATOM     11  C   UNL A   1      32.412  24.592  24.487  1.00  0.00     0.046 A 
ATOM     12  H   UNL A   1      31.834  22.613  24.156  1.00  0.00     0.167 HD
ATOM     13  C   UNL A   1      33.640  25.082  24.916  1.00  0.00     0.007 A 
ATOM     14  C   UNL A   1      31.328  25.415  24.135  1.00  0.00     0.030 A 
ATOM     15  C   UNL A   1      33.811  26.486  24.952  1.00  0.00     0.049 A 
ATOM     16  C   UNL A   1      31.507  26.798  24.233  1.00  0.00     0.041 A 
ATOM     17  C   UNL A   1      32.733  27.315  24.625  1.00  0.00     0.123 A 
ATOM     18  F   UNL A   1      32.881  28.644  24.712  1.00  0.00    -0.207 F 
BRANCH   9  19
ATOM     19  C   UNL A   1      33.762  21.354  25.474  1.00  0.00     0.227 C 
ATOM     20  O   UNL A   1      34.220  21.034  26.576  1.00  0.00    -0.285 OA
BRANCH  19  21
ATOM     21  C   UNL A   1      33.538  20.201  24.495  1.00  0.00     0.113 A 
ATOM     22  C   UNL A   1      34.065  16.453  23.937  1.00  0.00     0.044 C 
ATOM     23  C   UNL A   1      33.553  17.863  23.808  1.00  0.00    -0.047 A 
ATOM     24  C   UNL A   1      32.593  18.164  22.850  1.00  0.00     0.023 A 
ATOM     25  C   UNL A   1      34.035  18.905  24.627  1.00  0.00     0.036 A 
ATOM     26  C   UNL A   1      32.152  19.470  22.764  1.00  0.00     0.112 A 
ATOM     27  N   UNL A   1      32.599  20.480  23.546  1.00  0.00    -0.253 NA
ENDBRANCH  19  21
ENDBRANCH   9  19
ENDBRANCH   7   8
ENDBRANCH   5   7
ENDBRANCH   4   5
ENDBRANCH   3   4
ENDBRANCH   2   3
ENDBRANCH   1   2
BRANCH   1  28
ATOM     28  C   UNL A   1      41.838  19.925  26.489  1.00  0.00     0.202 C 
BRANCH  28  29
ATOM     29  C   UNL A   1      42.806  19.006  25.745  1.00  0.00     0.261 C 
BRANCH  29  30
ATOM     30  O   UNL A   1      43.395  19.630  24.648  1.00  0.00    -0.460 OA
BRANCH  30  31
ATOM     31  C   UNL A   1      44.747  19.673  24.663  1.00  0.00     0.338 C 
ATOM     32  O   UNL A   1      45.546  18.832  24.341  1.00  0.00    -0.246 OA
BRANCH  31  33
ATOM     33  C   UNL A   1      44.952  21.108  24.860  1.00  0.00     0.060 A 
ATOM     34  C   UNL A   1      44.421  21.985  23.915  1.00  0.00     0.016 A 
ATOM     35  C   UNL A   1      45.391  21.527  26.126  1.00  0.00     0.016 A 
ATOM     36  C   UNL A   1      44.325  23.324  24.250  1.00  0.00     0.010 A 
ATOM     37  C   UNL A   1      45.191  22.828  26.495  1.00  0.00     0.010 A 
ATOM     38  C   UNL A   1      44.718  23.727  25.533  1.00  0.00    -0.014 A 
BRANCH  38  39
ATOM     39  C   UNL A   1      44.916  25.136  25.857  1.00  0.00     0.031 A 
ATOM     40  C   UNL A   1      46.325  25.630  25.756  1.00  0.00     0.074 A 
ATOM     41  C   UNL A   1      43.895  25.851  26.349  1.00  0.00     0.049 A 
ATOM     42  N   UNL A   1      46.843  26.738  26.193  1.00  0.00    -0.248 NA
ATOM     43  C   UNL A   1      47.302  24.707  25.138  1.00  0.00     0.031 C 
ATOM     44  C   UNL A   1      42.518  25.377  26.502  1.00  0.00     0.029 A 
ATOM     45  N   UNL A   1      43.877  27.121  26.841  1.00  0.00    -0.354 N 
ATOM     46  C   UNL A   1      48.203  26.631  25.931  1.00  0.00     0.074 A 
ATOM     47  C   UNL A   1      48.446  25.325  25.372  1.00  0.00     0.031 C 
ATOM     48  C   UNL A   1      41.783  26.357  27.054  1.00  0.00     0.029 A 
ATOM     49  C   UNL A   1      42.651  27.498  27.325  1.00  0.00     0.049 A 
ATOM     50  H   UNL A   1      44.666  27.709  26.850  1.00  0.00     0.167 HD
ATOM     51  C   UNL A   1      49.154  27.568  26.121  1.00  0.00     0.037 A 
ATOM     52  C   UNL A   1      42.302  28.645  27.932  1.00  0.00     0.037 A 
ATOM     53  C   UNL A   1      48.848  28.862  26.658  1.00  0.00     0.049 A 
ATOM     54  C   UNL A   1      43.374  29.687  28.110  1.00  0.00     0.074 A 
ATOM     55  C   UNL A   1      49.688  29.937  26.861  1.00  0.00     0.029 A 
ATOM     56  N   UNL A   1      47.579  29.249  27.077  1.00  0.00    -0.354 N 
ATOM     57  N   UNL A   1      44.653  29.613  27.811  1.00  0.00    -0.248 NA
ATOM     58  C   UNL A   1      42.962  30.967  28.693  1.00  0.00     0.031 C 
ATOM     59  C   UNL A   1      48.933  30.962  27.441  1.00  0.00     0.029 A 
ATOM     60  C   UNL A   1      47.612  30.544  27.549  1.00  0.00     0.049 A 
ATOM     61  H   UNL A   1      46.775  28.682  27.041  1.00  0.00     0.167 HD
ATOM     62  C   UNL A   1      45.196  30.847  28.145  1.00  0.00     0.074 A 
ATOM     63  C   UNL A   1      44.100  31.648  28.659  1.00  0.00     0.031 C 
ATOM     64  C   UNL A   1      46.477  31.287  28.043  1.00  0.00     0.037 A 
BRANCH  51  65
ATOM     65  C   UNL A   1      50.565  27.208  25.752  1.00  0.00     0.058 A 
ATOM     66  C   UNL A   1      51.487  26.745  26.709  1.00  0.00     0.135 A 
ATOM     67  C   UNL A   1      51.016  27.356  24.432  1.00  0.00     0.135 A 
ATOM     68  F   UNL A   1      51.123  26.617  27.996  1.00  0.00    -0.206 F 
ATOM     69  C   UNL A   1      52.809  26.473  26.376  1.00  0.00     0.059 A 
ATOM     70  C   UNL A   1      52.326  27.058  24.070  1.00  0.00     0.059 A 
ATOM     71  F   UNL A   1      50.186  27.814  23.482  1.00  0.00    -0.206 F 
ATOM     72  C   UNL A   1      53.219  26.631  25.052  1.00  0.00     0.060 A 
BRANCH  72  73
ATOM     73  S   UNL A   1      54.935  26.263  24.632  1.00  0.00     0.124 S 
ATOM     74  O   UNL A   1      55.655  27.148  25.542  1.00  0.00    -0.237 OA
ATOM     75  O   UNL A   1      55.028  24.837  24.930  1.00  0.00    -0.237 OA
ATOM     76  O   UNL A   1      55.022  26.611  23.217  1.00  0.00    -0.744 OA
ENDBRANCH  72  73
ENDBRANCH  51  65
BRANCH  52  77
ATOM     77  C   UNL A   1      40.897  28.861  28.358  1.00  0.00     0.058 A 
ATOM     78  C   UNL A   1      40.539  28.782  29.712  1.00  0.00     0.135 A 
ATOM     79  C   UNL A   1      39.897  29.211  27.438  1.00  0.00     0.135 A 
ATOM     80  F   UNL A   1      41.461  28.458  30.631  1.00  0.00    -0.206 F 
ATOM     81  C   UNL A   1      39.238  29.029  30.138  1.00  0.00     0.059 A 
ATOM     82  C   UNL A   1      38.593  29.486  27.843  1.00  0.00     0.059 A 
ATOM     83  F   UNL A   1      40.193  29.328  26.134  1.00  0.00    -0.206 F 
ATOM     84  C   UNL A   1      38.273  29.386  29.195  1.00  0.00     0.060 A 
BRANCH  84  85
ATOM     85  S   UNL A   1      36.603  29.765  29.770  1.00  0.00     0.124 S 
ATOM     86  O   UNL A   1      36.685  31.207  29.977  1.00  0.00    -0.237 OA
ATOM     87  O   UNL A   1      35.785  29.326  28.645  1.00  0.00    -0.237 OA
ATOM     88  O   UNL A   1      36.474  28.960  30.981  1.00  0.00    -0.744 OA
ENDBRANCH  84  85
ENDBRANCH  52  77
BRANCH  64  89
ATOM     89  C   UNL A   1      46.736  32.703  28.462  1.00  0.00     0.058 A 
ATOM     90  C   UNL A   1      47.231  33.012  29.737  1.00  0.00     0.135 A 
ATOM     91  C   UNL A   1      46.551  33.752  27.548  1.00  0.00     0.135 A 
ATOM     92  F   UNL A   1      47.420  32.040  30.643  1.00  0.00    -0.206 F 
ATOM     93  C   UNL A   1      47.509  34.322  30.102  1.00  0.00     0.059 A 
ATOM     94  C   UNL A   1      46.853  35.064  27.880  1.00  0.00     0.059 A 
ATOM     95  F   UNL A   1      46.096  33.498  26.310  1.00  0.00    -0.206 F 
ATOM     96  C   UNL A   1      47.319  35.341  29.165  1.00  0.00     0.060 A 
BRANCH  96  97
ATOM     97  S   UNL A   1      47.714  37.034  29.643  1.00  0.00     0.124 S 
ATOM     98  O   UNL A   1      46.385  37.625  29.746  1.00  0.00    -0.237 OA
ATOM     99  O   UNL A   1      48.425  36.844  30.903  1.00  0.00    -0.237 OA
ATOM    100  O   UNL A   1      48.533  37.516  28.534  1.00  0.00    -0.744 OA
ENDBRANCH  96  97
ENDBRANCH  64  89
ENDBRANCH  38  39
ENDBRANCH  31  33
ENDBRANCH  30  31
ENDBRANCH  29  30
ENDBRANCH  28  29
ENDBRANCH   1  28
TORSDOF 20
ENDMDL
