MODEL 1
REMARK VINA RESULT:      -8.3      0.000      0.000
REMARK SMILES Cc1ccc(Oc2ccc(NC(=O)CCCC(=O)OCCOCCOC(=O)c3ccc(-c4c5nc(c(-c6c(F)cc(S(=O)(=O)[O-])cc6F)c6ccc([nH]6)c(-c6c(F)cc(S(=O)(=O)[O-])cc6F)c6nc(c(-c7c(F)cc(S(=O)(=O)[O-])cc7F)c7ccc4[nH]7)C=C6)C=C5)cc3)cc2)cc1C
REMARK SMILES IDX 20 1 19 2 17 3 18 4 16 5 15 6 14 7 12 8 11 9 13 11 10 12
REMARK SMILES IDX 7 13 8 14 95 15 9 16 94 17 6 18 5 19 1 20 2 21 3 22 97 23
REMARK SMILES IDX 4 24 96 25 98 26 21 27 22 28 23 29 24 30 25 31 26 32 27 33
REMARK SMILES IDX 28 34 29 35 93 36 30 37 92 38 31 39 32 40 33 41 86 42 34 43
REMARK SMILES IDX 91 44 85 45 87 46 35 47 90 48 84 49 83 50 36 52 70 53 49 54
REMARK SMILES IDX 69 55 50 56 53 57 68 58 88 59 51 60 52 61 67 63 89 64 54 65
REMARK SMILES IDX 37 66 38 67 47 68 39 69 40 70 46 71 48 72 41 73 42 74 43 75
REMARK SMILES IDX 44 76 45 77 71 78 72 79 81 80 73 81 74 82 80 83 82 84 75 85
REMARK SMILES IDX 76 86 77 87 78 88 79 89 55 90 56 91 65 92 57 93 58 94 64 95
REMARK SMILES IDX 66 96 59 97 60 98 61 99 62 100 63 101
REMARK H PARENT 11 10 87 51 53 62
REMARK Flexibility Score: inf
ROOT
ATOM      1  C   UNL A   1      37.047  33.395  33.063  1.00  0.00     0.261 C 
ENDROOT
BRANCH   1   2
ATOM      2  O   UNL A   1      38.066  32.910  33.959  1.00  0.00    -0.463 OA
BRANCH   2   3
ATOM      3  C   UNL A   1      38.526  31.647  33.803  1.00  0.00     0.305 C 
ATOM      4  O   UNL A   1      37.833  30.684  33.505  1.00  0.00    -0.252 OA
BRANCH   3   5
ATOM      5  C   UNL A   1      40.021  31.543  34.030  1.00  0.00     0.123 C 
BRANCH   5   6
ATOM      6  C   UNL A   1      40.694  30.212  33.680  1.00  0.00     0.022 C 
BRANCH   6   7
ATOM      7  C   UNL A   1      41.027  29.264  34.842  1.00  0.00     0.101 C 
BRANCH   7   8
ATOM      8  C   UNL A   1      42.410  29.463  35.434  1.00  0.00     0.224 C 
ATOM      9  N   UNL A   1      43.393  28.521  35.380  1.00  0.00    -0.326 N 
ATOM     10  H   UNL A   1      44.255  28.835  35.735  1.00  0.00     0.169 HD
ATOM     11  O   UNL A   1      42.713  30.567  35.901  1.00  0.00    -0.275 OA
BRANCH   9  12
ATOM     12  C   UNL A   1      43.428  27.197  34.924  1.00  0.00     0.041 A 
ATOM     13  C   UNL A   1      43.559  24.440  34.404  1.00  0.00     0.127 A 
ATOM     14  C   UNL A   1      44.434  25.320  33.776  1.00  0.00     0.049 A 
ATOM     15  C   UNL A   1      42.554  24.949  35.219  1.00  0.00     0.049 A 
ATOM     16  C   UNL A   1      44.357  26.698  34.018  1.00  0.00     0.030 A 
ATOM     17  C   UNL A   1      42.469  26.325  35.452  1.00  0.00     0.030 A 
BRANCH  13  18
ATOM     18  O   UNL A   1      43.695  23.073  34.365  1.00  0.00    -0.457 OA
BRANCH  18  19
ATOM     19  C   UNL A   1      44.832  22.474  34.856  1.00  0.00     0.127 A 
ATOM     20  C   UNL A   1      48.043  20.257  36.695  1.00  0.00     0.044 C 
ATOM     21  C   UNL A   1      46.948  21.089  36.086  1.00  0.00    -0.048 A 
ATOM     22  C   UNL A   1      46.761  21.037  34.695  1.00  0.00     0.007 A 
ATOM     23  C   UNL A   1      46.075  21.868  36.871  1.00  0.00    -0.045 A 
ATOM     24  C   UNL A   1      45.701  21.708  34.087  1.00  0.00     0.047 A 
ATOM     25  C   UNL A   1      45.030  22.566  36.238  1.00  0.00     0.050 A 
ATOM     26  C   UNL A   1      46.234  22.012  38.360  1.00  0.00     0.045 C 
ENDBRANCH  18  19
ENDBRANCH  13  18
ENDBRANCH   9  12
ENDBRANCH   7   8
ENDBRANCH   6   7
ENDBRANCH   5   6
ENDBRANCH   3   5
ENDBRANCH   2   3
ENDBRANCH   1   2
BRANCH   1  27
ATOM     27  C   UNL A   1      35.601  33.372  33.562  1.00  0.00     0.202 C 
BRANCH  27  28
ATOM     28  O   UNL A   1      34.608  33.246  32.547  1.00  0.00    -0.374 OA
BRANCH  28  29
ATOM     29  C   UNL A   1      34.728  34.158  31.463  1.00  0.00     0.202 C 
BRANCH  29  30
ATOM     30  C   UNL A   1      34.615  33.459  30.100  1.00  0.00     0.261 C 
BRANCH  30  31
ATOM     31  O   UNL A   1      34.770  32.031  30.171  1.00  0.00    -0.460 OA
BRANCH  31  32
ATOM     32  C   UNL A   1      34.899  31.434  28.957  1.00  0.00     0.338 C 
ATOM     33  O   UNL A   1      34.192  31.600  27.977  1.00  0.00    -0.246 OA
BRANCH  32  34
ATOM     34  C   UNL A   1      36.090  30.560  28.927  1.00  0.00     0.060 A 
ATOM     35  C   UNL A   1      36.557  30.044  30.142  1.00  0.00     0.016 A 
ATOM     36  C   UNL A   1      36.813  30.357  27.748  1.00  0.00     0.016 A 
ATOM     37  C   UNL A   1      37.796  29.407  30.200  1.00  0.00     0.010 A 
ATOM     38  C   UNL A   1      38.060  29.723  27.808  1.00  0.00     0.010 A 
ATOM     39  C   UNL A   1      38.584  29.304  29.045  1.00  0.00    -0.014 A 
BRANCH  39  40
ATOM     40  C   UNL A   1      40.026  28.973  29.187  1.00  0.00     0.031 A 
ATOM     41  C   UNL A   1      40.953  30.014  29.758  1.00  0.00     0.074 A 
ATOM     42  C   UNL A   1      40.500  27.753  28.876  1.00  0.00     0.049 A 
ATOM     43  N   UNL A   1      42.228  29.928  30.042  1.00  0.00    -0.248 NA
ATOM     44  C   UNL A   1      40.363  31.331  30.047  1.00  0.00     0.031 C 
ATOM     45  C   UNL A   1      39.708  26.655  28.328  1.00  0.00     0.029 A 
ATOM     46  N   UNL A   1      41.769  27.239  28.981  1.00  0.00    -0.354 N 
ATOM     47  C   UNL A   1      42.590  31.174  30.542  1.00  0.00     0.074 A 
ATOM     48  C   UNL A   1      41.412  32.011  30.482  1.00  0.00     0.031 C 
ATOM     49  C   UNL A   1      40.512  25.594  28.139  1.00  0.00     0.029 A 
ATOM     50  C   UNL A   1      41.876  25.942  28.541  1.00  0.00     0.049 A 
ATOM     51  H   UNL A   1      42.530  27.751  29.339  1.00  0.00     0.167 HD
ATOM     52  C   UNL A   1      43.790  31.583  31.023  1.00  0.00     0.037 A 
ATOM     53  C   UNL A   1      42.949  25.130  28.467  1.00  0.00     0.037 A 
ATOM     54  C   UNL A   1      44.963  30.753  31.078  1.00  0.00     0.049 A 
ATOM     55  C   UNL A   1      44.283  25.607  28.978  1.00  0.00     0.074 A 
ATOM     56  C   UNL A   1      46.217  31.066  31.574  1.00  0.00     0.029 A 
ATOM     57  N   UNL A   1      45.034  29.450  30.608  1.00  0.00    -0.354 N 
ATOM     58  N   UNL A   1      44.598  26.771  29.498  1.00  0.00    -0.248 NA
ATOM     59  C   UNL A   1      45.403  24.659  28.907  1.00  0.00     0.031 C 
ATOM     60  C   UNL A   1      47.058  29.967  31.361  1.00  0.00     0.029 A 
ATOM     61  C   UNL A   1      46.316  28.952  30.777  1.00  0.00     0.049 A 
ATOM     62  H   UNL A   1      44.283  28.951  30.211  1.00  0.00     0.167 HD
ATOM     63  C   UNL A   1      45.946  26.687  29.835  1.00  0.00     0.074 A 
ATOM     64  C   UNL A   1      46.383  25.356  29.468  1.00  0.00     0.031 C 
ATOM     65  C   UNL A   1      46.744  27.626  30.404  1.00  0.00     0.037 A 
BRANCH  52  66
ATOM     66  C   UNL A   1      43.887  33.009  31.495  1.00  0.00     0.058 A 
ATOM     67  C   UNL A   1      43.570  33.375  32.813  1.00  0.00     0.135 A 
ATOM     68  C   UNL A   1      44.285  34.025  30.611  1.00  0.00     0.135 A 
ATOM     69  F   UNL A   1      43.170  32.446  33.697  1.00  0.00    -0.206 F 
ATOM     70  C   UNL A   1      43.596  34.705  33.225  1.00  0.00     0.059 A 
ATOM     71  C   UNL A   1      44.345  35.357  31.009  1.00  0.00     0.059 A 
ATOM     72  F   UNL A   1      44.602  33.730  29.341  1.00  0.00    -0.206 F 
ATOM     73  C   UNL A   1      43.974  35.690  32.311  1.00  0.00     0.060 A 
BRANCH  73  74
ATOM     74  S   UNL A   1      43.962  37.416  32.842  1.00  0.00     0.124 S 
ATOM     75  O   UNL A   1      43.834  38.110  31.564  1.00  0.00    -0.237 OA
ATOM     76  O   UNL A   1      42.792  37.470  33.712  1.00  0.00    -0.237 OA
ATOM     77  O   UNL A   1      45.246  37.573  33.516  1.00  0.00    -0.744 OA
ENDBRANCH  73  74
ENDBRANCH  52  66
BRANCH  53  78
ATOM     78  C   UNL A   1      42.787  23.768  27.895  1.00  0.00     0.058 A 
ATOM     79  C   UNL A   1      42.611  22.646  28.718  1.00  0.00     0.135 A 
ATOM     80  C   UNL A   1      42.742  23.574  26.505  1.00  0.00     0.135 A 
ATOM     81  F   UNL A   1      42.660  22.779  30.052  1.00  0.00    -0.206 F 
ATOM     82  C   UNL A   1      42.382  21.382  28.184  1.00  0.00     0.059 A 
ATOM     83  C   UNL A   1      42.493  22.324  25.948  1.00  0.00     0.059 A 
ATOM     84  F   UNL A   1      42.898  24.618  25.676  1.00  0.00    -0.206 F 
ATOM     85  C   UNL A   1      42.310  21.233  26.797  1.00  0.00     0.060 A 
BRANCH  85  86
ATOM     86  S   UNL A   1      41.897  19.611  26.118  1.00  0.00     0.124 S 
ATOM     87  O   UNL A   1      40.456  19.729  25.927  1.00  0.00    -0.237 OA
ATOM     88  O   UNL A   1      42.702  19.575  24.900  1.00  0.00    -0.237 OA
ATOM     89  O   UNL A   1      42.323  18.691  27.167  1.00  0.00    -0.744 OA
ENDBRANCH  85  86
ENDBRANCH  53  78
BRANCH  65  90
ATOM     90  C   UNL A   1      48.172  27.248  30.688  1.00  0.00     0.058 A 
ATOM     91  C   UNL A   1      49.214  27.580  29.808  1.00  0.00     0.135 A 
ATOM     92  C   UNL A   1      48.511  26.597  31.886  1.00  0.00     0.135 A 
ATOM     93  F   UNL A   1      48.947  28.200  28.647  1.00  0.00    -0.206 F 
ATOM     94  C   UNL A   1      50.538  27.262  30.095  1.00  0.00     0.059 A 
ATOM     95  C   UNL A   1      49.831  26.291  32.205  1.00  0.00     0.059 A 
ATOM     96  F   UNL A   1      47.555  26.267  32.769  1.00  0.00    -0.206 F 
ATOM     97  C   UNL A   1      50.837  26.617  31.297  1.00  0.00     0.060 A 
BRANCH  97  98
ATOM     98  S   UNL A   1      52.561  26.236  31.674  1.00  0.00     0.124 S 
ATOM     99  O   UNL A   1      52.946  27.387  32.485  1.00  0.00    -0.237 OA
ATOM    100  O   UNL A   1      52.454  24.967  32.386  1.00  0.00    -0.237 OA
ATOM    101  O   UNL A   1      53.188  26.158  30.358  1.00  0.00    -0.744 OA
ENDBRANCH  97  98
ENDBRANCH  65  90
ENDBRANCH  39  40
ENDBRANCH  32  34
ENDBRANCH  31  32
ENDBRANCH  30  31
ENDBRANCH  29  30
ENDBRANCH  28  29
ENDBRANCH  27  28
ENDBRANCH   1  27
TORSDOF 23
ENDMDL
MODEL 2
REMARK VINA RESULT:      -8.2      5.365     12.877
REMARK SMILES Cc1ccc(Oc2ccc(NC(=O)CCCC(=O)OCCOCCOC(=O)c3ccc(-c4c5nc(c(-c6c(F)cc(S(=O)(=O)[O-])cc6F)c6ccc([nH]6)c(-c6c(F)cc(S(=O)(=O)[O-])cc6F)c6nc(c(-c7c(F)cc(S(=O)(=O)[O-])cc7F)c7ccc4[nH]7)C=C6)C=C5)cc3)cc2)cc1C
REMARK SMILES IDX 20 1 19 2 17 3 18 4 16 5 15 6 14 7 12 8 11 9 13 11 10 12
REMARK SMILES IDX 7 13 8 14 95 15 9 16 94 17 6 18 5 19 1 20 2 21 3 22 97 23
REMARK SMILES IDX 4 24 96 25 98 26 21 27 22 28 23 29 24 30 25 31 26 32 27 33
REMARK SMILES IDX 28 34 29 35 93 36 30 37 92 38 31 39 32 40 33 41 86 42 34 43
REMARK SMILES IDX 91 44 85 45 87 46 35 47 90 48 84 49 83 50 36 52 70 53 49 54
REMARK SMILES IDX 69 55 50 56 53 57 68 58 88 59 51 60 52 61 67 63 89 64 54 65
REMARK SMILES IDX 37 66 38 67 47 68 39 69 40 70 46 71 48 72 41 73 42 74 43 75
REMARK SMILES IDX 44 76 45 77 71 78 72 79 81 80 73 81 74 82 80 83 82 84 75 85
REMARK SMILES IDX 76 86 77 87 78 88 79 89 55 90 56 91 65 92 57 93 58 94 64 95
REMARK SMILES IDX 66 96 59 97 60 98 61 99 62 100 63 101
REMARK H PARENT 11 10 87 51 53 62
REMARK Flexibility Score: inf
ROOT
ATOM      1  C   UNL A   1      43.470  26.094  27.171  1.00  0.00     0.261 C 
ENDROOT
BRANCH   1   2
ATOM      2  O   UNL A   1      42.426  26.113  28.165  1.00  0.00    -0.463 OA
BRANCH   2   3
ATOM      3  C   UNL A   1      41.626  25.028  28.292  1.00  0.00     0.305 C 
ATOM      4  O   UNL A   1      42.003  23.922  28.652  1.00  0.00    -0.252 OA
BRANCH   3   5
ATOM      5  C   UNL A   1      40.182  25.332  27.944  1.00  0.00     0.123 C 
BRANCH   5   6
ATOM      6  C   UNL A   1      39.662  24.819  26.598  1.00  0.00     0.022 C 
BRANCH   6   7
ATOM      7  C   UNL A   1      38.500  23.814  26.627  1.00  0.00     0.101 C 
BRANCH   7   8
ATOM      8  C   UNL A   1      38.872  22.415  26.173  1.00  0.00     0.224 C 
ATOM      9  N   UNL A   1      38.110  21.675  25.320  1.00  0.00    -0.326 N 
ATOM     10  H   UNL A   1      38.530  20.824  25.058  1.00  0.00     0.169 HD
ATOM     11  O   UNL A   1      39.969  21.946  26.499  1.00  0.00    -0.275 OA
BRANCH   9  12
ATOM     12  C   UNL A   1      36.851  21.875  24.740  1.00  0.00     0.041 A 
ATOM     13  C   UNL A   1      34.403  22.682  23.622  1.00  0.00     0.127 A 
ATOM     14  C   UNL A   1      34.431  21.843  24.732  1.00  0.00     0.049 A 
ATOM     15  C   UNL A   1      35.600  23.038  23.010  1.00  0.00     0.049 A 
ATOM     16  C   UNL A   1      35.652  21.424  25.278  1.00  0.00     0.030 A 
ATOM     17  C   UNL A   1      36.818  22.611  23.549  1.00  0.00     0.030 A 
BRANCH  13  18
ATOM     18  O   UNL A   1      33.262  23.283  23.150  1.00  0.00    -0.457 OA
BRANCH  18  19
ATOM     19  C   UNL A   1      33.161  24.654  23.122  1.00  0.00     0.127 A 
ATOM     20  C   UNL A   1      33.395  28.961  23.198  1.00  0.00     0.044 C 
ATOM     21  C   UNL A   1      33.263  27.464  23.223  1.00  0.00    -0.048 A 
ATOM     22  C   UNL A   1      33.030  26.791  22.012  1.00  0.00     0.007 A 
ATOM     23  C   UNL A   1      33.422  26.717  24.406  1.00  0.00    -0.045 A 
ATOM     24  C   UNL A   1      32.999  25.398  21.957  1.00  0.00     0.047 A 
ATOM     25  C   UNL A   1      33.354  25.313  24.341  1.00  0.00     0.050 A 
ATOM     26  C   UNL A   1      33.630  27.362  25.750  1.00  0.00     0.045 C 
ENDBRANCH  18  19
ENDBRANCH  13  18
ENDBRANCH   9  12
ENDBRANCH   7   8
ENDBRANCH   6   7
ENDBRANCH   5   6
ENDBRANCH   3   5
ENDBRANCH   2   3
ENDBRANCH   1   2
BRANCH   1  27
ATOM     27  C   UNL A   1      43.048  26.185  25.703  1.00  0.00     0.202 C 
BRANCH  27  28
ATOM     28  O   UNL A   1      43.245  25.000  24.938  1.00  0.00    -0.374 OA
BRANCH  28  29
ATOM     29  C   UNL A   1      44.025  23.992  25.568  1.00  0.00     0.202 C 
BRANCH  29  30
ATOM     30  C   UNL A   1      45.362  23.757  24.849  1.00  0.00     0.261 C 
BRANCH  30  31
ATOM     31  O   UNL A   1      46.230  24.904  24.860  1.00  0.00    -0.460 OA
BRANCH  31  32
ATOM     32  C   UNL A   1      46.852  25.109  26.051  1.00  0.00     0.338 C 
ATOM     33  O   UNL A   1      47.293  24.258  26.805  1.00  0.00    -0.246 OA
BRANCH  32  34
ATOM     34  C   UNL A   1      47.003  26.553  26.322  1.00  0.00     0.060 A 
ATOM     35  C   UNL A   1      47.556  26.937  27.550  1.00  0.00     0.016 A 
ATOM     36  C   UNL A   1      46.493  27.515  25.445  1.00  0.00     0.016 A 
ATOM     37  C   UNL A   1      47.512  28.273  27.948  1.00  0.00     0.010 A 
ATOM     38  C   UNL A   1      46.444  28.854  25.847  1.00  0.00     0.010 A 
ATOM     39  C   UNL A   1      46.894  29.227  27.127  1.00  0.00    -0.014 A 
BRANCH  39  40
ATOM     40  C   UNL A   1      46.523  30.543  27.711  1.00  0.00     0.031 A 
ATOM     41  C   UNL A   1      45.276  30.634  28.552  1.00  0.00     0.074 A 
ATOM     42  C   UNL A   1      47.306  31.626  27.554  1.00  0.00     0.049 A 
ATOM     43  N   UNL A   1      44.795  31.652  29.220  1.00  0.00    -0.248 NA
ATOM     44  C   UNL A   1      44.461  29.413  28.651  1.00  0.00     0.031 C 
ATOM     45  C   UNL A   1      48.541  31.668  26.778  1.00  0.00     0.029 A 
ATOM     46  N   UNL A   1      47.169  32.900  28.047  1.00  0.00    -0.354 N 
ATOM     47  C   UNL A   1      43.626  31.194  29.817  1.00  0.00     0.074 A 
ATOM     48  C   UNL A   1      43.448  29.822  29.398  1.00  0.00     0.031 C 
ATOM     49  C   UNL A   1      49.051  32.911  26.841  1.00  0.00     0.029 A 
ATOM     50  C   UNL A   1      48.170  33.753  27.652  1.00  0.00     0.049 A 
ATOM     51  H   UNL A   1      46.425  33.176  28.629  1.00  0.00     0.167 HD
ATOM     52  C   UNL A   1      42.783  31.850  30.652  1.00  0.00     0.037 A 
ATOM     53  C   UNL A   1      48.355  35.063  27.912  1.00  0.00     0.037 A 
ATOM     54  C   UNL A   1      42.957  33.217  31.066  1.00  0.00     0.049 A 
ATOM     55  C   UNL A   1      47.395  35.788  28.818  1.00  0.00     0.074 A 
ATOM     56  C   UNL A   1      42.175  33.961  31.931  1.00  0.00     0.029 A 
ATOM     57  N   UNL A   1      43.976  34.052  30.631  1.00  0.00    -0.354 N 
ATOM     58  N   UNL A   1      46.323  35.327  29.420  1.00  0.00    -0.248 NA
ATOM     59  C   UNL A   1      47.676  37.203  29.094  1.00  0.00     0.031 C 
ATOM     60  C   UNL A   1      42.695  35.260  31.983  1.00  0.00     0.029 A 
ATOM     61  C   UNL A   1      43.830  35.312  31.189  1.00  0.00     0.049 A 
ATOM     62  H   UNL A   1      44.698  33.789  30.015  1.00  0.00     0.167 HD
ATOM     63  C   UNL A   1      45.814  36.390  30.160  1.00  0.00     0.074 A 
ATOM     64  C   UNL A   1      46.701  37.513  29.938  1.00  0.00     0.031 C 
ATOM     65  C   UNL A   1      44.716  36.427  30.958  1.00  0.00     0.037 A 
BRANCH  52  66
ATOM     66  C   UNL A   1      41.579  31.092  31.142  1.00  0.00     0.058 A 
ATOM     67  C   UNL A   1      40.312  31.259  30.560  1.00  0.00     0.135 A 
ATOM     68  C   UNL A   1      41.691  30.200  32.220  1.00  0.00     0.135 A 
ATOM     69  F   UNL A   1      40.144  32.111  29.535  1.00  0.00    -0.206 F 
ATOM     70  C   UNL A   1      39.189  30.607  31.062  1.00  0.00     0.059 A 
ATOM     71  C   UNL A   1      40.587  29.516  32.720  1.00  0.00     0.059 A 
ATOM     72  F   UNL A   1      42.879  30.000  32.812  1.00  0.00    -0.206 F 
ATOM     73  C   UNL A   1      39.335  29.746  32.150  1.00  0.00     0.060 A 
BRANCH  73  74
ATOM     74  S   UNL A   1      37.866  28.939  32.822  1.00  0.00     0.124 S 
ATOM     75  O   UNL A   1      38.279  27.539  32.818  1.00  0.00    -0.237 OA
ATOM     76  O   UNL A   1      37.739  29.559  34.137  1.00  0.00    -0.237 OA
ATOM     77  O   UNL A   1      36.820  29.288  31.866  1.00  0.00    -0.744 OA
ENDBRANCH  73  74
ENDBRANCH  52  66
BRANCH  53  78
ATOM     78  C   UNL A   1      49.519  35.763  27.307  1.00  0.00     0.058 A 
ATOM     79  C   UNL A   1      50.730  35.900  28.000  1.00  0.00     0.135 A 
ATOM     80  C   UNL A   1      49.457  36.254  25.993  1.00  0.00     0.135 A 
ATOM     81  F   UNL A   1      50.832  35.459  29.263  1.00  0.00    -0.206 F 
ATOM     82  C   UNL A   1      51.844  36.485  27.409  1.00  0.00     0.059 A 
ATOM     83  C   UNL A   1      50.564  36.823  25.372  1.00  0.00     0.059 A 
ATOM     84  F   UNL A   1      48.323  36.139  25.286  1.00  0.00    -0.206 F 
ATOM     85  C   UNL A   1      51.756  36.931  26.088  1.00  0.00     0.060 A 
BRANCH  85  86
ATOM     86  S   UNL A   1      53.240  37.583  25.290  1.00  0.00     0.124 S 
ATOM     87  O   UNL A   1      53.233  38.970  25.741  1.00  0.00    -0.237 OA
ATOM     88  O   UNL A   1      54.287  36.733  25.853  1.00  0.00    -0.237 OA
ATOM     89  O   UNL A   1      52.975  37.377  23.870  1.00  0.00    -0.744 OA
ENDBRANCH  85  86
ENDBRANCH  53  78
BRANCH  65  90
ATOM     90  C   UNL A   1      44.415  37.716  31.671  1.00  0.00     0.058 A 
ATOM     91  C   UNL A   1      43.690  38.750  31.057  1.00  0.00     0.135 A 
ATOM     92  C   UNL A   1      44.806  37.897  33.009  1.00  0.00     0.135 A 
ATOM     93  F   UNL A   1      43.294  38.631  29.780  1.00  0.00    -0.206 F 
ATOM     94  C   UNL A   1      43.381  39.925  31.737  1.00  0.00     0.059 A 
ATOM     95  C   UNL A   1      44.487  39.054  33.714  1.00  0.00     0.059 A 
ATOM     96  F   UNL A   1      45.491  36.936  33.649  1.00  0.00    -0.206 F 
ATOM     97  C   UNL A   1      43.784  40.068  33.066  1.00  0.00     0.060 A 
BRANCH  97  98
ATOM     98  S   UNL A   1      43.353  41.584  33.947  1.00  0.00     0.124 S 
ATOM     99  O   UNL A   1      41.903  41.619  33.778  1.00  0.00    -0.237 OA
ATOM    100  O   UNL A   1      43.827  41.307  35.299  1.00  0.00    -0.237 OA
ATOM    101  O   UNL A   1      44.093  42.617  33.229  1.00  0.00    -0.744 OA
ENDBRANCH  97  98
ENDBRANCH  65  90
ENDBRANCH  39  40
ENDBRANCH  32  34
ENDBRANCH  31  32
ENDBRANCH  30  31
ENDBRANCH  29  30
ENDBRANCH  28  29
ENDBRANCH  27  28
ENDBRANCH   1  27
TORSDOF 23
ENDMDL
MODEL 3
REMARK VINA RESULT:      -8.0      4.957     10.500
REMARK SMILES Cc1ccc(Oc2ccc(NC(=O)CCCC(=O)OCCOCCOC(=O)c3ccc(-c4c5nc(c(-c6c(F)cc(S(=O)(=O)[O-])cc6F)c6ccc([nH]6)c(-c6c(F)cc(S(=O)(=O)[O-])cc6F)c6nc(c(-c7c(F)cc(S(=O)(=O)[O-])cc7F)c7ccc4[nH]7)C=C6)C=C5)cc3)cc2)cc1C
REMARK SMILES IDX 20 1 19 2 17 3 18 4 16 5 15 6 14 7 12 8 11 9 13 11 10 12
REMARK SMILES IDX 7 13 8 14 95 15 9 16 94 17 6 18 5 19 1 20 2 21 3 22 97 23
REMARK SMILES IDX 4 24 96 25 98 26 21 27 22 28 23 29 24 30 25 31 26 32 27 33
REMARK SMILES IDX 28 34 29 35 93 36 30 37 92 38 31 39 32 40 33 41 86 42 34 43
REMARK SMILES IDX 91 44 85 45 87 46 35 47 90 48 84 49 83 50 36 52 70 53 49 54
REMARK SMILES IDX 69 55 50 56 53 57 68 58 88 59 51 60 52 61 67 63 89 64 54 65
REMARK SMILES IDX 37 66 38 67 47 68 39 69 40 70 46 71 48 72 41 73 42 74 43 75
REMARK SMILES IDX 44 76 45 77 71 78 72 79 81 80 73 81 74 82 80 83 82 84 75 85
REMARK SMILES IDX 76 86 77 87 78 88 79 89 55 90 56 91 65 92 57 93 58 94 64 95
REMARK SMILES IDX 66 96 59 97 60 98 61 99 62 100 63 101
REMARK H PARENT 11 10 87 51 53 62
REMARK Flexibility Score: inf
ROOT
ATOM      1  C   UNL A   1      34.162  30.376  27.436  1.00  0.00     0.261 C 
ENDROOT
BRANCH   1   2
ATOM      2  O   UNL A   1      34.456  29.069  26.904  1.00  0.00    -0.463 OA
BRANCH   2   3
ATOM      3  C   UNL A   1      33.456  28.163  26.807  1.00  0.00     0.305 C 
ATOM      4  O   UNL A   1      32.549  28.035  27.619  1.00  0.00    -0.252 OA
BRANCH   3   5
ATOM      5  C   UNL A   1      33.569  27.308  25.561  1.00  0.00     0.123 C 
BRANCH   5   6
ATOM      6  C   UNL A   1      34.257  25.946  25.704  1.00  0.00     0.022 C 
BRANCH   6   7
ATOM      7  C   UNL A   1      33.393  24.764  26.166  1.00  0.00     0.101 C 
BRANCH   7   8
ATOM      8  C   UNL A   1      33.029  23.786  25.065  1.00  0.00     0.224 C 
ATOM      9  N   UNL A   1      32.269  24.118  23.985  1.00  0.00    -0.326 N 
ATOM     10  H   UNL A   1      32.195  23.395  23.321  1.00  0.00     0.169 HD
ATOM     11  O   UNL A   1      33.525  22.653  25.078  1.00  0.00    -0.275 OA
BRANCH   9  12
ATOM     12  C   UNL A   1      31.571  25.278  23.625  1.00  0.00     0.041 A 
ATOM     13  C   UNL A   1      29.851  27.353  22.831  1.00  0.00     0.127 A 
ATOM     14  C   UNL A   1      31.058  27.143  22.170  1.00  0.00     0.049 A 
ATOM     15  C   UNL A   1      29.550  26.587  23.952  1.00  0.00     0.049 A 
ATOM     16  C   UNL A   1      31.926  26.121  22.578  1.00  0.00     0.030 A 
ATOM     17  C   UNL A   1      30.421  25.575  24.366  1.00  0.00     0.030 A 
BRANCH  13  18
ATOM     18  O   UNL A   1      28.871  28.200  22.375  1.00  0.00    -0.457 OA
BRANCH  18  19
ATOM     19  C   UNL A   1      28.987  29.558  22.562  1.00  0.00     0.127 A 
ATOM     20  C   UNL A   1      28.777  33.830  23.126  1.00  0.00     0.044 C 
ATOM     21  C   UNL A   1      28.886  32.353  22.868  1.00  0.00    -0.048 A 
ATOM     22  C   UNL A   1      29.410  31.532  23.881  1.00  0.00     0.007 A 
ATOM     23  C   UNL A   1      28.429  31.766  21.673  1.00  0.00    -0.045 A 
ATOM     24  C   UNL A   1      29.443  30.146  23.738  1.00  0.00     0.047 A 
ATOM     25  C   UNL A   1      28.499  30.367  21.530  1.00  0.00     0.050 A 
ATOM     26  C   UNL A   1      27.896  32.577  20.522  1.00  0.00     0.045 C 
ENDBRANCH  18  19
ENDBRANCH  13  18
ENDBRANCH   9  12
ENDBRANCH   7   8
ENDBRANCH   6   7
ENDBRANCH   5   6
ENDBRANCH   3   5
ENDBRANCH   2   3
ENDBRANCH   1   2
BRANCH   1  27
ATOM     27  C   UNL A   1      35.347  31.281  27.779  1.00  0.00     0.202 C 
BRANCH  27  28
ATOM     28  O   UNL A   1      35.349  31.807  29.103  1.00  0.00    -0.374 OA
BRANCH  28  29
ATOM     29  C   UNL A   1      34.510  32.936  29.310  1.00  0.00     0.202 C 
BRANCH  29  30
ATOM     30  C   UNL A   1      34.603  33.474  30.746  1.00  0.00     0.261 C 
BRANCH  30  31
ATOM     31  O   UNL A   1      34.419  32.462  31.752  1.00  0.00    -0.460 OA
BRANCH  31  32
ATOM     32  C   UNL A   1      35.105  32.702  32.901  1.00  0.00     0.338 C 
ATOM     33  O   UNL A   1      34.678  33.230  33.914  1.00  0.00    -0.246 OA
BRANCH  32  34
ATOM     34  C   UNL A   1      36.480  32.170  32.812  1.00  0.00     0.060 A 
ATOM     35  C   UNL A   1      37.487  32.827  33.529  1.00  0.00     0.016 A 
ATOM     36  C   UNL A   1      36.800  31.126  31.938  1.00  0.00     0.016 A 
ATOM     37  C   UNL A   1      38.825  32.509  33.304  1.00  0.00     0.010 A 
ATOM     38  C   UNL A   1      38.144  30.812  31.708  1.00  0.00     0.010 A 
ATOM     39  C   UNL A   1      39.163  31.546  32.342  1.00  0.00    -0.014 A 
BRANCH  39  40
ATOM     40  C   UNL A   1      40.564  31.486  31.848  1.00  0.00     0.031 A 
ATOM     41  C   UNL A   1      41.093  32.637  31.032  1.00  0.00     0.074 A 
ATOM     42  C   UNL A   1      41.377  30.462  32.166  1.00  0.00     0.049 A 
ATOM     43  N   UNL A   1      42.297  32.839  30.559  1.00  0.00    -0.248 NA
ATOM     44  C   UNL A   1      40.134  33.704  30.704  1.00  0.00     0.031 C 
ATOM     45  C   UNL A   1      40.994  29.297  32.958  1.00  0.00     0.029 A 
ATOM     46  N   UNL A   1      42.697  30.247  31.859  1.00  0.00    -0.354 N 
ATOM     47  C   UNL A   1      42.239  34.052  29.882  1.00  0.00     0.074 A 
ATOM     48  C   UNL A   1      40.873  34.518  29.968  1.00  0.00     0.031 C 
ATOM     49  C   UNL A   1      42.058  28.481  33.070  1.00  0.00     0.029 A 
ATOM     50  C   UNL A   1      43.191  29.062  32.348  1.00  0.00     0.049 A 
ATOM     51  H   UNL A   1      43.240  30.881  31.337  1.00  0.00     0.167 HD
ATOM     52  C   UNL A   1      43.235  34.726  29.256  1.00  0.00     0.037 A 
ATOM     53  C   UNL A   1      44.414  28.508  32.227  1.00  0.00     0.037 A 
ATOM     54  C   UNL A   1      44.593  34.261  29.166  1.00  0.00     0.049 A 
ATOM     55  C   UNL A   1      45.504  29.255  31.505  1.00  0.00     0.074 A 
ATOM     56  C   UNL A   1      45.680  34.884  28.580  1.00  0.00     0.029 A 
ATOM     57  N   UNL A   1      45.048  33.048  29.662  1.00  0.00    -0.354 N 
ATOM     58  N   UNL A   1      45.448  30.427  30.915  1.00  0.00    -0.248 NA
ATOM     59  C   UNL A   1      46.825  28.615  31.445  1.00  0.00     0.031 C 
ATOM     60  C   UNL A   1      46.783  34.028  28.681  1.00  0.00     0.029 A 
ATOM     61  C   UNL A   1      46.395  32.891  29.374  1.00  0.00     0.049 A 
ATOM     62  H   UNL A   1      44.496  32.393  30.148  1.00  0.00     0.167 HD
ATOM     63  C   UNL A   1      46.730  30.672  30.432  1.00  0.00     0.074 A 
ATOM     64  C   UNL A   1      47.541  29.532  30.806  1.00  0.00     0.031 C 
ATOM     65  C   UNL A   1      47.193  31.749  29.746  1.00  0.00     0.037 A 
BRANCH  52  66
ATOM     66  C   UNL A   1      42.869  36.027  28.595  1.00  0.00     0.058 A 
ATOM     67  C   UNL A   1      42.422  36.081  27.264  1.00  0.00     0.135 A 
ATOM     68  C   UNL A   1      42.984  37.238  29.296  1.00  0.00     0.135 A 
ATOM     69  F   UNL A   1      42.307  34.955  26.542  1.00  0.00    -0.206 F 
ATOM     70  C   UNL A   1      42.151  37.295  26.636  1.00  0.00     0.059 A 
ATOM     71  C   UNL A   1      42.691  38.460  28.697  1.00  0.00     0.059 A 
ATOM     72  F   UNL A   1      43.403  37.244  30.571  1.00  0.00    -0.206 F 
ATOM     73  C   UNL A   1      42.300  38.479  27.358  1.00  0.00     0.060 A 
BRANCH  73  74
ATOM     74  S   UNL A   1      41.989  40.049  26.523  1.00  0.00     0.124 S 
ATOM     75  O   UNL A   1      41.828  40.953  27.658  1.00  0.00    -0.237 OA
ATOM     76  O   UNL A   1      43.203  40.233  25.734  1.00  0.00    -0.237 OA
ATOM     77  O   UNL A   1      40.778  39.789  25.751  1.00  0.00    -0.744 OA
ENDBRANCH  73  74
ENDBRANCH  52  66
BRANCH  53  78
ATOM     78  C   UNL A   1      44.664  27.172  32.827  1.00  0.00     0.058 A 
ATOM     79  C   UNL A   1      45.113  27.037  34.149  1.00  0.00     0.135 A 
ATOM     80  C   UNL A   1      44.398  25.998  32.104  1.00  0.00     0.135 A 
ATOM     81  F   UNL A   1      45.395  28.129  34.876  1.00  0.00    -0.206 F 
ATOM     82  C   UNL A   1      45.274  25.788  34.739  1.00  0.00     0.059 A 
ATOM     83  C   UNL A   1      44.530  24.739  32.678  1.00  0.00     0.059 A 
ATOM     84  F   UNL A   1      43.959  26.076  30.838  1.00  0.00    -0.206 F 
ATOM     85  C   UNL A   1      44.967  24.643  33.998  1.00  0.00     0.060 A 
BRANCH  85  86
ATOM     86  S   UNL A   1      45.067  23.032  34.809  1.00  0.00     0.124 S 
ATOM     87  O   UNL A   1      46.233  23.206  35.669  1.00  0.00    -0.237 OA
ATOM     88  O   UNL A   1      43.778  22.952  35.490  1.00  0.00    -0.237 OA
ATOM     89  O   UNL A   1      45.235  22.106  33.694  1.00  0.00    -0.744 OA
ENDBRANCH  85  86
ENDBRANCH  53  78
BRANCH  65  90
ATOM     90  C   UNL A   1      48.649  31.763  29.371  1.00  0.00     0.058 A 
ATOM     91  C   UNL A   1      49.632  32.269  30.236  1.00  0.00     0.135 A 
ATOM     92  C   UNL A   1      49.076  31.208  28.152  1.00  0.00     0.135 A 
ATOM     93  F   UNL A   1      49.281  32.814  31.413  1.00  0.00    -0.206 F 
ATOM     94  C   UNL A   1      50.982  32.243  29.900  1.00  0.00     0.059 A 
ATOM     95  C   UNL A   1      50.422  31.150  27.806  1.00  0.00     0.059 A 
ATOM     96  F   UNL A   1      48.179  30.699  27.292  1.00  0.00    -0.206 F 
ATOM     97  C   UNL A   1      51.368  31.681  28.681  1.00  0.00     0.060 A 
BRANCH  97  98
ATOM     98  S   UNL A   1      53.125  31.626  28.266  1.00  0.00     0.124 S 
ATOM     99  O   UNL A   1      53.443  30.225  28.525  1.00  0.00    -0.237 OA
ATOM    100  O   UNL A   1      53.129  32.028  26.864  1.00  0.00    -0.237 OA
ATOM    101  O   UNL A   1      53.722  32.585  29.189  1.00  0.00    -0.744 OA
ENDBRANCH  97  98
ENDBRANCH  65  90
ENDBRANCH  39  40
ENDBRANCH  32  34
ENDBRANCH  31  32
ENDBRANCH  30  31
ENDBRANCH  29  30
ENDBRANCH  28  29
ENDBRANCH  27  28
ENDBRANCH   1  27
TORSDOF 23
ENDMDL
