MODEL 1
REMARK VINA RESULT:     -10.5      0.000      0.000
REMARK SMILES C/C(C(=O)NCc1cscc1C)=C(\C)C(=O)OCCOCCOC(=O)c1ccc(-c2c3nc(c(-c4c(F)cc(S(=O)(=O)[O-])cc4F)c4ccc([nH]4)c(-c4c(F)cc(S(=O)(=O)[O-])cc4F)c4nc(c(-c5c(F)cc(S(=O)(=O)[O-])cc5F)c5ccc2[nH]5)C=C4)C=C3)cc1
REMARK SMILES IDX 20 1 19 2 18 3 17 4 15 5 16 6 13 7 1 8 2 9 14 10 3 11 4 12
REMARK SMILES IDX 5 13 6 15 7 16 8 17 11 18 9 19 10 20 12 21 21 22 22 23 23 24
REMARK SMILES IDX 24 25 25 26 26 27 27 28 91 29 28 30 90 31 29 32 30 33 31 34
REMARK SMILES IDX 84 35 32 36 89 37 83 38 85 39 33 40 88 41 82 42 81 43 34 45
REMARK SMILES IDX 68 46 47 47 67 48 48 49 51 50 66 51 86 52 49 53 50 54 65 56
REMARK SMILES IDX 87 57 52 58 35 59 36 60 45 61 37 62 38 63 44 64 46 65 39 66
REMARK SMILES IDX 40 67 41 68 42 69 43 70 69 71 70 72 79 73 71 74 72 75 78 76
REMARK SMILES IDX 80 77 73 78 74 79 75 80 76 81 77 82 53 83 54 84 63 85 55 86
REMARK SMILES IDX 56 87 62 88 64 89 57 90 58 91 59 92 60 93 61 94
REMARK H PARENT 5 14 85 44 51 55
REMARK Flexibility Score: inf
ROOT
ATOM      1  O   UNL A   1      35.158  32.849  27.612  1.00  0.00    -0.374 OA
ENDROOT
BRANCH   1   2
ATOM      2  C   UNL A   1      34.306  31.819  28.123  1.00  0.00     0.202 C 
BRANCH   2   3
ATOM      3  C   UNL A   1      33.864  30.737  27.134  1.00  0.00     0.261 C 
BRANCH   3   4
ATOM      4  O   UNL A   1      32.451  30.527  27.256  1.00  0.00    -0.460 OA
BRANCH   4   5
ATOM      5  C   UNL A   1      31.848  29.919  26.210  1.00  0.00     0.334 C 
ATOM      6  O   UNL A   1      31.299  30.453  25.254  1.00  0.00    -0.247 OA
BRANCH   5   7
ATOM      7  C   UNL A   1      31.873  28.445  26.441  1.00  0.00     0.042 C 
ATOM      8  C   UNL A   1      31.984  26.098  25.653  1.00  0.00     0.051 C 
ATOM      9  C   UNL A   1      32.233  27.566  25.467  1.00  0.00     0.024 C 
ATOM     10  C   UNL A   1      31.437  28.101  27.843  1.00  0.00     0.053 C 
BRANCH   9  11
ATOM     11  C   UNL A   1      32.978  28.063  24.236  1.00  0.00     0.247 C 
ATOM     12  O   UNL A   1      34.120  28.517  24.325  1.00  0.00    -0.270 OA
ATOM     13  N   UNL A   1      32.517  27.944  22.959  1.00  0.00    -0.348 N 
ATOM     14  H   UNL A   1      33.140  28.276  22.273  1.00  0.00     0.164 HD
BRANCH  13  15
ATOM     15  C   UNL A   1      31.286  27.421  22.436  1.00  0.00     0.153 C 
BRANCH  15  16
ATOM     16  C   UNL A   1      30.103  28.346  22.491  1.00  0.00    -0.015 A 
ATOM     17  C   UNL A   1      29.971  29.598  21.916  1.00  0.00     0.070 A 
ATOM     18  C   UNL A   1      28.870  27.958  23.161  1.00  0.00    -0.035 A 
ATOM     19  S   UNL A   1      28.438  30.305  22.192  1.00  0.00    -0.152 S 
ATOM     20  C   UNL A   1      27.906  28.944  23.066  1.00  0.00     0.068 A 
ATOM     21  C   UNL A   1      28.639  26.654  23.863  1.00  0.00     0.045 C 
ENDBRANCH  15  16
ENDBRANCH  13  15
ENDBRANCH   9  11
ENDBRANCH   5   7
ENDBRANCH   4   5
ENDBRANCH   3   4
ENDBRANCH   2   3
ENDBRANCH   1   2
BRANCH   1  22
ATOM     22  C   UNL A   1      35.894  33.623  28.557  1.00  0.00     0.202 C 
BRANCH  22  23
ATOM     23  C   UNL A   1      35.671  33.309  30.042  1.00  0.00     0.261 C 
BRANCH  23  24
ATOM     24  O   UNL A   1      36.866  32.899  30.724  1.00  0.00    -0.460 OA
BRANCH  24  25
ATOM     25  C   UNL A   1      36.860  31.604  31.119  1.00  0.00     0.338 C 
ATOM     26  O   UNL A   1      35.981  31.026  31.750  1.00  0.00    -0.246 OA
BRANCH  25  27
ATOM     27  C   UNL A   1      38.017  30.892  30.554  1.00  0.00     0.060 A 
ATOM     28  C   UNL A   1      39.059  30.560  31.428  1.00  0.00     0.016 A 
ATOM     29  C   UNL A   1      38.122  30.624  29.187  1.00  0.00     0.016 A 
ATOM     30  C   UNL A   1      40.229  29.996  30.931  1.00  0.00     0.010 A 
ATOM     31  C   UNL A   1      39.302  30.060  28.690  1.00  0.00     0.010 A 
ATOM     32  C   UNL A   1      40.374  29.773  29.555  1.00  0.00    -0.014 A 
BRANCH  32  33
ATOM     33  C   UNL A   1      41.689  29.332  29.030  1.00  0.00     0.031 A 
ATOM     34  C   UNL A   1      42.828  30.314  28.959  1.00  0.00     0.074 A 
ATOM     35  C   UNL A   1      41.877  28.050  28.669  1.00  0.00     0.049 A 
ATOM     36  N   UNL A   1      44.064  30.121  28.578  1.00  0.00    -0.248 NA
ATOM     37  C   UNL A   1      42.533  31.695  29.369  1.00  0.00     0.031 C 
ATOM     38  C   UNL A   1      40.851  27.007  28.708  1.00  0.00     0.029 A 
ATOM     39  N   UNL A   1      42.995  27.407  28.202  1.00  0.00    -0.354 N 
ATOM     40  C   UNL A   1      44.696  31.354  28.700  1.00  0.00     0.074 A 
ATOM     41  C   UNL A   1      43.695  32.296  29.156  1.00  0.00     0.031 C 
ATOM     42  C   UNL A   1      41.389  25.853  28.283  1.00  0.00     0.029 A 
ATOM     43  C   UNL A   1      42.786  26.079  27.919  1.00  0.00     0.049 A 
ATOM     44  H   UNL A   1      43.863  27.854  28.082  1.00  0.00     0.167 HD
ATOM     45  C   UNL A   1      45.993  31.669  28.463  1.00  0.00     0.037 A 
ATOM     46  C   UNL A   1      43.625  25.153  27.415  1.00  0.00     0.037 A 
ATOM     47  C   UNL A   1      46.982  30.723  28.009  1.00  0.00     0.049 A 
ATOM     48  C   UNL A   1      45.054  25.532  27.130  1.00  0.00     0.074 A 
ATOM     49  C   UNL A   1      48.329  30.934  27.771  1.00  0.00     0.029 A 
ATOM     50  N   UNL A   1      46.731  29.390  27.712  1.00  0.00    -0.354 N 
ATOM     51  N   UNL A   1      45.648  26.691  27.289  1.00  0.00    -0.248 NA
ATOM     52  C   UNL A   1      45.930  24.473  26.612  1.00  0.00     0.031 C 
ATOM     53  C   UNL A   1      48.879  29.745  27.277  1.00  0.00     0.029 A 
ATOM     54  C   UNL A   1      47.890  28.775  27.265  1.00  0.00     0.049 A 
ATOM     55  H   UNL A   1      45.856  28.947  27.806  1.00  0.00     0.167 HD
ATOM     56  C   UNL A   1      46.972  26.496  26.911  1.00  0.00     0.074 A 
ATOM     57  C   UNL A   1      47.094  25.102  26.535  1.00  0.00     0.031 C 
ATOM     58  C   UNL A   1      47.995  27.388  26.881  1.00  0.00     0.037 A 
BRANCH  45  59
ATOM     59  C   UNL A   1      46.411  33.101  28.664  1.00  0.00     0.058 A 
ATOM     60  C   UNL A   1      46.897  33.570  29.894  1.00  0.00     0.135 A 
ATOM     61  C   UNL A   1      46.346  34.014  27.598  1.00  0.00     0.135 A 
ATOM     62  F   UNL A   1      46.966  32.745  30.953  1.00  0.00    -0.206 F 
ATOM     63  C   UNL A   1      47.274  34.898  30.072  1.00  0.00     0.059 A 
ATOM     64  C   UNL A   1      46.745  35.339  27.744  1.00  0.00     0.059 A 
ATOM     65  F   UNL A   1      45.888  33.623  26.399  1.00  0.00    -0.206 F 
ATOM     66  C   UNL A   1      47.193  35.776  28.990  1.00  0.00     0.060 A 
BRANCH  66  67
ATOM     67  S   UNL A   1      47.682  37.497  29.235  1.00  0.00     0.124 S 
ATOM     68  O   UNL A   1      48.711  37.365  30.260  1.00  0.00    -0.237 OA
ATOM     69  O   UNL A   1      48.154  37.880  27.908  1.00  0.00    -0.237 OA
ATOM     70  O   UNL A   1      46.446  38.143  29.667  1.00  0.00    -0.744 OA
ENDBRANCH  66  67
ENDBRANCH  45  59
BRANCH  46  71
ATOM     71  C   UNL A   1      43.129  23.775  27.153  1.00  0.00     0.058 A 
ATOM     72  C   UNL A   1      42.671  23.392  25.885  1.00  0.00     0.135 A 
ATOM     73  C   UNL A   1      43.127  22.806  28.170  1.00  0.00     0.135 A 
ATOM     74  F   UNL A   1      42.643  24.283  24.884  1.00  0.00    -0.206 F 
ATOM     75  C   UNL A   1      42.223  22.099  25.633  1.00  0.00     0.059 A 
ATOM     76  C   UNL A   1      42.709  21.500  27.936  1.00  0.00     0.059 A 
ATOM     77  F   UNL A   1      43.566  23.120  29.399  1.00  0.00    -0.206 F 
ATOM     78  C   UNL A   1      42.251  21.158  26.664  1.00  0.00     0.060 A 
BRANCH  78  79
ATOM     79  S   UNL A   1      41.732  19.465  26.310  1.00  0.00     0.124 S 
ATOM     80  O   UNL A   1      40.292  19.628  26.145  1.00  0.00    -0.237 OA
ATOM     81  O   UNL A   1      42.484  19.162  25.096  1.00  0.00    -0.237 OA
ATOM     82  O   UNL A   1      42.153  18.729  27.499  1.00  0.00    -0.744 OA
ENDBRANCH  78  79
ENDBRANCH  46  71
BRANCH  58  83
ATOM     83  C   UNL A   1      49.344  26.872  26.451  1.00  0.00     0.058 A 
ATOM     84  C   UNL A   1      50.199  26.202  27.340  1.00  0.00     0.135 A 
ATOM     85  C   UNL A   1      49.780  27.040  25.126  1.00  0.00     0.135 A 
ATOM     86  F   UNL A   1      49.834  26.015  28.618  1.00  0.00    -0.206 F 
ATOM     87  C   UNL A   1      51.456  25.757  26.943  1.00  0.00     0.059 A 
ATOM     88  C   UNL A   1      51.020  26.574  24.699  1.00  0.00     0.059 A 
ATOM     89  F   UNL A   1      48.996  27.659  24.228  1.00  0.00    -0.206 F 
ATOM     90  C   UNL A   1      51.861  25.953  25.621  1.00  0.00     0.060 A 
BRANCH  90  91
ATOM     91  S   UNL A   1      53.498  25.381  25.121  1.00  0.00     0.124 S 
ATOM     92  O   UNL A   1      54.366  26.279  25.876  1.00  0.00    -0.237 OA
ATOM     93  O   UNL A   1      53.491  23.989  25.559  1.00  0.00    -0.237 OA
ATOM     94  O   UNL A   1      53.499  25.576  23.674  1.00  0.00    -0.744 OA
ENDBRANCH  90  91
ENDBRANCH  58  83
ENDBRANCH  32  33
ENDBRANCH  25  27
ENDBRANCH  24  25
ENDBRANCH  23  24
ENDBRANCH  22  23
ENDBRANCH   1  22
TORSDOF 20
ENDMDL
MODEL 2
REMARK VINA RESULT:     -10.2      6.522     12.244
REMARK SMILES C/C(C(=O)NCc1cscc1C)=C(\C)C(=O)OCCOCCOC(=O)c1ccc(-c2c3nc(c(-c4c(F)cc(S(=O)(=O)[O-])cc4F)c4ccc([nH]4)c(-c4c(F)cc(S(=O)(=O)[O-])cc4F)c4nc(c(-c5c(F)cc(S(=O)(=O)[O-])cc5F)c5ccc2[nH]5)C=C4)C=C3)cc1
REMARK SMILES IDX 20 1 19 2 18 3 17 4 15 5 16 6 13 7 1 8 2 9 14 10 3 11 4 12
REMARK SMILES IDX 5 13 6 15 7 16 8 17 11 18 9 19 10 20 12 21 21 22 22 23 23 24
REMARK SMILES IDX 24 25 25 26 26 27 27 28 91 29 28 30 90 31 29 32 30 33 31 34
REMARK SMILES IDX 84 35 32 36 89 37 83 38 85 39 33 40 88 41 82 42 81 43 34 45
REMARK SMILES IDX 68 46 47 47 67 48 48 49 51 50 66 51 86 52 49 53 50 54 65 56
REMARK SMILES IDX 87 57 52 58 35 59 36 60 45 61 37 62 38 63 44 64 46 65 39 66
REMARK SMILES IDX 40 67 41 68 42 69 43 70 69 71 70 72 79 73 71 74 72 75 78 76
REMARK SMILES IDX 80 77 73 78 74 79 75 80 76 81 77 82 53 83 54 84 63 85 55 86
REMARK SMILES IDX 56 87 62 88 64 89 57 90 58 91 59 92 60 93 61 94
REMARK H PARENT 5 14 85 44 51 55
REMARK Flexibility Score: inf
ROOT
ATOM      1  O   UNL A   1      39.013  21.548  25.401  1.00  0.00    -0.374 OA
ENDROOT
BRANCH   1   2
ATOM      2  C   UNL A   1      37.708  22.050  25.702  1.00  0.00     0.202 C 
BRANCH   2   3
ATOM      3  C   UNL A   1      36.570  21.609  24.777  1.00  0.00     0.261 C 
BRANCH   3   4
ATOM      4  O   UNL A   1      35.974  22.763  24.170  1.00  0.00    -0.460 OA
BRANCH   4   5
ATOM      5  C   UNL A   1      34.731  23.082  24.596  1.00  0.00     0.334 C 
ATOM      6  O   UNL A   1      34.424  23.632  25.647  1.00  0.00    -0.247 OA
BRANCH   5   7
ATOM      7  C   UNL A   1      33.744  22.569  23.603  1.00  0.00     0.042 C 
ATOM      8  C   UNL A   1      32.107  20.892  22.797  1.00  0.00     0.051 C 
ATOM      9  C   UNL A   1      32.885  21.555  23.895  1.00  0.00     0.024 C 
ATOM     10  C   UNL A   1      33.859  23.296  22.287  1.00  0.00     0.053 C 
BRANCH   9  11
ATOM     11  C   UNL A   1      32.640  21.165  25.346  1.00  0.00     0.247 C 
ATOM     12  O   UNL A   1      33.407  20.404  25.938  1.00  0.00    -0.270 OA
ATOM     13  N   UNL A   1      31.658  21.695  26.128  1.00  0.00    -0.348 N 
ATOM     14  H   UNL A   1      31.662  21.370  27.057  1.00  0.00     0.164 HD
BRANCH  13  15
ATOM     15  C   UNL A   1      30.619  22.645  25.841  1.00  0.00     0.153 C 
BRANCH  15  16
ATOM     16  C   UNL A   1      31.056  24.078  25.719  1.00  0.00    -0.015 A 
ATOM     17  C   UNL A   1      31.652  24.874  26.681  1.00  0.00     0.070 A 
ATOM     18  C   UNL A   1      30.932  24.801  24.461  1.00  0.00    -0.035 A 
ATOM     19  S   UNL A   1      32.023  26.445  26.117  1.00  0.00    -0.152 S 
ATOM     20  C   UNL A   1      31.419  26.090  24.564  1.00  0.00     0.068 A 
ATOM     21  C   UNL A   1      30.365  24.241  23.193  1.00  0.00     0.045 C 
ENDBRANCH  15  16
ENDBRANCH  13  15
ENDBRANCH   9  11
ENDBRANCH   5   7
ENDBRANCH   4   5
ENDBRANCH   3   4
ENDBRANCH   2   3
ENDBRANCH   1   2
BRANCH   1  22
ATOM     22  C   UNL A   1      39.889  21.293  26.498  1.00  0.00     0.202 C 
BRANCH  22  23
ATOM     23  C   UNL A   1      40.988  22.328  26.768  1.00  0.00     0.261 C 
BRANCH  23  24
ATOM     24  O   UNL A   1      40.587  23.676  26.479  1.00  0.00    -0.460 OA
BRANCH  24  25
ATOM     25  C   UNL A   1      41.579  24.588  26.611  1.00  0.00     0.338 C 
ATOM     26  O   UNL A   1      42.630  24.636  25.979  1.00  0.00    -0.246 OA
BRANCH  25  27
ATOM     27  C   UNL A   1      41.174  25.653  27.540  1.00  0.00     0.060 A 
ATOM     28  C   UNL A   1      42.066  26.714  27.733  1.00  0.00     0.016 A 
ATOM     29  C   UNL A   1      39.985  25.583  28.269  1.00  0.00     0.016 A 
ATOM     30  C   UNL A   1      41.793  27.688  28.689  1.00  0.00     0.010 A 
ATOM     31  C   UNL A   1      39.714  26.561  29.233  1.00  0.00     0.010 A 
ATOM     32  C   UNL A   1      40.632  27.600  29.469  1.00  0.00    -0.014 A 
BRANCH  32  33
ATOM     33  C   UNL A   1      40.447  28.549  30.594  1.00  0.00     0.031 A 
ATOM     34  C   UNL A   1      41.310  28.426  31.821  1.00  0.00     0.074 A 
ATOM     35  C   UNL A   1      39.549  29.546  30.497  1.00  0.00     0.049 A 
ATOM     36  N   UNL A   1      41.342  29.178  32.891  1.00  0.00    -0.248 NA
ATOM     37  C   UNL A   1      42.263  27.305  31.846  1.00  0.00     0.031 C 
ATOM     38  C   UNL A   1      38.667  29.772  29.351  1.00  0.00     0.029 A 
ATOM     39  N   UNL A   1      39.232  30.553  31.371  1.00  0.00    -0.354 N 
ATOM     40  C   UNL A   1      42.312  28.623  33.717  1.00  0.00     0.074 A 
ATOM     41  C   UNL A   1      42.821  27.449  33.039  1.00  0.00     0.031 C 
ATOM     42  C   UNL A   1      37.908  30.853  29.594  1.00  0.00     0.029 A 
ATOM     43  C   UNL A   1      38.232  31.380  30.918  1.00  0.00     0.049 A 
ATOM     44  H   UNL A   1      39.678  30.674  32.239  1.00  0.00     0.167 HD
ATOM     45  C   UNL A   1      42.746  29.059  34.925  1.00  0.00     0.037 A 
ATOM     46  C   UNL A   1      37.638  32.435  31.509  1.00  0.00     0.037 A 
ATOM     47  C   UNL A   1      42.232  30.230  35.592  1.00  0.00     0.049 A 
ATOM     48  C   UNL A   1      38.116  32.883  32.864  1.00  0.00     0.074 A 
ATOM     49  C   UNL A   1      42.628  30.773  36.802  1.00  0.00     0.029 A 
ATOM     50  N   UNL A   1      41.205  31.030  35.114  1.00  0.00    -0.354 N 
ATOM     51  N   UNL A   1      39.062  32.374  33.616  1.00  0.00    -0.248 NA
ATOM     52  C   UNL A   1      37.454  34.059  33.445  1.00  0.00     0.031 C 
ATOM     53  C   UNL A   1      41.802  31.869  37.081  1.00  0.00     0.029 A 
ATOM     54  C   UNL A   1      40.933  32.046  36.017  1.00  0.00     0.049 A 
ATOM     55  H   UNL A   1      40.738  30.897  34.257  1.00  0.00     0.167 HD
ATOM     56  C   UNL A   1      39.125  33.179  34.748  1.00  0.00     0.074 A 
ATOM     57  C   UNL A   1      38.133  34.220  34.572  1.00  0.00     0.031 C 
ATOM     58  C   UNL A   1      39.932  33.070  35.835  1.00  0.00     0.037 A 
BRANCH  45  59
ATOM     59  C   UNL A   1      43.811  28.249  35.617  1.00  0.00     0.058 A 
ATOM     60  C   UNL A   1      45.178  28.456  35.376  1.00  0.00     0.135 A 
ATOM     61  C   UNL A   1      43.456  27.267  36.556  1.00  0.00     0.135 A 
ATOM     62  F   UNL A   1      45.576  29.370  34.476  1.00  0.00    -0.206 F 
ATOM     63  C   UNL A   1      46.154  27.697  36.015  1.00  0.00     0.059 A 
ATOM     64  C   UNL A   1      44.415  26.516  37.230  1.00  0.00     0.059 A 
ATOM     65  F   UNL A   1      42.163  27.025  36.827  1.00  0.00    -0.206 F 
ATOM     66  C   UNL A   1      45.762  26.728  36.940  1.00  0.00     0.060 A 
BRANCH  66  67
ATOM     67  S   UNL A   1      47.038  25.748  37.760  1.00  0.00     0.124 S 
ATOM     68  O   UNL A   1      48.202  26.620  37.632  1.00  0.00    -0.237 OA
ATOM     69  O   UNL A   1      46.501  25.601  39.109  1.00  0.00    -0.237 OA
ATOM     70  O   UNL A   1      47.086  24.522  36.970  1.00  0.00    -0.744 OA
ENDBRANCH  66  67
ENDBRANCH  45  59
BRANCH  46  71
ATOM     71  C   UNL A   1      36.529  33.141  30.812  1.00  0.00     0.058 A 
ATOM     72  C   UNL A   1      35.201  33.015  31.241  1.00  0.00     0.135 A 
ATOM     73  C   UNL A   1      36.786  33.977  29.714  1.00  0.00     0.135 A 
ATOM     74  F   UNL A   1      34.902  32.220  32.279  1.00  0.00    -0.206 F 
ATOM     75  C   UNL A   1      34.163  33.687  30.602  1.00  0.00     0.059 A 
ATOM     76  C   UNL A   1      35.770  34.680  29.076  1.00  0.00     0.059 A 
ATOM     77  F   UNL A   1      38.043  34.140  29.272  1.00  0.00    -0.206 F 
ATOM     78  C   UNL A   1      34.459  34.523  29.524  1.00  0.00     0.060 A 
BRANCH  78  79
ATOM     79  S   UNL A   1      33.115  35.445  28.745  1.00  0.00     0.124 S 
ATOM     80  O   UNL A   1      33.851  36.433  27.965  1.00  0.00    -0.237 OA
ATOM     81  O   UNL A   1      32.434  34.405  27.981  1.00  0.00    -0.237 OA
ATOM     82  O   UNL A   1      32.365  35.970  29.883  1.00  0.00    -0.744 OA
ENDBRANCH  78  79
ENDBRANCH  46  71
BRANCH  58  83
ATOM     83  C   UNL A   1      39.791  34.121  36.904  1.00  0.00     0.058 A 
ATOM     84  C   UNL A   1      40.368  35.395  36.772  1.00  0.00     0.135 A 
ATOM     85  C   UNL A   1      39.056  33.855  38.071  1.00  0.00     0.135 A 
ATOM     86  F   UNL A   1      41.082  35.703  35.678  1.00  0.00    -0.206 F 
ATOM     87  C   UNL A   1      40.261  36.350  37.778  1.00  0.00     0.059 A 
ATOM     88  C   UNL A   1      38.909  34.807  39.076  1.00  0.00     0.059 A 
ATOM     89  F   UNL A   1      38.469  32.660  38.244  1.00  0.00    -0.206 F 
ATOM     90  C   UNL A   1      39.533  36.045  38.930  1.00  0.00     0.060 A 
BRANCH  90  91
ATOM     91  S   UNL A   1      39.409  37.288  40.233  1.00  0.00     0.124 S 
ATOM     92  O   UNL A   1      38.598  38.313  39.583  1.00  0.00    -0.237 OA
ATOM     93  O   UNL A   1      38.755  36.550  41.309  1.00  0.00    -0.237 OA
ATOM     94  O   UNL A   1      40.799  37.654  40.487  1.00  0.00    -0.744 OA
ENDBRANCH  90  91
ENDBRANCH  58  83
ENDBRANCH  32  33
ENDBRANCH  25  27
ENDBRANCH  24  25
ENDBRANCH  23  24
ENDBRANCH  22  23
ENDBRANCH   1  22
TORSDOF 20
ENDMDL
MODEL 3
REMARK VINA RESULT:     -10.2      1.511      2.696
REMARK SMILES C/C(C(=O)NCc1cscc1C)=C(\C)C(=O)OCCOCCOC(=O)c1ccc(-c2c3nc(c(-c4c(F)cc(S(=O)(=O)[O-])cc4F)c4ccc([nH]4)c(-c4c(F)cc(S(=O)(=O)[O-])cc4F)c4nc(c(-c5c(F)cc(S(=O)(=O)[O-])cc5F)c5ccc2[nH]5)C=C4)C=C3)cc1
REMARK SMILES IDX 20 1 19 2 18 3 17 4 15 5 16 6 13 7 1 8 2 9 14 10 3 11 4 12
REMARK SMILES IDX 5 13 6 15 7 16 8 17 11 18 9 19 10 20 12 21 21 22 22 23 23 24
REMARK SMILES IDX 24 25 25 26 26 27 27 28 91 29 28 30 90 31 29 32 30 33 31 34
REMARK SMILES IDX 84 35 32 36 89 37 83 38 85 39 33 40 88 41 82 42 81 43 34 45
REMARK SMILES IDX 68 46 47 47 67 48 48 49 51 50 66 51 86 52 49 53 50 54 65 56
REMARK SMILES IDX 87 57 52 58 35 59 36 60 45 61 37 62 38 63 44 64 46 65 39 66
REMARK SMILES IDX 40 67 41 68 42 69 43 70 69 71 70 72 79 73 71 74 72 75 78 76
REMARK SMILES IDX 80 77 73 78 74 79 75 80 76 81 77 82 53 83 54 84 63 85 55 86
REMARK SMILES IDX 56 87 62 88 64 89 57 90 58 91 59 92 60 93 61 94
REMARK H PARENT 5 14 85 44 51 55
REMARK Flexibility Score: inf
ROOT
ATOM      1  O   UNL A   1      34.015  31.841  27.574  1.00  0.00    -0.374 OA
ENDROOT
BRANCH   1   2
ATOM      2  C   UNL A   1      33.806  30.469  27.233  1.00  0.00     0.202 C 
BRANCH   2   3
ATOM      3  C   UNL A   1      32.366  30.044  26.930  1.00  0.00     0.261 C 
BRANCH   3   4
ATOM      4  O   UNL A   1      32.118  30.164  25.523  1.00  0.00    -0.460 OA
BRANCH   4   5
ATOM      5  C   UNL A   1      32.364  29.061  24.781  1.00  0.00     0.334 C 
ATOM      6  O   UNL A   1      33.448  28.663  24.376  1.00  0.00    -0.247 OA
BRANCH   5   7
ATOM      7  C   UNL A   1      31.060  28.421  24.441  1.00  0.00     0.042 C 
ATOM      8  C   UNL A   1      29.540  26.469  24.302  1.00  0.00     0.051 C 
ATOM      9  C   UNL A   1      30.726  27.179  24.885  1.00  0.00     0.024 C 
ATOM     10  C   UNL A   1      30.226  29.311  23.553  1.00  0.00     0.053 C 
BRANCH   9  11
ATOM     11  C   UNL A   1      31.495  26.557  26.042  1.00  0.00     0.247 C 
ATOM     12  O   UNL A   1      31.132  26.720  27.207  1.00  0.00    -0.270 OA
ATOM     13  N   UNL A   1      32.541  25.696  25.893  1.00  0.00    -0.348 N 
ATOM     14  H   UNL A   1      32.901  25.348  26.741  1.00  0.00     0.164 HD
BRANCH  13  15
ATOM     15  C   UNL A   1      33.212  25.206  24.722  1.00  0.00     0.153 C 
BRANCH  15  16
ATOM     16  C   UNL A   1      33.369  23.714  24.632  1.00  0.00    -0.015 A 
ATOM     17  C   UNL A   1      34.406  22.934  25.113  1.00  0.00     0.070 A 
ATOM     18  C   UNL A   1      32.337  22.880  24.032  1.00  0.00    -0.035 A 
ATOM     19  S   UNL A   1      34.177  21.263  24.830  1.00  0.00    -0.152 S 
ATOM     20  C   UNL A   1      32.673  21.540  24.080  1.00  0.00     0.068 A 
ATOM     21  C   UNL A   1      31.056  23.380  23.440  1.00  0.00     0.045 C 
ENDBRANCH  15  16
ENDBRANCH  13  15
ENDBRANCH   9  11
ENDBRANCH   5   7
ENDBRANCH   4   5
ENDBRANCH   3   4
ENDBRANCH   2   3
ENDBRANCH   1   2
BRANCH   1  22
ATOM     22  C   UNL A   1      35.224  32.175  28.253  1.00  0.00     0.202 C 
BRANCH  22  23
ATOM     23  C   UNL A   1      35.158  32.285  29.782  1.00  0.00     0.261 C 
BRANCH  23  24
ATOM     24  O   UNL A   1      36.433  32.120  30.422  1.00  0.00    -0.460 OA
BRANCH  24  25
ATOM     25  C   UNL A   1      36.632  30.887  30.946  1.00  0.00     0.338 C 
ATOM     26  O   UNL A   1      35.897  30.285  31.722  1.00  0.00    -0.246 OA
BRANCH  25  27
ATOM     27  C   UNL A   1      37.815  30.259  30.338  1.00  0.00     0.060 A 
ATOM     28  C   UNL A   1      38.808  29.783  31.203  1.00  0.00     0.016 A 
ATOM     29  C   UNL A   1      37.991  30.203  28.954  1.00  0.00     0.016 A 
ATOM     30  C   UNL A   1      40.001  29.289  30.687  1.00  0.00     0.010 A 
ATOM     31  C   UNL A   1      39.194  29.709  28.437  1.00  0.00     0.010 A 
ATOM     32  C   UNL A   1      40.217  29.280  29.302  1.00  0.00    -0.014 A 
BRANCH  32  33
ATOM     33  C   UNL A   1      41.558  28.911  28.784  1.00  0.00     0.031 A 
ATOM     34  C   UNL A   1      42.643  29.951  28.721  1.00  0.00     0.074 A 
ATOM     35  C   UNL A   1      41.816  27.641  28.422  1.00  0.00     0.049 A 
ATOM     36  N   UNL A   1      43.890  29.826  28.348  1.00  0.00    -0.248 NA
ATOM     37  C   UNL A   1      42.273  31.315  29.132  1.00  0.00     0.031 C 
ATOM     38  C   UNL A   1      40.846  26.545  28.454  1.00  0.00     0.029 A 
ATOM     39  N   UNL A   1      42.968  27.059  27.961  1.00  0.00    -0.354 N 
ATOM     40  C   UNL A   1      44.454  31.090  28.475  1.00  0.00     0.074 A 
ATOM     41  C   UNL A   1      43.403  31.976  28.926  1.00  0.00     0.031 C 
ATOM     42  C   UNL A   1      41.447  25.421  28.030  1.00  0.00     0.029 A 
ATOM     43  C   UNL A   1      42.832  25.722  27.676  1.00  0.00     0.049 A 
ATOM     44  H   UNL A   1      43.813  27.551  27.847  1.00  0.00     0.167 HD
ATOM     45  C   UNL A   1      45.734  31.473  28.246  1.00  0.00     0.037 A 
ATOM     46  C   UNL A   1      43.722  24.842  27.174  1.00  0.00     0.037 A 
ATOM     47  C   UNL A   1      46.775  30.582  27.796  1.00  0.00     0.049 A 
ATOM     48  C   UNL A   1      45.130  25.297  26.899  1.00  0.00     0.074 A 
ATOM     49  C   UNL A   1      48.110  30.865  27.566  1.00  0.00     0.029 A 
ATOM     50  N   UNL A   1      46.596  29.239  27.496  1.00  0.00    -0.354 N 
ATOM     51  N   UNL A   1      45.661  26.486  27.063  1.00  0.00    -0.248 NA
ATOM     52  C   UNL A   1      46.065  24.287  26.385  1.00  0.00     0.031 C 
ATOM     53  C   UNL A   1      48.725  29.707  27.074  1.00  0.00     0.029 A 
ATOM     54  C   UNL A   1      47.789  28.686  27.055  1.00  0.00     0.049 A 
ATOM     55  H   UNL A   1      45.746  28.749  27.584  1.00  0.00     0.167 HD
ATOM     56  C   UNL A   1      46.996  26.362  26.693  1.00  0.00     0.074 A 
ATOM     57  C   UNL A   1      47.194  24.978  26.315  1.00  0.00     0.031 C 
ATOM     58  C   UNL A   1      47.970  27.308  26.670  1.00  0.00     0.037 A 
BRANCH  45  59
ATOM     59  C   UNL A   1      46.074  32.926  28.451  1.00  0.00     0.058 A 
ATOM     60  C   UNL A   1      45.988  33.864  27.410  1.00  0.00     0.135 A 
ATOM     61  C   UNL A   1      46.468  33.390  29.717  1.00  0.00     0.135 A 
ATOM     62  F   UNL A   1      45.633  33.474  26.175  1.00  0.00    -0.206 F 
ATOM     63  C   UNL A   1      46.312  35.203  27.608  1.00  0.00     0.059 A 
ATOM     64  C   UNL A   1      46.767  34.730  29.945  1.00  0.00     0.059 A 
ATOM     65  F   UNL A   1      46.567  32.539  30.749  1.00  0.00    -0.206 F 
ATOM     66  C   UNL A   1      46.701  35.627  28.879  1.00  0.00     0.060 A 
BRANCH  66  67
ATOM     67  S   UNL A   1      47.122  37.366  29.120  1.00  0.00     0.124 S 
ATOM     68  O   UNL A   1      47.146  37.461  30.576  1.00  0.00    -0.237 OA
ATOM     69  O   UNL A   1      48.417  37.470  28.456  1.00  0.00    -0.237 OA
ATOM     70  O   UNL A   1      46.027  38.075  28.465  1.00  0.00    -0.744 OA
ENDBRANCH  66  67
ENDBRANCH  45  59
BRANCH  46  71
ATOM     71  C   UNL A   1      43.301  23.441  26.908  1.00  0.00     0.058 A 
ATOM     72  C   UNL A   1      43.142  22.962  25.601  1.00  0.00     0.135 A 
ATOM     73  C   UNL A   1      43.074  22.545  27.965  1.00  0.00     0.135 A 
ATOM     74  F   UNL A   1      43.336  23.781  24.557  1.00  0.00    -0.206 F 
ATOM     75  C   UNL A   1      42.764  21.646  25.349  1.00  0.00     0.059 A 
ATOM     76  C   UNL A   1      42.723  21.218  27.738  1.00  0.00     0.059 A 
ATOM     77  F   UNL A   1      43.225  22.951  29.236  1.00  0.00    -0.206 F 
ATOM     78  C   UNL A   1      42.564  20.780  26.424  1.00  0.00     0.060 A 
BRANCH  78  79
ATOM     79  S   UNL A   1      42.143  19.057  26.085  1.00  0.00     0.124 S 
ATOM     80  O   UNL A   1      40.710  19.150  25.828  1.00  0.00    -0.237 OA
ATOM     81  O   UNL A   1      42.981  18.759  24.928  1.00  0.00    -0.237 OA
ATOM     82  O   UNL A   1      42.520  18.370  27.317  1.00  0.00    -0.744 OA
ENDBRANCH  78  79
ENDBRANCH  46  71
BRANCH  58  83
ATOM     83  C   UNL A   1      49.347  26.865  26.247  1.00  0.00     0.058 A 
ATOM     84  C   UNL A   1      49.830  27.088  24.948  1.00  0.00     0.135 A 
ATOM     85  C   UNL A   1      50.199  26.221  27.159  1.00  0.00     0.135 A 
ATOM     86  F   UNL A   1      49.058  27.699  24.034  1.00  0.00    -0.206 F 
ATOM     87  C   UNL A   1      51.091  26.647  24.555  1.00  0.00     0.059 A 
ATOM     88  C   UNL A   1      51.475  25.800  26.797  1.00  0.00     0.059 A 
ATOM     89  F   UNL A   1      49.795  25.996  28.420  1.00  0.00    -0.206 F 
ATOM     90  C   UNL A   1      51.904  25.998  25.486  1.00  0.00     0.060 A 
BRANCH  90  91
ATOM     91  S   UNL A   1      53.532  25.422  24.963  1.00  0.00     0.124 S 
ATOM     92  O   UNL A   1      53.499  24.026  25.385  1.00  0.00    -0.237 OA
ATOM     93  O   UNL A   1      53.497  25.649  23.522  1.00  0.00    -0.237 OA
ATOM     94  O   UNL A   1      54.451  26.281  25.704  1.00  0.00    -0.744 OA
ENDBRANCH  90  91
ENDBRANCH  58  83
ENDBRANCH  32  33
ENDBRANCH  25  27
ENDBRANCH  24  25
ENDBRANCH  23  24
ENDBRANCH  22  23
ENDBRANCH   1  22
TORSDOF 20
ENDMDL
