MODEL 1
REMARK VINA RESULT:     -10.6      0.000      0.000
REMARK SMILES CC(C)[C@H](C(=O)OCCOCCOC(=O)c1ccc(-c2c3nc(c(-c4c(F)cc(S(=O)(=O)[O-])cc4F)c4ccc([nH]4)c(-c4c(F)cc(S(=O)(=O)[O-])cc4F)c4nc(c(-c5c(F)cc(S(=O)(=O)[O-])cc5F)c5ccc2[nH]5)C=C4)C=C3)cc1)c1ccc(Cl)cc1F
REMARK SMILES IDX 11 1 10 2 9 3 8 4 7 5 5 6 6 7 4 8 2 9 1 10 3 11 82 12 83 13
REMARK SMILES IDX 88 14 84 15 87 16 89 17 85 18 86 19 12 20 13 21 14 22 15 23
REMARK SMILES IDX 16 24 17 25 81 26 18 27 80 28 19 29 20 30 21 31 74 32 22 33
REMARK SMILES IDX 79 34 73 35 75 36 23 37 78 38 72 39 71 40 24 42 58 43 37 44
REMARK SMILES IDX 57 45 38 46 41 47 56 48 76 49 39 50 40 51 55 53 77 54 42 55
REMARK SMILES IDX 25 56 26 57 35 58 27 59 28 60 34 61 36 62 29 63 30 64 31 65
REMARK SMILES IDX 32 66 33 67 59 68 60 69 69 70 61 71 62 72 68 73 70 74 63 75
REMARK SMILES IDX 64 76 65 77 66 78 67 79 43 80 44 81 53 82 45 83 46 84 52 85
REMARK SMILES IDX 54 86 47 87 48 88 49 89 50 90 51 91
REMARK H PARENT 75 41 41 52
REMARK Flexibility Score: inf
ROOT
ATOM      1  C   UNL A   1      39.740  21.785  26.429  1.00  0.00     0.202 C 
ENDROOT
BRANCH   1   2
ATOM      2  O   UNL A   1      38.487  22.011  25.783  1.00  0.00    -0.374 OA
BRANCH   2   3
ATOM      3  C   UNL A   1      37.927  20.904  25.065  1.00  0.00     0.202 C 
BRANCH   3   4
ATOM      4  C   UNL A   1      36.422  21.003  24.790  1.00  0.00     0.261 C 
BRANCH   4   5
ATOM      5  O   UNL A   1      36.069  22.395  24.692  1.00  0.00    -0.463 OA
BRANCH   5   6
ATOM      6  C   UNL A   1      35.865  22.923  23.480  1.00  0.00     0.313 C 
ATOM      7  O   UNL A   1      36.705  22.857  22.584  1.00  0.00    -0.252 OA
BRANCH   6   8
ATOM      8  C   UNL A   1      34.456  23.516  23.242  1.00  0.00     0.135 C 
BRANCH   8   9
ATOM      9  C   UNL A   1      33.462  22.338  23.657  1.00  0.00     0.001 C 
ATOM     10  C   UNL A   1      32.793  22.363  25.037  1.00  0.00     0.008 C 
ATOM     11  C   UNL A   1      32.357  22.178  22.596  1.00  0.00     0.008 C 
ENDBRANCH   8   9
BRANCH   8  12
ATOM     12  C   UNL A   1      34.044  24.936  23.707  1.00  0.00     0.002 A 
ATOM     13  C   UNL A   1      33.483  25.781  22.718  1.00  0.00     0.009 A 
ATOM     14  C   UNL A   1      34.171  25.526  24.977  1.00  0.00     0.128 A 
ATOM     15  C   UNL A   1      32.971  27.054  23.007  1.00  0.00     0.021 A 
ATOM     16  C   UNL A   1      33.703  26.813  25.268  1.00  0.00     0.060 A 
ATOM     17  F   UNL A   1      34.741  24.914  26.015  1.00  0.00    -0.207 F 
ATOM     18  C   UNL A   1      33.077  27.563  24.292  1.00  0.00     0.043 A 
ATOM     19  Cl  UNL A   1      32.446  29.116  24.667  1.00  0.00    -0.084 Cl
ENDBRANCH   8  12
ENDBRANCH   6   8
ENDBRANCH   5   6
ENDBRANCH   4   5
ENDBRANCH   3   4
ENDBRANCH   2   3
ENDBRANCH   1   2
BRANCH   1  20
ATOM     20  C   UNL A   1      40.651  23.004  26.614  1.00  0.00     0.261 C 
BRANCH  20  21
ATOM     21  O   UNL A   1      39.961  24.237  26.364  1.00  0.00    -0.460 OA
BRANCH  21  22
ATOM     22  C   UNL A   1      40.768  25.314  26.232  1.00  0.00     0.338 C 
ATOM     23  O   UNL A   1      41.249  25.744  25.192  1.00  0.00    -0.246 OA
BRANCH  22  24
ATOM     24  C   UNL A   1      40.862  26.042  27.513  1.00  0.00     0.060 A 
ATOM     25  C   UNL A   1      39.763  25.957  28.377  1.00  0.00     0.016 A 
ATOM     26  C   UNL A   1      41.963  26.835  27.845  1.00  0.00     0.016 A 
ATOM     27  C   UNL A   1      39.725  26.725  29.537  1.00  0.00     0.010 A 
ATOM     28  C   UNL A   1      41.928  27.599  29.016  1.00  0.00     0.010 A 
ATOM     29  C   UNL A   1      40.785  27.589  29.839  1.00  0.00    -0.014 A 
BRANCH  29  30
ATOM     30  C   UNL A   1      40.605  28.615  30.898  1.00  0.00     0.031 A 
ATOM     31  C   UNL A   1      41.496  28.560  32.113  1.00  0.00     0.074 A 
ATOM     32  C   UNL A   1      39.709  29.610  30.761  1.00  0.00     0.049 A 
ATOM     33  N   UNL A   1      41.511  29.334  33.167  1.00  0.00    -0.248 NA
ATOM     34  C   UNL A   1      42.502  27.485  32.144  1.00  0.00     0.031 C 
ATOM     35  C   UNL A   1      38.821  29.796  29.614  1.00  0.00     0.029 A 
ATOM     36  N   UNL A   1      39.401  30.653  31.599  1.00  0.00    -0.354 N 
ATOM     37  C   UNL A   1      42.516  28.834  33.989  1.00  0.00     0.074 A 
ATOM     38  C   UNL A   1      43.060  27.668  33.330  1.00  0.00     0.031 C 
ATOM     39  C   UNL A   1      38.064  30.886  29.823  1.00  0.00     0.029 A 
ATOM     40  C   UNL A   1      38.388  31.456  31.130  1.00  0.00     0.049 A 
ATOM     41  H   UNL A   1      39.862  30.811  32.453  1.00  0.00     0.167 HD
ATOM     42  C   UNL A   1      42.955  29.312  35.178  1.00  0.00     0.037 A 
ATOM     43  C   UNL A   1      37.782  32.517  31.700  1.00  0.00     0.037 A 
ATOM     44  C   UNL A   1      42.419  30.480  35.823  1.00  0.00     0.049 A 
ATOM     45  C   UNL A   1      38.247  32.995  33.053  1.00  0.00     0.074 A 
ATOM     46  C   UNL A   1      42.808  31.057  37.019  1.00  0.00     0.029 A 
ATOM     47  N   UNL A   1      41.376  31.250  35.330  1.00  0.00    -0.354 N 
ATOM     48  N   UNL A   1      39.210  32.524  33.810  1.00  0.00    -0.248 NA
ATOM     49  C   UNL A   1      37.545  34.151  33.627  1.00  0.00     0.031 C 
ATOM     50  C   UNL A   1      41.964  32.142  37.277  1.00  0.00     0.029 A 
ATOM     51  C   UNL A   1      41.091  32.281  36.210  1.00  0.00     0.049 A 
ATOM     52  H   UNL A   1      40.906  31.088  34.480  1.00  0.00     0.167 HD
ATOM     53  C   UNL A   1      39.253  33.348  34.931  1.00  0.00     0.074 A 
ATOM     54  C   UNL A   1      38.225  34.351  34.748  1.00  0.00     0.031 C 
ATOM     55  C   UNL A   1      40.072  33.283  36.011  1.00  0.00     0.037 A 
BRANCH  42  56
ATOM     56  C   UNL A   1      44.057  28.555  35.871  1.00  0.00     0.058 A 
ATOM     57  C   UNL A   1      45.410  28.884  35.693  1.00  0.00     0.135 A 
ATOM     58  C   UNL A   1      43.749  27.506  36.754  1.00  0.00     0.135 A 
ATOM     59  F   UNL A   1      45.762  29.865  34.847  1.00  0.00    -0.206 F 
ATOM     60  C   UNL A   1      46.421  28.185  36.347  1.00  0.00     0.059 A 
ATOM     61  C   UNL A   1      44.742  26.813  37.441  1.00  0.00     0.059 A 
ATOM     62  F   UNL A   1      42.473  27.147  36.959  1.00  0.00    -0.206 F 
ATOM     63  C   UNL A   1      46.076  27.151  37.220  1.00  0.00     0.060 A 
BRANCH  63  64
ATOM     64  S   UNL A   1      47.398  26.261  38.066  1.00  0.00     0.124 S 
ATOM     65  O   UNL A   1      48.306  25.969  36.962  1.00  0.00    -0.237 OA
ATOM     66  O   UNL A   1      47.871  27.248  39.031  1.00  0.00    -0.237 OA
ATOM     67  O   UNL A   1      46.718  25.105  38.640  1.00  0.00    -0.744 OA
ENDBRANCH  63  64
ENDBRANCH  42  56
BRANCH  43  68
ATOM     68  C   UNL A   1      36.659  33.198  30.999  1.00  0.00     0.058 A 
ATOM     69  C   UNL A   1      35.332  33.039  31.424  1.00  0.00     0.135 A 
ATOM     70  C   UNL A   1      36.892  34.016  29.882  1.00  0.00     0.135 A 
ATOM     71  F   UNL A   1      35.054  32.258  32.479  1.00  0.00    -0.206 F 
ATOM     72  C   UNL A   1      34.274  33.652  30.757  1.00  0.00     0.059 A 
ATOM     73  C   UNL A   1      35.855  34.662  29.216  1.00  0.00     0.059 A 
ATOM     74  F   UNL A   1      38.145  34.209  29.440  1.00  0.00    -0.206 F 
ATOM     75  C   UNL A   1      34.547  34.464  29.656  1.00  0.00     0.060 A 
BRANCH  75  76
ATOM     76  S   UNL A   1      33.172  35.287  28.824  1.00  0.00     0.124 S 
ATOM     77  O   UNL A   1      32.577  34.185  28.077  1.00  0.00    -0.237 OA
ATOM     78  O   UNL A   1      32.392  35.791  29.950  1.00  0.00    -0.237 OA
ATOM     79  O   UNL A   1      33.831  36.311  28.019  1.00  0.00    -0.744 OA
ENDBRANCH  75  76
ENDBRANCH  43  68
BRANCH  55  80
ATOM     80  C   UNL A   1      39.931  34.352  37.061  1.00  0.00     0.058 A 
ATOM     81  C   UNL A   1      40.553  35.605  36.937  1.00  0.00     0.135 A 
ATOM     82  C   UNL A   1      39.111  34.137  38.182  1.00  0.00     0.135 A 
ATOM     83  F   UNL A   1      41.350  35.863  35.888  1.00  0.00    -0.206 F 
ATOM     84  C   UNL A   1      40.389  36.596  37.900  1.00  0.00     0.059 A 
ATOM     85  C   UNL A   1      38.907  35.126  39.141  1.00  0.00     0.059 A 
ATOM     86  F   UNL A   1      38.481  32.963  38.345  1.00  0.00    -0.206 F 
ATOM     87  C   UNL A   1      39.561  36.348  38.997  1.00  0.00     0.060 A 
BRANCH  87  88
ATOM     88  S   UNL A   1      39.331  37.655  40.221  1.00  0.00     0.124 S 
ATOM     89  O   UNL A   1      38.985  36.885  41.412  1.00  0.00    -0.237 OA
ATOM     90  O   UNL A   1      40.641  38.298  40.242  1.00  0.00    -0.237 OA
ATOM     91  O   UNL A   1      38.251  38.461  39.660  1.00  0.00    -0.744 OA
ENDBRANCH  87  88
ENDBRANCH  55  80
ENDBRANCH  29  30
ENDBRANCH  22  24
ENDBRANCH  21  22
ENDBRANCH  20  21
ENDBRANCH   1  20
TORSDOF 19
ENDMDL
MODEL 2
REMARK VINA RESULT:     -10.5      4.791     10.328
REMARK SMILES CC(C)[C@H](C(=O)OCCOCCOC(=O)c1ccc(-c2c3nc(c(-c4c(F)cc(S(=O)(=O)[O-])cc4F)c4ccc([nH]4)c(-c4c(F)cc(S(=O)(=O)[O-])cc4F)c4nc(c(-c5c(F)cc(S(=O)(=O)[O-])cc5F)c5ccc2[nH]5)C=C4)C=C3)cc1)c1ccc(Cl)cc1F
REMARK SMILES IDX 11 1 10 2 9 3 8 4 7 5 5 6 6 7 4 8 2 9 1 10 3 11 82 12 83 13
REMARK SMILES IDX 88 14 84 15 87 16 89 17 85 18 86 19 12 20 13 21 14 22 15 23
REMARK SMILES IDX 16 24 17 25 81 26 18 27 80 28 19 29 20 30 21 31 74 32 22 33
REMARK SMILES IDX 79 34 73 35 75 36 23 37 78 38 72 39 71 40 24 42 58 43 37 44
REMARK SMILES IDX 57 45 38 46 41 47 56 48 76 49 39 50 40 51 55 53 77 54 42 55
REMARK SMILES IDX 25 56 26 57 35 58 27 59 28 60 34 61 36 62 29 63 30 64 31 65
REMARK SMILES IDX 32 66 33 67 59 68 60 69 69 70 61 71 62 72 68 73 70 74 63 75
REMARK SMILES IDX 64 76 65 77 66 78 67 79 43 80 44 81 53 82 45 83 46 84 52 85
REMARK SMILES IDX 54 86 47 87 48 88 49 89 50 90 51 91
REMARK H PARENT 75 41 41 52
REMARK Flexibility Score: inf
ROOT
ATOM      1  C   UNL A   1      32.945  27.478  25.010  1.00  0.00     0.202 C 
ENDROOT
BRANCH   1   2
ATOM      2  O   UNL A   1      33.249  27.332  23.623  1.00  0.00    -0.374 OA
BRANCH   2   3
ATOM      3  C   UNL A   1      32.160  26.979  22.761  1.00  0.00     0.202 C 
BRANCH   3   4
ATOM      4  C   UNL A   1      32.569  26.375  21.412  1.00  0.00     0.261 C 
BRANCH   4   5
ATOM      5  O   UNL A   1      33.694  25.504  21.627  1.00  0.00    -0.463 OA
BRANCH   5   6
ATOM      6  C   UNL A   1      33.465  24.213  21.894  1.00  0.00     0.313 C 
ATOM      7  O   UNL A   1      33.378  23.363  21.009  1.00  0.00    -0.252 OA
BRANCH   6   8
ATOM      8  C   UNL A   1      33.439  23.840  23.394  1.00  0.00     0.135 C 
BRANCH   8   9
ATOM      9  C   UNL A   1      32.275  22.755  23.506  1.00  0.00     0.001 C 
ATOM     10  C   UNL A   1      32.474  21.520  24.393  1.00  0.00     0.008 C 
ATOM     11  C   UNL A   1      30.956  23.432  23.925  1.00  0.00     0.008 C 
ENDBRANCH   8   9
BRANCH   8  12
ATOM     12  C   UNL A   1      34.719  23.537  24.216  1.00  0.00     0.002 A 
ATOM     13  C   UNL A   1      35.746  22.834  23.540  1.00  0.00     0.009 A 
ATOM     14  C   UNL A   1      35.003  23.839  25.560  1.00  0.00     0.128 A 
ATOM     15  C   UNL A   1      36.997  22.576  24.118  1.00  0.00     0.021 A 
ATOM     16  C   UNL A   1      36.233  23.547  26.161  1.00  0.00     0.060 A 
ATOM     17  F   UNL A   1      34.131  24.431  26.377  1.00  0.00    -0.207 F 
ATOM     18  C   UNL A   1      37.238  22.945  25.432  1.00  0.00     0.043 A 
ATOM     19  Cl  UNL A   1      38.769  22.647  26.152  1.00  0.00    -0.084 Cl
ENDBRANCH   8  12
ENDBRANCH   6   8
ENDBRANCH   5   6
ENDBRANCH   4   5
ENDBRANCH   3   4
ENDBRANCH   2   3
ENDBRANCH   1   2
BRANCH   1  20
ATOM     20  C   UNL A   1      33.359  28.797  25.673  1.00  0.00     0.261 C 
BRANCH  20  21
ATOM     21  O   UNL A   1      34.172  28.584  26.837  1.00  0.00    -0.460 OA
BRANCH  21  22
ATOM     22  C   UNL A   1      34.395  29.694  27.575  1.00  0.00     0.338 C 
ATOM     23  O   UNL A   1      33.560  30.514  27.933  1.00  0.00    -0.246 OA
BRANCH  22  24
ATOM     24  C   UNL A   1      35.788  29.711  28.066  1.00  0.00     0.060 A 
ATOM     25  C   UNL A   1      36.786  30.032  27.139  1.00  0.00     0.016 A 
ATOM     26  C   UNL A   1      36.124  29.368  29.377  1.00  0.00     0.016 A 
ATOM     27  C   UNL A   1      38.129  29.935  27.495  1.00  0.00     0.010 A 
ATOM     28  C   UNL A   1      37.473  29.280  29.737  1.00  0.00     0.010 A 
ATOM     29  C   UNL A   1      38.481  29.509  28.782  1.00  0.00    -0.014 A 
BRANCH  29  30
ATOM     30  C   UNL A   1      39.888  29.119  29.055  1.00  0.00     0.031 A 
ATOM     31  C   UNL A   1      40.798  30.123  29.717  1.00  0.00     0.074 A 
ATOM     32  C   UNL A   1      40.336  27.881  28.778  1.00  0.00     0.049 A 
ATOM     33  N   UNL A   1      42.062  30.013  30.037  1.00  0.00    -0.248 NA
ATOM     34  C   UNL A   1      40.204  31.426  30.059  1.00  0.00     0.031 C 
ATOM     35  C   UNL A   1      39.541  26.809  28.179  1.00  0.00     0.029 A 
ATOM     36  N   UNL A   1      41.574  27.318  28.965  1.00  0.00    -0.354 N 
ATOM     37  C   UNL A   1      42.415  31.233  30.605  1.00  0.00     0.074 A 
ATOM     38  C   UNL A   1      41.245  32.080  30.550  1.00  0.00     0.031 C 
ATOM     39  C   UNL A   1      40.314  25.718  28.043  1.00  0.00     0.029 A 
ATOM     40  C   UNL A   1      41.664  26.022  28.514  1.00  0.00     0.049 A 
ATOM     41  H   UNL A   1      42.325  27.796  29.382  1.00  0.00     0.167 HD
ATOM     42  C   UNL A   1      43.603  31.608  31.138  1.00  0.00     0.037 A 
ATOM     43  C   UNL A   1      42.721  25.186  28.469  1.00  0.00     0.037 A 
ATOM     44  C   UNL A   1      44.760  30.756  31.202  1.00  0.00     0.049 A 
ATOM     45  C   UNL A   1      44.050  25.647  29.013  1.00  0.00     0.074 A 
ATOM     46  C   UNL A   1      46.004  31.035  31.739  1.00  0.00     0.029 A 
ATOM     47  N   UNL A   1      44.820  29.461  30.710  1.00  0.00    -0.354 N 
ATOM     48  N   UNL A   1      44.365  26.795  29.564  1.00  0.00    -0.248 NA
ATOM     49  C   UNL A   1      45.168  24.695  28.933  1.00  0.00     0.031 C 
ATOM     50  C   UNL A   1      46.832  29.930  31.523  1.00  0.00     0.029 A 
ATOM     51  C   UNL A   1      46.087  28.937  30.909  1.00  0.00     0.049 A 
ATOM     52  H   UNL A   1      44.072  28.983  30.282  1.00  0.00     0.167 HD
ATOM     53  C   UNL A   1      45.705  26.691  29.928  1.00  0.00     0.074 A 
ATOM     54  C   UNL A   1      46.137  25.364  29.543  1.00  0.00     0.031 C 
ATOM     55  C   UNL A   1      46.503  27.608  30.532  1.00  0.00     0.037 A 
BRANCH  42  56
ATOM     56  C   UNL A   1      43.716  33.010  31.673  1.00  0.00     0.058 A 
ATOM     57  C   UNL A   1      44.143  34.080  30.870  1.00  0.00     0.135 A 
ATOM     58  C   UNL A   1      43.357  33.293  33.001  1.00  0.00     0.135 A 
ATOM     59  F   UNL A   1      44.517  33.864  29.599  1.00  0.00    -0.206 F 
ATOM     60  C   UNL A   1      44.235  35.375  31.371  1.00  0.00     0.059 A 
ATOM     61  C   UNL A   1      43.412  34.585  33.515  1.00  0.00     0.059 A 
ATOM     62  F   UNL A   1      42.945  32.309  33.815  1.00  0.00    -0.206 F 
ATOM     63  C   UNL A   1      43.865  35.618  32.696  1.00  0.00     0.060 A 
BRANCH  63  64
ATOM     64  S   UNL A   1      43.981  37.304  33.327  1.00  0.00     0.124 S 
ATOM     65  O   UNL A   1      43.928  38.082  32.093  1.00  0.00    -0.237 OA
ATOM     66  O   UNL A   1      42.804  37.398  34.184  1.00  0.00    -0.237 OA
ATOM     67  O   UNL A   1      45.263  37.321  34.024  1.00  0.00    -0.744 OA
ENDBRANCH  63  64
ENDBRANCH  42  56
BRANCH  43  68
ATOM     68  C   UNL A   1      42.572  23.827  27.880  1.00  0.00     0.058 A 
ATOM     69  C   UNL A   1      42.552  23.635  26.490  1.00  0.00     0.135 A 
ATOM     70  C   UNL A   1      42.436  22.694  28.696  1.00  0.00     0.135 A 
ATOM     71  F   UNL A   1      42.665  24.687  25.665  1.00  0.00    -0.206 F 
ATOM     72  C   UNL A   1      42.386  22.371  25.931  1.00  0.00     0.059 A 
ATOM     73  C   UNL A   1      42.297  21.417  28.162  1.00  0.00     0.059 A 
ATOM     74  F   UNL A   1      42.458  22.821  30.033  1.00  0.00    -0.206 F 
ATOM     75  C   UNL A   1      42.262  21.267  26.776  1.00  0.00     0.060 A 
BRANCH  75  76
ATOM     76  S   UNL A   1      42.089  19.627  26.041  1.00  0.00     0.124 S 
ATOM     77  O   UNL A   1      42.532  18.767  27.131  1.00  0.00    -0.237 OA
ATOM     78  O   UNL A   1      40.664  19.582  25.729  1.00  0.00    -0.237 OA
ATOM     79  O   UNL A   1      42.976  19.684  24.882  1.00  0.00    -0.744 OA
ENDBRANCH  75  76
ENDBRANCH  43  68
BRANCH  55  80
ATOM     80  C   UNL A   1      47.914  27.199  30.861  1.00  0.00     0.058 A 
ATOM     81  C   UNL A   1      48.230  26.498  32.036  1.00  0.00     0.135 A 
ATOM     82  C   UNL A   1      48.955  27.462  29.956  1.00  0.00     0.135 A 
ATOM     83  F   UNL A   1      47.274  26.223  32.937  1.00  0.00    -0.206 F 
ATOM     84  C   UNL A   1      49.533  26.098  32.314  1.00  0.00     0.059 A 
ATOM     85  C   UNL A   1      50.260  27.043  30.199  1.00  0.00     0.059 A 
ATOM     86  F   UNL A   1      48.708  28.117  28.811  1.00  0.00    -0.206 F 
ATOM     87  C   UNL A   1      50.541  26.373  31.387  1.00  0.00     0.060 A 
BRANCH  87  88
ATOM     88  S   UNL A   1      52.222  25.818  31.746  1.00  0.00     0.124 S 
ATOM     89  O   UNL A   1      52.003  24.417  32.089  1.00  0.00    -0.237 OA
ATOM     90  O   UNL A   1      52.908  26.060  30.481  1.00  0.00    -0.237 OA
ATOM     91  O   UNL A   1      52.636  26.678  32.851  1.00  0.00    -0.744 OA
ENDBRANCH  87  88
ENDBRANCH  55  80
ENDBRANCH  29  30
ENDBRANCH  22  24
ENDBRANCH  21  22
ENDBRANCH  20  21
ENDBRANCH   1  20
TORSDOF 19
ENDMDL
MODEL 3
REMARK VINA RESULT:     -10.3      6.603     12.177
REMARK SMILES CC(C)[C@H](C(=O)OCCOCCOC(=O)c1ccc(-c2c3nc(c(-c4c(F)cc(S(=O)(=O)[O-])cc4F)c4ccc([nH]4)c(-c4c(F)cc(S(=O)(=O)[O-])cc4F)c4nc(c(-c5c(F)cc(S(=O)(=O)[O-])cc5F)c5ccc2[nH]5)C=C4)C=C3)cc1)c1ccc(Cl)cc1F
REMARK SMILES IDX 11 1 10 2 9 3 8 4 7 5 5 6 6 7 4 8 2 9 1 10 3 11 82 12 83 13
REMARK SMILES IDX 88 14 84 15 87 16 89 17 85 18 86 19 12 20 13 21 14 22 15 23
REMARK SMILES IDX 16 24 17 25 81 26 18 27 80 28 19 29 20 30 21 31 74 32 22 33
REMARK SMILES IDX 79 34 73 35 75 36 23 37 78 38 72 39 71 40 24 42 58 43 37 44
REMARK SMILES IDX 57 45 38 46 41 47 56 48 76 49 39 50 40 51 55 53 77 54 42 55
REMARK SMILES IDX 25 56 26 57 35 58 27 59 28 60 34 61 36 62 29 63 30 64 31 65
REMARK SMILES IDX 32 66 33 67 59 68 60 69 69 70 61 71 62 72 68 73 70 74 63 75
REMARK SMILES IDX 64 76 65 77 66 78 67 79 43 80 44 81 53 82 45 83 46 84 52 85
REMARK SMILES IDX 54 86 47 87 48 88 49 89 50 90 51 91
REMARK H PARENT 75 41 41 52
REMARK Flexibility Score: inf
ROOT
ATOM      1  C   UNL A   1      34.225  31.989  28.415  1.00  0.00     0.202 C 
ENDROOT
BRANCH   1   2
ATOM      2  O   UNL A   1      35.047  31.260  27.504  1.00  0.00    -0.374 OA
BRANCH   2   3
ATOM      3  C   UNL A   1      34.744  29.868  27.339  1.00  0.00     0.202 C 
BRANCH   3   4
ATOM      4  C   UNL A   1      33.306  29.564  26.905  1.00  0.00     0.261 C 
BRANCH   4   5
ATOM      5  O   UNL A   1      33.088  28.146  27.019  1.00  0.00    -0.463 OA
BRANCH   5   6
ATOM      6  C   UNL A   1      31.837  27.699  27.178  1.00  0.00     0.313 C 
ATOM      7  O   UNL A   1      31.088  28.134  28.051  1.00  0.00    -0.252 OA
BRANCH   6   8
ATOM      8  C   UNL A   1      31.354  26.684  26.115  1.00  0.00     0.135 C 
BRANCH   8   9
ATOM      9  C   UNL A   1      31.398  27.503  24.746  1.00  0.00     0.001 C 
ATOM     10  C   UNL A   1      32.512  27.222  23.731  1.00  0.00     0.008 C 
ATOM     11  C   UNL A   1      30.047  27.385  24.014  1.00  0.00     0.008 C 
ENDBRANCH   8   9
BRANCH   8  12
ATOM     12  C   UNL A   1      31.870  25.224  26.039  1.00  0.00     0.002 A 
ATOM     13  C   UNL A   1      30.882  24.209  26.050  1.00  0.00     0.009 A 
ATOM     14  C   UNL A   1      33.194  24.752  25.988  1.00  0.00     0.128 A 
ATOM     15  C   UNL A   1      31.188  22.850  25.887  1.00  0.00     0.021 A 
ATOM     16  C   UNL A   1      33.513  23.394  25.869  1.00  0.00     0.060 A 
ATOM     17  F   UNL A   1      34.259  25.552  26.042  1.00  0.00    -0.207 F 
ATOM     18  C   UNL A   1      32.510  22.448  25.788  1.00  0.00     0.043 A 
ATOM     19  Cl  UNL A   1      32.902  20.790  25.577  1.00  0.00    -0.084 Cl
ENDBRANCH   8  12
ENDBRANCH   6   8
ENDBRANCH   5   6
ENDBRANCH   4   5
ENDBRANCH   3   4
ENDBRANCH   2   3
ENDBRANCH   1   2
BRANCH   1  20
ATOM     20  C   UNL A   1      34.894  32.484  29.703  1.00  0.00     0.261 C 
BRANCH  20  21
ATOM     21  O   UNL A   1      35.704  31.470  30.315  1.00  0.00    -0.460 OA
BRANCH  21  22
ATOM     22  C   UNL A   1      36.897  31.909  30.777  1.00  0.00     0.338 C 
ATOM     23  O   UNL A   1      37.080  32.785  31.612  1.00  0.00    -0.246 OA
BRANCH  22  24
ATOM     24  C   UNL A   1      37.988  31.055  30.268  1.00  0.00     0.060 A 
ATOM     25  C   UNL A   1      38.925  30.593  31.200  1.00  0.00     0.016 A 
ATOM     26  C   UNL A   1      38.134  30.756  28.911  1.00  0.00     0.016 A 
ATOM     27  C   UNL A   1      40.053  29.898  30.773  1.00  0.00     0.010 A 
ATOM     28  C   UNL A   1      39.263  30.049  28.483  1.00  0.00     0.010 A 
ATOM     29  C   UNL A   1      40.255  29.666  29.406  1.00  0.00    -0.014 A 
BRANCH  29  30
ATOM     30  C   UNL A   1      41.587  29.204  28.940  1.00  0.00     0.031 A 
ATOM     31  C   UNL A   1      42.723  30.195  28.909  1.00  0.00     0.074 A 
ATOM     32  C   UNL A   1      41.802  27.918  28.605  1.00  0.00     0.049 A 
ATOM     33  N   UNL A   1      43.962  30.025  28.525  1.00  0.00    -0.248 NA
ATOM     34  C   UNL A   1      42.419  31.560  29.367  1.00  0.00     0.031 C 
ATOM     35  C   UNL A   1      40.796  26.857  28.636  1.00  0.00     0.029 A 
ATOM     36  N   UNL A   1      42.943  27.288  28.173  1.00  0.00    -0.354 N 
ATOM     37  C   UNL A   1      44.579  31.262  28.685  1.00  0.00     0.074 A 
ATOM     38  C   UNL A   1      43.570  32.180  29.162  1.00  0.00     0.031 C 
ATOM     39  C   UNL A   1      41.365  25.707  28.234  1.00  0.00     0.029 A 
ATOM     40  C   UNL A   1      42.763  25.956  27.887  1.00  0.00     0.049 A 
ATOM     41  H   UNL A   1      43.808  27.748  28.078  1.00  0.00     0.167 HD
ATOM     42  C   UNL A   1      45.874  31.597  28.468  1.00  0.00     0.037 A 
ATOM     43  C   UNL A   1      43.624  25.047  27.385  1.00  0.00     0.037 A 
ATOM     44  C   UNL A   1      46.877  30.676  28.007  1.00  0.00     0.049 A 
ATOM     45  C   UNL A   1      45.045  25.459  27.094  1.00  0.00     0.074 A 
ATOM     46  C   UNL A   1      48.221  30.913  27.775  1.00  0.00     0.029 A 
ATOM     47  N   UNL A   1      46.650  29.342  27.702  1.00  0.00    -0.354 N 
ATOM     48  N   UNL A   1      45.620  26.626  27.267  1.00  0.00    -0.248 NA
ATOM     49  C   UNL A   1      45.937  24.429  26.543  1.00  0.00     0.031 C 
ATOM     50  C   UNL A   1      48.793  29.738  27.278  1.00  0.00     0.029 A 
ATOM     51  C   UNL A   1      47.822  28.750  27.260  1.00  0.00     0.049 A 
ATOM     52  H   UNL A   1      45.782  28.883  27.787  1.00  0.00     0.167 HD
ATOM     53  C   UNL A   1      46.947  26.461  26.881  1.00  0.00     0.074 A 
ATOM     54  C   UNL A   1      47.091  25.079  26.473  1.00  0.00     0.031 C 
ATOM     55  C   UNL A   1      47.956  27.368  26.869  1.00  0.00     0.037 A 
BRANCH  42  56
ATOM     56  C   UNL A   1      46.273  33.029  28.706  1.00  0.00     0.058 A 
ATOM     57  C   UNL A   1      46.175  34.005  27.701  1.00  0.00     0.135 A 
ATOM     58  C   UNL A   1      46.727  33.437  29.971  1.00  0.00     0.135 A 
ATOM     59  F   UNL A   1      45.765  33.667  26.468  1.00  0.00    -0.206 F 
ATOM     60  C   UNL A   1      46.536  35.328  27.934  1.00  0.00     0.059 A 
ATOM     61  C   UNL A   1      47.066  34.761  30.236  1.00  0.00     0.059 A 
ATOM     62  F   UNL A   1      46.844  32.546  30.968  1.00  0.00    -0.206 F 
ATOM     63  C   UNL A   1      46.980  35.697  29.206  1.00  0.00     0.060 A 
BRANCH  63  64
ATOM     64  S   UNL A   1      47.436  37.419  29.494  1.00  0.00     0.124 S 
ATOM     65  O   UNL A   1      48.164  37.322  30.755  1.00  0.00    -0.237 OA
ATOM     66  O   UNL A   1      48.244  37.729  28.319  1.00  0.00    -0.237 OA
ATOM     67  O   UNL A   1      46.150  38.105  29.565  1.00  0.00    -0.744 OA
ENDBRANCH  63  64
ENDBRANCH  42  56
BRANCH  43  68
ATOM     68  C   UNL A   1      43.166  23.657  27.115  1.00  0.00     0.058 A 
ATOM     69  C   UNL A   1      42.871  23.228  25.813  1.00  0.00     0.135 A 
ATOM     70  C   UNL A   1      43.005  22.732  28.159  1.00  0.00     0.135 A 
ATOM     71  F   UNL A   1      42.995  24.077  24.782  1.00  0.00    -0.206 F 
ATOM     72  C   UNL A   1      42.416  21.938  25.556  1.00  0.00     0.059 A 
ATOM     73  C   UNL A   1      42.580  21.428  27.924  1.00  0.00     0.059 A 
ATOM     74  F   UNL A   1      43.284  23.088  29.422  1.00  0.00    -0.206 F 
ATOM     75  C   UNL A   1      42.277  21.044  26.618  1.00  0.00     0.060 A 
BRANCH  75  76
ATOM     76  S   UNL A   1      41.727  19.359  26.269  1.00  0.00     0.124 S 
ATOM     77  O   UNL A   1      42.118  18.663  27.488  1.00  0.00    -0.237 OA
ATOM     78  O   UNL A   1      40.293  19.542  26.069  1.00  0.00    -0.237 OA
ATOM     79  O   UNL A   1      42.480  19.003  25.069  1.00  0.00    -0.744 OA
ENDBRANCH  75  76
ENDBRANCH  43  68
BRANCH  55  80
ATOM     80  C   UNL A   1      49.321  26.892  26.449  1.00  0.00     0.058 A 
ATOM     81  C   UNL A   1      50.196  26.258  27.346  1.00  0.00     0.135 A 
ATOM     82  C   UNL A   1      49.734  27.021  25.113  1.00  0.00     0.135 A 
ATOM     83  F   UNL A   1      49.854  26.111  28.635  1.00  0.00    -0.206 F 
ATOM     84  C   UNL A   1      51.442  25.793  26.938  1.00  0.00     0.059 A 
ATOM     85  C   UNL A   1      50.963  26.535  24.676  1.00  0.00     0.059 A 
ATOM     86  F   UNL A   1      48.932  27.607  24.210  1.00  0.00    -0.206 F 
ATOM     87  C   UNL A   1      51.816  25.934  25.599  1.00  0.00     0.060 A 
BRANCH  87  88
ATOM     88  S   UNL A   1      53.423  25.297  25.077  1.00  0.00     0.124 S 
ATOM     89  O   UNL A   1      53.415  25.611  23.652  1.00  0.00    -0.237 OA
ATOM     90  O   UNL A   1      54.348  26.078  25.892  1.00  0.00    -0.237 OA
ATOM     91  O   UNL A   1      53.350  23.877  25.408  1.00  0.00    -0.744 OA
ENDBRANCH  87  88
ENDBRANCH  55  80
ENDBRANCH  29  30
ENDBRANCH  22  24
ENDBRANCH  21  22
ENDBRANCH  20  21
ENDBRANCH   1  20
TORSDOF 19
ENDMDL
