MODEL 1
REMARK VINA RESULT:     -11.8      0.000      0.000
REMARK SMILES O=C1NC(=S)S/C1=C\c1ccc(OCc2cn(-c3ccc(C(=O)OCCOCCOC(=O)c4ccc(-c5c6nc(c(-c7c(F)cc(S(=O)(=O)[O-])cc7F)c7ccc([nH]7)c(-c7c(F)cc(S(=O)(=O)[O-])cc7F)c7nc(c(-c8c(F)cc(S(=O)(=O)[O-])cc8F)c8ccc5[nH]8)C=C7)C=C6)cc4)cc3)nn2)cc1
REMARK SMILES IDX 26 1 25 2 24 3 22 4 23 5 21 6 18 7 19 8 100 9 20 10 99 11
REMARK SMILES IDX 17 12 15 13 16 14 102 15 101 16 14 17 13 18 12 19 9 20 10 21
REMARK SMILES IDX 104 22 11 23 103 24 8 25 1 26 2 27 3 28 7 29 4 30 6 32 5 33
REMARK SMILES IDX 27 34 28 35 29 36 30 37 31 38 32 39 33 40 34 41 98 42 35 43
REMARK SMILES IDX 97 44 36 45 37 46 38 47 91 48 39 49 96 50 90 51 92 52 40 53
REMARK SMILES IDX 95 54 89 55 88 56 41 58 75 59 54 60 74 61 55 62 58 63 73 64
REMARK SMILES IDX 93 65 56 66 57 67 72 69 94 70 59 71 42 72 43 73 52 74 44 75
REMARK SMILES IDX 45 76 51 77 53 78 46 79 47 80 48 81 49 82 50 83 76 84 77 85
REMARK SMILES IDX 86 86 78 87 79 88 85 89 87 90 80 91 81 92 82 93 83 94 84 95
REMARK SMILES IDX 60 96 61 97 70 98 62 99 63 100 69 101 71 102 64 103 65 104
REMARK SMILES IDX 66 105 67 106 68 107
REMARK H PARENT 3 31 92 57 58 68
REMARK Flexibility Score: inf
ROOT
ATOM      1  C   UNL A   1      44.602  18.948  24.859  1.00  0.00     0.202 C 
ENDROOT
BRANCH   1   2
ATOM      2  C   UNL A   1      43.475  18.729  25.869  1.00  0.00     0.261 C 
BRANCH   2   3
ATOM      3  O   UNL A   1      42.423  19.699  25.743  1.00  0.00    -0.460 OA
BRANCH   3   4
ATOM      4  C   UNL A   1      41.535  19.686  26.759  1.00  0.00     0.338 C 
ATOM      5  O   UNL A   1      41.747  19.377  27.926  1.00  0.00    -0.246 OA
BRANCH   4   6
ATOM      6  C   UNL A   1      40.251  20.265  26.330  1.00  0.00     0.060 A 
ATOM      7  C   UNL A   1      37.971  21.332  25.150  1.00  0.00     0.066 A 
ATOM      8  C   UNL A   1      38.227  19.956  25.049  1.00  0.00     0.029 A 
ATOM      9  C   UNL A   1      38.798  22.150  25.933  1.00  0.00     0.029 A 
ATOM     10  C   UNL A   1      39.385  19.433  25.611  1.00  0.00     0.018 A 
ATOM     11  C   UNL A   1      39.932  21.608  26.546  1.00  0.00     0.018 A 
BRANCH   7  12
ATOM     12  N   UNL A   1      36.942  21.879  24.349  1.00  0.00    -0.220 N 
ATOM     13  C   UNL A   1      35.164  22.946  23.664  1.00  0.00     0.120 A 
ATOM     14  C   UNL A   1      35.655  22.203  24.719  1.00  0.00     0.144 A 
ATOM     15  N   UNL A   1      36.128  23.015  22.694  1.00  0.00    -0.131 NA
ATOM     16  N   UNL A   1      37.195  22.363  23.113  1.00  0.00    -0.062 NA
BRANCH  13  17
ATOM     17  C   UNL A   1      33.894  23.715  23.519  1.00  0.00     0.289 C 
BRANCH  17  18
ATOM     18  O   UNL A   1      33.358  24.260  24.734  1.00  0.00    -0.487 OA
BRANCH  18  19
ATOM     19  C   UNL A   1      32.093  24.779  24.704  1.00  0.00     0.119 A 
ATOM     20  C   UNL A   1      29.592  25.979  24.273  1.00  0.00    -0.024 A 
ATOM     21  C   UNL A   1      30.128  25.114  23.316  1.00  0.00     0.012 A 
ATOM     22  C   UNL A   1      30.268  26.164  25.481  1.00  0.00     0.012 A 
ATOM     23  C   UNL A   1      31.376  24.520  23.533  1.00  0.00     0.047 A 
ATOM     24  C   UNL A   1      31.500  25.547  25.704  1.00  0.00     0.047 A 
BRANCH  20  25
ATOM     25  C   UNL A   1      28.348  26.706  24.012  1.00  0.00     0.029 C 
ATOM     26  O   UNL A   1      25.908  28.252  23.646  1.00  0.00    -0.268 OA
ATOM     27  C   UNL A   1      26.985  28.599  23.188  1.00  0.00     0.263 C 
ATOM     28  N   UNL A   1      27.198  29.756  22.490  1.00  0.00    -0.307 N 
ATOM     29  C   UNL A   1      28.271  27.873  23.356  1.00  0.00     0.080 C 
ATOM     30  C   UNL A   1      28.473  30.053  22.114  1.00  0.00     0.145 C 
ATOM     31  H   UNL A   1      26.451  30.357  22.266  1.00  0.00     0.171 HD
ATOM     32  S   UNL A   1      29.550  28.776  22.625  1.00  0.00    -0.055 SA
ATOM     33  S   UNL A   1      28.892  31.448  21.328  1.00  0.00    -0.052 S 
ENDBRANCH  20  25
ENDBRANCH  18  19
ENDBRANCH  17  18
ENDBRANCH  13  17
ENDBRANCH   7  12
ENDBRANCH   4   6
ENDBRANCH   3   4
ENDBRANCH   2   3
ENDBRANCH   1   2
BRANCH   1  34
ATOM     34  O   UNL A   1      45.909  19.245  25.351  1.00  0.00    -0.374 OA
BRANCH  34  35
ATOM     35  C   UNL A   1      46.454  20.551  25.194  1.00  0.00     0.202 C 
BRANCH  35  36
ATOM     36  C   UNL A   1      45.633  21.611  24.477  1.00  0.00     0.261 C 
BRANCH  36  37
ATOM     37  O   UNL A   1      45.016  22.504  25.388  1.00  0.00    -0.460 OA
BRANCH  37  38
ATOM     38  C   UNL A   1      43.737  22.796  25.083  1.00  0.00     0.338 C 
ATOM     39  O   UNL A   1      43.180  22.645  23.995  1.00  0.00    -0.246 OA
BRANCH  38  40
ATOM     40  C   UNL A   1      43.128  23.471  26.223  1.00  0.00     0.060 A 
ATOM     41  C   UNL A   1      42.066  24.324  25.920  1.00  0.00     0.016 A 
ATOM     42  C   UNL A   1      43.827  23.536  27.439  1.00  0.00     0.016 A 
ATOM     43  C   UNL A   1      41.890  25.429  26.712  1.00  0.00     0.010 A 
ATOM     44  C   UNL A   1      43.664  24.651  28.216  1.00  0.00     0.010 A 
ATOM     45  C   UNL A   1      42.769  25.625  27.780  1.00  0.00    -0.014 A 
BRANCH  45  46
ATOM     46  C   UNL A   1      42.666  26.866  28.507  1.00  0.00     0.031 A 
ATOM     47  C   UNL A   1      43.844  27.727  28.284  1.00  0.00     0.074 A 
ATOM     48  C   UNL A   1      41.559  27.188  29.200  1.00  0.00     0.049 A 
ATOM     49  N   UNL A   1      44.777  28.025  29.124  1.00  0.00    -0.248 NA
ATOM     50  C   UNL A   1      44.145  28.105  26.891  1.00  0.00     0.031 C 
ATOM     51  C   UNL A   1      40.267  26.496  29.222  1.00  0.00     0.029 A 
ATOM     52  N   UNL A   1      41.325  28.289  29.958  1.00  0.00    -0.354 N 
ATOM     53  C   UNL A   1      45.640  28.855  28.418  1.00  0.00     0.074 A 
ATOM     54  C   UNL A   1      45.350  28.656  27.025  1.00  0.00     0.031 C 
ATOM     55  C   UNL A   1      39.333  27.318  29.753  1.00  0.00     0.029 A 
ATOM     56  C   UNL A   1      39.980  28.533  30.214  1.00  0.00     0.049 A 
ATOM     57  H   UNL A   1      42.046  28.866  30.298  1.00  0.00     0.167 HD
ATOM     58  C   UNL A   1      46.289  29.874  29.041  1.00  0.00     0.037 A 
ATOM     59  C   UNL A   1      39.467  29.708  30.665  1.00  0.00     0.037 A 
ATOM     60  C   UNL A   1      46.338  29.665  30.467  1.00  0.00     0.049 A 
ATOM     61  C   UNL A   1      40.600  30.470  31.267  1.00  0.00     0.074 A 
ATOM     62  C   UNL A   1      46.835  28.661  31.277  1.00  0.00     0.029 A 
ATOM     63  N   UNL A   1      45.465  30.382  31.249  1.00  0.00    -0.354 N 
ATOM     64  N   UNL A   1      41.235  30.096  32.346  1.00  0.00    -0.248 NA
ATOM     65  C   UNL A   1      41.340  31.376  30.398  1.00  0.00     0.031 C 
ATOM     66  C   UNL A   1      45.893  28.540  32.339  1.00  0.00     0.029 A 
ATOM     67  C   UNL A   1      44.912  29.517  32.159  1.00  0.00     0.049 A 
ATOM     68  H   UNL A   1      45.271  31.344  31.171  1.00  0.00     0.167 HD
ATOM     69  C   UNL A   1      42.573  30.368  32.091  1.00  0.00     0.074 A 
ATOM     70  C   UNL A   1      42.566  31.219  30.904  1.00  0.00     0.031 C 
ATOM     71  C   UNL A   1      43.570  29.645  32.685  1.00  0.00     0.037 A 
BRANCH  58  72
ATOM     72  C   UNL A   1      46.495  31.226  28.402  1.00  0.00     0.058 A 
ATOM     73  C   UNL A   1      45.368  32.000  28.066  1.00  0.00     0.135 A 
ATOM     74  C   UNL A   1      47.723  31.671  27.855  1.00  0.00     0.135 A 
ATOM     75  F   UNL A   1      44.150  31.665  28.521  1.00  0.00    -0.206 F 
ATOM     76  C   UNL A   1      45.444  33.086  27.195  1.00  0.00     0.059 A 
ATOM     77  C   UNL A   1      47.830  32.783  27.034  1.00  0.00     0.059 A 
ATOM     78  F   UNL A   1      48.869  30.997  27.999  1.00  0.00    -0.206 F 
ATOM     79  C   UNL A   1      46.680  33.459  26.673  1.00  0.00     0.060 A 
BRANCH  79  80
ATOM     80  S   UNL A   1      46.773  34.790  25.467  1.00  0.00     0.124 S 
ATOM     81  O   UNL A   1      45.725  34.403  24.532  1.00  0.00    -0.237 OA
ATOM     82  O   UNL A   1      46.501  35.962  26.292  1.00  0.00    -0.237 OA
ATOM     83  O   UNL A   1      48.140  34.689  24.963  1.00  0.00    -0.744 OA
ENDBRANCH  79  80
ENDBRANCH  58  72
BRANCH  59  84
ATOM     84  C   UNL A   1      38.195  30.359  30.243  1.00  0.00     0.058 A 
ATOM     85  C   UNL A   1      37.340  30.968  31.179  1.00  0.00     0.135 A 
ATOM     86  C   UNL A   1      37.923  30.641  28.887  1.00  0.00     0.135 A 
ATOM     87  F   UNL A   1      37.536  30.778  32.492  1.00  0.00    -0.206 F 
ATOM     88  C   UNL A   1      36.310  31.838  30.799  1.00  0.00     0.059 A 
ATOM     89  C   UNL A   1      36.896  31.492  28.484  1.00  0.00     0.059 A 
ATOM     90  F   UNL A   1      38.709  30.172  27.907  1.00  0.00    -0.206 F 
ATOM     91  C   UNL A   1      36.108  32.109  29.445  1.00  0.00     0.060 A 
BRANCH  91  92
ATOM     92  S   UNL A   1      34.897  33.360  28.951  1.00  0.00     0.124 S 
ATOM     93  O   UNL A   1      35.131  34.412  29.934  1.00  0.00    -0.237 OA
ATOM     94  O   UNL A   1      35.305  33.661  27.583  1.00  0.00    -0.237 OA
ATOM     95  O   UNL A   1      33.619  32.662  29.077  1.00  0.00    -0.744 OA
ENDBRANCH  91  92
ENDBRANCH  59  84
BRANCH  71  96
ATOM     96  C   UNL A   1      43.211  28.746  33.839  1.00  0.00     0.058 A 
ATOM     97  C   UNL A   1      42.743  27.425  33.709  1.00  0.00     0.135 A 
ATOM     98  C   UNL A   1      43.510  29.191  35.136  1.00  0.00     0.135 A 
ATOM     99  F   UNL A   1      42.533  26.886  32.499  1.00  0.00    -0.206 F 
ATOM    100  C   UNL A   1      42.545  26.602  34.820  1.00  0.00     0.059 A 
ATOM    101  C   UNL A   1      43.350  28.379  36.253  1.00  0.00     0.059 A 
ATOM    102  F   UNL A   1      44.020  30.420  35.322  1.00  0.00    -0.206 F 
ATOM    103  C   UNL A   1      42.854  27.088  36.090  1.00  0.00     0.060 A 
BRANCH 103 104
ATOM    104  S   UNL A   1      42.669  26.003  37.522  1.00  0.00     0.124 S 
ATOM    105  O   UNL A   1      43.272  24.762  37.048  1.00  0.00    -0.237 OA
ATOM    106  O   UNL A   1      43.413  26.714  38.558  1.00  0.00    -0.237 OA
ATOM    107  O   UNL A   1      41.223  25.954  37.729  1.00  0.00    -0.744 OA
ENDBRANCH 103 104
ENDBRANCH  71  96
ENDBRANCH  45  46
ENDBRANCH  38  40
ENDBRANCH  37  38
ENDBRANCH  36  37
ENDBRANCH  35  36
ENDBRANCH  34  35
ENDBRANCH   1  34
TORSDOF 22
ENDMDL
MODEL 2
REMARK VINA RESULT:     -11.0      5.515     10.327
REMARK SMILES O=C1NC(=S)S/C1=C\c1ccc(OCc2cn(-c3ccc(C(=O)OCCOCCOC(=O)c4ccc(-c5c6nc(c(-c7c(F)cc(S(=O)(=O)[O-])cc7F)c7ccc([nH]7)c(-c7c(F)cc(S(=O)(=O)[O-])cc7F)c7nc(c(-c8c(F)cc(S(=O)(=O)[O-])cc8F)c8ccc5[nH]8)C=C7)C=C6)cc4)cc3)nn2)cc1
REMARK SMILES IDX 26 1 25 2 24 3 22 4 23 5 21 6 18 7 19 8 100 9 20 10 99 11
REMARK SMILES IDX 17 12 15 13 16 14 102 15 101 16 14 17 13 18 12 19 9 20 10 21
REMARK SMILES IDX 104 22 11 23 103 24 8 25 1 26 2 27 3 28 7 29 4 30 6 32 5 33
REMARK SMILES IDX 27 34 28 35 29 36 30 37 31 38 32 39 33 40 34 41 98 42 35 43
REMARK SMILES IDX 97 44 36 45 37 46 38 47 91 48 39 49 96 50 90 51 92 52 40 53
REMARK SMILES IDX 95 54 89 55 88 56 41 58 75 59 54 60 74 61 55 62 58 63 73 64
REMARK SMILES IDX 93 65 56 66 57 67 72 69 94 70 59 71 42 72 43 73 52 74 44 75
REMARK SMILES IDX 45 76 51 77 53 78 46 79 47 80 48 81 49 82 50 83 76 84 77 85
REMARK SMILES IDX 86 86 78 87 79 88 85 89 87 90 80 91 81 92 82 93 83 94 84 95
REMARK SMILES IDX 60 96 61 97 70 98 62 99 63 100 69 101 71 102 64 103 65 104
REMARK SMILES IDX 66 105 67 106 68 107
REMARK H PARENT 3 31 92 57 58 68
REMARK Flexibility Score: inf
ROOT
ATOM      1  C   UNL A   1      43.191  18.586  26.087  1.00  0.00     0.202 C 
ENDROOT
BRANCH   1   2
ATOM      2  C   UNL A   1      44.497  18.468  25.301  1.00  0.00     0.261 C 
BRANCH   2   3
ATOM      3  O   UNL A   1      44.832  19.675  24.600  1.00  0.00    -0.460 OA
BRANCH   3   4
ATOM      4  C   UNL A   1      46.046  20.177  24.911  1.00  0.00     0.338 C 
ATOM      5  O   UNL A   1      47.109  19.568  24.959  1.00  0.00    -0.246 OA
BRANCH   4   6
ATOM      6  C   UNL A   1      45.982  21.642  25.039  1.00  0.00     0.060 A 
ATOM      7  C   UNL A   1      45.498  24.378  25.125  1.00  0.00     0.066 A 
ATOM      8  C   UNL A   1      44.876  23.532  26.056  1.00  0.00     0.029 A 
ATOM      9  C   UNL A   1      46.444  23.867  24.226  1.00  0.00     0.029 A 
ATOM     10  C   UNL A   1      45.094  22.161  25.987  1.00  0.00     0.018 A 
ATOM     11  C   UNL A   1      46.705  22.493  24.198  1.00  0.00     0.018 A 
BRANCH   7  12
ATOM     12  N   UNL A   1      45.054  25.718  25.044  1.00  0.00    -0.220 N 
ATOM     13  C   UNL A   1      44.055  27.621  25.429  1.00  0.00     0.120 A 
ATOM     14  C   UNL A   1      43.871  26.255  25.502  1.00  0.00     0.144 A 
ATOM     15  N   UNL A   1      45.296  27.867  24.905  1.00  0.00    -0.131 NA
ATOM     16  N   UNL A   1      45.890  26.713  24.670  1.00  0.00    -0.062 NA
BRANCH  13  17
ATOM     17  C   UNL A   1      43.209  28.747  25.921  1.00  0.00     0.289 C 
BRANCH  17  18
ATOM     18  O   UNL A   1      41.803  28.473  26.009  1.00  0.00    -0.487 OA
BRANCH  18  19
ATOM     19  C   UNL A   1      41.253  28.320  27.251  1.00  0.00     0.119 A 
ATOM     20  C   UNL A   1      39.776  28.127  29.632  1.00  0.00    -0.024 A 
ATOM     21  C   UNL A   1      39.311  27.512  28.467  1.00  0.00     0.012 A 
ATOM     22  C   UNL A   1      41.023  28.756  29.621  1.00  0.00     0.012 A 
ATOM     23  C   UNL A   1      40.049  27.612  27.283  1.00  0.00     0.047 A 
ATOM     24  C   UNL A   1      41.767  28.830  28.442  1.00  0.00     0.047 A 
BRANCH  20  25
ATOM     25  C   UNL A   1      38.961  28.139  30.849  1.00  0.00     0.029 C 
ATOM     26  O   UNL A   1      37.477  28.261  33.350  1.00  0.00    -0.268 OA
ATOM     27  C   UNL A   1      37.383  29.116  32.484  1.00  0.00     0.263 C 
ATOM     28  N   UNL A   1      36.617  30.245  32.583  1.00  0.00    -0.307 N 
ATOM     29  C   UNL A   1      38.128  29.129  31.198  1.00  0.00     0.080 C 
ATOM     30  C   UNL A   1      36.678  31.153  31.571  1.00  0.00     0.145 C 
ATOM     31  H   UNL A   1      36.038  30.396  33.365  1.00  0.00     0.171 HD
ATOM     32  S   UNL A   1      37.759  30.575  30.325  1.00  0.00    -0.055 SA
ATOM     33  S   UNL A   1      35.864  32.594  31.585  1.00  0.00    -0.052 S 
ENDBRANCH  20  25
ENDBRANCH  18  19
ENDBRANCH  17  18
ENDBRANCH  13  17
ENDBRANCH   7  12
ENDBRANCH   4   6
ENDBRANCH   3   4
ENDBRANCH   2   3
ENDBRANCH   1   2
BRANCH   1  34
ATOM     34  O   UNL A   1      42.229  19.554  25.668  1.00  0.00    -0.374 OA
BRANCH  34  35
ATOM     35  C   UNL A   1      41.077  19.811  26.466  1.00  0.00     0.202 C 
BRANCH  35  36
ATOM     36  C   UNL A   1      40.136  20.935  26.062  1.00  0.00     0.261 C 
BRANCH  36  37
ATOM     37  O   UNL A   1      40.169  22.007  26.988  1.00  0.00    -0.460 OA
BRANCH  37  38
ATOM     38  C   UNL A   1      41.218  22.836  26.824  1.00  0.00     0.338 C 
ATOM     39  O   UNL A   1      41.797  23.102  25.770  1.00  0.00    -0.246 OA
BRANCH  38  40
ATOM     40  C   UNL A   1      41.675  23.275  28.138  1.00  0.00     0.060 A 
ATOM     41  C   UNL A   1      41.423  24.613  28.446  1.00  0.00     0.016 A 
ATOM     42  C   UNL A   1      42.623  22.506  28.831  1.00  0.00     0.016 A 
ATOM     43  C   UNL A   1      42.321  25.261  29.253  1.00  0.00     0.010 A 
ATOM     44  C   UNL A   1      43.531  23.159  29.619  1.00  0.00     0.010 A 
ATOM     45  C   UNL A   1      43.420  24.542  29.732  1.00  0.00    -0.014 A 
BRANCH  45  46
ATOM     46  C   UNL A   1      44.431  25.276  30.451  1.00  0.00     0.031 A 
ATOM     47  C   UNL A   1      44.377  25.000  31.901  1.00  0.00     0.074 A 
ATOM     48  C   UNL A   1      45.351  26.023  29.813  1.00  0.00     0.049 A 
ATOM     49  N   UNL A   1      44.002  25.796  32.845  1.00  0.00    -0.248 NA
ATOM     50  C   UNL A   1      44.529  23.595  32.322  1.00  0.00     0.031 C 
ATOM     51  C   UNL A   1      45.614  26.104  28.373  1.00  0.00     0.029 A 
ATOM     52  N   UNL A   1      46.333  26.794  30.344  1.00  0.00    -0.354 N 
ATOM     53  C   UNL A   1      44.135  25.052  34.011  1.00  0.00     0.074 A 
ATOM     54  C   UNL A   1      44.204  23.673  33.611  1.00  0.00     0.031 C 
ATOM     55  C   UNL A   1      46.821  26.681  28.176  1.00  0.00     0.029 A 
ATOM     56  C   UNL A   1      47.353  27.114  29.456  1.00  0.00     0.049 A 
ATOM     57  H   UNL A   1      46.324  27.101  31.279  1.00  0.00     0.167 HD
ATOM     58  C   UNL A   1      44.507  25.646  35.176  1.00  0.00     0.037 A 
ATOM     59  C   UNL A   1      48.577  27.592  29.804  1.00  0.00     0.037 A 
ATOM     60  C   UNL A   1      44.267  27.067  35.135  1.00  0.00     0.049 A 
ATOM     61  C   UNL A   1      48.447  28.142  31.186  1.00  0.00     0.074 A 
ATOM     62  C   UNL A   1      43.147  27.850  34.924  1.00  0.00     0.029 A 
ATOM     63  N   UNL A   1      45.347  27.892  34.928  1.00  0.00    -0.354 N 
ATOM     64  N   UNL A   1      47.724  29.188  31.486  1.00  0.00    -0.248 NA
ATOM     65  C   UNL A   1      48.722  27.241  32.298  1.00  0.00     0.031 C 
ATOM     66  C   UNL A   1      43.607  28.955  34.151  1.00  0.00     0.029 A 
ATOM     67  C   UNL A   1      44.986  28.825  33.989  1.00  0.00     0.049 A 
ATOM     68  H   UNL A   1      46.222  27.825  35.374  1.00  0.00     0.167 HD
ATOM     69  C   UNL A   1      47.112  28.870  32.692  1.00  0.00     0.074 A 
ATOM     70  C   UNL A   1      47.819  27.687  33.175  1.00  0.00     0.031 C 
ATOM     71  C   UNL A   1      45.907  29.414  33.040  1.00  0.00     0.037 A 
BRANCH  58  72
ATOM     72  C   UNL A   1      45.456  25.001  36.157  1.00  0.00     0.058 A 
ATOM     73  C   UNL A   1      46.705  24.545  35.698  1.00  0.00     0.135 A 
ATOM     74  C   UNL A   1      45.087  24.564  37.453  1.00  0.00     0.135 A 
ATOM     75  F   UNL A   1      47.152  24.890  34.480  1.00  0.00    -0.206 F 
ATOM     76  C   UNL A   1      47.493  23.663  36.438  1.00  0.00     0.059 A 
ATOM     77  C   UNL A   1      45.882  23.735  38.229  1.00  0.00     0.059 A 
ATOM     78  F   UNL A   1      43.895  24.829  37.997  1.00  0.00    -0.206 F 
ATOM     79  C   UNL A   1      47.062  23.253  37.697  1.00  0.00     0.060 A 
BRANCH  79  80
ATOM     80  S   UNL A   1      48.017  22.034  38.611  1.00  0.00     0.124 S 
ATOM     81  O   UNL A   1      47.173  20.852  38.482  1.00  0.00    -0.237 OA
ATOM     82  O   UNL A   1      49.271  22.014  37.866  1.00  0.00    -0.237 OA
ATOM     83  O   UNL A   1      48.099  22.610  39.951  1.00  0.00    -0.744 OA
ENDBRANCH  79  80
ENDBRANCH  58  72
BRANCH  59  84
ATOM     84  C   UNL A   1      49.891  27.232  29.203  1.00  0.00     0.058 A 
ATOM     85  C   UNL A   1      50.347  25.901  29.184  1.00  0.00     0.135 A 
ATOM     86  C   UNL A   1      50.606  28.137  28.390  1.00  0.00     0.135 A 
ATOM     87  F   UNL A   1      49.714  24.964  29.906  1.00  0.00    -0.206 F 
ATOM     88  C   UNL A   1      51.413  25.485  28.376  1.00  0.00     0.059 A 
ATOM     89  C   UNL A   1      51.678  27.750  27.588  1.00  0.00     0.059 A 
ATOM     90  F   UNL A   1      50.226  29.418  28.275  1.00  0.00    -0.206 F 
ATOM     91  C   UNL A   1      52.062  26.417  27.565  1.00  0.00     0.060 A 
BRANCH  91  92
ATOM     92  S   UNL A   1      53.323  25.862  26.392  1.00  0.00     0.124 S 
ATOM     93  O   UNL A   1      54.520  25.834  27.226  1.00  0.00    -0.237 OA
ATOM     94  O   UNL A   1      52.805  24.563  25.974  1.00  0.00    -0.237 OA
ATOM     95  O   UNL A   1      53.305  26.896  25.361  1.00  0.00    -0.744 OA
ENDBRANCH  91  92
ENDBRANCH  59  84
BRANCH  71  96
ATOM     96  C   UNL A   1      45.391  30.582  32.239  1.00  0.00     0.058 A 
ATOM     97  C   UNL A   1      45.784  31.919  32.431  1.00  0.00     0.135 A 
ATOM     98  C   UNL A   1      44.585  30.307  31.123  1.00  0.00     0.135 A 
ATOM     99  F   UNL A   1      46.636  32.252  33.411  1.00  0.00    -0.206 F 
ATOM    100  C   UNL A   1      45.362  32.940  31.575  1.00  0.00     0.059 A 
ATOM    101  C   UNL A   1      44.180  31.302  30.240  1.00  0.00     0.059 A 
ATOM    102  F   UNL A   1      44.229  29.041  30.848  1.00  0.00    -0.206 F 
ATOM    103  C   UNL A   1      44.561  32.620  30.479  1.00  0.00     0.060 A 
BRANCH 103 104
ATOM    104  S   UNL A   1      44.073  33.925  29.329  1.00  0.00     0.124 S 
ATOM    105  O   UNL A   1      45.030  34.982  29.639  1.00  0.00    -0.237 OA
ATOM    106  O   UNL A   1      44.239  33.280  28.029  1.00  0.00    -0.237 OA
ATOM    107  O   UNL A   1      42.688  34.208  29.701  1.00  0.00    -0.744 OA
ENDBRANCH 103 104
ENDBRANCH  71  96
ENDBRANCH  45  46
ENDBRANCH  38  40
ENDBRANCH  37  38
ENDBRANCH  36  37
ENDBRANCH  35  36
ENDBRANCH  34  35
ENDBRANCH   1  34
TORSDOF 22
ENDMDL
MODEL 3
REMARK VINA RESULT:     -10.7      4.452      6.363
REMARK SMILES O=C1NC(=S)S/C1=C\c1ccc(OCc2cn(-c3ccc(C(=O)OCCOCCOC(=O)c4ccc(-c5c6nc(c(-c7c(F)cc(S(=O)(=O)[O-])cc7F)c7ccc([nH]7)c(-c7c(F)cc(S(=O)(=O)[O-])cc7F)c7nc(c(-c8c(F)cc(S(=O)(=O)[O-])cc8F)c8ccc5[nH]8)C=C7)C=C6)cc4)cc3)nn2)cc1
REMARK SMILES IDX 26 1 25 2 24 3 22 4 23 5 21 6 18 7 19 8 100 9 20 10 99 11
REMARK SMILES IDX 17 12 15 13 16 14 102 15 101 16 14 17 13 18 12 19 9 20 10 21
REMARK SMILES IDX 104 22 11 23 103 24 8 25 1 26 2 27 3 28 7 29 4 30 6 32 5 33
REMARK SMILES IDX 27 34 28 35 29 36 30 37 31 38 32 39 33 40 34 41 98 42 35 43
REMARK SMILES IDX 97 44 36 45 37 46 38 47 91 48 39 49 96 50 90 51 92 52 40 53
REMARK SMILES IDX 95 54 89 55 88 56 41 58 75 59 54 60 74 61 55 62 58 63 73 64
REMARK SMILES IDX 93 65 56 66 57 67 72 69 94 70 59 71 42 72 43 73 52 74 44 75
REMARK SMILES IDX 45 76 51 77 53 78 46 79 47 80 48 81 49 82 50 83 76 84 77 85
REMARK SMILES IDX 86 86 78 87 79 88 85 89 87 90 80 91 81 92 82 93 83 94 84 95
REMARK SMILES IDX 60 96 61 97 70 98 62 99 63 100 69 101 71 102 64 103 65 104
REMARK SMILES IDX 66 105 67 106 68 107
REMARK H PARENT 3 31 92 57 58 68
REMARK Flexibility Score: inf
ROOT
ATOM      1  C   UNL A   1      43.938  18.586  25.064  1.00  0.00     0.202 C 
ENDROOT
BRANCH   1   2
ATOM      2  C   UNL A   1      42.905  18.718  26.184  1.00  0.00     0.261 C 
BRANCH   2   3
ATOM      3  O   UNL A   1      42.505  20.079  26.409  1.00  0.00    -0.460 OA
BRANCH   3   4
ATOM      4  C   UNL A   1      41.515  20.220  27.318  1.00  0.00     0.338 C 
ATOM      5  O   UNL A   1      41.043  19.351  28.042  1.00  0.00    -0.246 OA
BRANCH   4   6
ATOM      6  C   UNL A   1      41.152  21.639  27.468  1.00  0.00     0.060 A 
ATOM      7  C   UNL A   1      40.551  24.352  27.365  1.00  0.00     0.066 A 
ATOM      8  C   UNL A   1      39.661  23.420  26.809  1.00  0.00     0.029 A 
ATOM      9  C   UNL A   1      41.684  23.915  28.068  1.00  0.00     0.029 A 
ATOM     10  C   UNL A   1      39.982  22.069  26.832  1.00  0.00     0.018 A 
ATOM     11  C   UNL A   1      41.974  22.549  28.139  1.00  0.00     0.018 A 
BRANCH   7  12
ATOM     12  N   UNL A   1      40.337  25.723  27.093  1.00  0.00    -0.220 N 
ATOM     13  C   UNL A   1      40.002  27.871  27.295  1.00  0.00     0.120 A 
ATOM     14  C   UNL A   1      39.690  26.657  27.872  1.00  0.00     0.144 A 
ATOM     15  N   UNL A   1      40.776  27.642  26.189  1.00  0.00    -0.131 NA
ATOM     16  N   UNL A   1      40.969  26.342  26.072  1.00  0.00    -0.062 NA
BRANCH  13  17
ATOM     17  C   UNL A   1      39.738  29.266  27.753  1.00  0.00     0.289 C 
BRANCH  17  18
ATOM     18  O   UNL A   1      39.053  29.386  29.009  1.00  0.00    -0.487 OA
BRANCH  18  19
ATOM     19  C   UNL A   1      38.046  30.305  29.108  1.00  0.00     0.119 A 
ATOM     20  C   UNL A   1      35.876  32.078  28.934  1.00  0.00    -0.024 A 
ATOM     21  C   UNL A   1      35.703  30.727  28.625  1.00  0.00     0.012 A 
ATOM     22  C   UNL A   1      37.111  32.515  29.419  1.00  0.00     0.012 A 
ATOM     23  C   UNL A   1      36.787  29.847  28.710  1.00  0.00     0.047 A 
ATOM     24  C   UNL A   1      38.182  31.627  29.527  1.00  0.00     0.047 A 
BRANCH  20  25
ATOM     25  C   UNL A   1      34.788  33.038  28.734  1.00  0.00     0.029 C 
ATOM     26  O   UNL A   1      32.511  34.824  28.419  1.00  0.00    -0.268 OA
ATOM     27  C   UNL A   1      33.223  34.831  29.411  1.00  0.00     0.263 C 
ATOM     28  N   UNL A   1      33.030  35.630  30.503  1.00  0.00    -0.307 N 
ATOM     29  C   UNL A   1      34.383  33.932  29.647  1.00  0.00     0.080 C 
ATOM     30  C   UNL A   1      33.857  35.465  31.573  1.00  0.00     0.145 C 
ATOM     31  H   UNL A   1      32.315  36.306  30.516  1.00  0.00     0.171 HD
ATOM     32  S   UNL A   1      35.035  34.225  31.221  1.00  0.00    -0.055 SA
ATOM     33  S   UNL A   1      33.700  36.310  32.988  1.00  0.00    -0.052 S 
ENDBRANCH  20  25
ENDBRANCH  18  19
ENDBRANCH  17  18
ENDBRANCH  13  17
ENDBRANCH   7  12
ENDBRANCH   4   6
ENDBRANCH   3   4
ENDBRANCH   2   3
ENDBRANCH   1   2
BRANCH   1  34
ATOM     34  O   UNL A   1      45.258  18.161  25.402  1.00  0.00    -0.374 OA
BRANCH  34  35
ATOM     35  C   UNL A   1      46.324  19.105  25.447  1.00  0.00     0.202 C 
BRANCH  35  36
ATOM     36  C   UNL A   1      46.424  20.157  24.354  1.00  0.00     0.261 C 
BRANCH  36  37
ATOM     37  O   UNL A   1      46.317  21.470  24.875  1.00  0.00    -0.460 OA
BRANCH  37  38
ATOM     38  C   UNL A   1      45.149  22.076  24.590  1.00  0.00     0.338 C 
ATOM     39  O   UNL A   1      44.513  22.004  23.537  1.00  0.00    -0.246 OA
BRANCH  38  40
ATOM     40  C   UNL A   1      44.807  22.972  25.689  1.00  0.00     0.060 A 
ATOM     41  C   UNL A   1      44.448  24.269  25.319  1.00  0.00     0.016 A 
ATOM     42  C   UNL A   1      45.198  22.639  26.996  1.00  0.00     0.016 A 
ATOM     43  C   UNL A   1      44.759  25.286  26.183  1.00  0.00     0.010 A 
ATOM     44  C   UNL A   1      45.526  23.659  27.848  1.00  0.00     0.010 A 
ATOM     45  C   UNL A   1      45.395  24.965  27.385  1.00  0.00    -0.014 A 
BRANCH  45  46
ATOM     46  C   UNL A   1      45.849  26.057  28.209  1.00  0.00     0.031 A 
ATOM     47  C   UNL A   1      47.322  26.092  28.302  1.00  0.00     0.074 A 
ATOM     48  C   UNL A   1      44.993  26.963  28.716  1.00  0.00     0.049 A 
ATOM     49  N   UNL A   1      48.057  25.821  29.329  1.00  0.00    -0.248 NA
ATOM     50  C   UNL A   1      48.072  26.209  27.039  1.00  0.00     0.031 C 
ATOM     51  C   UNL A   1      43.566  27.127  28.422  1.00  0.00     0.029 A 
ATOM     52  N   UNL A   1      45.257  28.014  29.532  1.00  0.00    -0.354 N 
ATOM     53  C   UNL A   1      49.362  26.002  28.889  1.00  0.00     0.074 A 
ATOM     54  C   UNL A   1      49.317  25.979  27.453  1.00  0.00     0.031 C 
ATOM     55  C   UNL A   1      43.163  28.343  28.857  1.00  0.00     0.029 A 
ATOM     56  C   UNL A   1      44.261  28.983  29.559  1.00  0.00     0.049 A 
ATOM     57  H   UNL A   1      46.085  28.085  30.060  1.00  0.00     0.167 HD
ATOM     58  C   UNL A   1      50.318  26.482  29.727  1.00  0.00     0.037 A 
ATOM     59  C   UNL A   1      44.408  30.249  30.030  1.00  0.00     0.037 A 
ATOM     60  C   UNL A   1      49.936  26.306  31.107  1.00  0.00     0.049 A 
ATOM     61  C   UNL A   1      45.614  30.242  30.911  1.00  0.00     0.074 A 
ATOM     62  C   UNL A   1      49.601  25.211  31.882  1.00  0.00     0.029 A 
ATOM     63  N   UNL A   1      49.469  27.405  31.786  1.00  0.00    -0.354 N 
ATOM     64  N   UNL A   1      45.683  29.592  32.042  1.00  0.00    -0.248 NA
ATOM     65  C   UNL A   1      46.898  30.553  30.297  1.00  0.00     0.031 C 
ATOM     66  C   UNL A   1      48.551  25.665  32.731  1.00  0.00     0.029 A 
ATOM     67  C   UNL A   1      48.348  27.023  32.479  1.00  0.00     0.049 A 
ATOM     68  H   UNL A   1      49.867  28.306  31.778  1.00  0.00     0.167 HD
ATOM     69  C   UNL A   1      46.962  29.051  32.070  1.00  0.00     0.074 A 
ATOM     70  C   UNL A   1      47.686  29.735  31.002  1.00  0.00     0.031 C 
ATOM     71  C   UNL A   1      47.231  27.900  32.757  1.00  0.00     0.037 A 
BRANCH  58  72
ATOM     72  C   UNL A   1      51.375  27.467  29.287  1.00  0.00     0.058 A 
ATOM     73  C   UNL A   1      52.715  27.232  29.644  1.00  0.00     0.135 A 
ATOM     74  C   UNL A   1      51.098  28.758  28.777  1.00  0.00     0.135 A 
ATOM     75  F   UNL A   1      53.090  26.045  30.149  1.00  0.00    -0.206 F 
ATOM     76  C   UNL A   1      53.690  28.227  29.571  1.00  0.00     0.059 A 
ATOM     77  C   UNL A   1      52.064  29.743  28.640  1.00  0.00     0.059 A 
ATOM     78  F   UNL A   1      49.862  29.172  28.479  1.00  0.00    -0.206 F 
ATOM     79  C   UNL A   1      53.348  29.484  29.080  1.00  0.00     0.060 A 
BRANCH  79  80
ATOM     80  S   UNL A   1      54.569  30.804  29.082  1.00  0.00     0.124 S 
ATOM     81  O   UNL A   1      54.040  31.686  28.049  1.00  0.00    -0.237 OA
ATOM     82  O   UNL A   1      54.482  31.293  30.453  1.00  0.00    -0.237 OA
ATOM     83  O   UNL A   1      55.811  30.111  28.747  1.00  0.00    -0.744 OA
ENDBRANCH  79  80
ENDBRANCH  58  72
BRANCH  59  84
ATOM     84  C   UNL A   1      43.843  31.500  29.452  1.00  0.00     0.058 A 
ATOM     85  C   UNL A   1      42.991  32.332  30.203  1.00  0.00     0.135 A 
ATOM     86  C   UNL A   1      44.339  32.052  28.253  1.00  0.00     0.135 A 
ATOM     87  F   UNL A   1      42.490  31.903  31.371  1.00  0.00    -0.206 F 
ATOM     88  C   UNL A   1      42.689  33.643  29.812  1.00  0.00     0.059 A 
ATOM     89  C   UNL A   1      44.042  33.348  27.836  1.00  0.00     0.059 A 
ATOM     90  F   UNL A   1      45.211  31.379  27.487  1.00  0.00    -0.206 F 
ATOM     91  C   UNL A   1      43.236  34.149  28.633  1.00  0.00     0.060 A 
BRANCH  91  92
ATOM     92  S   UNL A   1      42.994  35.891  28.206  1.00  0.00     0.124 S 
ATOM     93  O   UNL A   1      44.044  36.108  27.217  1.00  0.00    -0.237 OA
ATOM     94  O   UNL A   1      41.626  35.896  27.698  1.00  0.00    -0.237 OA
ATOM     95  O   UNL A   1      43.184  36.581  29.479  1.00  0.00    -0.744 OA
ENDBRANCH  91  92
ENDBRANCH  59  84
BRANCH  71  96
ATOM     96  C   UNL A   1      46.194  27.384  33.721  1.00  0.00     0.058 A 
ATOM     97  C   UNL A   1      46.056  27.813  35.054  1.00  0.00     0.135 A 
ATOM     98  C   UNL A   1      45.196  26.535  33.218  1.00  0.00     0.135 A 
ATOM     99  F   UNL A   1      46.907  28.706  35.581  1.00  0.00    -0.206 F 
ATOM    100  C   UNL A   1      44.998  27.385  35.859  1.00  0.00     0.059 A 
ATOM    101  C   UNL A   1      44.117  26.121  33.992  1.00  0.00     0.059 A 
ATOM    102  F   UNL A   1      45.236  26.140  31.934  1.00  0.00    -0.206 F 
ATOM    103  C   UNL A   1      44.030  26.540  35.317  1.00  0.00     0.060 A 
BRANCH 103 104
ATOM    104  S   UNL A   1      42.620  26.043  36.331  1.00  0.00     0.124 S 
ATOM    105  O   UNL A   1      43.248  25.185  37.331  1.00  0.00    -0.237 OA
ATOM    106  O   UNL A   1      42.114  27.322  36.820  1.00  0.00    -0.237 OA
ATOM    107  O   UNL A   1      41.743  25.358  35.384  1.00  0.00    -0.744 OA
ENDBRANCH 103 104
ENDBRANCH  71  96
ENDBRANCH  45  46
ENDBRANCH  38  40
ENDBRANCH  37  38
ENDBRANCH  36  37
ENDBRANCH  35  36
ENDBRANCH  34  35
ENDBRANCH   1  34
TORSDOF 22
ENDMDL
