MODEL 1
REMARK VINA RESULT:     -11.1      0.000      0.000
REMARK SMILES Cc1ccc([N+](=O)[O-])c(NCc2ccc(C(=O)OCCOCCOC(=O)c3ccc(-c4c5nc(c(-c6c(F)cc(S(=O)(=O)[O-])cc6F)c6ccc([nH]6)c(-c6c(F)cc(S(=O)(=O)[O-])cc6F)c6nc(c(-c7c(F)cc(S(=O)(=O)[O-])cc7F)c7ccc4[nH]7)C=C6)C=C5)cc3)cc2)c1
REMARK SMILES IDX 20 1 19 2 18 3 16 4 17 5 15 6 12 7 13 8 94 9 14 10 93 11
REMARK SMILES IDX 11 12 10 13 9 15 1 16 2 17 3 18 95 19 4 20 5 21 6 22 7 23
REMARK SMILES IDX 8 24 21 25 22 26 23 27 24 28 25 29 26 30 27 31 28 32 92 33
REMARK SMILES IDX 29 34 91 35 30 36 31 37 32 38 85 39 33 40 90 41 84 42 86 43
REMARK SMILES IDX 34 44 89 45 83 46 82 47 35 49 69 50 48 51 68 52 49 53 52 54
REMARK SMILES IDX 67 55 87 56 50 57 51 58 66 60 88 61 53 62 36 63 37 64 46 65
REMARK SMILES IDX 38 66 39 67 45 68 47 69 40 70 41 71 42 72 43 73 44 74 70 75
REMARK SMILES IDX 71 76 80 77 72 78 73 79 79 80 81 81 74 82 75 83 76 84 77 85
REMARK SMILES IDX 78 86 54 87 55 88 64 89 56 90 57 91 63 92 65 93 58 94 59 95
REMARK SMILES IDX 60 96 61 97 62 98
REMARK H PARENT 10 14 86 48 52 59
REMARK Flexibility Score: inf
ROOT
ATOM      1  C   UNL A   1      36.347  30.775  28.366  1.00  0.00     0.202 C 
ENDROOT
BRANCH   1   2
ATOM      2  C   UNL A   1      34.987  31.266  27.976  1.00  0.00     0.261 C 
BRANCH   2   3
ATOM      3  O   UNL A   1      34.368  30.417  26.997  1.00  0.00    -0.460 OA
BRANCH   3   4
ATOM      4  C   UNL A   1      33.025  30.222  26.968  1.00  0.00     0.338 C 
ATOM      5  O   UNL A   1      32.113  31.012  26.972  1.00  0.00    -0.246 OA
BRANCH   4   6
ATOM      6  C   UNL A   1      32.855  28.783  26.734  1.00  0.00     0.060 A 
ATOM      7  C   UNL A   1      32.400  26.177  25.928  1.00  0.00    -0.029 A 
ATOM      8  C   UNL A   1      31.369  26.924  26.525  1.00  0.00     0.006 A 
ATOM      9  C   UNL A   1      33.648  26.768  25.703  1.00  0.00     0.006 A 
ATOM     10  C   UNL A   1      31.592  28.231  26.928  1.00  0.00     0.016 A 
ATOM     11  C   UNL A   1      33.891  28.044  26.157  1.00  0.00     0.016 A 
BRANCH   7  12
ATOM     12  C   UNL A   1      32.083  24.758  25.541  1.00  0.00     0.149 C 
BRANCH  12  13
ATOM     13  N   UNL A   1      32.807  23.791  26.330  1.00  0.00    -0.375 N 
ATOM     14  H   UNL A   1      32.598  23.800  27.293  1.00  0.00     0.161 HD
BRANCH  13  15
ATOM     15  C   UNL A   1      33.745  22.861  25.949  1.00  0.00     0.114 A 
ATOM     16  C   UNL A   1      37.575  23.221  25.769  1.00  0.00     0.044 C 
ATOM     17  C   UNL A   1      36.206  22.618  25.687  1.00  0.00    -0.049 A 
ATOM     18  C   UNL A   1      36.035  21.295  25.306  1.00  0.00     0.010 A 
ATOM     19  C   UNL A   1      35.070  23.375  25.990  1.00  0.00     0.036 A 
ATOM     20  C   UNL A   1      34.751  20.761  25.209  1.00  0.00     0.088 A 
ATOM     21  C   UNL A   1      33.603  21.532  25.508  1.00  0.00     0.292 A 
BRANCH  21  22
ATOM     22  N   UNL A   1      32.331  20.802  25.367  1.00  0.00     0.064 N 
ATOM     23  O   UNL A   1      31.287  21.475  25.399  1.00  0.00    -0.258 OA
ATOM     24  O   UNL A   1      32.332  19.569  25.315  1.00  0.00    -0.258 OA
ENDBRANCH  21  22
ENDBRANCH  13  15
ENDBRANCH  12  13
ENDBRANCH   7  12
ENDBRANCH   4   6
ENDBRANCH   3   4
ENDBRANCH   2   3
ENDBRANCH   1   2
BRANCH   1  25
ATOM     25  O   UNL A   1      36.669  31.469  29.561  1.00  0.00    -0.374 OA
BRANCH  25  26
ATOM     26  C   UNL A   1      35.757  31.359  30.623  1.00  0.00     0.202 C 
BRANCH  26  27
ATOM     27  C   UNL A   1      36.333  30.554  31.787  1.00  0.00     0.261 C 
BRANCH  27  28
ATOM     28  O   UNL A   1      37.585  29.937  31.405  1.00  0.00    -0.460 OA
BRANCH  28  29
ATOM     29  C   UNL A   1      37.976  28.851  32.140  1.00  0.00     0.338 C 
ATOM     30  O   UNL A   1      37.353  28.420  33.093  1.00  0.00    -0.246 OA
BRANCH  29  31
ATOM     31  C   UNL A   1      39.263  28.296  31.617  1.00  0.00     0.060 A 
ATOM     32  C   UNL A   1      40.471  28.425  32.331  1.00  0.00     0.016 A 
ATOM     33  C   UNL A   1      39.296  27.846  30.304  1.00  0.00     0.016 A 
ATOM     34  C   UNL A   1      41.715  28.272  31.679  1.00  0.00     0.010 A 
ATOM     35  C   UNL A   1      40.509  27.794  29.650  1.00  0.00     0.010 A 
ATOM     36  C   UNL A   1      41.731  28.044  30.307  1.00  0.00    -0.014 A 
BRANCH  36  37
ATOM     37  C   UNL A   1      42.885  28.061  29.388  1.00  0.00     0.031 A 
ATOM     38  C   UNL A   1      43.519  26.744  29.134  1.00  0.00     0.074 A 
ATOM     39  C   UNL A   1      43.072  29.069  28.493  1.00  0.00     0.049 A 
ATOM     40  N   UNL A   1      44.415  26.528  28.242  1.00  0.00    -0.248 NA
ATOM     41  C   UNL A   1      43.195  25.534  29.893  1.00  0.00     0.031 C 
ATOM     42  C   UNL A   1      43.525  28.959  27.097  1.00  0.00     0.029 A 
ATOM     43  N   UNL A   1      42.849  30.440  28.623  1.00  0.00    -0.354 N 
ATOM     44  C   UNL A   1      44.509  25.170  28.055  1.00  0.00     0.074 A 
ATOM     45  C   UNL A   1      43.836  24.596  29.188  1.00  0.00     0.031 C 
ATOM     46  C   UNL A   1      43.771  30.181  26.594  1.00  0.00     0.029 A 
ATOM     47  C   UNL A   1      43.638  31.125  27.686  1.00  0.00     0.049 A 
ATOM     48  H   UNL A   1      42.235  30.859  29.269  1.00  0.00     0.167 HD
ATOM     49  C   UNL A   1      45.048  24.733  26.883  1.00  0.00     0.037 A 
ATOM     50  C   UNL A   1      44.553  32.037  28.113  1.00  0.00     0.037 A 
ATOM     51  C   UNL A   1      45.676  25.861  26.177  1.00  0.00     0.049 A 
ATOM     52  C   UNL A   1      45.920  31.483  27.814  1.00  0.00     0.074 A 
ATOM     53  C   UNL A   1      45.352  26.593  25.048  1.00  0.00     0.029 A 
ATOM     54  N   UNL A   1      46.656  26.596  26.847  1.00  0.00    -0.354 N 
ATOM     55  N   UNL A   1      46.128  30.206  27.624  1.00  0.00    -0.248 NA
ATOM     56  C   UNL A   1      47.111  32.283  27.561  1.00  0.00     0.031 C 
ATOM     57  C   UNL A   1      46.070  27.828  25.114  1.00  0.00     0.029 A 
ATOM     58  C   UNL A   1      46.860  27.829  26.258  1.00  0.00     0.049 A 
ATOM     59  H   UNL A   1      47.143  26.276  27.641  1.00  0.00     0.167 HD
ATOM     60  C   UNL A   1      47.388  30.005  27.162  1.00  0.00     0.074 A 
ATOM     61  C   UNL A   1      47.982  31.332  27.172  1.00  0.00     0.031 C 
ATOM     62  C   UNL A   1      47.843  28.768  26.805  1.00  0.00     0.037 A 
BRANCH  49  63
ATOM     63  C   UNL A   1      44.901  23.339  26.296  1.00  0.00     0.058 A 
ATOM     64  C   UNL A   1      46.012  22.711  25.689  1.00  0.00     0.135 A 
ATOM     65  C   UNL A   1      43.700  22.595  26.209  1.00  0.00     0.135 A 
ATOM     66  F   UNL A   1      47.214  23.306  25.658  1.00  0.00    -0.206 F 
ATOM     67  C   UNL A   1      45.942  21.459  25.066  1.00  0.00     0.059 A 
ATOM     68  C   UNL A   1      43.615  21.324  25.630  1.00  0.00     0.059 A 
ATOM     69  F   UNL A   1      42.527  23.077  26.627  1.00  0.00    -0.206 F 
ATOM     70  C   UNL A   1      44.740  20.765  25.049  1.00  0.00     0.060 A 
BRANCH  70  71
ATOM     71  S   UNL A   1      44.662  19.148  24.256  1.00  0.00     0.124 S 
ATOM     72  O   UNL A   1      44.313  19.501  22.884  1.00  0.00    -0.237 OA
ATOM     73  O   UNL A   1      46.013  18.639  24.460  1.00  0.00    -0.237 OA
ATOM     74  O   UNL A   1      43.617  18.450  25.003  1.00  0.00    -0.744 OA
ENDBRANCH  70  71
ENDBRANCH  49  63
BRANCH  50  75
ATOM     75  C   UNL A   1      44.032  32.797  29.300  1.00  0.00     0.058 A 
ATOM     76  C   UNL A   1      43.053  33.782  29.021  1.00  0.00     0.135 A 
ATOM     77  C   UNL A   1      43.972  32.199  30.572  1.00  0.00     0.135 A 
ATOM     78  F   UNL A   1      43.047  34.394  27.824  1.00  0.00    -0.206 F 
ATOM     79  C   UNL A   1      41.970  34.026  29.872  1.00  0.00     0.059 A 
ATOM     80  C   UNL A   1      42.881  32.414  31.429  1.00  0.00     0.059 A 
ATOM     81  F   UNL A   1      44.859  31.252  30.909  1.00  0.00    -0.206 F 
ATOM     82  C   UNL A   1      41.857  33.287  31.048  1.00  0.00     0.060 A 
BRANCH  82  83
ATOM     83  S   UNL A   1      40.266  33.296  31.937  1.00  0.00     0.124 S 
ATOM     84  O   UNL A   1      39.307  33.373  30.843  1.00  0.00    -0.237 OA
ATOM     85  O   UNL A   1      40.286  32.026  32.662  1.00  0.00    -0.237 OA
ATOM     86  O   UNL A   1      40.371  34.479  32.783  1.00  0.00    -0.744 OA
ENDBRANCH  82  83
ENDBRANCH  50  75
BRANCH  62  87
ATOM     87  C   UNL A   1      49.296  28.387  26.890  1.00  0.00     0.058 A 
ATOM     88  C   UNL A   1      50.007  28.341  28.104  1.00  0.00     0.135 A 
ATOM     89  C   UNL A   1      49.987  27.889  25.762  1.00  0.00     0.135 A 
ATOM     90  F   UNL A   1      49.426  28.618  29.280  1.00  0.00    -0.206 F 
ATOM     91  C   UNL A   1      51.341  27.964  28.173  1.00  0.00     0.059 A 
ATOM     92  C   UNL A   1      51.297  27.425  25.825  1.00  0.00     0.059 A 
ATOM     93  F   UNL A   1      49.411  27.811  24.554  1.00  0.00    -0.206 F 
ATOM     94  C   UNL A   1      51.980  27.517  27.026  1.00  0.00     0.060 A 
BRANCH  94  95
ATOM     95  S   UNL A   1      53.708  27.043  27.130  1.00  0.00     0.124 S 
ATOM     96  O   UNL A   1      54.126  27.758  28.332  1.00  0.00    -0.237 OA
ATOM     97  O   UNL A   1      53.629  25.590  27.255  1.00  0.00    -0.237 OA
ATOM     98  O   UNL A   1      54.270  27.530  25.875  1.00  0.00    -0.744 OA
ENDBRANCH  94  95
ENDBRANCH  62  87
ENDBRANCH  36  37
ENDBRANCH  29  31
ENDBRANCH  28  29
ENDBRANCH  27  28
ENDBRANCH  26  27
ENDBRANCH  25  26
ENDBRANCH   1  25
TORSDOF 21
ENDMDL
MODEL 2
REMARK VINA RESULT:     -10.7      2.374      3.484
REMARK SMILES Cc1ccc([N+](=O)[O-])c(NCc2ccc(C(=O)OCCOCCOC(=O)c3ccc(-c4c5nc(c(-c6c(F)cc(S(=O)(=O)[O-])cc6F)c6ccc([nH]6)c(-c6c(F)cc(S(=O)(=O)[O-])cc6F)c6nc(c(-c7c(F)cc(S(=O)(=O)[O-])cc7F)c7ccc4[nH]7)C=C6)C=C5)cc3)cc2)c1
REMARK SMILES IDX 20 1 19 2 18 3 16 4 17 5 15 6 12 7 13 8 94 9 14 10 93 11
REMARK SMILES IDX 11 12 10 13 9 15 1 16 2 17 3 18 95 19 4 20 5 21 6 22 7 23
REMARK SMILES IDX 8 24 21 25 22 26 23 27 24 28 25 29 26 30 27 31 28 32 92 33
REMARK SMILES IDX 29 34 91 35 30 36 31 37 32 38 85 39 33 40 90 41 84 42 86 43
REMARK SMILES IDX 34 44 89 45 83 46 82 47 35 49 69 50 48 51 68 52 49 53 52 54
REMARK SMILES IDX 67 55 87 56 50 57 51 58 66 60 88 61 53 62 36 63 37 64 46 65
REMARK SMILES IDX 38 66 39 67 45 68 47 69 40 70 41 71 42 72 43 73 44 74 70 75
REMARK SMILES IDX 71 76 80 77 72 78 73 79 79 80 81 81 74 82 75 83 76 84 77 85
REMARK SMILES IDX 78 86 54 87 55 88 64 89 56 90 57 91 63 92 65 93 58 94 59 95
REMARK SMILES IDX 60 96 61 97 62 98
REMARK H PARENT 10 14 86 48 52 59
REMARK Flexibility Score: inf
ROOT
ATOM      1  C   UNL A   1      34.836  32.460  32.016  1.00  0.00     0.202 C 
ENDROOT
BRANCH   1   2
ATOM      2  C   UNL A   1      35.388  33.460  31.049  1.00  0.00     0.261 C 
BRANCH   2   3
ATOM      3  O   UNL A   1      34.950  33.208  29.704  1.00  0.00    -0.460 OA
BRANCH   3   4
ATOM      4  C   UNL A   1      35.811  32.800  28.738  1.00  0.00     0.338 C 
ATOM      5  O   UNL A   1      36.895  33.221  28.418  1.00  0.00    -0.246 OA
BRANCH   4   6
ATOM      6  C   UNL A   1      35.238  31.551  28.222  1.00  0.00     0.060 A 
ATOM      7  C   UNL A   1      34.251  29.341  26.882  1.00  0.00    -0.029 A 
ATOM      8  C   UNL A   1      33.425  30.456  27.115  1.00  0.00     0.006 A 
ATOM      9  C   UNL A   1      35.588  29.368  27.293  1.00  0.00     0.006 A 
ATOM     10  C   UNL A   1      33.917  31.566  27.783  1.00  0.00     0.016 A 
ATOM     11  C   UNL A   1      36.062  30.443  28.010  1.00  0.00     0.016 A 
BRANCH   7  12
ATOM     12  C   UNL A   1      33.634  28.168  26.171  1.00  0.00     0.149 C 
BRANCH  12  13
ATOM     13  N   UNL A   1      32.211  28.317  25.985  1.00  0.00    -0.375 N 
ATOM     14  H   UNL A   1      31.698  28.471  26.812  1.00  0.00     0.161 HD
BRANCH  13  15
ATOM     15  C   UNL A   1      31.459  28.275  24.834  1.00  0.00     0.114 A 
ATOM     16  C   UNL A   1      29.187  30.998  23.331  1.00  0.00     0.044 C 
ATOM     17  C   UNL A   1      29.916  29.700  23.502  1.00  0.00    -0.049 A 
ATOM     18  C   UNL A   1      29.803  28.693  22.556  1.00  0.00     0.010 A 
ATOM     19  C   UNL A   1      30.726  29.475  24.619  1.00  0.00     0.036 A 
ATOM     20  C   UNL A   1      30.468  27.482  22.747  1.00  0.00     0.088 A 
ATOM     21  C   UNL A   1      31.279  27.255  23.883  1.00  0.00     0.292 A 
BRANCH  21  22
ATOM     22  N   UNL A   1      31.918  25.927  23.913  1.00  0.00     0.064 N 
ATOM     23  O   UNL A   1      32.122  25.374  22.820  1.00  0.00    -0.258 OA
ATOM     24  O   UNL A   1      32.143  25.376  24.995  1.00  0.00    -0.258 OA
ENDBRANCH  21  22
ENDBRANCH  13  15
ENDBRANCH  12  13
ENDBRANCH   7  12
ENDBRANCH   4   6
ENDBRANCH   3   4
ENDBRANCH   2   3
ENDBRANCH   1   2
BRANCH   1  25
ATOM     25  O   UNL A   1      35.961  31.959  32.722  1.00  0.00    -0.374 OA
BRANCH  25  26
ATOM     26  C   UNL A   1      37.227  32.302  32.221  1.00  0.00     0.202 C 
BRANCH  26  27
ATOM     27  C   UNL A   1      38.226  31.154  32.364  1.00  0.00     0.261 C 
BRANCH  27  28
ATOM     28  O   UNL A   1      37.713  29.956  31.736  1.00  0.00    -0.460 OA
BRANCH  28  29
ATOM     29  C   UNL A   1      38.041  28.769  32.334  1.00  0.00     0.338 C 
ATOM     30  O   UNL A   1      37.388  28.258  33.226  1.00  0.00    -0.246 OA
BRANCH  29  31
ATOM     31  C   UNL A   1      39.301  28.214  31.750  1.00  0.00     0.060 A 
ATOM     32  C   UNL A   1      40.533  28.296  32.430  1.00  0.00     0.016 A 
ATOM     33  C   UNL A   1      39.286  27.815  30.420  1.00  0.00     0.016 A 
ATOM     34  C   UNL A   1      41.753  28.149  31.734  1.00  0.00     0.010 A 
ATOM     35  C   UNL A   1      40.476  27.770  29.726  1.00  0.00     0.010 A 
ATOM     36  C   UNL A   1      41.722  27.975  30.355  1.00  0.00    -0.014 A 
BRANCH  36  37
ATOM     37  C   UNL A   1      42.847  28.008  29.400  1.00  0.00     0.031 A 
ATOM     38  C   UNL A   1      43.499  26.703  29.133  1.00  0.00     0.074 A 
ATOM     39  C   UNL A   1      42.988  29.015  28.496  1.00  0.00     0.049 A 
ATOM     40  N   UNL A   1      44.371  26.499  28.215  1.00  0.00    -0.248 NA
ATOM     41  C   UNL A   1      43.221  25.490  29.907  1.00  0.00     0.031 C 
ATOM     42  C   UNL A   1      43.401  28.907  27.088  1.00  0.00     0.029 A 
ATOM     43  N   UNL A   1      42.744  30.383  28.627  1.00  0.00    -0.354 N 
ATOM     44  C   UNL A   1      44.485  25.143  28.031  1.00  0.00     0.074 A 
ATOM     45  C   UNL A   1      43.858  24.561  29.186  1.00  0.00     0.031 C 
ATOM     46  C   UNL A   1      43.609  30.132  26.572  1.00  0.00     0.029 A 
ATOM     47  C   UNL A   1      43.491  31.078  27.663  1.00  0.00     0.049 A 
ATOM     48  H   UNL A   1      42.142  30.793  29.289  1.00  0.00     0.167 HD
ATOM     49  C   UNL A   1      44.996  24.709  26.845  1.00  0.00     0.037 A 
ATOM     50  C   UNL A   1      44.401  32.009  28.059  1.00  0.00     0.037 A 
ATOM     51  C   UNL A   1      45.582  25.846  26.115  1.00  0.00     0.049 A 
ATOM     52  C   UNL A   1      45.768  31.479  27.721  1.00  0.00     0.074 A 
ATOM     53  C   UNL A   1      45.210  26.566  24.994  1.00  0.00     0.029 A 
ATOM     54  N   UNL A   1      46.568  26.603  26.752  1.00  0.00    -0.354 N 
ATOM     55  N   UNL A   1      45.995  30.205  27.530  1.00  0.00    -0.248 NA
ATOM     56  C   UNL A   1      46.936  32.301  27.429  1.00  0.00     0.031 C 
ATOM     57  C   UNL A   1      45.906  27.815  25.033  1.00  0.00     0.029 A 
ATOM     58  C   UNL A   1      46.730  27.837  26.152  1.00  0.00     0.049 A 
ATOM     59  H   UNL A   1      47.084  26.295  27.532  1.00  0.00     0.167 HD
ATOM     60  C   UNL A   1      47.244  30.026  27.031  1.00  0.00     0.074 A 
ATOM     61  C   UNL A   1      47.812  31.365  27.017  1.00  0.00     0.031 C 
ATOM     62  C   UNL A   1      47.711  28.797  26.666  1.00  0.00     0.037 A 
BRANCH  49  63
ATOM     63  C   UNL A   1      44.858  23.310  26.269  1.00  0.00     0.058 A 
ATOM     64  C   UNL A   1      45.971  22.688  25.658  1.00  0.00     0.135 A 
ATOM     65  C   UNL A   1      43.664  22.555  26.195  1.00  0.00     0.135 A 
ATOM     66  F   UNL A   1      47.167  23.294  25.615  1.00  0.00    -0.206 F 
ATOM     67  C   UNL A   1      45.908  21.431  25.044  1.00  0.00     0.059 A 
ATOM     68  C   UNL A   1      43.586  21.280  25.626  1.00  0.00     0.059 A 
ATOM     69  F   UNL A   1      42.489  23.029  26.619  1.00  0.00    -0.206 F 
ATOM     70  C   UNL A   1      44.713  20.727  25.041  1.00  0.00     0.060 A 
BRANCH  70  71
ATOM     71  S   UNL A   1      44.643  19.103  24.259  1.00  0.00     0.124 S 
ATOM     72  O   UNL A   1      43.555  18.462  24.990  1.00  0.00    -0.237 OA
ATOM     73  O   UNL A   1      44.365  19.442  22.869  1.00  0.00    -0.237 OA
ATOM     74  O   UNL A   1      45.972  18.546  24.508  1.00  0.00    -0.744 OA
ENDBRANCH  70  71
ENDBRANCH  49  63
BRANCH  50  75
ATOM     75  C   UNL A   1      43.902  32.765  29.258  1.00  0.00     0.058 A 
ATOM     76  C   UNL A   1      44.519  32.442  30.492  1.00  0.00     0.135 A 
ATOM     77  C   UNL A   1      43.405  34.074  29.131  1.00  0.00     0.135 A 
ATOM     78  F   UNL A   1      45.019  31.209  30.683  1.00  0.00    -0.206 F 
ATOM     79  C   UNL A   1      44.796  33.406  31.467  1.00  0.00     0.059 A 
ATOM     80  C   UNL A   1      43.694  35.061  30.089  1.00  0.00     0.059 A 
ATOM     81  F   UNL A   1      42.815  34.460  27.990  1.00  0.00    -0.206 F 
ATOM     82  C   UNL A   1      44.436  34.730  31.227  1.00  0.00     0.060 A 
BRANCH  82  83
ATOM     83  S   UNL A   1      45.151  36.035  32.279  1.00  0.00     0.124 S 
ATOM     84  O   UNL A   1      46.412  35.434  32.694  1.00  0.00    -0.237 OA
ATOM     85  O   UNL A   1      45.272  37.169  31.362  1.00  0.00    -0.237 OA
ATOM     86  O   UNL A   1      44.146  36.202  33.322  1.00  0.00    -0.744 OA
ENDBRANCH  82  83
ENDBRANCH  50  75
BRANCH  62  87
ATOM     87  C   UNL A   1      49.173  28.443  26.708  1.00  0.00     0.058 A 
ATOM     88  C   UNL A   1      49.952  28.542  27.875  1.00  0.00     0.135 A 
ATOM     89  C   UNL A   1      49.808  27.828  25.604  1.00  0.00     0.135 A 
ATOM     90  F   UNL A   1      49.434  28.944  29.046  1.00  0.00    -0.206 F 
ATOM     91  C   UNL A   1      51.294  28.189  27.909  1.00  0.00     0.059 A 
ATOM     92  C   UNL A   1      51.126  27.389  25.642  1.00  0.00     0.059 A 
ATOM     93  F   UNL A   1      49.165  27.609  24.448  1.00  0.00    -0.206 F 
ATOM     94  C   UNL A   1      51.875  27.623  26.784  1.00  0.00     0.060 A 
BRANCH  94  95
ATOM     95  S   UNL A   1      53.614  27.183  26.840  1.00  0.00     0.124 S 
ATOM     96  O   UNL A   1      53.917  27.043  25.418  1.00  0.00    -0.237 OA
ATOM     97  O   UNL A   1      54.211  28.340  27.501  1.00  0.00    -0.237 OA
ATOM     98  O   UNL A   1      53.628  25.948  27.616  1.00  0.00    -0.744 OA
ENDBRANCH  94  95
ENDBRANCH  62  87
ENDBRANCH  36  37
ENDBRANCH  29  31
ENDBRANCH  28  29
ENDBRANCH  27  28
ENDBRANCH  26  27
ENDBRANCH  25  26
ENDBRANCH   1  25
TORSDOF 21
ENDMDL
MODEL 3
REMARK VINA RESULT:     -10.6      6.381     12.378
REMARK SMILES Cc1ccc([N+](=O)[O-])c(NCc2ccc(C(=O)OCCOCCOC(=O)c3ccc(-c4c5nc(c(-c6c(F)cc(S(=O)(=O)[O-])cc6F)c6ccc([nH]6)c(-c6c(F)cc(S(=O)(=O)[O-])cc6F)c6nc(c(-c7c(F)cc(S(=O)(=O)[O-])cc7F)c7ccc4[nH]7)C=C6)C=C5)cc3)cc2)c1
REMARK SMILES IDX 20 1 19 2 18 3 16 4 17 5 15 6 12 7 13 8 94 9 14 10 93 11
REMARK SMILES IDX 11 12 10 13 9 15 1 16 2 17 3 18 95 19 4 20 5 21 6 22 7 23
REMARK SMILES IDX 8 24 21 25 22 26 23 27 24 28 25 29 26 30 27 31 28 32 92 33
REMARK SMILES IDX 29 34 91 35 30 36 31 37 32 38 85 39 33 40 90 41 84 42 86 43
REMARK SMILES IDX 34 44 89 45 83 46 82 47 35 49 69 50 48 51 68 52 49 53 52 54
REMARK SMILES IDX 67 55 87 56 50 57 51 58 66 60 88 61 53 62 36 63 37 64 46 65
REMARK SMILES IDX 38 66 39 67 45 68 47 69 40 70 41 71 42 72 43 73 44 74 70 75
REMARK SMILES IDX 71 76 80 77 72 78 73 79 79 80 81 81 74 82 75 83 76 84 77 85
REMARK SMILES IDX 78 86 54 87 55 88 64 89 56 90 57 91 63 92 65 93 58 94 59 95
REMARK SMILES IDX 60 96 61 97 62 98
REMARK H PARENT 10 14 86 48 52 59
REMARK Flexibility Score: inf
ROOT
ATOM      1  C   UNL A   1      43.727  29.080  28.532  1.00  0.00     0.202 C 
ENDROOT
BRANCH   1   2
ATOM      2  C   UNL A   1      42.611  29.926  29.063  1.00  0.00     0.261 C 
BRANCH   2   3
ATOM      3  O   UNL A   1      41.325  29.455  28.629  1.00  0.00    -0.460 OA
BRANCH   3   4
ATOM      4  C   UNL A   1      40.520  28.727  29.444  1.00  0.00     0.338 C 
ATOM      5  O   UNL A   1      40.754  27.757  30.123  1.00  0.00    -0.246 OA
BRANCH   4   6
ATOM      6  C   UNL A   1      39.261  29.479  29.505  1.00  0.00     0.060 A 
ATOM      7  C   UNL A   1      36.936  30.886  30.021  1.00  0.00    -0.029 A 
ATOM      8  C   UNL A   1      36.920  29.480  29.982  1.00  0.00     0.006 A 
ATOM      9  C   UNL A   1      38.141  31.573  29.839  1.00  0.00     0.006 A 
ATOM     10  C   UNL A   1      38.083  28.771  29.727  1.00  0.00     0.016 A 
ATOM     11  C   UNL A   1      39.285  30.876  29.524  1.00  0.00     0.016 A 
BRANCH   7  12
ATOM     12  C   UNL A   1      35.627  31.580  30.281  1.00  0.00     0.149 C 
BRANCH  12  13
ATOM     13  N   UNL A   1      35.794  32.969  30.632  1.00  0.00    -0.375 N 
ATOM     14  H   UNL A   1      36.697  33.215  30.939  1.00  0.00     0.161 HD
BRANCH  13  15
ATOM     15  C   UNL A   1      34.889  34.005  30.606  1.00  0.00     0.114 A 
ATOM     16  C   UNL A   1      33.926  36.447  33.424  1.00  0.00     0.044 C 
ATOM     17  C   UNL A   1      33.968  35.782  32.082  1.00  0.00    -0.049 A 
ATOM     18  C   UNL A   1      33.193  36.252  31.032  1.00  0.00     0.010 A 
ATOM     19  C   UNL A   1      34.788  34.672  31.858  1.00  0.00     0.036 A 
ATOM     20  C   UNL A   1      33.226  35.602  29.800  1.00  0.00     0.088 A 
ATOM     21  C   UNL A   1      34.050  34.474  29.579  1.00  0.00     0.292 A 
BRANCH  21  22
ATOM     22  N   UNL A   1      33.971  33.926  28.213  1.00  0.00     0.064 N 
ATOM     23  O   UNL A   1      32.835  33.753  27.739  1.00  0.00    -0.258 OA
ATOM     24  O   UNL A   1      35.001  33.577  27.629  1.00  0.00    -0.258 OA
ENDBRANCH  21  22
ENDBRANCH  13  15
ENDBRANCH  12  13
ENDBRANCH   7  12
ENDBRANCH   4   6
ENDBRANCH   3   4
ENDBRANCH   2   3
ENDBRANCH   1   2
BRANCH   1  25
ATOM     25  O   UNL A   1      43.965  29.554  27.217  1.00  0.00    -0.374 OA
BRANCH  25  26
ATOM     26  C   UNL A   1      45.249  29.341  26.689  1.00  0.00     0.202 C 
BRANCH  26  27
ATOM     27  C   UNL A   1      45.404  27.931  26.121  1.00  0.00     0.261 C 
BRANCH  27  28
ATOM     28  O   UNL A   1      46.156  27.097  27.034  1.00  0.00    -0.460 OA
BRANCH  28  29
ATOM     29  C   UNL A   1      45.846  25.764  27.035  1.00  0.00     0.338 C 
ATOM     30  O   UNL A   1      45.764  25.089  26.025  1.00  0.00    -0.246 OA
BRANCH  29  31
ATOM     31  C   UNL A   1      45.613  25.277  28.430  1.00  0.00     0.060 A 
ATOM     32  C   UNL A   1      44.409  24.646  28.804  1.00  0.00     0.016 A 
ATOM     33  C   UNL A   1      46.514  25.658  29.415  1.00  0.00     0.016 A 
ATOM     34  C   UNL A   1      44.033  24.557  30.163  1.00  0.00     0.010 A 
ATOM     35  C   UNL A   1      46.100  25.658  30.730  1.00  0.00     0.010 A 
ATOM     36  C   UNL A   1      44.845  25.150  31.124  1.00  0.00    -0.014 A 
BRANCH  36  37
ATOM     37  C   UNL A   1      44.561  25.369  32.556  1.00  0.00     0.031 A 
ATOM     38  C   UNL A   1      44.021  26.706  32.904  1.00  0.00     0.074 A 
ATOM     39  C   UNL A   1      44.359  24.330  33.412  1.00  0.00     0.049 A 
ATOM     40  N   UNL A   1      43.556  27.025  34.056  1.00  0.00    -0.248 NA
ATOM     41  C   UNL A   1      43.971  27.826  31.961  1.00  0.00     0.031 C 
ATOM     42  C   UNL A   1      43.362  24.235  34.489  1.00  0.00     0.029 A 
ATOM     43  N   UNL A   1      44.984  23.085  33.478  1.00  0.00    -0.354 N 
ATOM     44  C   UNL A   1      42.841  28.189  33.917  1.00  0.00     0.074 A 
ATOM     45  C   UNL A   1      43.237  28.714  32.638  1.00  0.00     0.031 C 
ATOM     46  C   UNL A   1      43.593  23.142  35.238  1.00  0.00     0.029 A 
ATOM     47  C   UNL A   1      44.840  22.567  34.775  1.00  0.00     0.049 A 
ATOM     48  H   UNL A   1      45.451  22.641  32.734  1.00  0.00     0.167 HD
ATOM     49  C   UNL A   1      41.912  28.475  34.871  1.00  0.00     0.037 A 
ATOM     50  C   UNL A   1      45.947  22.277  35.511  1.00  0.00     0.037 A 
ATOM     51  C   UNL A   1      42.088  27.568  36.018  1.00  0.00     0.049 A 
ATOM     52  C   UNL A   1      45.994  23.248  36.660  1.00  0.00     0.074 A 
ATOM     53  C   UNL A   1      41.375  26.492  36.513  1.00  0.00     0.029 A 
ATOM     54  N   UNL A   1      43.338  27.525  36.640  1.00  0.00    -0.354 N 
ATOM     55  N   UNL A   1      45.357  24.389  36.635  1.00  0.00    -0.248 NA
ATOM     56  C   UNL A   1      46.611  22.984  37.954  1.00  0.00     0.031 C 
ATOM     57  C   UNL A   1      42.256  25.741  37.353  1.00  0.00     0.029 A 
ATOM     58  C   UNL A   1      43.489  26.382  37.401  1.00  0.00     0.049 A 
ATOM     59  H   UNL A   1      44.026  28.223  36.548  1.00  0.00     0.167 HD
ATOM     60  C   UNL A   1      45.388  24.965  37.863  1.00  0.00     0.074 A 
ATOM     61  C   UNL A   1      46.216  24.067  38.652  1.00  0.00     0.031 C 
ATOM     62  C   UNL A   1      44.731  26.129  38.137  1.00  0.00     0.037 A 
BRANCH  49  63
ATOM     63  C   UNL A   1      40.764  29.461  34.736  1.00  0.00     0.058 A 
ATOM     64  C   UNL A   1      39.784  29.267  33.737  1.00  0.00     0.135 A 
ATOM     65  C   UNL A   1      40.602  30.656  35.478  1.00  0.00     0.135 A 
ATOM     66  F   UNL A   1      39.821  28.198  32.927  1.00  0.00    -0.206 F 
ATOM     67  C   UNL A   1      38.735  30.165  33.504  1.00  0.00     0.059 A 
ATOM     68  C   UNL A   1      39.539  31.546  35.292  1.00  0.00     0.059 A 
ATOM     69  F   UNL A   1      41.493  31.061  36.386  1.00  0.00    -0.206 F 
ATOM     70  C   UNL A   1      38.612  31.299  34.294  1.00  0.00     0.060 A 
BRANCH  70  71
ATOM     71  S   UNL A   1      37.252  32.444  33.995  1.00  0.00     0.124 S 
ATOM     72  O   UNL A   1      36.942  32.904  35.345  1.00  0.00    -0.237 OA
ATOM     73  O   UNL A   1      37.865  33.428  33.111  1.00  0.00    -0.237 OA
ATOM     74  O   UNL A   1      36.228  31.605  33.374  1.00  0.00    -0.744 OA
ENDBRANCH  70  71
ENDBRANCH  49  63
BRANCH  50  75
ATOM     75  C   UNL A   1      47.037  21.723  34.638  1.00  0.00     0.058 A 
ATOM     76  C   UNL A   1      48.154  22.571  34.433  1.00  0.00     0.135 A 
ATOM     77  C   UNL A   1      47.284  20.340  34.579  1.00  0.00     0.135 A 
ATOM     78  F   UNL A   1      47.993  23.905  34.478  1.00  0.00    -0.206 F 
ATOM     79  C   UNL A   1      49.463  22.084  34.362  1.00  0.00     0.059 A 
ATOM     80  C   UNL A   1      48.593  19.833  34.532  1.00  0.00     0.059 A 
ATOM     81  F   UNL A   1      46.280  19.472  34.771  1.00  0.00    -0.206 F 
ATOM     82  C   UNL A   1      49.679  20.712  34.478  1.00  0.00     0.060 A 
BRANCH  82  83
ATOM     83  S   UNL A   1      51.371  20.117  34.802  1.00  0.00     0.124 S 
ATOM     84  O   UNL A   1      51.860  21.101  35.760  1.00  0.00    -0.237 OA
ATOM     85  O   UNL A   1      51.151  18.776  35.343  1.00  0.00    -0.237 OA
ATOM     86  O   UNL A   1      51.987  20.146  33.481  1.00  0.00    -0.744 OA
ENDBRANCH  82  83
ENDBRANCH  50  75
BRANCH  62  87
ATOM     87  C   UNL A   1      45.198  27.091  39.195  1.00  0.00     0.058 A 
ATOM     88  C   UNL A   1      45.869  28.292  38.897  1.00  0.00     0.135 A 
ATOM     89  C   UNL A   1      44.837  26.917  40.551  1.00  0.00     0.135 A 
ATOM     90  F   UNL A   1      46.122  28.673  37.636  1.00  0.00    -0.206 F 
ATOM     91  C   UNL A   1      46.274  29.184  39.880  1.00  0.00     0.059 A 
ATOM     92  C   UNL A   1      45.158  27.840  41.540  1.00  0.00     0.059 A 
ATOM     93  F   UNL A   1      44.138  25.852  40.968  1.00  0.00    -0.206 F 
ATOM     94  C   UNL A   1      45.922  28.945  41.201  1.00  0.00     0.060 A 
BRANCH  94  95
ATOM     95  S   UNL A   1      46.463  30.102  42.461  1.00  0.00     0.124 S 
ATOM     96  O   UNL A   1      47.874  29.748  42.584  1.00  0.00    -0.237 OA
ATOM     97  O   UNL A   1      46.188  31.395  41.841  1.00  0.00    -0.237 OA
ATOM     98  O   UNL A   1      45.624  29.772  43.608  1.00  0.00    -0.744 OA
ENDBRANCH  94  95
ENDBRANCH  62  87
ENDBRANCH  36  37
ENDBRANCH  29  31
ENDBRANCH  28  29
ENDBRANCH  27  28
ENDBRANCH  26  27
ENDBRANCH  25  26
ENDBRANCH   1  25
TORSDOF 21
ENDMDL
