MODEL 1
REMARK VINA RESULT:     -10.4      0.000      0.000
REMARK SMILES CCS(=O)(=O)c1ccccc1NC[C@H]1CC[C@H](C(=O)OCCOCCOC(=O)c2ccc(-c3c4nc(c(-c5c(F)cc(S(=O)(=O)[O-])cc5F)c5ccc([nH]5)c(-c5c(F)cc(S(=O)(=O)[O-])cc5F)c5nc(c(-c6c(F)cc(S(=O)(=O)[O-])cc6F)c6ccc3[nH]6)C=C5)C=C4)cc2)O1
REMARK SMILES IDX 22 1 21 2 20 3 18 4 19 5 17 6 14 7 15 8 95 9 16 10 13 11
REMARK SMILES IDX 12 12 11 14 6 15 7 16 8 17 10 18 9 19 3 20 4 21 5 22 2 23
REMARK SMILES IDX 1 24 23 25 24 26 25 27 26 28 27 29 28 30 29 31 30 32 94 33
REMARK SMILES IDX 31 34 93 35 32 36 33 37 34 38 87 39 35 40 92 41 86 42 88 43
REMARK SMILES IDX 36 44 91 45 85 46 84 47 37 49 71 50 50 51 70 52 51 53 54 54
REMARK SMILES IDX 69 55 89 56 52 57 53 58 68 60 90 61 55 62 38 63 39 64 48 65
REMARK SMILES IDX 40 66 41 67 47 68 49 69 42 70 43 71 44 72 45 73 46 74 72 75
REMARK SMILES IDX 73 76 82 77 74 78 75 79 81 80 83 81 76 82 77 83 78 84 79 85
REMARK SMILES IDX 80 86 56 87 57 88 66 89 58 90 59 91 65 92 67 93 60 94 61 95
REMARK SMILES IDX 62 96 63 97 64 98
REMARK H PARENT 12 13 88 48 54 59
REMARK Flexibility Score: inf
ROOT
ATOM      1  C   UNL A   1      36.971  21.268  25.363  1.00  0.00     0.202 C 
ENDROOT
BRANCH   1   2
ATOM      2  C   UNL A   1      35.935  21.968  26.247  1.00  0.00     0.261 C 
BRANCH   2   3
ATOM      3  O   UNL A   1      34.710  21.215  26.312  1.00  0.00    -0.461 OA
BRANCH   3   4
ATOM      4  C   UNL A   1      33.944  21.214  25.188  1.00  0.00     0.335 C 
ATOM      5  O   UNL A   1      33.725  20.232  24.486  1.00  0.00    -0.249 OA
BRANCH   4   6
ATOM      6  C   UNL A   1      33.333  22.591  24.899  1.00  0.00     0.228 C 
ATOM      7  C   UNL A   1      32.831  24.543  26.088  1.00  0.00     0.138 C 
ATOM      8  C   UNL A   1      31.658  23.598  26.251  1.00  0.00     0.037 C 
ATOM      9  O   UNL A   1      33.904  23.655  25.682  1.00  0.00    -0.361 OA
ATOM     10  C   UNL A   1      31.818  22.678  25.067  1.00  0.00     0.047 C 
BRANCH   7  11
ATOM     11  C   UNL A   1      32.684  25.650  25.014  1.00  0.00     0.145 C 
BRANCH  11  12
ATOM     12  N   UNL A   1      31.578  26.582  25.219  1.00  0.00    -0.381 N 
ATOM     13  H   UNL A   1      30.672  26.248  25.024  1.00  0.00     0.160 HD
BRANCH  12  14
ATOM     14  C   UNL A   1      31.683  27.892  25.662  1.00  0.00     0.053 A 
ATOM     15  C   UNL A   1      31.207  28.980  24.897  1.00  0.00     0.090 A 
ATOM     16  C   UNL A   1      31.339  30.307  25.348  1.00  0.00     0.022 A 
ATOM     17  C   UNL A   1      31.928  30.573  26.579  1.00  0.00     0.001 A 
ATOM     18  C   UNL A   1      32.219  28.198  26.924  1.00  0.00     0.027 A 
ATOM     19  C   UNL A   1      32.362  29.518  27.369  1.00  0.00     0.002 A 
BRANCH  15  20
ATOM     20  S   UNL A   1      30.547  28.750  23.250  1.00  0.00     0.180 S 
ATOM     21  O   UNL A   1      29.879  27.459  23.232  1.00  0.00    -0.224 OA
ATOM     22  O   UNL A   1      31.628  29.007  22.312  1.00  0.00    -0.224 OA
BRANCH  20  23
ATOM     23  C   UNL A   1      29.340  30.041  23.010  1.00  0.00     0.139 C 
ATOM     24  C   UNL A   1      29.094  30.378  21.556  1.00  0.00     0.021 C 
ENDBRANCH  20  23
ENDBRANCH  15  20
ENDBRANCH  12  14
ENDBRANCH  11  12
ENDBRANCH   7  11
ENDBRANCH   4   6
ENDBRANCH   3   4
ENDBRANCH   2   3
ENDBRANCH   1   2
BRANCH   1  25
ATOM     25  O   UNL A   1      38.235  21.922  25.239  1.00  0.00    -0.374 OA
BRANCH  25  26
ATOM     26  C   UNL A   1      39.341  21.330  25.915  1.00  0.00     0.202 C 
BRANCH  26  27
ATOM     27  C   UNL A   1      40.043  22.199  26.969  1.00  0.00     0.261 C 
BRANCH  27  28
ATOM     28  O   UNL A   1      40.051  23.597  26.623  1.00  0.00    -0.460 OA
BRANCH  28  29
ATOM     29  C   UNL A   1      41.164  24.266  27.011  1.00  0.00     0.338 C 
ATOM     30  O   UNL A   1      42.312  24.066  26.632  1.00  0.00    -0.246 OA
BRANCH  29  31
ATOM     31  C   UNL A   1      40.811  25.427  27.848  1.00  0.00     0.060 A 
ATOM     32  C   UNL A   1      41.777  26.431  27.991  1.00  0.00     0.016 A 
ATOM     33  C   UNL A   1      39.607  25.499  28.555  1.00  0.00     0.016 A 
ATOM     34  C   UNL A   1      41.565  27.484  28.877  1.00  0.00     0.010 A 
ATOM     35  C   UNL A   1      39.400  26.558  29.451  1.00  0.00     0.010 A 
ATOM     36  C   UNL A   1      40.393  27.536  29.644  1.00  0.00    -0.014 A 
BRANCH  36  37
ATOM     37  C   UNL A   1      40.287  28.546  30.728  1.00  0.00     0.031 A 
ATOM     38  C   UNL A   1      41.213  28.460  31.912  1.00  0.00     0.074 A 
ATOM     39  C   UNL A   1      39.420  29.571  30.626  1.00  0.00     0.049 A 
ATOM     40  N   UNL A   1      41.319  29.262  32.941  1.00  0.00    -0.248 NA
ATOM     41  C   UNL A   1      42.143  27.320  31.941  1.00  0.00     0.031 C 
ATOM     42  C   UNL A   1      38.487  29.780  29.518  1.00  0.00     0.029 A 
ATOM     43  N   UNL A   1      39.187  30.631  31.466  1.00  0.00    -0.354 N 
ATOM     44  C   UNL A   1      42.324  28.726  33.738  1.00  0.00     0.074 A 
ATOM     45  C   UNL A   1      42.774  27.513  33.091  1.00  0.00     0.031 C 
ATOM     46  C   UNL A   1      37.780  30.900  29.749  1.00  0.00     0.029 A 
ATOM     47  C   UNL A   1      38.194  31.475  31.028  1.00  0.00     0.049 A 
ATOM     48  H   UNL A   1      39.683  30.774  32.303  1.00  0.00     0.167 HD
ATOM     49  C   UNL A   1      42.835  29.209  34.897  1.00  0.00     0.037 A 
ATOM     50  C   UNL A   1      37.669  32.579  31.598  1.00  0.00     0.037 A 
ATOM     51  C   UNL A   1      42.394  30.422  35.536  1.00  0.00     0.049 A 
ATOM     52  C   UNL A   1      38.227  33.072  32.907  1.00  0.00     0.074 A 
ATOM     53  C   UNL A   1      42.872  31.006  36.697  1.00  0.00     0.029 A 
ATOM     54  N   UNL A   1      41.367  31.233  35.077  1.00  0.00    -0.354 N 
ATOM     55  N   UNL A   1      39.203  32.574  33.630  1.00  0.00    -0.248 NA
ATOM     56  C   UNL A   1      37.618  34.283  33.477  1.00  0.00     0.031 C 
ATOM     57  C   UNL A   1      42.104  32.145  36.964  1.00  0.00     0.029 A 
ATOM     58  C   UNL A   1      41.180  32.298  35.943  1.00  0.00     0.049 A 
ATOM     59  H   UNL A   1      40.848  31.076  34.256  1.00  0.00     0.167 HD
ATOM     60  C   UNL A   1      39.338  33.422  34.725  1.00  0.00     0.074 A 
ATOM     61  C   UNL A   1      38.356  34.475  34.561  1.00  0.00     0.031 C 
ATOM     62  C   UNL A   1      40.197  33.339  35.771  1.00  0.00     0.037 A 
BRANCH  49  63
ATOM     63  C   UNL A   1      43.924  28.414  35.565  1.00  0.00     0.058 A 
ATOM     64  C   UNL A   1      45.279  28.609  35.257  1.00  0.00     0.135 A 
ATOM     65  C   UNL A   1      43.607  27.477  36.563  1.00  0.00     0.135 A 
ATOM     66  F   UNL A   1      45.635  29.480  34.299  1.00  0.00    -0.206 F 
ATOM     67  C   UNL A   1      46.281  27.892  35.900  1.00  0.00     0.059 A 
ATOM     68  C   UNL A   1      44.595  26.766  37.237  1.00  0.00     0.059 A 
ATOM     69  F   UNL A   1      42.326  27.248  36.894  1.00  0.00    -0.206 F 
ATOM     70  C   UNL A   1      45.930  26.972  36.891  1.00  0.00     0.060 A 
BRANCH  70  71
ATOM     71  S   UNL A   1      47.243  26.059  37.727  1.00  0.00     0.124 S 
ATOM     72  O   UNL A   1      47.227  24.794  37.000  1.00  0.00    -0.237 OA
ATOM     73  O   UNL A   1      48.408  26.908  37.500  1.00  0.00    -0.237 OA
ATOM     74  O   UNL A   1      46.783  25.992  39.111  1.00  0.00    -0.744 OA
ENDBRANCH  70  71
ENDBRANCH  49  63
BRANCH  50  75
ATOM     75  C   UNL A   1      36.543  33.291  30.939  1.00  0.00     0.058 A 
ATOM     76  C   UNL A   1      35.234  33.208  31.438  1.00  0.00     0.135 A 
ATOM     77  C   UNL A   1      36.754  34.063  29.786  1.00  0.00     0.135 A 
ATOM     78  F   UNL A   1      34.979  32.473  32.531  1.00  0.00    -0.206 F 
ATOM     79  C   UNL A   1      34.173  33.851  30.809  1.00  0.00     0.059 A 
ATOM     80  C   UNL A   1      35.714  34.737  29.154  1.00  0.00     0.059 A 
ATOM     81  F   UNL A   1      37.990  34.182  29.274  1.00  0.00    -0.206 F 
ATOM     82  C   UNL A   1      34.424  34.615  29.668  1.00  0.00     0.060 A 
BRANCH  82  83
ATOM     83  S   UNL A   1      33.049  35.485  28.883  1.00  0.00     0.124 S 
ATOM     84  O   UNL A   1      32.445  34.421  28.089  1.00  0.00    -0.237 OA
ATOM     85  O   UNL A   1      32.277  35.941  30.035  1.00  0.00    -0.237 OA
ATOM     86  O   UNL A   1      33.713  36.542  28.125  1.00  0.00    -0.744 OA
ENDBRANCH  82  83
ENDBRANCH  50  75
BRANCH  62  87
ATOM     87  C   UNL A   1      40.131  34.427  36.809  1.00  0.00     0.058 A 
ATOM     88  C   UNL A   1      40.980  35.544  36.762  1.00  0.00     0.135 A 
ATOM     89  C   UNL A   1      39.186  34.366  37.845  1.00  0.00     0.135 A 
ATOM     90  F   UNL A   1      41.904  35.650  35.794  1.00  0.00    -0.206 F 
ATOM     91  C   UNL A   1      40.919  36.544  37.728  1.00  0.00     0.059 A 
ATOM     92  C   UNL A   1      39.088  35.368  38.807  1.00  0.00     0.059 A 
ATOM     93  F   UNL A   1      38.339  33.327  37.930  1.00  0.00    -0.206 F 
ATOM     94  C   UNL A   1      39.972  36.445  38.750  1.00  0.00     0.060 A 
BRANCH  94  95
ATOM     95  S   UNL A   1      39.897  37.751  39.993  1.00  0.00     0.124 S 
ATOM     96  O   UNL A   1      39.752  36.978  41.222  1.00  0.00    -0.237 OA
ATOM     97  O   UNL A   1      41.179  38.427  39.818  1.00  0.00    -0.237 OA
ATOM     98  O   UNL A   1      38.727  38.529  39.599  1.00  0.00    -0.744 OA
ENDBRANCH  94  95
ENDBRANCH  62  87
ENDBRANCH  36  37
ENDBRANCH  29  31
ENDBRANCH  28  29
ENDBRANCH  27  28
ENDBRANCH  26  27
ENDBRANCH  25  26
ENDBRANCH   1  25
TORSDOF 22
ENDMDL
MODEL 2
REMARK VINA RESULT:     -10.2      6.658     11.888
REMARK SMILES CCS(=O)(=O)c1ccccc1NC[C@H]1CC[C@H](C(=O)OCCOCCOC(=O)c2ccc(-c3c4nc(c(-c5c(F)cc(S(=O)(=O)[O-])cc5F)c5ccc([nH]5)c(-c5c(F)cc(S(=O)(=O)[O-])cc5F)c5nc(c(-c6c(F)cc(S(=O)(=O)[O-])cc6F)c6ccc3[nH]6)C=C5)C=C4)cc2)O1
REMARK SMILES IDX 22 1 21 2 20 3 18 4 19 5 17 6 14 7 15 8 95 9 16 10 13 11
REMARK SMILES IDX 12 12 11 14 6 15 7 16 8 17 10 18 9 19 3 20 4 21 5 22 2 23
REMARK SMILES IDX 1 24 23 25 24 26 25 27 26 28 27 29 28 30 29 31 30 32 94 33
REMARK SMILES IDX 31 34 93 35 32 36 33 37 34 38 87 39 35 40 92 41 86 42 88 43
REMARK SMILES IDX 36 44 91 45 85 46 84 47 37 49 71 50 50 51 70 52 51 53 54 54
REMARK SMILES IDX 69 55 89 56 52 57 53 58 68 60 90 61 55 62 38 63 39 64 48 65
REMARK SMILES IDX 40 66 41 67 47 68 49 69 42 70 43 71 44 72 45 73 46 74 72 75
REMARK SMILES IDX 73 76 82 77 74 78 75 79 81 80 83 81 76 82 77 83 78 84 79 85
REMARK SMILES IDX 80 86 56 87 57 88 66 89 58 90 59 91 65 92 67 93 60 94 61 95
REMARK SMILES IDX 62 96 63 97 64 98
REMARK H PARENT 12 13 88 48 54 59
REMARK Flexibility Score: inf
ROOT
ATOM      1  C   UNL A   1      34.253  29.668  27.107  1.00  0.00     0.202 C 
ENDROOT
BRANCH   1   2
ATOM      2  C   UNL A   1      33.179  28.579  27.169  1.00  0.00     0.261 C 
BRANCH   2   3
ATOM      3  O   UNL A   1      33.217  27.743  25.997  1.00  0.00    -0.461 OA
BRANCH   3   4
ATOM      4  C   UNL A   1      32.064  27.658  25.281  1.00  0.00     0.335 C 
ATOM      5  O   UNL A   1      31.415  28.616  24.877  1.00  0.00    -0.249 OA
BRANCH   4   6
ATOM      6  C   UNL A   1      31.668  26.206  24.987  1.00  0.00     0.228 C 
ATOM      7  C   UNL A   1      31.010  24.934  23.136  1.00  0.00     0.138 C 
ATOM      8  C   UNL A   1      29.767  25.595  23.697  1.00  0.00     0.037 C 
ATOM      9  O   UNL A   1      32.080  25.743  23.688  1.00  0.00    -0.361 OA
ATOM     10  C   UNL A   1      30.177  25.899  25.116  1.00  0.00     0.047 C 
BRANCH   7  11
ATOM     11  C   UNL A   1      31.254  23.459  23.544  1.00  0.00     0.145 C 
BRANCH  11  12
ATOM     12  N   UNL A   1      32.395  22.811  22.904  1.00  0.00    -0.381 N 
ATOM     13  H   UNL A   1      32.281  22.530  21.967  1.00  0.00     0.160 HD
BRANCH  12  14
ATOM     14  C   UNL A   1      33.625  22.553  23.491  1.00  0.00     0.053 A 
ATOM     15  C   UNL A   1      33.918  21.310  24.096  1.00  0.00     0.090 A 
ATOM     16  C   UNL A   1      35.163  21.067  24.708  1.00  0.00     0.022 A 
ATOM     17  C   UNL A   1      36.146  22.050  24.709  1.00  0.00     0.001 A 
ATOM     18  C   UNL A   1      34.664  23.498  23.463  1.00  0.00     0.027 A 
ATOM     19  C   UNL A   1      35.898  23.263  24.082  1.00  0.00     0.002 A 
BRANCH  15  20
ATOM     20  S   UNL A   1      32.679  20.028  24.252  1.00  0.00     0.180 S 
ATOM     21  O   UNL A   1      32.144  19.785  22.922  1.00  0.00    -0.224 OA
ATOM     22  O   UNL A   1      31.778  20.426  25.322  1.00  0.00    -0.224 OA
BRANCH  20  23
ATOM     23  C   UNL A   1      33.537  18.570  24.818  1.00  0.00     0.139 C 
ATOM     24  C   UNL A   1      32.678  17.650  25.657  1.00  0.00     0.021 C 
ENDBRANCH  20  23
ENDBRANCH  15  20
ENDBRANCH  12  14
ENDBRANCH  11  12
ENDBRANCH   7  11
ENDBRANCH   4   6
ENDBRANCH   3   4
ENDBRANCH   2   3
ENDBRANCH   1   2
BRANCH   1  25
ATOM     25  O   UNL A   1      34.959  29.924  28.323  1.00  0.00    -0.374 OA
BRANCH  25  26
ATOM     26  C   UNL A   1      35.274  31.282  28.618  1.00  0.00     0.202 C 
BRANCH  26  27
ATOM     27  C   UNL A   1      35.165  31.705  30.090  1.00  0.00     0.261 C 
BRANCH  27  28
ATOM     28  O   UNL A   1      36.443  31.746  30.754  1.00  0.00    -0.460 OA
BRANCH  28  29
ATOM     29  C   UNL A   1      36.931  30.532  31.109  1.00  0.00     0.338 C 
ATOM     30  O   UNL A   1      36.289  29.574  31.523  1.00  0.00    -0.246 OA
BRANCH  29  31
ATOM     31  C   UNL A   1      38.361  30.423  30.765  1.00  0.00     0.060 A 
ATOM     32  C   UNL A   1      38.737  30.788  29.467  1.00  0.00     0.016 A 
ATOM     33  C   UNL A   1      39.303  29.892  31.651  1.00  0.00     0.016 A 
ATOM     34  C   UNL A   1      40.043  30.577  29.032  1.00  0.00     0.010 A 
ATOM     35  C   UNL A   1      40.615  29.674  31.208  1.00  0.00     0.010 A 
ATOM     36  C   UNL A   1      40.983  29.982  29.885  1.00  0.00    -0.014 A 
BRANCH  36  37
ATOM     37  C   UNL A   1      42.301  29.576  29.331  1.00  0.00     0.031 A 
ATOM     38  C   UNL A   1      42.479  28.181  28.794  1.00  0.00     0.074 A 
ATOM     39  C   UNL A   1      43.310  30.463  29.246  1.00  0.00     0.049 A 
ATOM     40  N   UNL A   1      43.526  27.639  28.227  1.00  0.00    -0.248 NA
ATOM     41  C   UNL A   1      41.323  27.277  28.909  1.00  0.00     0.031 C 
ATOM     42  C   UNL A   1      43.255  31.850  29.708  1.00  0.00     0.029 A 
ATOM     43  N   UNL A   1      44.577  30.329  28.735  1.00  0.00    -0.354 N 
ATOM     44  C   UNL A   1      43.159  26.334  27.918  1.00  0.00     0.074 A 
ATOM     45  C   UNL A   1      41.802  26.155  28.390  1.00  0.00     0.031 C 
ATOM     46  C   UNL A   1      44.439  32.438  29.462  1.00  0.00     0.029 A 
ATOM     47  C   UNL A   1      45.340  31.466  28.845  1.00  0.00     0.049 A 
ATOM     48  H   UNL A   1      44.908  29.496  28.329  1.00  0.00     0.167 HD
ATOM     49  C   UNL A   1      43.882  25.376  27.287  1.00  0.00     0.037 A 
ATOM     50  C   UNL A   1      46.623  31.696  28.498  1.00  0.00     0.037 A 
ATOM     51  C   UNL A   1      45.228  25.557  26.810  1.00  0.00     0.049 A 
ATOM     52  C   UNL A   1      47.418  30.602  27.835  1.00  0.00     0.074 A 
ATOM     53  C   UNL A   1      46.029  24.654  26.132  1.00  0.00     0.029 A 
ATOM     54  N   UNL A   1      45.976  26.715  26.965  1.00  0.00    -0.354 N 
ATOM     55  N   UNL A   1      47.043  29.385  27.517  1.00  0.00    -0.248 NA
ATOM     56  C   UNL A   1      48.809  30.914  27.475  1.00  0.00     0.031 C 
ATOM     57  C   UNL A   1      47.278  25.249  25.919  1.00  0.00     0.029 A 
ATOM     58  C   UNL A   1      47.238  26.540  26.419  1.00  0.00     0.049 A 
ATOM     59  H   UNL A   1      45.658  27.539  27.398  1.00  0.00     0.167 HD
ATOM     60  C   UNL A   1      48.144  28.796  26.902  1.00  0.00     0.074 A 
ATOM     61  C   UNL A   1      49.192  29.795  26.876  1.00  0.00     0.031 C 
ATOM     62  C   UNL A   1      48.275  27.542  26.402  1.00  0.00     0.037 A 
BRANCH  49  63
ATOM     63  C   UNL A   1      43.236  24.032  27.089  1.00  0.00     0.058 A 
ATOM     64  C   UNL A   1      42.694  23.646  25.854  1.00  0.00     0.135 A 
ATOM     65  C   UNL A   1      43.204  23.099  28.139  1.00  0.00     0.135 A 
ATOM     66  F   UNL A   1      42.684  24.506  24.822  1.00  0.00    -0.206 F 
ATOM     67  C   UNL A   1      42.126  22.390  25.670  1.00  0.00     0.059 A 
ATOM     68  C   UNL A   1      42.663  21.828  27.970  1.00  0.00     0.059 A 
ATOM     69  F   UNL A   1      43.705  23.418  29.343  1.00  0.00    -0.206 F 
ATOM     70  C   UNL A   1      42.116  21.486  26.734  1.00  0.00     0.060 A 
BRANCH  70  71
ATOM     71  S   UNL A   1      41.389  19.854  26.476  1.00  0.00     0.124 S 
ATOM     72  O   UNL A   1      40.016  20.200  26.122  1.00  0.00    -0.237 OA
ATOM     73  O   UNL A   1      42.206  19.315  25.395  1.00  0.00    -0.237 OA
ATOM     74  O   UNL A   1      41.556  19.199  27.770  1.00  0.00    -0.744 OA
ENDBRANCH  70  71
ENDBRANCH  49  63
BRANCH  50  75
ATOM     75  C   UNL A   1      47.243  33.018  28.781  1.00  0.00     0.058 A 
ATOM     76  C   UNL A   1      47.217  34.054  27.837  1.00  0.00     0.135 A 
ATOM     77  C   UNL A   1      47.885  33.265  30.005  1.00  0.00     0.135 A 
ATOM     78  F   UNL A   1      46.625  33.864  26.648  1.00  0.00    -0.206 F 
ATOM     79  C   UNL A   1      47.819  35.284  28.088  1.00  0.00     0.059 A 
ATOM     80  C   UNL A   1      48.471  34.493  30.289  1.00  0.00     0.059 A 
ATOM     81  F   UNL A   1      47.930  32.308  30.946  1.00  0.00    -0.206 F 
ATOM     82  C   UNL A   1      48.443  35.494  29.319  1.00  0.00     0.060 A 
BRANCH  82  83
ATOM     83  S   UNL A   1      49.182  37.107  29.656  1.00  0.00     0.124 S 
ATOM     84  O   UNL A   1      48.784  37.864  28.474  1.00  0.00    -0.237 OA
ATOM     85  O   UNL A   1      48.533  37.486  30.907  1.00  0.00    -0.237 OA
ATOM     86  O   UNL A   1      50.607  36.805  29.764  1.00  0.00    -0.744 OA
ENDBRANCH  82  83
ENDBRANCH  50  75
BRANCH  62  87
ATOM     87  C   UNL A   1      49.591  27.186  25.763  1.00  0.00     0.058 A 
ATOM     88  C   UNL A   1      49.842  27.434  24.405  1.00  0.00     0.135 A 
ATOM     89  C   UNL A   1      50.622  26.618  26.528  1.00  0.00     0.135 A 
ATOM     90  F   UNL A   1      48.889  27.973  23.629  1.00  0.00    -0.206 F 
ATOM     91  C   UNL A   1      51.059  27.097  23.818  1.00  0.00     0.059 A 
ATOM     92  C   UNL A   1      51.857  26.298  25.968  1.00  0.00     0.059 A 
ATOM     93  F   UNL A   1      50.441  26.372  27.835  1.00  0.00    -0.206 F 
ATOM     94  C   UNL A   1      52.058  26.525  24.608  1.00  0.00     0.060 A 
BRANCH  94  95
ATOM     95  S   UNL A   1      53.635  26.098  23.837  1.00  0.00     0.124 S 
ATOM     96  O   UNL A   1      54.091  25.006  24.690  1.00  0.00    -0.237 OA
ATOM     97  O   UNL A   1      53.233  25.721  22.485  1.00  0.00    -0.237 OA
ATOM     98  O   UNL A   1      54.405  27.334  23.933  1.00  0.00    -0.744 OA
ENDBRANCH  94  95
ENDBRANCH  62  87
ENDBRANCH  36  37
ENDBRANCH  29  31
ENDBRANCH  28  29
ENDBRANCH  27  28
ENDBRANCH  26  27
ENDBRANCH  25  26
ENDBRANCH   1  25
TORSDOF 22
ENDMDL
MODEL 3
REMARK VINA RESULT:     -10.2      3.365      9.780
REMARK SMILES CCS(=O)(=O)c1ccccc1NC[C@H]1CC[C@H](C(=O)OCCOCCOC(=O)c2ccc(-c3c4nc(c(-c5c(F)cc(S(=O)(=O)[O-])cc5F)c5ccc([nH]5)c(-c5c(F)cc(S(=O)(=O)[O-])cc5F)c5nc(c(-c6c(F)cc(S(=O)(=O)[O-])cc6F)c6ccc3[nH]6)C=C5)C=C4)cc2)O1
REMARK SMILES IDX 22 1 21 2 20 3 18 4 19 5 17 6 14 7 15 8 95 9 16 10 13 11
REMARK SMILES IDX 12 12 11 14 6 15 7 16 8 17 10 18 9 19 3 20 4 21 5 22 2 23
REMARK SMILES IDX 1 24 23 25 24 26 25 27 26 28 27 29 28 30 29 31 30 32 94 33
REMARK SMILES IDX 31 34 93 35 32 36 33 37 34 38 87 39 35 40 92 41 86 42 88 43
REMARK SMILES IDX 36 44 91 45 85 46 84 47 37 49 71 50 50 51 70 52 51 53 54 54
REMARK SMILES IDX 69 55 89 56 52 57 53 58 68 60 90 61 55 62 38 63 39 64 48 65
REMARK SMILES IDX 40 66 41 67 47 68 49 69 42 70 43 71 44 72 45 73 46 74 72 75
REMARK SMILES IDX 73 76 82 77 74 78 75 79 81 80 83 81 76 82 77 83 78 84 79 85
REMARK SMILES IDX 80 86 56 87 57 88 66 89 58 90 59 91 65 92 67 93 60 94 61 95
REMARK SMILES IDX 62 96 63 97 64 98
REMARK H PARENT 12 13 88 48 54 59
REMARK Flexibility Score: inf
ROOT
ATOM      1  C   UNL A   1      31.735  28.414  25.430  1.00  0.00     0.202 C 
ENDROOT
BRANCH   1   2
ATOM      2  C   UNL A   1      31.401  27.427  26.551  1.00  0.00     0.261 C 
BRANCH   2   3
ATOM      3  O   UNL A   1      30.474  26.421  26.101  1.00  0.00    -0.461 OA
BRANCH   3   4
ATOM      4  C   UNL A   1      30.924  25.138  26.118  1.00  0.00     0.335 C 
ATOM      5  O   UNL A   1      31.015  24.437  27.120  1.00  0.00    -0.249 OA
BRANCH   4   6
ATOM      6  C   UNL A   1      31.281  24.628  24.716  1.00  0.00     0.228 C 
ATOM      7  C   UNL A   1      32.633  25.293  22.926  1.00  0.00     0.138 C 
ATOM      8  C   UNL A   1      31.304  26.006  22.780  1.00  0.00     0.037 C 
ATOM      9  O   UNL A   1      32.637  24.906  24.324  1.00  0.00    -0.361 OA
ATOM     10  C   UNL A   1      30.380  25.133  23.591  1.00  0.00     0.047 C 
BRANCH   7  11
ATOM     11  C   UNL A   1      32.834  24.018  22.068  1.00  0.00     0.145 C 
BRANCH  11  12
ATOM     12  N   UNL A   1      33.915  23.136  22.496  1.00  0.00    -0.381 N 
ATOM     13  H   UNL A   1      34.811  23.317  22.129  1.00  0.00     0.160 HD
BRANCH  12  14
ATOM     14  C   UNL A   1      33.799  22.066  23.371  1.00  0.00     0.053 A 
ATOM     15  C   UNL A   1      34.875  21.646  24.185  1.00  0.00     0.090 A 
ATOM     16  C   UNL A   1      34.752  20.545  25.054  1.00  0.00     0.022 A 
ATOM     17  C   UNL A   1      33.548  19.855  25.144  1.00  0.00     0.001 A 
ATOM     18  C   UNL A   1      32.584  21.380  23.533  1.00  0.00     0.027 A 
ATOM     19  C   UNL A   1      32.463  20.277  24.388  1.00  0.00     0.002 A 
BRANCH  15  20
ATOM     20  S   UNL A   1      36.497  22.389  24.051  1.00  0.00     0.180 S 
ATOM     21  O   UNL A   1      36.660  22.819  22.671  1.00  0.00    -0.224 OA
ATOM     22  O   UNL A   1      37.451  21.453  24.623  1.00  0.00    -0.224 OA
BRANCH  20  23
ATOM     23  C   UNL A   1      36.480  23.821  25.115  1.00  0.00     0.139 C 
ATOM     24  C   UNL A   1      35.398  23.777  26.172  1.00  0.00     0.021 C 
ENDBRANCH  20  23
ENDBRANCH  15  20
ENDBRANCH  12  14
ENDBRANCH  11  12
ENDBRANCH   7  11
ENDBRANCH   4   6
ENDBRANCH   3   4
ENDBRANCH   2   3
ENDBRANCH   1   2
BRANCH   1  25
ATOM     25  O   UNL A   1      31.111  29.697  25.515  1.00  0.00    -0.374 OA
BRANCH  25  26
ATOM     26  C   UNL A   1      31.892  30.766  26.042  1.00  0.00     0.202 C 
BRANCH  26  27
ATOM     27  C   UNL A   1      32.602  30.500  27.378  1.00  0.00     0.261 C 
BRANCH  27  28
ATOM     28  O   UNL A   1      34.014  30.776  27.324  1.00  0.00    -0.460 OA
BRANCH  28  29
ATOM     29  C   UNL A   1      34.786  29.699  27.038  1.00  0.00     0.338 C 
ATOM     30  O   UNL A   1      34.612  28.888  26.136  1.00  0.00    -0.246 OA
BRANCH  29  31
ATOM     31  C   UNL A   1      36.011  29.701  27.859  1.00  0.00     0.060 A 
ATOM     32  C   UNL A   1      37.219  29.978  27.205  1.00  0.00     0.016 A 
ATOM     33  C   UNL A   1      36.004  29.354  29.212  1.00  0.00     0.016 A 
ATOM     34  C   UNL A   1      38.426  29.858  27.888  1.00  0.00     0.010 A 
ATOM     35  C   UNL A   1      37.222  29.228  29.895  1.00  0.00     0.010 A 
ATOM     36  C   UNL A   1      38.442  29.444  29.227  1.00  0.00    -0.014 A 
BRANCH  36  37
ATOM     37  C   UNL A   1      39.744  29.122  29.865  1.00  0.00     0.031 A 
ATOM     38  C   UNL A   1      40.182  29.894  31.082  1.00  0.00     0.074 A 
ATOM     39  C   UNL A   1      40.498  28.105  29.407  1.00  0.00     0.049 A 
ATOM     40  N   UNL A   1      41.254  29.743  31.817  1.00  0.00    -0.248 NA
ATOM     41  C   UNL A   1      39.294  30.978  31.531  1.00  0.00     0.031 C 
ATOM     42  C   UNL A   1      40.173  27.267  28.253  1.00  0.00     0.029 A 
ATOM     43  N   UNL A   1      41.692  27.603  29.860  1.00  0.00    -0.354 N 
ATOM     44  C   UNL A   1      41.171  30.710  32.813  1.00  0.00     0.074 A 
ATOM     45  C   UNL A   1      39.960  31.463  32.569  1.00  0.00     0.031 C 
ATOM     46  C   UNL A   1      41.147  26.355  28.088  1.00  0.00     0.029 A 
ATOM     47  C   UNL A   1      42.174  26.558  29.109  1.00  0.00     0.049 A 
ATOM     48  H   UNL A   1      42.161  27.959  30.650  1.00  0.00     0.167 HD
ATOM     49  C   UNL A   1      42.021  30.940  33.844  1.00  0.00     0.037 A 
ATOM     50  C   UNL A   1      43.316  25.851  29.224  1.00  0.00     0.037 A 
ATOM     51  C   UNL A   1      43.221  30.184  34.092  1.00  0.00     0.049 A 
ATOM     52  C   UNL A   1      44.264  26.154  30.355  1.00  0.00     0.074 A 
ATOM     53  C   UNL A   1      44.128  30.325  35.128  1.00  0.00     0.029 A 
ATOM     54  N   UNL A   1      43.688  29.152  33.292  1.00  0.00    -0.354 N 
ATOM     55  N   UNL A   1      44.152  27.047  31.309  1.00  0.00    -0.248 NA
ATOM     56  C   UNL A   1      45.490  25.346  30.430  1.00  0.00     0.031 C 
ATOM     57  C   UNL A   1      45.167  29.409  34.930  1.00  0.00     0.029 A 
ATOM     58  C   UNL A   1      44.882  28.664  33.797  1.00  0.00     0.049 A 
ATOM     59  H   UNL A   1      43.238  28.815  32.485  1.00  0.00     0.167 HD
ATOM     60  C   UNL A   1      45.281  26.894  32.109  1.00  0.00     0.074 A 
ATOM     61  C   UNL A   1      46.053  25.811  31.537  1.00  0.00     0.031 C 
ATOM     62  C   UNL A   1      45.645  27.586  33.217  1.00  0.00     0.037 A 
BRANCH  49  63
ATOM     63  C   UNL A   1      41.692  32.072  34.780  1.00  0.00     0.058 A 
ATOM     64  C   UNL A   1      42.127  33.383  34.537  1.00  0.00     0.135 A 
ATOM     65  C   UNL A   1      40.888  31.846  35.909  1.00  0.00     0.135 A 
ATOM     66  F   UNL A   1      42.912  33.650  33.480  1.00  0.00    -0.206 F 
ATOM     67  C   UNL A   1      41.794  34.430  35.390  1.00  0.00     0.059 A 
ATOM     68  C   UNL A   1      40.521  32.883  36.763  1.00  0.00     0.059 A 
ATOM     69  F   UNL A   1      40.447  30.610  36.190  1.00  0.00    -0.206 F 
ATOM     70  C   UNL A   1      40.989  34.170  36.501  1.00  0.00     0.060 A 
BRANCH  70  71
ATOM     71  S   UNL A   1      40.552  35.541  37.591  1.00  0.00     0.124 S 
ATOM     72  O   UNL A   1      41.848  35.874  38.173  1.00  0.00    -0.237 OA
ATOM     73  O   UNL A   1      40.005  36.520  36.658  1.00  0.00    -0.237 OA
ATOM     74  O   UNL A   1      39.585  34.949  38.511  1.00  0.00    -0.744 OA
ENDBRANCH  70  71
ENDBRANCH  49  63
BRANCH  50  75
ATOM     75  C   UNL A   1      43.636  24.791  28.231  1.00  0.00     0.058 A 
ATOM     76  C   UNL A   1      44.345  25.082  27.055  1.00  0.00     0.135 A 
ATOM     77  C   UNL A   1      43.229  23.464  28.437  1.00  0.00     0.135 A 
ATOM     78  F   UNL A   1      44.747  26.338  26.807  1.00  0.00    -0.206 F 
ATOM     79  C   UNL A   1      44.623  24.099  26.111  1.00  0.00     0.059 A 
ATOM     80  C   UNL A   1      43.518  22.459  27.520  1.00  0.00     0.059 A 
ATOM     81  F   UNL A   1      42.556  23.132  29.550  1.00  0.00    -0.206 F 
ATOM     82  C   UNL A   1      44.206  22.789  26.354  1.00  0.00     0.060 A 
BRANCH  82  83
ATOM     83  S   UNL A   1      44.612  21.508  25.146  1.00  0.00     0.124 S 
ATOM     84  O   UNL A   1      43.566  20.524  25.400  1.00  0.00    -0.237 OA
ATOM     85  O   UNL A   1      44.513  22.235  23.884  1.00  0.00    -0.237 OA
ATOM     86  O   UNL A   1      45.964  21.109  25.525  1.00  0.00    -0.744 OA
ENDBRANCH  82  83
ENDBRANCH  50  75
BRANCH  62  87
ATOM     87  C   UNL A   1      46.924  27.178  33.898  1.00  0.00     0.058 A 
ATOM     88  C   UNL A   1      46.943  26.201  34.906  1.00  0.00     0.135 A 
ATOM     89  C   UNL A   1      48.147  27.750  33.517  1.00  0.00     0.135 A 
ATOM     90  F   UNL A   1      45.801  25.624  35.310  1.00  0.00    -0.206 F 
ATOM     91  C   UNL A   1      48.128  25.832  35.537  1.00  0.00     0.059 A 
ATOM     92  C   UNL A   1      49.348  27.377  34.116  1.00  0.00     0.059 A 
ATOM     93  F   UNL A   1      48.189  28.679  32.549  1.00  0.00    -0.206 F 
ATOM     94  C   UNL A   1      49.325  26.429  35.138  1.00  0.00     0.060 A 
BRANCH  94  95
ATOM     95  S   UNL A   1      50.856  25.938  35.959  1.00  0.00     0.124 S 
ATOM     96  O   UNL A   1      50.507  26.123  37.363  1.00  0.00    -0.237 OA
ATOM     97  O   UNL A   1      51.016  24.554  35.523  1.00  0.00    -0.237 OA
ATOM     98  O   UNL A   1      51.842  26.873  35.427  1.00  0.00    -0.744 OA
ENDBRANCH  94  95
ENDBRANCH  62  87
ENDBRANCH  36  37
ENDBRANCH  29  31
ENDBRANCH  28  29
ENDBRANCH  27  28
ENDBRANCH  26  27
ENDBRANCH  25  26
ENDBRANCH   1  25
TORSDOF 22
ENDMDL
