MODEL 1
REMARK VINA RESULT:     -10.8      0.000      0.000
REMARK SMILES O=C(Cc1cccc(-c2ccn(C(F)F)c(=O)c2)c1)OCCOCCOC(=O)c1ccc(-c2c3nc(c(-c4c(F)cc(S(=O)(=O)[O-])cc4F)c4ccc([nH]4)c(-c4c(F)cc(S(=O)(=O)[O-])cc4F)c4nc(c(-c5c(F)cc(S(=O)(=O)[O-])cc5F)c5ccc2[nH]5)C=C4)C=C3)cc1
REMARK SMILES IDX 23 1 22 2 21 3 20 4 2 5 1 6 3 7 4 8 5 9 19 10 6 11 8 12 7 13
REMARK SMILES IDX 9 14 10 15 18 16 11 17 16 18 12 19 17 20 13 21 14 22 15 23
REMARK SMILES IDX 24 24 25 25 26 26 27 27 28 28 29 29 30 30 94 31 31 32 93 33
REMARK SMILES IDX 32 34 33 35 34 36 87 37 35 38 92 39 86 40 88 41 36 42 91 43
REMARK SMILES IDX 85 44 84 45 37 47 71 48 50 49 70 50 51 51 54 52 69 53 89 54
REMARK SMILES IDX 52 55 53 56 68 58 90 59 55 60 38 61 39 62 48 63 40 64 41 65
REMARK SMILES IDX 47 66 49 67 42 68 43 69 44 70 45 71 46 72 72 73 73 74 82 75
REMARK SMILES IDX 74 76 75 77 81 78 83 79 76 80 77 81 78 82 79 83 80 84 56 85
REMARK SMILES IDX 57 86 66 87 58 88 59 89 65 90 67 91 60 92 61 93 62 94 63 95
REMARK SMILES IDX 64 96
REMARK H PARENT 88 46 54 57
REMARK Flexibility Score: inf
ROOT
ATOM      1  O   UNL A   1      38.230  22.315  25.315  1.00  0.00    -0.374 OA
ENDROOT
BRANCH   1   2
ATOM      2  C   UNL A   1      36.904  22.132  25.804  1.00  0.00     0.202 C 
BRANCH   2   3
ATOM      3  C   UNL A   1      35.827  21.769  24.785  1.00  0.00     0.261 C 
BRANCH   3   4
ATOM      4  O   UNL A   1      34.989  22.867  24.389  1.00  0.00    -0.463 OA
BRANCH   4   5
ATOM      5  C   UNL A   1      33.711  22.785  23.953  1.00  0.00     0.310 C 
ATOM      6  O   UNL A   1      33.157  21.684  23.939  1.00  0.00    -0.252 OA
BRANCH   5   7
ATOM      7  C   UNL A   1      32.971  24.013  23.442  1.00  0.00     0.158 C 
BRANCH   7   8
ATOM      8  C   UNL A   1      32.285  24.804  24.515  1.00  0.00    -0.036 A 
ATOM      9  C   UNL A   1      31.048  24.432  25.055  1.00  0.00     0.004 A 
ATOM     10  C   UNL A   1      32.853  26.020  24.885  1.00  0.00     0.013 A 
ATOM     11  C   UNL A   1      30.350  25.326  25.872  1.00  0.00     0.001 A 
ATOM     12  C   UNL A   1      32.161  26.918  25.697  1.00  0.00    -0.018 A 
ATOM     13  C   UNL A   1      30.899  26.576  26.183  1.00  0.00     0.009 A 
BRANCH  12  14
ATOM     14  C   UNL A   1      32.859  28.177  25.974  1.00  0.00    -0.011 A 
ATOM     15  C   UNL A   1      34.227  28.213  26.455  1.00  0.00     0.027 A 
ATOM     16  C   UNL A   1      32.100  29.282  26.042  1.00  0.00     0.080 A 
ATOM     17  C   UNL A   1      34.698  29.308  27.058  1.00  0.00     0.095 A 
ATOM     18  C   UNL A   1      32.629  30.521  26.671  1.00  0.00     0.255 A 
ATOM     19  N   UNL A   1      33.915  30.441  27.182  1.00  0.00    -0.258 N 
ATOM     20  O   UNL A   1      31.888  31.497  26.743  1.00  0.00    -0.269 OA
BRANCH  19  21
ATOM     21  C   UNL A   1      34.401  31.584  27.905  1.00  0.00     0.451 C 
ATOM     22  F   UNL A   1      34.510  31.321  29.229  1.00  0.00    -0.185 F 
ATOM     23  F   UNL A   1      35.625  31.954  27.451  1.00  0.00    -0.185 F 
ENDBRANCH  19  21
ENDBRANCH  12  14
ENDBRANCH   7   8
ENDBRANCH   5   7
ENDBRANCH   4   5
ENDBRANCH   3   4
ENDBRANCH   2   3
ENDBRANCH   1   2
BRANCH   1  24
ATOM     24  C   UNL A   1      39.281  21.898  26.199  1.00  0.00     0.202 C 
BRANCH  24  25
ATOM     25  C   UNL A   1      40.153  23.010  26.783  1.00  0.00     0.261 C 
BRANCH  25  26
ATOM     26  O   UNL A   1      39.515  24.288  26.669  1.00  0.00    -0.460 OA
BRANCH  26  27
ATOM     27  C   UNL A   1      40.356  25.319  26.416  1.00  0.00     0.338 C 
ATOM     28  O   UNL A   1      40.795  25.660  25.327  1.00  0.00    -0.246 OA
BRANCH  27  29
ATOM     29  C   UNL A   1      40.497  26.133  27.638  1.00  0.00     0.060 A 
ATOM     30  C   UNL A   1      39.486  26.033  28.604  1.00  0.00     0.016 A 
ATOM     31  C   UNL A   1      41.597  26.970  27.840  1.00  0.00     0.016 A 
ATOM     32  C   UNL A   1      39.531  26.830  29.742  1.00  0.00     0.010 A 
ATOM     33  C   UNL A   1      41.640  27.772  28.980  1.00  0.00     0.010 A 
ATOM     34  C   UNL A   1      40.582  27.739  29.906  1.00  0.00    -0.014 A 
BRANCH  34  35
ATOM     35  C   UNL A   1      40.480  28.798  30.933  1.00  0.00     0.031 A 
ATOM     36  C   UNL A   1      41.374  28.705  32.137  1.00  0.00     0.074 A 
ATOM     37  C   UNL A   1      39.619  29.819  30.786  1.00  0.00     0.049 A 
ATOM     38  N   UNL A   1      41.419  29.466  33.197  1.00  0.00    -0.248 NA
ATOM     39  C   UNL A   1      42.344  27.595  32.152  1.00  0.00     0.031 C 
ATOM     40  C   UNL A   1      38.732  30.018  29.640  1.00  0.00     0.029 A 
ATOM     41  N   UNL A   1      39.340  30.874  31.616  1.00  0.00    -0.354 N 
ATOM     42  C   UNL A   1      42.404  28.918  34.012  1.00  0.00     0.074 A 
ATOM     43  C   UNL A   1      42.912  27.745  33.339  1.00  0.00     0.031 C 
ATOM     44  C   UNL A   1      37.992  31.120  29.850  1.00  0.00     0.029 A 
ATOM     45  C   UNL A   1      38.329  31.681  31.156  1.00  0.00     0.049 A 
ATOM     46  H   UNL A   1      39.820  31.035  32.460  1.00  0.00     0.167 HD
ATOM     47  C   UNL A   1      42.847  29.363  35.211  1.00  0.00     0.037 A 
ATOM     48  C   UNL A   1      37.727  32.734  31.742  1.00  0.00     0.037 A 
ATOM     49  C   UNL A   1      42.333  30.538  35.862  1.00  0.00     0.049 A 
ATOM     50  C   UNL A   1      38.204  33.184  33.099  1.00  0.00     0.074 A 
ATOM     51  C   UNL A   1      42.729  31.099  37.062  1.00  0.00     0.029 A 
ATOM     52  N   UNL A   1      41.304  31.329  35.370  1.00  0.00    -0.354 N 
ATOM     53  N   UNL A   1      39.156  32.677  33.848  1.00  0.00    -0.248 NA
ATOM     54  C   UNL A   1      37.533  34.350  33.688  1.00  0.00     0.031 C 
ATOM     55  C   UNL A   1      41.899  32.192  37.326  1.00  0.00     0.029 A 
ATOM     56  C   UNL A   1      41.031  32.356  36.257  1.00  0.00     0.049 A 
ATOM     57  H   UNL A   1      40.837  31.181  34.516  1.00  0.00     0.167 HD
ATOM     58  C   UNL A   1      39.216  33.480  34.983  1.00  0.00     0.074 A 
ATOM     59  C   UNL A   1      38.214  34.512  34.814  1.00  0.00     0.031 C 
ATOM     60  C   UNL A   1      40.029  33.377  36.065  1.00  0.00     0.037 A 
BRANCH  47  61
ATOM     61  C   UNL A   1      43.916  28.564  35.905  1.00  0.00     0.058 A 
ATOM     62  C   UNL A   1      43.610  27.488  36.753  1.00  0.00     0.135 A 
ATOM     63  C   UNL A   1      45.272  28.860  35.689  1.00  0.00     0.135 A 
ATOM     64  F   UNL A   1      42.330  27.175  37.014  1.00  0.00    -0.206 F 
ATOM     65  C   UNL A   1      44.608  26.744  37.376  1.00  0.00     0.059 A 
ATOM     66  C   UNL A   1      46.287  28.110  36.276  1.00  0.00     0.059 A 
ATOM     67  F   UNL A   1      45.623  29.884  34.896  1.00  0.00    -0.206 F 
ATOM     68  C   UNL A   1      45.945  27.061  37.128  1.00  0.00     0.060 A 
BRANCH  68  69
ATOM     69  S   UNL A   1      47.227  26.072  37.925  1.00  0.00     0.124 S 
ATOM     70  O   UNL A   1      48.430  26.571  37.267  1.00  0.00    -0.237 OA
ATOM     71  O   UNL A   1      47.074  26.441  39.329  1.00  0.00    -0.237 OA
ATOM     72  O   UNL A   1      46.855  24.700  37.596  1.00  0.00    -0.744 OA
ENDBRANCH  68  69
ENDBRANCH  47  61
BRANCH  48  73
ATOM     73  C   UNL A   1      36.603  33.423  31.054  1.00  0.00     0.058 A 
ATOM     74  C   UNL A   1      35.291  33.346  31.547  1.00  0.00     0.135 A 
ATOM     75  C   UNL A   1      36.821  34.189  29.897  1.00  0.00     0.135 A 
ATOM     76  F   UNL A   1      35.029  32.620  32.643  1.00  0.00    -0.206 F 
ATOM     77  C   UNL A   1      34.236  33.994  30.913  1.00  0.00     0.059 A 
ATOM     78  C   UNL A   1      35.788  34.869  29.263  1.00  0.00     0.059 A 
ATOM     79  F   UNL A   1      38.059  34.306  29.392  1.00  0.00    -0.206 F 
ATOM     80  C   UNL A   1      34.496  34.760  29.775  1.00  0.00     0.060 A 
BRANCH  80  81
ATOM     81  S   UNL A   1      33.128  35.648  28.998  1.00  0.00     0.124 S 
ATOM     82  O   UNL A   1      33.836  36.555  28.103  1.00  0.00    -0.237 OA
ATOM     83  O   UNL A   1      32.388  34.565  28.359  1.00  0.00    -0.237 OA
ATOM     84  O   UNL A   1      32.451  36.276  30.130  1.00  0.00    -0.744 OA
ENDBRANCH  80  81
ENDBRANCH  48  73
BRANCH  60  85
ATOM     85  C   UNL A   1      39.900  34.429  37.134  1.00  0.00     0.058 A 
ATOM     86  C   UNL A   1      40.582  35.652  37.056  1.00  0.00     0.135 A 
ATOM     87  C   UNL A   1      39.034  34.228  38.222  1.00  0.00     0.135 A 
ATOM     88  F   UNL A   1      41.425  35.895  36.040  1.00  0.00    -0.206 F 
ATOM     89  C   UNL A   1      40.431  36.629  38.036  1.00  0.00     0.059 A 
ATOM     90  C   UNL A   1      38.842  35.204  39.193  1.00  0.00     0.059 A 
ATOM     91  F   UNL A   1      38.347  33.080  38.337  1.00  0.00    -0.206 F 
ATOM     92  C   UNL A   1      39.556  36.397  39.098  1.00  0.00     0.060 A 
BRANCH  92  93
ATOM     93  S   UNL A   1      39.349  37.686  40.344  1.00  0.00     0.124 S 
ATOM     94  O   UNL A   1      39.211  36.896  41.564  1.00  0.00    -0.237 OA
ATOM     95  O   UNL A   1      40.588  38.446  40.216  1.00  0.00    -0.237 OA
ATOM     96  O   UNL A   1      38.142  38.387  39.912  1.00  0.00    -0.744 OA
ENDBRANCH  92  93
ENDBRANCH  60  85
ENDBRANCH  34  35
ENDBRANCH  27  29
ENDBRANCH  26  27
ENDBRANCH  25  26
ENDBRANCH  24  25
ENDBRANCH   1  24
TORSDOF 20
ENDMDL
MODEL 2
REMARK VINA RESULT:     -10.5      2.015      2.652
REMARK SMILES O=C(Cc1cccc(-c2ccn(C(F)F)c(=O)c2)c1)OCCOCCOC(=O)c1ccc(-c2c3nc(c(-c4c(F)cc(S(=O)(=O)[O-])cc4F)c4ccc([nH]4)c(-c4c(F)cc(S(=O)(=O)[O-])cc4F)c4nc(c(-c5c(F)cc(S(=O)(=O)[O-])cc5F)c5ccc2[nH]5)C=C4)C=C3)cc1
REMARK SMILES IDX 23 1 22 2 21 3 20 4 2 5 1 6 3 7 4 8 5 9 19 10 6 11 8 12 7 13
REMARK SMILES IDX 9 14 10 15 18 16 11 17 16 18 12 19 17 20 13 21 14 22 15 23
REMARK SMILES IDX 24 24 25 25 26 26 27 27 28 28 29 29 30 30 94 31 31 32 93 33
REMARK SMILES IDX 32 34 33 35 34 36 87 37 35 38 92 39 86 40 88 41 36 42 91 43
REMARK SMILES IDX 85 44 84 45 37 47 71 48 50 49 70 50 51 51 54 52 69 53 89 54
REMARK SMILES IDX 52 55 53 56 68 58 90 59 55 60 38 61 39 62 48 63 40 64 41 65
REMARK SMILES IDX 47 66 49 67 42 68 43 69 44 70 45 71 46 72 72 73 73 74 82 75
REMARK SMILES IDX 74 76 75 77 81 78 83 79 76 80 77 81 78 82 79 83 80 84 56 85
REMARK SMILES IDX 57 86 66 87 58 88 59 89 65 90 67 91 60 92 61 93 62 94 63 95
REMARK SMILES IDX 64 96
REMARK H PARENT 88 46 54 57
REMARK Flexibility Score: inf
ROOT
ATOM      1  O   UNL A   1      38.478  22.062  25.292  1.00  0.00    -0.374 OA
ENDROOT
BRANCH   1   2
ATOM      2  C   UNL A   1      37.126  21.918  25.723  1.00  0.00     0.202 C 
BRANCH   2   3
ATOM      3  C   UNL A   1      36.038  22.020  24.658  1.00  0.00     0.261 C 
BRANCH   3   4
ATOM      4  O   UNL A   1      35.593  23.360  24.389  1.00  0.00    -0.463 OA
BRANCH   4   5
ATOM      5  C   UNL A   1      34.496  23.715  23.680  1.00  0.00     0.310 C 
ATOM      6  O   UNL A   1      33.870  22.841  23.077  1.00  0.00    -0.252 OA
BRANCH   5   7
ATOM      7  C   UNL A   1      34.056  25.167  23.582  1.00  0.00     0.158 C 
BRANCH   7   8
ATOM      8  C   UNL A   1      32.774  25.468  24.300  1.00  0.00    -0.036 A 
ATOM      9  C   UNL A   1      32.294  24.681  25.353  1.00  0.00     0.004 A 
ATOM     10  C   UNL A   1      31.981  26.498  23.801  1.00  0.00     0.013 A 
ATOM     11  C   UNL A   1      30.990  24.867  25.820  1.00  0.00     0.001 A 
ATOM     12  C   UNL A   1      30.678  26.688  24.260  1.00  0.00    -0.018 A 
ATOM     13  C   UNL A   1      30.175  25.861  25.265  1.00  0.00     0.009 A 
BRANCH  12  14
ATOM     14  C   UNL A   1      29.942  27.781  23.620  1.00  0.00    -0.011 A 
ATOM     15  C   UNL A   1      30.534  29.087  23.401  1.00  0.00     0.027 A 
ATOM     16  C   UNL A   1      28.614  27.624  23.504  1.00  0.00     0.080 A 
ATOM     17  C   UNL A   1      29.754  30.150  23.186  1.00  0.00     0.095 A 
ATOM     18  C   UNL A   1      27.739  28.793  23.222  1.00  0.00     0.255 A 
ATOM     19  N   UNL A   1      28.380  30.018  23.113  1.00  0.00    -0.258 N 
ATOM     20  O   UNL A   1      26.527  28.610  23.159  1.00  0.00    -0.269 OA
BRANCH  19  21
ATOM     21  C   UNL A   1      27.545  31.178  22.966  1.00  0.00     0.451 C 
ATOM     22  F   UNL A   1      27.011  31.557  24.152  1.00  0.00    -0.185 F 
ATOM     23  F   UNL A   1      28.259  32.225  22.478  1.00  0.00    -0.185 F 
ENDBRANCH  19  21
ENDBRANCH  12  14
ENDBRANCH   7   8
ENDBRANCH   5   7
ENDBRANCH   4   5
ENDBRANCH   3   4
ENDBRANCH   2   3
ENDBRANCH   1   2
BRANCH   1  24
ATOM     24  C   UNL A   1      39.478  21.737  26.268  1.00  0.00     0.202 C 
BRANCH  24  25
ATOM     25  C   UNL A   1      40.236  22.918  26.877  1.00  0.00     0.261 C 
BRANCH  25  26
ATOM     26  O   UNL A   1      39.570  24.159  26.612  1.00  0.00    -0.460 OA
BRANCH  26  27
ATOM     27  C   UNL A   1      40.396  25.205  26.378  1.00  0.00     0.338 C 
ATOM     28  O   UNL A   1      40.840  25.565  25.297  1.00  0.00    -0.246 OA
BRANCH  27  29
ATOM     29  C   UNL A   1      40.512  26.009  27.610  1.00  0.00     0.060 A 
ATOM     30  C   UNL A   1      39.448  25.957  28.521  1.00  0.00     0.016 A 
ATOM     31  C   UNL A   1      41.640  26.790  27.874  1.00  0.00     0.016 A 
ATOM     32  C   UNL A   1      39.473  26.748  29.664  1.00  0.00     0.010 A 
ATOM     33  C   UNL A   1      41.662  27.586  29.018  1.00  0.00     0.010 A 
ATOM     34  C   UNL A   1      40.557  27.604  29.887  1.00  0.00    -0.014 A 
BRANCH  34  35
ATOM     35  C   UNL A   1      40.452  28.664  30.912  1.00  0.00     0.031 A 
ATOM     36  C   UNL A   1      41.337  28.567  32.124  1.00  0.00     0.074 A 
ATOM     37  C   UNL A   1      39.598  29.689  30.758  1.00  0.00     0.049 A 
ATOM     38  N   UNL A   1      41.377  29.328  33.184  1.00  0.00    -0.248 NA
ATOM     39  C   UNL A   1      42.300  27.451  32.146  1.00  0.00     0.031 C 
ATOM     40  C   UNL A   1      38.721  29.892  29.605  1.00  0.00     0.029 A 
ATOM     41  N   UNL A   1      39.319  30.746  31.585  1.00  0.00    -0.354 N 
ATOM     42  C   UNL A   1      42.354  28.775  34.006  1.00  0.00     0.074 A 
ATOM     43  C   UNL A   1      42.861  27.599  33.337  1.00  0.00     0.031 C 
ATOM     44  C   UNL A   1      37.986  30.999  29.809  1.00  0.00     0.029 A 
ATOM     45  C   UNL A   1      38.316  31.558  31.117  1.00  0.00     0.049 A 
ATOM     46  H   UNL A   1      39.793  30.906  32.433  1.00  0.00     0.167 HD
ATOM     47  C   UNL A   1      42.790  29.219  35.207  1.00  0.00     0.037 A 
ATOM     48  C   UNL A   1      37.715  32.616  31.698  1.00  0.00     0.037 A 
ATOM     49  C   UNL A   1      42.278  30.397  35.854  1.00  0.00     0.049 A 
ATOM     50  C   UNL A   1      38.184  33.064  33.058  1.00  0.00     0.074 A 
ATOM     51  C   UNL A   1      42.668  30.957  37.057  1.00  0.00     0.029 A 
ATOM     52  N   UNL A   1      41.256  31.194  35.353  1.00  0.00    -0.354 N 
ATOM     53  N   UNL A   1      39.128  32.552  33.815  1.00  0.00    -0.248 NA
ATOM     54  C   UNL A   1      37.515  34.234  33.641  1.00  0.00     0.031 C 
ATOM     55  C   UNL A   1      41.841  32.055  37.314  1.00  0.00     0.029 A 
ATOM     56  C   UNL A   1      40.983  32.222  36.238  1.00  0.00     0.049 A 
ATOM     57  H   UNL A   1      40.795  31.048  34.496  1.00  0.00     0.167 HD
ATOM     58  C   UNL A   1      39.184  33.356  34.949  1.00  0.00     0.074 A 
ATOM     59  C   UNL A   1      38.188  34.392  34.772  1.00  0.00     0.031 C 
ATOM     60  C   UNL A   1      39.988  33.249  36.038  1.00  0.00     0.037 A 
BRANCH  47  61
ATOM     61  C   UNL A   1      43.849  28.415  35.911  1.00  0.00     0.058 A 
ATOM     62  C   UNL A   1      45.215  28.720  35.799  1.00  0.00     0.135 A 
ATOM     63  C   UNL A   1      43.486  27.342  36.742  1.00  0.00     0.135 A 
ATOM     64  F   UNL A   1      45.621  29.720  35.000  1.00  0.00    -0.206 F 
ATOM     65  C   UNL A   1      46.184  27.980  36.470  1.00  0.00     0.059 A 
ATOM     66  C   UNL A   1      44.435  26.608  37.447  1.00  0.00     0.059 A 
ATOM     67  F   UNL A   1      42.195  27.000  36.880  1.00  0.00    -0.206 F 
ATOM     68  C   UNL A   1      45.783  26.927  37.295  1.00  0.00     0.060 A 
BRANCH  68  69
ATOM     69  S   UNL A   1      47.051  25.992  38.176  1.00  0.00     0.124 S 
ATOM     70  O   UNL A   1      46.695  24.620  37.828  1.00  0.00    -0.237 OA
ATOM     71  O   UNL A   1      48.282  26.499  37.578  1.00  0.00    -0.237 OA
ATOM     72  O   UNL A   1      46.838  26.360  39.572  1.00  0.00    -0.744 OA
ENDBRANCH  68  69
ENDBRANCH  47  61
BRANCH  48  73
ATOM     73  C   UNL A   1      36.600  33.309  31.000  1.00  0.00     0.058 A 
ATOM     74  C   UNL A   1      36.840  34.153  29.905  1.00  0.00     0.135 A 
ATOM     75  C   UNL A   1      35.267  33.126  31.403  1.00  0.00     0.135 A 
ATOM     76  F   UNL A   1      38.096  34.367  29.486  1.00  0.00    -0.206 F 
ATOM     77  C   UNL A   1      35.802  34.799  29.242  1.00  0.00     0.059 A 
ATOM     78  C   UNL A   1      34.210  33.739  30.739  1.00  0.00     0.059 A 
ATOM     79  F   UNL A   1      34.982  32.319  32.436  1.00  0.00    -0.206 F 
ATOM     80  C   UNL A   1      34.488  34.579  29.663  1.00  0.00     0.060 A 
BRANCH  80  81
ATOM     81  S   UNL A   1      33.144  35.373  28.753  1.00  0.00     0.124 S 
ATOM     82  O   UNL A   1      33.869  36.354  27.954  1.00  0.00    -0.237 OA
ATOM     83  O   UNL A   1      32.569  34.250  28.021  1.00  0.00    -0.237 OA
ATOM     84  O   UNL A   1      32.300  35.919  29.812  1.00  0.00    -0.744 OA
ENDBRANCH  80  81
ENDBRANCH  48  73
BRANCH  60  85
ATOM     85  C   UNL A   1      39.856  34.302  37.105  1.00  0.00     0.058 A 
ATOM     86  C   UNL A   1      40.507  35.541  37.007  1.00  0.00     0.135 A 
ATOM     87  C   UNL A   1      39.019  34.085  38.213  1.00  0.00     0.135 A 
ATOM     88  F   UNL A   1      41.322  35.799  35.972  1.00  0.00    -0.206 F 
ATOM     89  C   UNL A   1      40.353  36.519  37.986  1.00  0.00     0.059 A 
ATOM     90  C   UNL A   1      38.824  35.061  39.183  1.00  0.00     0.059 A 
ATOM     91  F   UNL A   1      38.363  32.921  38.347  1.00  0.00    -0.206 F 
ATOM     92  C   UNL A   1      39.508  36.271  39.068  1.00  0.00     0.060 A 
BRANCH  92  93
ATOM     93  S   UNL A   1      39.296  37.560  40.313  1.00  0.00     0.124 S 
ATOM     94  O   UNL A   1      40.630  38.150  40.355  1.00  0.00    -0.237 OA
ATOM     95  O   UNL A   1      38.252  38.393  39.724  1.00  0.00    -0.237 OA
ATOM     96  O   UNL A   1      38.899  36.819  41.507  1.00  0.00    -0.744 OA
ENDBRANCH  92  93
ENDBRANCH  60  85
ENDBRANCH  34  35
ENDBRANCH  27  29
ENDBRANCH  26  27
ENDBRANCH  25  26
ENDBRANCH  24  25
ENDBRANCH   1  24
TORSDOF 20
ENDMDL
MODEL 3
REMARK VINA RESULT:     -10.2      3.618      9.542
REMARK SMILES O=C(Cc1cccc(-c2ccn(C(F)F)c(=O)c2)c1)OCCOCCOC(=O)c1ccc(-c2c3nc(c(-c4c(F)cc(S(=O)(=O)[O-])cc4F)c4ccc([nH]4)c(-c4c(F)cc(S(=O)(=O)[O-])cc4F)c4nc(c(-c5c(F)cc(S(=O)(=O)[O-])cc5F)c5ccc2[nH]5)C=C4)C=C3)cc1
REMARK SMILES IDX 23 1 22 2 21 3 20 4 2 5 1 6 3 7 4 8 5 9 19 10 6 11 8 12 7 13
REMARK SMILES IDX 9 14 10 15 18 16 11 17 16 18 12 19 17 20 13 21 14 22 15 23
REMARK SMILES IDX 24 24 25 25 26 26 27 27 28 28 29 29 30 30 94 31 31 32 93 33
REMARK SMILES IDX 32 34 33 35 34 36 87 37 35 38 92 39 86 40 88 41 36 42 91 43
REMARK SMILES IDX 85 44 84 45 37 47 71 48 50 49 70 50 51 51 54 52 69 53 89 54
REMARK SMILES IDX 52 55 53 56 68 58 90 59 55 60 38 61 39 62 48 63 40 64 41 65
REMARK SMILES IDX 47 66 49 67 42 68 43 69 44 70 45 71 46 72 72 73 73 74 82 75
REMARK SMILES IDX 74 76 75 77 81 78 83 79 76 80 77 81 78 82 79 83 80 84 56 85
REMARK SMILES IDX 57 86 66 87 58 88 59 89 65 90 67 91 60 92 61 93 62 94 63 95
REMARK SMILES IDX 64 96
REMARK H PARENT 88 46 54 57
REMARK Flexibility Score: inf
ROOT
ATOM      1  O   UNL A   1      32.492  28.177  26.251  1.00  0.00    -0.374 OA
ENDROOT
BRANCH   1   2
ATOM      2  C   UNL A   1      31.748  27.130  26.869  1.00  0.00     0.202 C 
BRANCH   2   3
ATOM      3  C   UNL A   1      31.571  25.836  26.078  1.00  0.00     0.261 C 
BRANCH   3   4
ATOM      4  O   UNL A   1      31.015  24.748  26.833  1.00  0.00    -0.463 OA
BRANCH   4   5
ATOM      5  C   UNL A   1      31.504  23.489  26.908  1.00  0.00     0.310 C 
ATOM      6  O   UNL A   1      32.054  23.126  27.949  1.00  0.00    -0.252 OA
BRANCH   5   7
ATOM      7  C   UNL A   1      31.424  22.539  25.722  1.00  0.00     0.158 C 
BRANCH   7   8
ATOM      8  C   UNL A   1      32.386  22.858  24.617  1.00  0.00    -0.036 A 
ATOM      9  C   UNL A   1      31.979  23.040  23.289  1.00  0.00     0.004 A 
ATOM     10  C   UNL A   1      33.745  22.840  24.918  1.00  0.00     0.013 A 
ATOM     11  C   UNL A   1      32.935  23.097  22.272  1.00  0.00     0.001 A 
ATOM     12  C   UNL A   1      34.705  22.893  23.908  1.00  0.00    -0.018 A 
ATOM     13  C   UNL A   1      34.299  23.009  22.578  1.00  0.00     0.009 A 
BRANCH  12  14
ATOM     14  C   UNL A   1      36.096  22.824  24.362  1.00  0.00    -0.011 A 
ATOM     15  C   UNL A   1      36.871  21.600  24.297  1.00  0.00     0.027 A 
ATOM     16  C   UNL A   1      36.538  23.853  25.103  1.00  0.00     0.080 A 
ATOM     17  C   UNL A   1      37.964  21.456  25.051  1.00  0.00     0.095 A 
ATOM     18  C   UNL A   1      37.778  23.721  25.912  1.00  0.00     0.255 A 
ATOM     19  N   UNL A   1      38.408  22.487  25.859  1.00  0.00    -0.258 N 
ATOM     20  O   UNL A   1      38.126  24.675  26.602  1.00  0.00    -0.269 OA
BRANCH  19  21
ATOM     21  C   UNL A   1      39.536  22.294  26.729  1.00  0.00     0.451 C 
ATOM     22  F   UNL A   1      39.820  20.979  26.886  1.00  0.00    -0.185 F 
ATOM     23  F   UNL A   1      40.640  22.901  26.225  1.00  0.00    -0.185 F 
ENDBRANCH  19  21
ENDBRANCH  12  14
ENDBRANCH   7   8
ENDBRANCH   5   7
ENDBRANCH   4   5
ENDBRANCH   3   4
ENDBRANCH   2   3
ENDBRANCH   1   2
BRANCH   1  24
ATOM     24  C   UNL A   1      31.800  29.425  26.102  1.00  0.00     0.202 C 
BRANCH  24  25
ATOM     25  C   UNL A   1      32.482  30.652  26.709  1.00  0.00     0.261 C 
BRANCH  25  26
ATOM     26  O   UNL A   1      33.699  30.296  27.375  1.00  0.00    -0.460 OA
BRANCH  26  27
ATOM     27  C   UNL A   1      34.487  31.346  27.709  1.00  0.00     0.338 C 
ATOM     28  O   UNL A   1      34.143  32.510  27.849  1.00  0.00    -0.246 OA
BRANCH  27  29
ATOM     29  C   UNL A   1      35.813  30.838  28.113  1.00  0.00     0.060 A 
ATOM     30  C   UNL A   1      35.937  29.462  28.349  1.00  0.00     0.016 A 
ATOM     31  C   UNL A   1      36.914  31.688  28.249  1.00  0.00     0.016 A 
ATOM     32  C   UNL A   1      37.144  28.940  28.799  1.00  0.00     0.010 A 
ATOM     33  C   UNL A   1      38.123  31.165  28.705  1.00  0.00     0.010 A 
ATOM     34  C   UNL A   1      38.224  29.800  29.028  1.00  0.00    -0.014 A 
BRANCH  34  35
ATOM     35  C   UNL A   1      39.393  29.317  29.795  1.00  0.00     0.031 A 
ATOM     36  C   UNL A   1      39.725  30.006  31.089  1.00  0.00     0.074 A 
ATOM     37  C   UNL A   1      40.129  28.285  29.350  1.00  0.00     0.049 A 
ATOM     38  N   UNL A   1      40.732  29.812  31.896  1.00  0.00    -0.248 NA
ATOM     39  C   UNL A   1      38.797  31.065  31.527  1.00  0.00     0.031 C 
ATOM     40  C   UNL A   1      39.871  27.529  28.125  1.00  0.00     0.029 A 
ATOM     41  N   UNL A   1      41.255  27.705  29.875  1.00  0.00    -0.354 N 
ATOM     42  C   UNL A   1      40.572  30.735  32.925  1.00  0.00     0.074 A 
ATOM     43  C   UNL A   1      39.388  31.507  32.626  1.00  0.00     0.031 C 
ATOM     44  C   UNL A   1      40.826  26.594  27.982  1.00  0.00     0.029 A 
ATOM     45  C   UNL A   1      41.777  26.710  29.085  1.00  0.00     0.049 A 
ATOM     46  H   UNL A   1      41.649  27.975  30.735  1.00  0.00     0.167 HD
ATOM     47  C   UNL A   1      41.343  30.912  34.023  1.00  0.00     0.037 A 
ATOM     48  C   UNL A   1      42.913  25.998  29.226  1.00  0.00     0.037 A 
ATOM     49  C   UNL A   1      42.515  30.127  34.306  1.00  0.00     0.049 A 
ATOM     50  C   UNL A   1      43.782  26.245  30.432  1.00  0.00     0.074 A 
ATOM     51  C   UNL A   1      43.353  30.199  35.404  1.00  0.00     0.029 A 
ATOM     52  N   UNL A   1      43.019  29.131  33.481  1.00  0.00    -0.354 N 
ATOM     53  N   UNL A   1      43.607  27.100  31.414  1.00  0.00    -0.248 NA
ATOM     54  C   UNL A   1      44.997  25.430  30.556  1.00  0.00     0.031 C 
ATOM     55  C   UNL A   1      44.398  29.290  35.213  1.00  0.00     0.029 A 
ATOM     56  C   UNL A   1      44.174  28.602  34.030  1.00  0.00     0.049 A 
ATOM     57  H   UNL A   1      42.615  28.845  32.630  1.00  0.00     0.167 HD
ATOM     58  C   UNL A   1      44.674  26.903  32.285  1.00  0.00     0.074 A 
ATOM     59  C   UNL A   1      45.481  25.842  31.719  1.00  0.00     0.031 C 
ATOM     60  C   UNL A   1      44.960  27.540  33.450  1.00  0.00     0.037 A 
BRANCH  47  61
ATOM     61  C   UNL A   1      40.963  32.009  34.979  1.00  0.00     0.058 A 
ATOM     62  C   UNL A   1      40.040  31.806  36.018  1.00  0.00     0.135 A 
ATOM     63  C   UNL A   1      41.561  33.276  34.876  1.00  0.00     0.135 A 
ATOM     64  F   UNL A   1      39.419  30.623  36.150  1.00  0.00    -0.206 F 
ATOM     65  C   UNL A   1      39.710  32.824  36.908  1.00  0.00     0.059 A 
ATOM     66  C   UNL A   1      41.270  34.299  35.774  1.00  0.00     0.059 A 
ATOM     67  F   UNL A   1      42.444  33.528  33.897  1.00  0.00    -0.206 F 
ATOM     68  C   UNL A   1      40.334  34.066  36.780  1.00  0.00     0.060 A 
BRANCH  68  69
ATOM     69  S   UNL A   1      39.912  35.368  37.956  1.00  0.00     0.124 S 
ATOM     70  O   UNL A   1      41.086  35.369  38.823  1.00  0.00    -0.237 OA
ATOM     71  O   UNL A   1      39.764  36.533  37.090  1.00  0.00    -0.237 OA
ATOM     72  O   UNL A   1      38.679  34.887  38.571  1.00  0.00    -0.744 OA
ENDBRANCH  68  69
ENDBRANCH  47  61
BRANCH  48  73
ATOM     73  C   UNL A   1      43.294  24.999  28.193  1.00  0.00     0.058 A 
ATOM     74  C   UNL A   1      42.964  23.643  28.337  1.00  0.00     0.135 A 
ATOM     75  C   UNL A   1      43.980  25.384  27.030  1.00  0.00     0.135 A 
ATOM     76  F   UNL A   1      42.315  23.223  29.433  1.00  0.00    -0.206 F 
ATOM     77  C   UNL A   1      43.309  22.703  27.371  1.00  0.00     0.059 A 
ATOM     78  C   UNL A   1      44.311  24.468  26.038  1.00  0.00     0.059 A 
ATOM     79  F   UNL A   1      44.308  26.671  26.838  1.00  0.00    -0.206 F 
ATOM     80  C   UNL A   1      43.977  23.128  26.220  1.00  0.00     0.060 A 
BRANCH  80  81
ATOM     81  S   UNL A   1      44.364  21.908  24.945  1.00  0.00     0.124 S 
ATOM     82  O   UNL A   1      45.799  21.732  25.131  1.00  0.00    -0.237 OA
ATOM     83  O   UNL A   1      43.524  20.781  25.338  1.00  0.00    -0.237 OA
ATOM     84  O   UNL A   1      43.963  22.576  23.710  1.00  0.00    -0.744 OA
ENDBRANCH  80  81
ENDBRANCH  48  73
BRANCH  60  85
ATOM     85  C   UNL A   1      46.173  27.080  34.213  1.00  0.00     0.058 A 
ATOM     86  C   UNL A   1      47.431  27.676  34.035  1.00  0.00     0.135 A 
ATOM     87  C   UNL A   1      46.059  26.064  35.177  1.00  0.00     0.135 A 
ATOM     88  F   UNL A   1      47.598  28.648  33.124  1.00  0.00    -0.206 F 
ATOM     89  C   UNL A   1      48.539  27.262  34.768  1.00  0.00     0.059 A 
ATOM     90  C   UNL A   1      47.144  25.660  35.944  1.00  0.00     0.059 A 
ATOM     91  F   UNL A   1      44.874  25.470  35.396  1.00  0.00    -0.206 F 
ATOM     92  C   UNL A   1      48.385  26.255  35.723  1.00  0.00     0.060 A 
BRANCH  92  93
ATOM     93  S   UNL A   1      49.824  25.750  36.686  1.00  0.00     0.124 S 
ATOM     94  O   UNL A   1      50.370  27.040  37.097  1.00  0.00    -0.237 OA
ATOM     95  O   UNL A   1      49.224  24.948  37.747  1.00  0.00    -0.237 OA
ATOM     96  O   UNL A   1      50.633  25.005  35.726  1.00  0.00    -0.744 OA
ENDBRANCH  92  93
ENDBRANCH  60  85
ENDBRANCH  34  35
ENDBRANCH  27  29
ENDBRANCH  26  27
ENDBRANCH  25  26
ENDBRANCH  24  25
ENDBRANCH   1  24
TORSDOF 20
ENDMDL
