MODEL 1
REMARK VINA RESULT:     -10.9      0.000      0.000
REMARK SMILES Cn1nc(N2CCC(CC(=O)OCCOCCOC(=O)c3ccc(-c4c5nc(c(-c6c(F)cc(S(=O)(=O)[O-])cc6F)c6ccc([nH]6)c(-c6c(F)cc(S(=O)(=O)[O-])cc6F)c6nc(c(-c7c(F)cc(S(=O)(=O)[O-])cc7F)c7ccc4[nH]7)C=C6)C=C5)cc3)CC2)c(=O)n(C)c1=O
REMARK SMILES IDX 16 1 15 2 14 3 13 4 12 5 10 6 11 7 9 8 8 9 5 10 6 11 88 12
REMARK SMILES IDX 7 13 87 14 4 15 1 16 2 17 3 18 93 19 91 20 94 21 89 22 92 23
REMARK SMILES IDX 90 24 17 25 18 26 19 27 20 28 21 29 22 30 86 31 23 32 85 33
REMARK SMILES IDX 24 34 25 35 26 36 79 37 27 38 84 39 78 40 80 41 28 42 83 43
REMARK SMILES IDX 77 44 76 45 29 47 63 48 42 49 62 50 43 51 46 52 61 53 81 54
REMARK SMILES IDX 44 55 45 56 60 58 82 59 47 60 30 61 31 62 40 63 32 64 33 65
REMARK SMILES IDX 39 66 41 67 34 68 35 69 36 70 37 71 38 72 64 73 65 74 74 75
REMARK SMILES IDX 66 76 67 77 73 78 75 79 68 80 69 81 70 82 71 83 72 84 48 85
REMARK SMILES IDX 49 86 58 87 50 88 51 89 57 90 59 91 52 92 53 93 54 94 55 95
REMARK SMILES IDX 56 96
REMARK H PARENT 80 46 46 57
REMARK Flexibility Score: inf
ROOT
ATOM      1  C   UNL A   1      34.921  31.678  28.087  1.00  0.00     0.202 C 
ENDROOT
BRANCH   1   2
ATOM      2  O   UNL A   1      34.036  30.682  27.580  1.00  0.00    -0.374 OA
BRANCH   2   3
ATOM      3  C   UNL A   1      34.571  29.375  27.370  1.00  0.00     0.202 C 
BRANCH   3   4
ATOM      4  C   UNL A   1      34.000  28.581  26.191  1.00  0.00     0.261 C 
BRANCH   4   5
ATOM      5  O   UNL A   1      33.306  27.404  26.644  1.00  0.00    -0.463 OA
BRANCH   5   6
ATOM      6  C   UNL A   1      31.973  27.524  26.844  1.00  0.00     0.306 C 
ATOM      7  O   UNL A   1      31.446  27.804  27.914  1.00  0.00    -0.252 OA
BRANCH   6   8
ATOM      8  C   UNL A   1      31.162  27.239  25.595  1.00  0.00     0.126 C 
BRANCH   8   9
ATOM      9  C   UNL A   1      30.591  25.820  25.381  1.00  0.00     0.003 C 
ATOM     10  N   UNL A   1      31.158  23.000  25.091  1.00  0.00    -0.351 N 
ATOM     11  C   UNL A   1      30.666  23.724  23.933  1.00  0.00     0.118 C 
ATOM     12  C   UNL A   1      30.666  23.454  26.379  1.00  0.00     0.118 C 
ATOM     13  C   UNL A   1      31.027  25.200  24.039  1.00  0.00     0.026 C 
ATOM     14  C   UNL A   1      31.041  24.926  26.561  1.00  0.00     0.026 C 
BRANCH  10  15
ATOM     15  C   UNL A   1      32.177  22.067  24.982  1.00  0.00     0.215 A 
ATOM     16  C   UNL A   1      32.551  18.539  24.444  1.00  0.00     0.180 C 
ATOM     17  N   UNL A   1      32.950  19.911  24.718  1.00  0.00    -0.216 N 
ATOM     18  N   UNL A   1      31.915  20.802  24.823  1.00  0.00    -0.145 NA
ATOM     19  C   UNL A   1      34.295  20.224  24.895  1.00  0.00     0.346 A 
ATOM     20  N   UNL A   1      34.584  21.553  25.138  1.00  0.00    -0.259 N 
ATOM     21  O   UNL A   1      35.184  19.373  24.819  1.00  0.00    -0.246 OA
ATOM     22  C   UNL A   1      33.630  22.545  25.087  1.00  0.00     0.299 A 
ATOM     23  C   UNL A   1      35.949  21.957  25.392  1.00  0.00     0.159 C 
ATOM     24  O   UNL A   1      33.869  23.748  25.140  1.00  0.00    -0.265 OA
ENDBRANCH  10  15
ENDBRANCH   8   9
ENDBRANCH   6   8
ENDBRANCH   5   6
ENDBRANCH   4   5
ENDBRANCH   3   4
ENDBRANCH   2   3
ENDBRANCH   1   2
BRANCH   1  25
ATOM     25  C   UNL A   1      34.967  31.857  29.611  1.00  0.00     0.261 C 
BRANCH  25  26
ATOM     26  O   UNL A   1      36.306  31.805  30.136  1.00  0.00    -0.460 OA
BRANCH  26  27
ATOM     27  C   UNL A   1      36.727  30.565  30.487  1.00  0.00     0.338 C 
ATOM     28  O   UNL A   1      36.044  29.658  30.945  1.00  0.00    -0.246 OA
BRANCH  27  29
ATOM     29  C   UNL A   1      38.121  30.362  30.054  1.00  0.00     0.060 A 
ATOM     30  C   UNL A   1      38.364  30.273  28.678  1.00  0.00     0.016 A 
ATOM     31  C   UNL A   1      39.164  30.199  30.969  1.00  0.00     0.016 A 
ATOM     32  C   UNL A   1      39.644  29.985  28.210  1.00  0.00     0.010 A 
ATOM     33  C   UNL A   1      40.449  29.903  30.497  1.00  0.00     0.010 A 
ATOM     34  C   UNL A   1      40.690  29.765  29.118  1.00  0.00    -0.014 A 
BRANCH  34  35
ATOM     35  C   UNL A   1      41.998  29.277  28.611  1.00  0.00     0.031 A 
ATOM     36  C   UNL A   1      43.165  30.225  28.552  1.00  0.00     0.074 A 
ATOM     37  C   UNL A   1      42.158  27.985  28.268  1.00  0.00     0.049 A 
ATOM     38  N   UNL A   1      44.396  29.998  28.170  1.00  0.00    -0.248 NA
ATOM     39  C   UNL A   1      42.914  31.611  28.980  1.00  0.00     0.031 C 
ATOM     40  C   UNL A   1      41.114  26.964  28.325  1.00  0.00     0.029 A 
ATOM     41  N   UNL A   1      43.264  27.310  27.813  1.00  0.00    -0.354 N 
ATOM     42  C   UNL A   1      45.067  31.206  28.320  1.00  0.00     0.074 A 
ATOM     43  C   UNL A   1      44.098  32.174  28.785  1.00  0.00     0.031 C 
ATOM     44  C   UNL A   1      41.631  25.788  27.930  1.00  0.00     0.029 A 
ATOM     45  C   UNL A   1      43.034  25.977  27.562  1.00  0.00     0.049 A 
ATOM     46  H   UNL A   1      44.139  27.739  27.679  1.00  0.00     0.167 HD
ATOM     47  C   UNL A   1      46.377  31.477  28.109  1.00  0.00     0.037 A 
ATOM     48  C   UNL A   1      43.856  25.022  27.084  1.00  0.00     0.037 A 
ATOM     49  C   UNL A   1      47.337  30.509  27.646  1.00  0.00     0.049 A 
ATOM     50  C   UNL A   1      45.290  25.368  26.773  1.00  0.00     0.074 A 
ATOM     51  C   UNL A   1      48.687  30.688  27.405  1.00  0.00     0.029 A 
ATOM     52  N   UNL A   1      47.050  29.184  27.351  1.00  0.00    -0.354 N 
ATOM     53  N   UNL A   1      45.914  26.511  26.936  1.00  0.00    -0.248 NA
ATOM     54  C   UNL A   1      46.132  24.299  26.216  1.00  0.00     0.031 C 
ATOM     55  C   UNL A   1      49.206  29.488  26.912  1.00  0.00     0.029 A 
ATOM     56  C   UNL A   1      48.193  28.542  26.905  1.00  0.00     0.049 A 
ATOM     57  H   UNL A   1      46.165  28.762  27.444  1.00  0.00     0.167 HD
ATOM     58  C   UNL A   1      47.228  26.290  26.533  1.00  0.00     0.074 A 
ATOM     59  C   UNL A   1      47.310  24.905  26.120  1.00  0.00     0.031 C 
ATOM     60  C   UNL A   1      48.270  27.156  26.514  1.00  0.00     0.037 A 
BRANCH  47  61
ATOM     61  C   UNL A   1      46.857  32.879  28.368  1.00  0.00     0.058 A 
ATOM     62  C   UNL A   1      47.399  33.252  29.607  1.00  0.00     0.135 A 
ATOM     63  C   UNL A   1      46.838  33.841  27.345  1.00  0.00     0.135 A 
ATOM     64  F   UNL A   1      47.428  32.378  30.625  1.00  0.00    -0.206 F 
ATOM     65  C   UNL A   1      47.889  34.535  29.830  1.00  0.00     0.059 A 
ATOM     66  C   UNL A   1      47.348  35.122  27.537  1.00  0.00     0.059 A 
ATOM     67  F   UNL A   1      46.329  33.537  26.140  1.00  0.00    -0.206 F 
ATOM     68  C   UNL A   1      47.864  35.462  28.786  1.00  0.00     0.060 A 
BRANCH  68  69
ATOM     69  S   UNL A   1      48.521  37.116  29.090  1.00  0.00     0.124 S 
ATOM     70  O   UNL A   1      47.958  37.417  30.403  1.00  0.00    -0.237 OA
ATOM     71  O   UNL A   1      49.962  36.888  29.055  1.00  0.00    -0.237 OA
ATOM     72  O   UNL A   1      47.985  37.904  27.984  1.00  0.00    -0.744 OA
ENDBRANCH  68  69
ENDBRANCH  47  61
BRANCH  48  73
ATOM     73  C   UNL A   1      43.343  23.639  26.881  1.00  0.00     0.058 A 
ATOM     74  C   UNL A   1      43.038  23.162  25.599  1.00  0.00     0.135 A 
ATOM     75  C   UNL A   1      43.174  22.760  27.963  1.00  0.00     0.135 A 
ATOM     76  F   UNL A   1      43.171  23.967  24.534  1.00  0.00    -0.206 F 
ATOM     77  C   UNL A   1      42.580  21.863  25.394  1.00  0.00     0.059 A 
ATOM     78  C   UNL A   1      42.743  21.450  27.781  1.00  0.00     0.059 A 
ATOM     79  F   UNL A   1      43.460  23.165  29.210  1.00  0.00    -0.206 F 
ATOM     80  C   UNL A   1      42.445  21.011  26.492  1.00  0.00     0.060 A 
BRANCH  80  81
ATOM     81  S   UNL A   1      41.913  19.310  26.204  1.00  0.00     0.124 S 
ATOM     82  O   UNL A   1      42.268  18.671  27.465  1.00  0.00    -0.237 OA
ATOM     83  O   UNL A   1      40.486  19.478  25.951  1.00  0.00    -0.237 OA
ATOM     84  O   UNL A   1      42.704  18.903  25.046  1.00  0.00    -0.744 OA
ENDBRANCH  80  81
ENDBRANCH  48  73
BRANCH  60  85
ATOM     85  C   UNL A   1      49.613  26.647  26.065  1.00  0.00     0.058 A 
ATOM     86  C   UNL A   1      50.094  26.879  24.769  1.00  0.00     0.135 A 
ATOM     87  C   UNL A   1      50.479  26.032  26.986  1.00  0.00     0.135 A 
ATOM     88  F   UNL A   1      49.306  27.456  23.848  1.00  0.00    -0.206 F 
ATOM     89  C   UNL A   1      51.390  26.526  24.401  1.00  0.00     0.059 A 
ATOM     90  C   UNL A   1      51.786  25.695  26.648  1.00  0.00     0.059 A 
ATOM     91  F   UNL A   1      50.070  25.794  28.242  1.00  0.00    -0.206 F 
ATOM     92  C   UNL A   1      52.232  25.948  25.352  1.00  0.00     0.060 A 
BRANCH  92  93
ATOM     93  S   UNL A   1      53.936  25.577  24.882  1.00  0.00     0.124 S 
ATOM     94  O   UNL A   1      53.969  26.040  23.499  1.00  0.00    -0.237 OA
ATOM     95  O   UNL A   1      54.700  26.375  25.836  1.00  0.00    -0.237 OA
ATOM     96  O   UNL A   1      54.034  24.132  25.061  1.00  0.00    -0.744 OA
ENDBRANCH  92  93
ENDBRANCH  60  85
ENDBRANCH  34  35
ENDBRANCH  27  29
ENDBRANCH  26  27
ENDBRANCH  25  26
ENDBRANCH   1  25
TORSDOF 19
ENDMDL
MODEL 2
REMARK VINA RESULT:     -10.7      6.379     11.981
REMARK SMILES Cn1nc(N2CCC(CC(=O)OCCOCCOC(=O)c3ccc(-c4c5nc(c(-c6c(F)cc(S(=O)(=O)[O-])cc6F)c6ccc([nH]6)c(-c6c(F)cc(S(=O)(=O)[O-])cc6F)c6nc(c(-c7c(F)cc(S(=O)(=O)[O-])cc7F)c7ccc4[nH]7)C=C6)C=C5)cc3)CC2)c(=O)n(C)c1=O
REMARK SMILES IDX 16 1 15 2 14 3 13 4 12 5 10 6 11 7 9 8 8 9 5 10 6 11 88 12
REMARK SMILES IDX 7 13 87 14 4 15 1 16 2 17 3 18 93 19 91 20 94 21 89 22 92 23
REMARK SMILES IDX 90 24 17 25 18 26 19 27 20 28 21 29 22 30 86 31 23 32 85 33
REMARK SMILES IDX 24 34 25 35 26 36 79 37 27 38 84 39 78 40 80 41 28 42 83 43
REMARK SMILES IDX 77 44 76 45 29 47 63 48 42 49 62 50 43 51 46 52 61 53 81 54
REMARK SMILES IDX 44 55 45 56 60 58 82 59 47 60 30 61 31 62 40 63 32 64 33 65
REMARK SMILES IDX 39 66 41 67 34 68 35 69 36 70 37 71 38 72 64 73 65 74 74 75
REMARK SMILES IDX 66 76 67 77 73 78 75 79 68 80 69 81 70 82 71 83 72 84 48 85
REMARK SMILES IDX 49 86 58 87 50 88 51 89 57 90 59 91 52 92 53 93 54 94 55 95
REMARK SMILES IDX 56 96
REMARK H PARENT 80 46 46 57
REMARK Flexibility Score: inf
ROOT
ATOM      1  C   UNL A   1      39.881  21.653  26.630  1.00  0.00     0.202 C 
ENDROOT
BRANCH   1   2
ATOM      2  O   UNL A   1      38.632  22.112  26.120  1.00  0.00    -0.374 OA
BRANCH   2   3
ATOM      3  C   UNL A   1      38.009  21.324  25.105  1.00  0.00     0.202 C 
BRANCH   3   4
ATOM      4  C   UNL A   1      36.518  21.023  25.289  1.00  0.00     0.261 C 
BRANCH   4   5
ATOM      5  O   UNL A   1      35.844  22.114  25.943  1.00  0.00    -0.463 OA
BRANCH   5   6
ATOM      6  C   UNL A   1      34.495  22.033  26.025  1.00  0.00     0.306 C 
ATOM      7  O   UNL A   1      33.823  22.439  26.966  1.00  0.00    -0.252 OA
BRANCH   6   8
ATOM      8  C   UNL A   1      33.873  21.343  24.827  1.00  0.00     0.126 C 
BRANCH   8   9
ATOM      9  C   UNL A   1      33.099  22.190  23.794  1.00  0.00     0.003 C 
ATOM     10  N   UNL A   1      32.022  24.785  23.111  1.00  0.00    -0.351 N 
ATOM     11  C   UNL A   1      31.091  23.713  23.410  1.00  0.00     0.118 C 
ATOM     12  C   UNL A   1      33.264  24.387  22.472  1.00  0.00     0.118 C 
ATOM     13  C   UNL A   1      31.743  22.688  24.330  1.00  0.00     0.026 C 
ATOM     14  C   UNL A   1      33.987  23.387  23.377  1.00  0.00     0.026 C 
BRANCH  10  15
ATOM     15  C   UNL A   1      31.819  26.073  23.580  1.00  0.00     0.215 A 
ATOM     16  C   UNL A   1      32.251  27.930  26.620  1.00  0.00     0.180 C 
ATOM     17  N   UNL A   1      31.852  27.667  25.245  1.00  0.00    -0.216 N 
ATOM     18  N   UNL A   1      32.065  26.382  24.820  1.00  0.00    -0.145 NA
ATOM     19  C   UNL A   1      31.262  28.673  24.486  1.00  0.00     0.346 A 
ATOM     20  N   UNL A   1      30.928  28.339  23.187  1.00  0.00    -0.259 N 
ATOM     21  O   UNL A   1      31.068  29.806  24.932  1.00  0.00    -0.246 OA
ATOM     22  C   UNL A   1      31.263  27.130  22.618  1.00  0.00     0.299 A 
ATOM     23  C   UNL A   1      30.258  29.305  22.345  1.00  0.00     0.159 C 
ATOM     24  O   UNL A   1      31.125  26.854  21.430  1.00  0.00    -0.265 OA
ENDBRANCH  10  15
ENDBRANCH   8   9
ENDBRANCH   6   8
ENDBRANCH   5   6
ENDBRANCH   4   5
ENDBRANCH   3   4
ENDBRANCH   2   3
ENDBRANCH   1   2
BRANCH   1  25
ATOM     25  C   UNL A   1      41.140  22.389  26.152  1.00  0.00     0.261 C 
BRANCH  25  26
ATOM     26  O   UNL A   1      40.974  23.819  26.132  1.00  0.00    -0.460 OA
BRANCH  26  27
ATOM     27  C   UNL A   1      42.052  24.518  26.569  1.00  0.00     0.338 C 
ATOM     28  O   UNL A   1      43.196  24.447  26.142  1.00  0.00    -0.246 OA
BRANCH  27  29
ATOM     29  C   UNL A   1      41.628  25.556  27.525  1.00  0.00     0.060 A 
ATOM     30  C   UNL A   1      42.452  26.679  27.667  1.00  0.00     0.016 A 
ATOM     31  C   UNL A   1      40.484  25.413  28.315  1.00  0.00     0.016 A 
ATOM     32  C   UNL A   1      42.157  27.647  28.624  1.00  0.00     0.010 A 
ATOM     33  C   UNL A   1      40.193  26.384  29.281  1.00  0.00     0.010 A 
ATOM     34  C   UNL A   1      41.043  27.490  29.461  1.00  0.00    -0.014 A 
BRANCH  34  35
ATOM     35  C   UNL A   1      40.851  28.431  30.595  1.00  0.00     0.031 A 
ATOM     36  C   UNL A   1      41.774  28.353  31.780  1.00  0.00     0.074 A 
ATOM     37  C   UNL A   1      39.902  29.383  30.538  1.00  0.00     0.049 A 
ATOM     38  N   UNL A   1      41.799  29.093  32.859  1.00  0.00    -0.248 NA
ATOM     39  C   UNL A   1      42.809  27.306  31.746  1.00  0.00     0.031 C 
ATOM     40  C   UNL A   1      38.977  29.584  29.424  1.00  0.00     0.029 A 
ATOM     41  N   UNL A   1      39.566  30.367  31.435  1.00  0.00    -0.354 N 
ATOM     42  C   UNL A   1      42.852  28.610  33.626  1.00  0.00     0.074 A 
ATOM     43  C   UNL A   1      43.414  27.484  32.912  1.00  0.00     0.031 C 
ATOM     44  C   UNL A   1      38.184  30.635  29.699  1.00  0.00     0.029 A 
ATOM     45  C   UNL A   1      38.523  31.162  31.020  1.00  0.00     0.049 A 
ATOM     46  H   UNL A   1      40.029  30.493  32.294  1.00  0.00     0.167 HD
ATOM     47  C   UNL A   1      43.320  29.074  34.809  1.00  0.00     0.037 A 
ATOM     48  C   UNL A   1      37.905  32.189  31.637  1.00  0.00     0.037 A 
ATOM     49  C   UNL A   1      42.756  30.195  35.515  1.00  0.00     0.049 A 
ATOM     50  C   UNL A   1      38.389  32.635  32.994  1.00  0.00     0.074 A 
ATOM     51  C   UNL A   1      43.162  30.742  36.719  1.00  0.00     0.029 A 
ATOM     52  N   UNL A   1      41.663  30.937  35.087  1.00  0.00    -0.354 N 
ATOM     53  N   UNL A   1      39.396  32.178  33.699  1.00  0.00    -0.248 NA
ATOM     54  C   UNL A   1      37.655  33.734  33.639  1.00  0.00     0.031 C 
ATOM     55  C   UNL A   1      42.284  31.779  37.046  1.00  0.00     0.029 A 
ATOM     56  C   UNL A   1      41.368  31.920  36.016  1.00  0.00     0.049 A 
ATOM     57  H   UNL A   1      41.172  30.786  34.247  1.00  0.00     0.167 HD
ATOM     58  C   UNL A   1      39.437  32.953  34.854  1.00  0.00     0.074 A 
ATOM     59  C   UNL A   1      38.355  33.910  34.754  1.00  0.00     0.031 C 
ATOM     60  C   UNL A   1      40.299  32.880  35.899  1.00  0.00     0.037 A 
BRANCH  47  61
ATOM     61  C   UNL A   1      44.498  28.372  35.426  1.00  0.00     0.058 A 
ATOM     62  C   UNL A   1      44.330  27.300  36.317  1.00  0.00     0.135 A 
ATOM     63  C   UNL A   1      45.809  28.729  35.071  1.00  0.00     0.135 A 
ATOM     64  F   UNL A   1      43.100  26.927  36.703  1.00  0.00    -0.206 F 
ATOM     65  C   UNL A   1      45.420  26.619  36.848  1.00  0.00     0.059 A 
ATOM     66  C   UNL A   1      46.914  28.044  35.569  1.00  0.00     0.059 A 
ATOM     67  F   UNL A   1      46.027  29.748  34.223  1.00  0.00    -0.206 F 
ATOM     68  C   UNL A   1      46.709  26.995  36.464  1.00  0.00     0.060 A 
BRANCH  68  69
ATOM     69  S   UNL A   1      48.109  26.087  37.151  1.00  0.00     0.124 S 
ATOM     70  O   UNL A   1      49.102  27.148  37.297  1.00  0.00    -0.237 OA
ATOM     71  O   UNL A   1      47.556  25.561  38.395  1.00  0.00    -0.237 OA
ATOM     72  O   UNL A   1      48.406  25.089  36.128  1.00  0.00    -0.744 OA
ENDBRANCH  68  69
ENDBRANCH  47  61
BRANCH  48  73
ATOM     73  C   UNL A   1      36.768  32.878  30.968  1.00  0.00     0.058 A 
ATOM     74  C   UNL A   1      35.447  32.670  31.390  1.00  0.00     0.135 A 
ATOM     75  C   UNL A   1      36.982  33.777  29.911  1.00  0.00     0.135 A 
ATOM     76  F   UNL A   1      35.189  31.811  32.388  1.00  0.00    -0.206 F 
ATOM     77  C   UNL A   1      34.378  33.326  30.788  1.00  0.00     0.059 A 
ATOM     78  C   UNL A   1      35.932  34.465  29.310  1.00  0.00     0.059 A 
ATOM     79  F   UNL A   1      38.228  34.019  29.474  1.00  0.00    -0.206 F 
ATOM     80  C   UNL A   1      34.632  34.229  29.754  1.00  0.00     0.060 A 
BRANCH  80  81
ATOM     81  S   UNL A   1      33.241  35.121  29.026  1.00  0.00     0.124 S 
ATOM     82  O   UNL A   1      33.904  36.284  28.448  1.00  0.00    -0.237 OA
ATOM     83  O   UNL A   1      32.718  34.144  28.076  1.00  0.00    -0.237 OA
ATOM     84  O   UNL A   1      32.379  35.392  30.174  1.00  0.00    -0.744 OA
ENDBRANCH  80  81
ENDBRANCH  48  73
BRANCH  60  85
ATOM     85  C   UNL A   1      40.149  33.875  37.017  1.00  0.00     0.058 A 
ATOM     86  C   UNL A   1      40.763  35.135  36.971  1.00  0.00     0.135 A 
ATOM     87  C   UNL A   1      39.275  33.611  38.086  1.00  0.00     0.135 A 
ATOM     88  F   UNL A   1      41.613  35.437  35.976  1.00  0.00    -0.206 F 
ATOM     89  C   UNL A   1      40.512  36.101  37.941  1.00  0.00     0.059 A 
ATOM     90  C   UNL A   1      38.989  34.571  39.052  1.00  0.00     0.059 A 
ATOM     91  F   UNL A   1      38.655  32.423  38.173  1.00  0.00    -0.206 F 
ATOM     92  C   UNL A   1      39.612  35.815  38.969  1.00  0.00     0.060 A 
BRANCH  92  93
ATOM     93  S   UNL A   1      39.232  37.110  40.168  1.00  0.00     0.124 S 
ATOM     94  O   UNL A   1      40.565  37.510  40.605  1.00  0.00    -0.237 OA
ATOM     95  O   UNL A   1      38.514  38.085  39.353  1.00  0.00    -0.237 OA
ATOM     96  O   UNL A   1      38.425  36.423  41.171  1.00  0.00    -0.744 OA
ENDBRANCH  92  93
ENDBRANCH  60  85
ENDBRANCH  34  35
ENDBRANCH  27  29
ENDBRANCH  26  27
ENDBRANCH  25  26
ENDBRANCH   1  25
TORSDOF 19
ENDMDL
MODEL 3
REMARK VINA RESULT:     -10.7      1.199      1.958
REMARK SMILES Cn1nc(N2CCC(CC(=O)OCCOCCOC(=O)c3ccc(-c4c5nc(c(-c6c(F)cc(S(=O)(=O)[O-])cc6F)c6ccc([nH]6)c(-c6c(F)cc(S(=O)(=O)[O-])cc6F)c6nc(c(-c7c(F)cc(S(=O)(=O)[O-])cc7F)c7ccc4[nH]7)C=C6)C=C5)cc3)CC2)c(=O)n(C)c1=O
REMARK SMILES IDX 16 1 15 2 14 3 13 4 12 5 10 6 11 7 9 8 8 9 5 10 6 11 88 12
REMARK SMILES IDX 7 13 87 14 4 15 1 16 2 17 3 18 93 19 91 20 94 21 89 22 92 23
REMARK SMILES IDX 90 24 17 25 18 26 19 27 20 28 21 29 22 30 86 31 23 32 85 33
REMARK SMILES IDX 24 34 25 35 26 36 79 37 27 38 84 39 78 40 80 41 28 42 83 43
REMARK SMILES IDX 77 44 76 45 29 47 63 48 42 49 62 50 43 51 46 52 61 53 81 54
REMARK SMILES IDX 44 55 45 56 60 58 82 59 47 60 30 61 31 62 40 63 32 64 33 65
REMARK SMILES IDX 39 66 41 67 34 68 35 69 36 70 37 71 38 72 64 73 65 74 74 75
REMARK SMILES IDX 66 76 67 77 73 78 75 79 68 80 69 81 70 82 71 83 72 84 48 85
REMARK SMILES IDX 49 86 58 87 50 88 51 89 57 90 59 91 52 92 53 93 54 94 55 95
REMARK SMILES IDX 56 96
REMARK H PARENT 80 46 46 57
REMARK Flexibility Score: inf
ROOT
ATOM      1  C   UNL A   1      33.558  31.310  27.626  1.00  0.00     0.202 C 
ENDROOT
BRANCH   1   2
ATOM      2  O   UNL A   1      33.486  29.981  27.115  1.00  0.00    -0.374 OA
BRANCH   2   3
ATOM      3  C   UNL A   1      32.204  29.504  26.707  1.00  0.00     0.202 C 
BRANCH   3   4
ATOM      4  C   UNL A   1      31.687  29.999  25.353  1.00  0.00     0.261 C 
BRANCH   4   5
ATOM      5  O   UNL A   1      30.818  29.028  24.741  1.00  0.00    -0.463 OA
BRANCH   5   6
ATOM      6  C   UNL A   1      31.098  28.681  23.463  1.00  0.00     0.306 C 
ATOM      7  O   UNL A   1      30.669  29.256  22.469  1.00  0.00    -0.252 OA
BRANCH   6   8
ATOM      8  C   UNL A   1      31.991  27.460  23.367  1.00  0.00     0.126 C 
BRANCH   8   9
ATOM      9  C   UNL A   1      31.520  26.136  24.008  1.00  0.00     0.003 C 
ATOM     10  N   UNL A   1      32.254  23.492  24.919  1.00  0.00    -0.351 N 
ATOM     11  C   UNL A   1      31.406  23.603  23.747  1.00  0.00     0.118 C 
ATOM     12  C   UNL A   1      32.083  24.523  25.926  1.00  0.00     0.118 C 
ATOM     13  C   UNL A   1      31.640  24.937  23.048  1.00  0.00     0.026 C 
ATOM     14  C   UNL A   1      32.352  25.888  25.289  1.00  0.00     0.026 C 
BRANCH  10  15
ATOM     15  C   UNL A   1      33.291  22.574  24.977  1.00  0.00     0.215 A 
ATOM     16  C   UNL A   1      36.871  22.570  25.231  1.00  0.00     0.180 C 
ATOM     17  N   UNL A   1      35.528  22.028  25.083  1.00  0.00    -0.216 N 
ATOM     18  N   UNL A   1      34.531  22.966  25.023  1.00  0.00    -0.145 NA
ATOM     19  C   UNL A   1      35.340  20.653  24.968  1.00  0.00     0.346 A 
ATOM     20  N   UNL A   1      34.032  20.226  24.845  1.00  0.00    -0.259 N 
ATOM     21  O   UNL A   1      36.280  19.856  24.998  1.00  0.00    -0.246 OA
ATOM     22  C   UNL A   1      32.956  21.079  24.952  1.00  0.00     0.299 A 
ATOM     23  C   UNL A   1      33.749  18.819  24.662  1.00  0.00     0.159 C 
ATOM     24  O   UNL A   1      31.783  20.721  25.005  1.00  0.00    -0.265 OA
ENDBRANCH  10  15
ENDBRANCH   8   9
ENDBRANCH   6   8
ENDBRANCH   5   6
ENDBRANCH   4   5
ENDBRANCH   3   4
ENDBRANCH   2   3
ENDBRANCH   1   2
BRANCH   1  25
ATOM     25  C   UNL A   1      34.878  31.731  28.286  1.00  0.00     0.261 C 
BRANCH  25  26
ATOM     26  O   UNL A   1      35.543  30.637  28.946  1.00  0.00    -0.460 OA
BRANCH  26  27
ATOM     27  C   UNL A   1      36.567  31.005  29.755  1.00  0.00     0.338 C 
ATOM     28  O   UNL A   1      36.493  31.671  30.779  1.00  0.00    -0.246 OA
BRANCH  27  29
ATOM     29  C   UNL A   1      37.806  30.318  29.347  1.00  0.00     0.060 A 
ATOM     30  C   UNL A   1      38.784  30.114  30.328  1.00  0.00     0.016 A 
ATOM     31  C   UNL A   1      38.040  29.937  28.024  1.00  0.00     0.016 A 
ATOM     32  C   UNL A   1      40.014  29.559  29.984  1.00  0.00     0.010 A 
ATOM     33  C   UNL A   1      39.280  29.385  27.679  1.00  0.00     0.010 A 
ATOM     34  C   UNL A   1      40.284  29.221  28.650  1.00  0.00    -0.014 A 
BRANCH  34  35
ATOM     35  C   UNL A   1      41.660  28.808  28.271  1.00  0.00     0.031 A 
ATOM     36  C   UNL A   1      42.765  29.829  28.288  1.00  0.00     0.074 A 
ATOM     37  C   UNL A   1      41.930  27.523  27.976  1.00  0.00     0.049 A 
ATOM     38  N   UNL A   1      44.036  29.675  28.020  1.00  0.00    -0.248 NA
ATOM     39  C   UNL A   1      42.391  31.203  28.658  1.00  0.00     0.031 C 
ATOM     40  C   UNL A   1      40.951  26.437  27.969  1.00  0.00     0.029 A 
ATOM     41  N   UNL A   1      43.111  26.912  27.635  1.00  0.00    -0.354 N 
ATOM     42  C   UNL A   1      44.615  30.925  28.196  1.00  0.00     0.074 A 
ATOM     43  C   UNL A   1      43.550  31.839  28.551  1.00  0.00     0.031 C 
ATOM     44  C   UNL A   1      41.574  25.290  27.650  1.00  0.00     0.029 A 
ATOM     45  C   UNL A   1      42.988  25.562  27.400  1.00  0.00     0.049 A 
ATOM     46  H   UNL A   1      43.967  27.394  27.566  1.00  0.00     0.167 HD
ATOM     47  C   UNL A   1      45.918  31.277  28.092  1.00  0.00     0.037 A 
ATOM     48  C   UNL A   1      43.908  24.653  27.018  1.00  0.00     0.037 A 
ATOM     49  C   UNL A   1      46.974  30.364  27.738  1.00  0.00     0.049 A 
ATOM     50  C   UNL A   1      45.339  25.085  26.823  1.00  0.00     0.074 A 
ATOM     51  C   UNL A   1      48.327  30.625  27.609  1.00  0.00     0.029 A 
ATOM     52  N   UNL A   1      46.798  29.017  27.453  1.00  0.00    -0.354 N 
ATOM     53  N   UNL A   1      45.874  26.269  27.010  1.00  0.00    -0.248 NA
ATOM     54  C   UNL A   1      46.292  24.062  26.368  1.00  0.00     0.031 C 
ATOM     55  C   UNL A   1      48.961  29.452  27.194  1.00  0.00     0.029 A 
ATOM     56  C   UNL A   1      48.014  28.443  27.124  1.00  0.00     0.049 A 
ATOM     57  H   UNL A   1      45.937  28.542  27.480  1.00  0.00     0.167 HD
ATOM     58  C   UNL A   1      47.228  26.125  26.727  1.00  0.00     0.074 A 
ATOM     59  C   UNL A   1      47.434  24.740  26.358  1.00  0.00     0.031 C 
ATOM     60  C   UNL A   1      48.212  27.057  26.776  1.00  0.00     0.037 A 
BRANCH  47  61
ATOM     61  C   UNL A   1      46.285  32.712  28.355  1.00  0.00     0.058 A 
ATOM     62  C   UNL A   1      46.625  33.159  29.641  1.00  0.00     0.135 A 
ATOM     63  C   UNL A   1      46.364  33.635  27.299  1.00  0.00     0.135 A 
ATOM     64  F   UNL A   1      46.552  32.324  30.689  1.00  0.00    -0.206 F 
ATOM     65  C   UNL A   1      47.012  34.474  29.875  1.00  0.00     0.059 A 
ATOM     66  C   UNL A   1      46.776  34.949  27.505  1.00  0.00     0.059 A 
ATOM     67  F   UNL A   1      46.049  33.260  26.048  1.00  0.00    -0.206 F 
ATOM     68  C   UNL A   1      47.090  35.361  28.799  1.00  0.00     0.060 A 
BRANCH  68  69
ATOM     69  S   UNL A   1      47.611  37.059  29.121  1.00  0.00     0.124 S 
ATOM     70  O   UNL A   1      47.200  37.729  27.891  1.00  0.00    -0.237 OA
ATOM     71  O   UNL A   1      46.843  37.397  30.315  1.00  0.00    -0.237 OA
ATOM     72  O   UNL A   1      49.053  36.942  29.318  1.00  0.00    -0.744 OA
ENDBRANCH  68  69
ENDBRANCH  47  61
BRANCH  48  73
ATOM     73  C   UNL A   1      43.503  23.236  26.808  1.00  0.00     0.058 A 
ATOM     74  C   UNL A   1      43.405  22.696  25.517  1.00  0.00     0.135 A 
ATOM     75  C   UNL A   1      43.232  22.388  27.893  1.00  0.00     0.135 A 
ATOM     76  F   UNL A   1      43.642  23.469  24.447  1.00  0.00    -0.206 F 
ATOM     77  C   UNL A   1      43.050  21.366  25.309  1.00  0.00     0.059 A 
ATOM     78  C   UNL A   1      42.901  21.049  27.711  1.00  0.00     0.059 A 
ATOM     79  F   UNL A   1      43.320  22.853  29.149  1.00  0.00    -0.206 F 
ATOM     80  C   UNL A   1      42.809  20.547  26.414  1.00  0.00     0.060 A 
BRANCH  80  81
ATOM     81  S   UNL A   1      42.414  18.809  26.130  1.00  0.00     0.124 S 
ATOM     82  O   UNL A   1      41.008  18.883  25.750  1.00  0.00    -0.237 OA
ATOM     83  O   UNL A   1      43.347  18.457  25.064  1.00  0.00    -0.237 OA
ATOM     84  O   UNL A   1      42.686  18.187  27.423  1.00  0.00    -0.744 OA
ENDBRANCH  80  81
ENDBRANCH  48  73
BRANCH  60  85
ATOM     85  C   UNL A   1      49.618  26.627  26.458  1.00  0.00     0.058 A 
ATOM     86  C   UNL A   1      50.468  26.101  27.441  1.00  0.00     0.135 A 
ATOM     87  C   UNL A   1      50.073  26.623  25.128  1.00  0.00     0.135 A 
ATOM     88  F   UNL A   1      50.087  26.087  28.728  1.00  0.00    -0.206 F 
ATOM     89  C   UNL A   1      51.717  25.578  27.117  1.00  0.00     0.059 A 
ATOM     90  C   UNL A   1      51.306  26.083  24.777  1.00  0.00     0.059 A 
ATOM     91  F   UNL A   1      49.295  27.109  24.147  1.00  0.00    -0.206 F 
ATOM     92  C   UNL A   1      52.121  25.561  25.781  1.00  0.00     0.060 A 
BRANCH  92  93
ATOM     93  S   UNL A   1      53.706  24.800  25.369  1.00  0.00     0.124 S 
ATOM     94  O   UNL A   1      54.155  25.635  24.260  1.00  0.00    -0.237 OA
ATOM     95  O   UNL A   1      54.453  24.947  26.614  1.00  0.00    -0.237 OA
ATOM     96  O   UNL A   1      53.347  23.431  25.016  1.00  0.00    -0.744 OA
ENDBRANCH  92  93
ENDBRANCH  60  85
ENDBRANCH  34  35
ENDBRANCH  27  29
ENDBRANCH  26  27
ENDBRANCH  25  26
ENDBRANCH   1  25
TORSDOF 19
ENDMDL
