MODEL 1
REMARK VINA RESULT:     -10.4      0.000      0.000
REMARK SMILES C[C@@H](C(=O)OCCOCCOC(=O)c1ccc(-c2c3nc(c(-c4c(F)cc(S(=O)(=O)[O-])cc4F)c4ccc([nH]4)c(-c4c(F)cc(S(=O)(=O)[O-])cc4F)c4nc(c(-c5c(F)cc(S(=O)(=O)[O-])cc5F)c5ccc2[nH]5)C=C4)C=C3)cc1)c1ccn(C(F)F)c(=O)c1
REMARK SMILES IDX 9 1 8 2 7 3 6 4 5 5 3 6 4 7 2 8 1 9 80 10 81 11 89 12 82 13
REMARK SMILES IDX 87 14 83 15 88 16 84 17 85 18 86 19 10 20 11 21 12 22 13 23
REMARK SMILES IDX 14 24 15 25 79 26 16 27 78 28 17 29 18 30 19 31 72 32 20 33
REMARK SMILES IDX 77 34 71 35 73 36 21 37 76 38 70 39 69 40 22 42 56 43 35 44
REMARK SMILES IDX 55 45 36 46 39 47 54 48 74 49 37 50 38 51 53 53 75 54 40 55
REMARK SMILES IDX 23 56 24 57 33 58 25 59 26 60 32 61 34 62 27 63 28 64 29 65
REMARK SMILES IDX 30 66 31 67 57 68 58 69 67 70 59 71 60 72 66 73 68 74 61 75
REMARK SMILES IDX 62 76 63 77 64 78 65 79 41 80 42 81 51 82 43 83 44 84 50 85
REMARK SMILES IDX 52 86 45 87 46 88 47 89 48 90 49 91
REMARK H PARENT 73 41 39 52
REMARK Flexibility Score: inf
ROOT
ATOM      1  C   UNL A   1      39.826  21.812  26.567  1.00  0.00     0.202 C 
ENDROOT
BRANCH   1   2
ATOM      2  O   UNL A   1      40.362  20.606  27.103  1.00  0.00    -0.374 OA
BRANCH   2   3
ATOM      3  C   UNL A   1      40.815  19.626  26.162  1.00  0.00     0.202 C 
BRANCH   3   4
ATOM      4  C   UNL A   1      42.286  19.216  26.282  1.00  0.00     0.261 C 
BRANCH   4   5
ATOM      5  O   UNL A   1      43.076  19.856  25.258  1.00  0.00    -0.463 OA
BRANCH   5   6
ATOM      6  C   UNL A   1      44.308  19.325  25.040  1.00  0.00     0.313 C 
ATOM      7  O   UNL A   1      44.628  18.181  25.345  1.00  0.00    -0.252 OA
BRANCH   6   8
ATOM      8  C   UNL A   1      45.273  20.317  24.368  1.00  0.00     0.126 C 
ATOM      9  C   UNL A   1      46.755  19.928  24.385  1.00  0.00     0.025 C 
BRANCH   8  10
ATOM     10  C   UNL A   1      44.997  21.693  24.969  1.00  0.00    -0.027 A 
ATOM     11  C   UNL A   1      44.246  22.683  24.218  1.00  0.00     0.023 A 
ATOM     12  C   UNL A   1      45.542  22.059  26.144  1.00  0.00     0.076 A 
ATOM     13  C   UNL A   1      44.221  23.962  24.611  1.00  0.00     0.095 A 
ATOM     14  C   UNL A   1      45.467  23.466  26.629  1.00  0.00     0.255 A 
ATOM     15  N   UNL A   1      44.849  24.363  25.773  1.00  0.00    -0.258 N 
ATOM     16  O   UNL A   1      45.968  23.743  27.715  1.00  0.00    -0.269 OA
BRANCH  15  17
ATOM     17  C   UNL A   1      44.869  25.750  26.152  1.00  0.00     0.451 C 
ATOM     18  F   UNL A   1      46.124  26.256  26.098  1.00  0.00    -0.185 F 
ATOM     19  F   UNL A   1      44.082  26.496  25.336  1.00  0.00    -0.185 F 
ENDBRANCH  15  17
ENDBRANCH   8  10
ENDBRANCH   6   8
ENDBRANCH   5   6
ENDBRANCH   4   5
ENDBRANCH   3   4
ENDBRANCH   2   3
ENDBRANCH   1   2
BRANCH   1  20
ATOM     20  C   UNL A   1      40.725  23.053  26.623  1.00  0.00     0.261 C 
BRANCH  20  21
ATOM     21  O   UNL A   1      39.973  24.273  26.572  1.00  0.00    -0.460 OA
BRANCH  21  22
ATOM     22  C   UNL A   1      40.727  25.380  26.364  1.00  0.00     0.338 C 
ATOM     23  O   UNL A   1      41.148  25.790  25.289  1.00  0.00    -0.246 OA
BRANCH  22  24
ATOM     24  C   UNL A   1      40.841  26.163  27.606  1.00  0.00     0.060 A 
ATOM     25  C   UNL A   1      39.806  26.033  28.540  1.00  0.00     0.016 A 
ATOM     26  C   UNL A   1      41.895  27.053  27.833  1.00  0.00     0.016 A 
ATOM     27  C   UNL A   1      39.788  26.833  29.678  1.00  0.00     0.010 A 
ATOM     28  C   UNL A   1      41.871  27.863  28.974  1.00  0.00     0.010 A 
ATOM     29  C   UNL A   1      40.798  27.783  29.880  1.00  0.00    -0.014 A 
BRANCH  29  30
ATOM     30  C   UNL A   1      40.634  28.792  30.955  1.00  0.00     0.031 A 
ATOM     31  C   UNL A   1      41.557  28.742  32.143  1.00  0.00     0.074 A 
ATOM     32  C   UNL A   1      39.713  29.766  30.849  1.00  0.00     0.049 A 
ATOM     33  N   UNL A   1      41.599  29.520  33.192  1.00  0.00    -0.248 NA
ATOM     34  C   UNL A   1      42.567  27.671  32.147  1.00  0.00     0.031 C 
ATOM     35  C   UNL A   1      38.793  29.939  29.726  1.00  0.00     0.029 A 
ATOM     36  N   UNL A   1      39.403  30.795  31.702  1.00  0.00    -0.354 N 
ATOM     37  C   UNL A   1      42.632  29.033  33.984  1.00  0.00     0.074 A 
ATOM     38  C   UNL A   1      43.174  27.874  33.307  1.00  0.00     0.031 C 
ATOM     39  C   UNL A   1      38.015  31.011  29.963  1.00  0.00     0.029 A 
ATOM     40  C   UNL A   1      38.366  31.582  31.262  1.00  0.00     0.049 A 
ATOM     41  H   UNL A   1      39.880  30.956  32.548  1.00  0.00     0.167 HD
ATOM     42  C   UNL A   1      43.095  29.513  35.162  1.00  0.00     0.037 A 
ATOM     43  C   UNL A   1      37.759  32.632  31.851  1.00  0.00     0.037 A 
ATOM     44  C   UNL A   1      42.555  30.671  35.828  1.00  0.00     0.049 A 
ATOM     45  C   UNL A   1      38.251  33.111  33.191  1.00  0.00     0.074 A 
ATOM     46  C   UNL A   1      42.970  31.251  37.013  1.00  0.00     0.029 A 
ATOM     47  N   UNL A   1      41.482  31.418  35.369  1.00  0.00    -0.354 N 
ATOM     48  N   UNL A   1      39.246  32.656  33.916  1.00  0.00    -0.248 NA
ATOM     49  C   UNL A   1      37.541  34.248  33.793  1.00  0.00     0.031 C 
ATOM     50  C   UNL A   1      42.116  32.323  37.295  1.00  0.00     0.029 A 
ATOM     51  C   UNL A   1      41.201  32.440  36.261  1.00  0.00     0.049 A 
ATOM     52  H   UNL A   1      40.991  31.249  34.532  1.00  0.00     0.167 HD
ATOM     53  C   UNL A   1      39.298  33.467  35.045  1.00  0.00     0.074 A 
ATOM     54  C   UNL A   1      38.240  34.446  34.903  1.00  0.00     0.031 C 
ATOM     55  C   UNL A   1      40.147  33.410  36.101  1.00  0.00     0.037 A 
BRANCH  42  56
ATOM     56  C   UNL A   1      44.223  28.770  35.822  1.00  0.00     0.058 A 
ATOM     57  C   UNL A   1      43.989  27.711  36.713  1.00  0.00     0.135 A 
ATOM     58  C   UNL A   1      45.556  29.105  35.536  1.00  0.00     0.135 A 
ATOM     59  F   UNL A   1      42.734  27.363  37.037  1.00  0.00    -0.206 F 
ATOM     60  C   UNL A   1      45.039  27.027  37.319  1.00  0.00     0.059 A 
ATOM     61  C   UNL A   1      46.621  28.418  36.109  1.00  0.00     0.059 A 
ATOM     62  F   UNL A   1      45.834  30.113  34.693  1.00  0.00    -0.206 F 
ATOM     63  C   UNL A   1      46.352  27.390  37.011  1.00  0.00     0.060 A 
BRANCH  63  64
ATOM     64  S   UNL A   1      47.705  26.494  37.804  1.00  0.00     0.124 S 
ATOM     65  O   UNL A   1      47.102  25.180  38.009  1.00  0.00    -0.237 OA
ATOM     66  O   UNL A   1      48.756  26.557  36.793  1.00  0.00    -0.237 OA
ATOM     67  O   UNL A   1      47.958  27.263  39.017  1.00  0.00    -0.744 OA
ENDBRANCH  63  64
ENDBRANCH  42  56
BRANCH  43  68
ATOM     68  C   UNL A   1      36.612  33.298  31.179  1.00  0.00     0.058 A 
ATOM     69  C   UNL A   1      35.301  33.135  31.649  1.00  0.00     0.135 A 
ATOM     70  C   UNL A   1      36.806  34.112  30.052  1.00  0.00     0.135 A 
ATOM     71  F   UNL A   1      35.063  32.356  32.716  1.00  0.00    -0.206 F 
ATOM     72  C   UNL A   1      34.220  33.746  31.021  1.00  0.00     0.059 A 
ATOM     73  C   UNL A   1      35.745  34.754  29.422  1.00  0.00     0.059 A 
ATOM     74  F   UNL A   1      38.043  34.309  29.569  1.00  0.00    -0.206 F 
ATOM     75  C   UNL A   1      34.454  34.557  29.908  1.00  0.00     0.060 A 
BRANCH  75  76
ATOM     76  S   UNL A   1      33.052  35.389  29.132  1.00  0.00     0.124 S 
ATOM     77  O   UNL A   1      32.624  34.394  28.156  1.00  0.00    -0.237 OA
ATOM     78  O   UNL A   1      32.156  35.602  30.263  1.00  0.00    -0.237 OA
ATOM     79  O   UNL A   1      33.648  36.602  28.579  1.00  0.00    -0.744 OA
ENDBRANCH  75  76
ENDBRANCH  43  68
BRANCH  55  80
ATOM     80  C   UNL A   1      39.990  34.453  37.174  1.00  0.00     0.058 A 
ATOM     81  C   UNL A   1      40.687  35.671  37.126  1.00  0.00     0.135 A 
ATOM     82  C   UNL A   1      39.090  34.252  38.233  1.00  0.00     0.135 A 
ATOM     83  F   UNL A   1      41.563  35.909  36.138  1.00  0.00    -0.206 F 
ATOM     84  C   UNL A   1      40.511  36.645  38.103  1.00  0.00     0.059 A 
ATOM     85  C   UNL A   1      38.880  35.223  39.206  1.00  0.00     0.059 A 
ATOM     86  F   UNL A   1      38.390  33.110  38.318  1.00  0.00    -0.206 F 
ATOM     87  C   UNL A   1      39.604  36.413  39.139  1.00  0.00     0.060 A 
BRANCH  87  88
ATOM     88  S   UNL A   1      39.359  37.700  40.382  1.00  0.00     0.124 S 
ATOM     89  O   UNL A   1      38.129  38.330  39.913  1.00  0.00    -0.237 OA
ATOM     90  O   UNL A   1      39.245  36.927  41.615  1.00  0.00    -0.237 OA
ATOM     91  O   UNL A   1      40.565  38.514  40.269  1.00  0.00    -0.744 OA
ENDBRANCH  87  88
ENDBRANCH  55  80
ENDBRANCH  29  30
ENDBRANCH  22  24
ENDBRANCH  21  22
ENDBRANCH  20  21
ENDBRANCH   1  20
TORSDOF 19
ENDMDL
MODEL 2
REMARK VINA RESULT:     -10.3      4.028      5.767
REMARK SMILES C[C@@H](C(=O)OCCOCCOC(=O)c1ccc(-c2c3nc(c(-c4c(F)cc(S(=O)(=O)[O-])cc4F)c4ccc([nH]4)c(-c4c(F)cc(S(=O)(=O)[O-])cc4F)c4nc(c(-c5c(F)cc(S(=O)(=O)[O-])cc5F)c5ccc2[nH]5)C=C4)C=C3)cc1)c1ccn(C(F)F)c(=O)c1
REMARK SMILES IDX 9 1 8 2 7 3 6 4 5 5 3 6 4 7 2 8 1 9 80 10 81 11 89 12 82 13
REMARK SMILES IDX 87 14 83 15 88 16 84 17 85 18 86 19 10 20 11 21 12 22 13 23
REMARK SMILES IDX 14 24 15 25 79 26 16 27 78 28 17 29 18 30 19 31 72 32 20 33
REMARK SMILES IDX 77 34 71 35 73 36 21 37 76 38 70 39 69 40 22 42 56 43 35 44
REMARK SMILES IDX 55 45 36 46 39 47 54 48 74 49 37 50 38 51 53 53 75 54 40 55
REMARK SMILES IDX 23 56 24 57 33 58 25 59 26 60 32 61 34 62 27 63 28 64 29 65
REMARK SMILES IDX 30 66 31 67 57 68 58 69 67 70 59 71 60 72 66 73 68 74 61 75
REMARK SMILES IDX 62 76 63 77 64 78 65 79 41 80 42 81 51 82 43 83 44 84 50 85
REMARK SMILES IDX 52 86 45 87 46 88 47 89 48 90 49 91
REMARK H PARENT 73 41 39 52
REMARK Flexibility Score: inf
ROOT
ATOM      1  C   UNL A   1      39.575  21.463  26.178  1.00  0.00     0.202 C 
ENDROOT
BRANCH   1   2
ATOM      2  O   UNL A   1      38.515  21.039  25.327  1.00  0.00    -0.374 OA
BRANCH   2   3
ATOM      3  C   UNL A   1      37.453  21.972  25.104  1.00  0.00     0.202 C 
BRANCH   3   4
ATOM      4  C   UNL A   1      36.059  21.516  25.545  1.00  0.00     0.261 C 
BRANCH   4   5
ATOM      5  O   UNL A   1      35.084  21.802  24.520  1.00  0.00    -0.463 OA
BRANCH   5   6
ATOM      6  C   UNL A   1      33.931  22.385  24.944  1.00  0.00     0.313 C 
ATOM      7  O   UNL A   1      33.867  23.189  25.869  1.00  0.00    -0.252 OA
BRANCH   6   8
ATOM      8  C   UNL A   1      32.702  21.928  24.141  1.00  0.00     0.126 C 
ATOM      9  C   UNL A   1      31.392  22.661  24.444  1.00  0.00     0.025 C 
BRANCH   8  10
ATOM     10  C   UNL A   1      32.603  20.412  24.292  1.00  0.00    -0.027 A 
ATOM     11  C   UNL A   1      32.728  19.797  25.602  1.00  0.00     0.023 A 
ATOM     12  C   UNL A   1      32.521  19.612  23.213  1.00  0.00     0.076 A 
ATOM     13  C   UNL A   1      32.904  18.475  25.719  1.00  0.00     0.095 A 
ATOM     14  C   UNL A   1      32.650  18.131  23.334  1.00  0.00     0.255 A 
ATOM     15  N   UNL A   1      32.905  17.654  24.609  1.00  0.00    -0.258 N 
ATOM     16  O   UNL A   1      32.552  17.447  22.320  1.00  0.00    -0.269 OA
BRANCH  15  17
ATOM     17  C   UNL A   1      33.160  16.245  24.743  1.00  0.00     0.451 C 
ATOM     18  F   UNL A   1      34.098  16.003  25.690  1.00  0.00    -0.185 F 
ATOM     19  F   UNL A   1      32.035  15.571  25.088  1.00  0.00    -0.185 F 
ENDBRANCH  15  17
ENDBRANCH   8  10
ENDBRANCH   6   8
ENDBRANCH   5   6
ENDBRANCH   4   5
ENDBRANCH   3   4
ENDBRANCH   2   3
ENDBRANCH   1   2
BRANCH   1  20
ATOM     20  C   UNL A   1      39.548  22.926  26.638  1.00  0.00     0.261 C 
BRANCH  20  21
ATOM     21  O   UNL A   1      40.678  23.260  27.458  1.00  0.00    -0.460 OA
BRANCH  21  22
ATOM     22  C   UNL A   1      41.347  24.366  27.054  1.00  0.00     0.338 C 
ATOM     23  O   UNL A   1      42.062  24.472  26.064  1.00  0.00    -0.246 OA
BRANCH  22  24
ATOM     24  C   UNL A   1      40.964  25.526  27.878  1.00  0.00     0.060 A 
ATOM     25  C   UNL A   1      41.902  26.559  28.000  1.00  0.00     0.016 A 
ATOM     26  C   UNL A   1      39.750  25.581  28.568  1.00  0.00     0.016 A 
ATOM     27  C   UNL A   1      41.655  27.625  28.859  1.00  0.00     0.010 A 
ATOM     28  C   UNL A   1      39.508  26.652  29.437  1.00  0.00     0.010 A 
ATOM     29  C   UNL A   1      40.476  27.656  29.615  1.00  0.00    -0.014 A 
BRANCH  29  30
ATOM     30  C   UNL A   1      40.342  28.657  30.701  1.00  0.00     0.031 A 
ATOM     31  C   UNL A   1      41.250  28.556  31.897  1.00  0.00     0.074 A 
ATOM     32  C   UNL A   1      39.461  29.668  30.599  1.00  0.00     0.049 A 
ATOM     33  N   UNL A   1      41.312  29.319  32.956  1.00  0.00    -0.248 NA
ATOM     34  C   UNL A   1      42.217  27.447  31.897  1.00  0.00     0.031 C 
ATOM     35  C   UNL A   1      38.559  29.891  29.470  1.00  0.00     0.029 A 
ATOM     36  N   UNL A   1      39.183  30.698  31.462  1.00  0.00    -0.354 N 
ATOM     37  C   UNL A   1      42.318  28.782  33.752  1.00  0.00     0.074 A 
ATOM     38  C   UNL A   1      42.820  27.611  33.065  1.00  0.00     0.031 C 
ATOM     39  C   UNL A   1      37.822  30.990  29.712  1.00  0.00     0.029 A 
ATOM     40  C   UNL A   1      38.182  31.530  31.022  1.00  0.00     0.049 A 
ATOM     41  H   UNL A   1      39.657  30.829  32.315  1.00  0.00     0.167 HD
ATOM     42  C   UNL A   1      42.787  29.229  34.940  1.00  0.00     0.037 A 
ATOM     43  C   UNL A   1      37.611  32.596  31.618  1.00  0.00     0.037 A 
ATOM     44  C   UNL A   1      42.287  30.398  35.615  1.00  0.00     0.049 A 
ATOM     45  C   UNL A   1      38.108  33.039  32.969  1.00  0.00     0.074 A 
ATOM     46  C   UNL A   1      42.712  30.948  36.812  1.00  0.00     0.029 A 
ATOM     47  N   UNL A   1      41.248  31.193  35.156  1.00  0.00    -0.354 N 
ATOM     48  N   UNL A   1      39.077  32.536  33.698  1.00  0.00    -0.248 NA
ATOM     49  C   UNL A   1      37.437  34.195  33.579  1.00  0.00     0.031 C 
ATOM     50  C   UNL A   1      41.898  32.049  37.099  1.00  0.00     0.029 A 
ATOM     51  C   UNL A   1      40.999  32.214  36.058  1.00  0.00     0.049 A 
ATOM     52  H   UNL A   1      40.759  31.054  34.313  1.00  0.00     0.167 HD
ATOM     53  C   UNL A   1      39.150  33.331  34.837  1.00  0.00     0.074 A 
ATOM     54  C   UNL A   1      38.132  34.352  34.698  1.00  0.00     0.031 C 
ATOM     55  C   UNL A   1      39.985  33.227  35.900  1.00  0.00     0.037 A 
BRANCH  42  56
ATOM     56  C   UNL A   1      43.878  28.434  35.601  1.00  0.00     0.058 A 
ATOM     57  C   UNL A   1      43.595  27.401  36.508  1.00  0.00     0.135 A 
ATOM     58  C   UNL A   1      45.226  28.692  35.300  1.00  0.00     0.135 A 
ATOM     59  F   UNL A   1      42.325  27.126  36.846  1.00  0.00    -0.206 F 
ATOM     60  C   UNL A   1      44.612  26.668  37.114  1.00  0.00     0.059 A 
ATOM     61  C   UNL A   1      46.256  27.955  35.874  1.00  0.00     0.059 A 
ATOM     62  F   UNL A   1      45.550  29.672  34.442  1.00  0.00    -0.206 F 
ATOM     63  C   UNL A   1      45.940  26.955  36.792  1.00  0.00     0.060 A 
BRANCH  63  64
ATOM     64  S   UNL A   1      47.248  25.996  37.586  1.00  0.00     0.124 S 
ATOM     65  O   UNL A   1      47.564  26.836  38.738  1.00  0.00    -0.237 OA
ATOM     66  O   UNL A   1      46.575  24.737  37.886  1.00  0.00    -0.237 OA
ATOM     67  O   UNL A   1      48.284  25.922  36.562  1.00  0.00    -0.744 OA
ENDBRANCH  63  64
ENDBRANCH  42  56
BRANCH  43  68
ATOM     68  C   UNL A   1      36.498  33.315  30.944  1.00  0.00     0.058 A 
ATOM     69  C   UNL A   1      36.732  34.131  29.828  1.00  0.00     0.135 A 
ATOM     70  C   UNL A   1      35.177  33.199  31.403  1.00  0.00     0.135 A 
ATOM     71  F   UNL A   1      37.980  34.284  29.358  1.00  0.00    -0.206 F 
ATOM     72  C   UNL A   1      35.698  34.816  29.196  1.00  0.00     0.059 A 
ATOM     73  C   UNL A   1      34.123  33.853  30.774  1.00  0.00     0.059 A 
ATOM     74  F   UNL A   1      34.899  32.421  32.462  1.00  0.00    -0.206 F 
ATOM     75  C   UNL A   1      34.395  34.668  29.677  1.00  0.00     0.060 A 
BRANCH  75  76
ATOM     76  S   UNL A   1      33.053  35.518  28.819  1.00  0.00     0.124 S 
ATOM     77  O   UNL A   1      32.496  34.442  28.008  1.00  0.00    -0.237 OA
ATOM     78  O   UNL A   1      32.223  35.979  29.927  1.00  0.00    -0.237 OA
ATOM     79  O   UNL A   1      33.743  36.573  28.083  1.00  0.00    -0.744 OA
ENDBRANCH  75  76
ENDBRANCH  43  68
BRANCH  55  80
ATOM     80  C   UNL A   1      39.859  34.262  36.986  1.00  0.00     0.058 A 
ATOM     81  C   UNL A   1      40.469  35.521  36.878  1.00  0.00     0.135 A 
ATOM     82  C   UNL A   1      39.072  34.008  38.120  1.00  0.00     0.135 A 
ATOM     83  F   UNL A   1      41.237  35.811  35.816  1.00  0.00    -0.206 F 
ATOM     84  C   UNL A   1      40.320  36.486  37.869  1.00  0.00     0.059 A 
ATOM     85  C   UNL A   1      38.888  34.967  39.110  1.00  0.00     0.059 A 
ATOM     86  F   UNL A   1      38.456  32.823  38.265  1.00  0.00    -0.206 F 
ATOM     87  C   UNL A   1      39.525  36.200  38.981  1.00  0.00     0.060 A 
BRANCH  87  88
ATOM     88  S   UNL A   1      39.311  37.474  40.243  1.00  0.00     0.124 S 
ATOM     89  O   UNL A   1      38.310  38.336  39.623  1.00  0.00    -0.237 OA
ATOM     90  O   UNL A   1      38.856  36.701  41.395  1.00  0.00    -0.237 OA
ATOM     91  O   UNL A   1      40.645  38.051  40.372  1.00  0.00    -0.744 OA
ENDBRANCH  87  88
ENDBRANCH  55  80
ENDBRANCH  29  30
ENDBRANCH  22  24
ENDBRANCH  21  22
ENDBRANCH  20  21
ENDBRANCH   1  20
TORSDOF 19
ENDMDL
MODEL 3
REMARK VINA RESULT:     -10.2      4.053      5.942
REMARK SMILES C[C@@H](C(=O)OCCOCCOC(=O)c1ccc(-c2c3nc(c(-c4c(F)cc(S(=O)(=O)[O-])cc4F)c4ccc([nH]4)c(-c4c(F)cc(S(=O)(=O)[O-])cc4F)c4nc(c(-c5c(F)cc(S(=O)(=O)[O-])cc5F)c5ccc2[nH]5)C=C4)C=C3)cc1)c1ccn(C(F)F)c(=O)c1
REMARK SMILES IDX 9 1 8 2 7 3 6 4 5 5 3 6 4 7 2 8 1 9 80 10 81 11 89 12 82 13
REMARK SMILES IDX 87 14 83 15 88 16 84 17 85 18 86 19 10 20 11 21 12 22 13 23
REMARK SMILES IDX 14 24 15 25 79 26 16 27 78 28 17 29 18 30 19 31 72 32 20 33
REMARK SMILES IDX 77 34 71 35 73 36 21 37 76 38 70 39 69 40 22 42 56 43 35 44
REMARK SMILES IDX 55 45 36 46 39 47 54 48 74 49 37 50 38 51 53 53 75 54 40 55
REMARK SMILES IDX 23 56 24 57 33 58 25 59 26 60 32 61 34 62 27 63 28 64 29 65
REMARK SMILES IDX 30 66 31 67 57 68 58 69 67 70 59 71 60 72 66 73 68 74 61 75
REMARK SMILES IDX 62 76 63 77 64 78 65 79 41 80 42 81 51 82 43 83 44 84 50 85
REMARK SMILES IDX 52 86 45 87 46 88 47 89 48 90 49 91
REMARK H PARENT 73 41 39 52
REMARK Flexibility Score: inf
ROOT
ATOM      1  C   UNL A   1      37.703  22.669  25.437  1.00  0.00     0.202 C 
ENDROOT
BRANCH   1   2
ATOM      2  O   UNL A   1      36.977  23.660  24.717  1.00  0.00    -0.374 OA
BRANCH   2   3
ATOM      3  C   UNL A   1      35.548  23.585  24.778  1.00  0.00     0.202 C 
BRANCH   3   4
ATOM      4  C   UNL A   1      34.917  23.929  26.131  1.00  0.00     0.261 C 
BRANCH   4   5
ATOM      5  O   UNL A   1      34.402  22.741  26.766  1.00  0.00    -0.463 OA
BRANCH   5   6
ATOM      6  C   UNL A   1      33.070  22.745  27.040  1.00  0.00     0.313 C 
ATOM      7  O   UNL A   1      32.600  22.695  28.172  1.00  0.00    -0.252 OA
BRANCH   6   8
ATOM      8  C   UNL A   1      32.203  22.816  25.772  1.00  0.00     0.126 C 
ATOM      9  C   UNL A   1      30.716  23.115  25.991  1.00  0.00     0.025 C 
BRANCH   8  10
ATOM     10  C   UNL A   1      32.457  21.536  24.980  1.00  0.00    -0.027 A 
ATOM     11  C   UNL A   1      32.654  21.591  23.542  1.00  0.00     0.023 A 
ATOM     12  C   UNL A   1      32.381  20.328  25.570  1.00  0.00     0.076 A 
ATOM     13  C   UNL A   1      32.615  20.474  22.805  1.00  0.00     0.095 A 
ATOM     14  C   UNL A   1      32.402  19.070  24.769  1.00  0.00     0.255 A 
ATOM     15  N   UNL A   1      32.454  19.236  23.395  1.00  0.00    -0.258 N 
ATOM     16  O   UNL A   1      32.346  17.996  25.359  1.00  0.00    -0.269 OA
BRANCH  15  17
ATOM     17  C   UNL A   1      32.351  18.050  22.588  1.00  0.00     0.451 C 
ATOM     18  F   UNL A   1      32.182  18.360  21.280  1.00  0.00    -0.185 F 
ATOM     19  F   UNL A   1      33.462  17.280  22.696  1.00  0.00    -0.185 F 
ENDBRANCH  15  17
ENDBRANCH   8  10
ENDBRANCH   6   8
ENDBRANCH   5   6
ENDBRANCH   4   5
ENDBRANCH   3   4
ENDBRANCH   2   3
ENDBRANCH   1   2
BRANCH   1  20
ATOM     20  C   UNL A   1      38.898  23.155  26.267  1.00  0.00     0.261 C 
BRANCH  20  21
ATOM     21  O   UNL A   1      38.896  24.578  26.444  1.00  0.00    -0.460 OA
BRANCH  21  22
ATOM     22  C   UNL A   1      40.130  25.137  26.455  1.00  0.00     0.338 C 
ATOM     23  O   UNL A   1      40.956  25.109  25.551  1.00  0.00    -0.246 OA
BRANCH  22  24
ATOM     24  C   UNL A   1      40.307  25.966  27.660  1.00  0.00     0.060 A 
ATOM     25  C   UNL A   1      39.397  25.773  28.707  1.00  0.00     0.016 A 
ATOM     26  C   UNL A   1      41.292  26.953  27.747  1.00  0.00     0.016 A 
ATOM     27  C   UNL A   1      39.431  26.603  29.822  1.00  0.00     0.010 A 
ATOM     28  C   UNL A   1      41.320  27.793  28.867  1.00  0.00     0.010 A 
ATOM     29  C   UNL A   1      40.365  27.646  29.889  1.00  0.00    -0.014 A 
BRANCH  29  30
ATOM     30  C   UNL A   1      40.228  28.669  30.954  1.00  0.00     0.031 A 
ATOM     31  C   UNL A   1      41.124  28.584  32.160  1.00  0.00     0.074 A 
ATOM     32  C   UNL A   1      39.356  29.684  30.824  1.00  0.00     0.049 A 
ATOM     33  N   UNL A   1      41.182  29.367  33.205  1.00  0.00    -0.248 NA
ATOM     34  C   UNL A   1      42.082  27.467  32.191  1.00  0.00     0.031 C 
ATOM     35  C   UNL A   1      38.467  29.892  29.682  1.00  0.00     0.029 A 
ATOM     36  N   UNL A   1      39.078  30.733  31.664  1.00  0.00    -0.354 N 
ATOM     37  C   UNL A   1      42.176  28.838  34.020  1.00  0.00     0.074 A 
ATOM     38  C   UNL A   1      42.676  27.650  33.362  1.00  0.00     0.031 C 
ATOM     39  C   UNL A   1      37.736  31.001  29.896  1.00  0.00     0.029 A 
ATOM     40  C   UNL A   1      38.088  31.564  31.198  1.00  0.00     0.049 A 
ATOM     41  H   UNL A   1      39.546  30.878  32.518  1.00  0.00     0.167 HD
ATOM     42  C   UNL A   1      42.638  29.305  35.204  1.00  0.00     0.037 A 
ATOM     43  C   UNL A   1      37.520  32.646  31.768  1.00  0.00     0.037 A 
ATOM     44  C   UNL A   1      42.141  30.491  35.851  1.00  0.00     0.049 A 
ATOM     45  C   UNL A   1      38.008  33.112  33.115  1.00  0.00     0.074 A 
ATOM     46  C   UNL A   1      42.559  31.061  37.041  1.00  0.00     0.029 A 
ATOM     47  N   UNL A   1      41.113  31.285  35.367  1.00  0.00    -0.354 N 
ATOM     48  N   UNL A   1      38.966  32.616  33.862  1.00  0.00    -0.248 NA
ATOM     49  C   UNL A   1      37.341  34.285  33.696  1.00  0.00     0.031 C 
ATOM     50  C   UNL A   1      41.752  32.173  37.299  1.00  0.00     0.029 A 
ATOM     51  C   UNL A   1      40.863  32.325  36.247  1.00  0.00     0.049 A 
ATOM     52  H   UNL A   1      40.631  31.133  34.522  1.00  0.00     0.167 HD
ATOM     53  C   UNL A   1      39.034  33.432  34.987  1.00  0.00     0.074 A 
ATOM     54  C   UNL A   1      38.026  34.458  34.818  1.00  0.00     0.031 C 
ATOM     55  C   UNL A   1      39.859  33.343  36.059  1.00  0.00     0.037 A 
BRANCH  42  56
ATOM     56  C   UNL A   1      43.717  28.515  35.891  1.00  0.00     0.058 A 
ATOM     57  C   UNL A   1      45.078  28.799  35.698  1.00  0.00     0.135 A 
ATOM     58  C   UNL A   1      43.382  27.476  36.775  1.00  0.00     0.135 A 
ATOM     59  F   UNL A   1      45.453  29.768  34.849  1.00  0.00    -0.206 F 
ATOM     60  C   UNL A   1      46.071  28.064  36.339  1.00  0.00     0.059 A 
ATOM     61  C   UNL A   1      44.357  26.745  37.445  1.00  0.00     0.059 A 
ATOM     62  F   UNL A   1      42.095  27.161  36.991  1.00  0.00    -0.206 F 
ATOM     63  C   UNL A   1      45.700  27.037  37.209  1.00  0.00     0.060 A 
BRANCH  63  64
ATOM     64  S   UNL A   1      46.999  26.090  38.034  1.00  0.00     0.124 S 
ATOM     65  O   UNL A   1      46.362  25.775  39.309  1.00  0.00    -0.237 OA
ATOM     66  O   UNL A   1      47.189  24.965  37.125  1.00  0.00    -0.237 OA
ATOM     67  O   UNL A   1      48.111  27.031  38.105  1.00  0.00    -0.744 OA
ENDBRANCH  63  64
ENDBRANCH  42  56
BRANCH  43  68
ATOM     68  C   UNL A   1      36.419  33.360  31.069  1.00  0.00     0.058 A 
ATOM     69  C   UNL A   1      35.095  33.273  31.523  1.00  0.00     0.135 A 
ATOM     70  C   UNL A   1      36.671  34.146  29.934  1.00  0.00     0.135 A 
ATOM     71  F   UNL A   1      34.802  32.524  32.598  1.00  0.00    -0.206 F 
ATOM     72  C   UNL A   1      34.056  33.929  30.870  1.00  0.00     0.059 A 
ATOM     73  C   UNL A   1      35.653  34.832  29.279  1.00  0.00     0.059 A 
ATOM     74  F   UNL A   1      37.923  34.270  29.467  1.00  0.00    -0.206 F 
ATOM     75  C   UNL A   1      34.347  34.709  29.749  1.00  0.00     0.060 A 
BRANCH  75  76
ATOM     76  S   UNL A   1      33.002  35.601  28.939  1.00  0.00     0.124 S 
ATOM     77  O   UNL A   1      32.223  36.058  30.084  1.00  0.00    -0.237 OA
ATOM     78  O   UNL A   1      33.718  36.634  28.200  1.00  0.00    -0.237 OA
ATOM     79  O   UNL A   1      32.371  34.575  28.114  1.00  0.00    -0.744 OA
ENDBRANCH  75  76
ENDBRANCH  43  68
BRANCH  55  80
ATOM     80  C   UNL A   1      39.731  34.399  37.123  1.00  0.00     0.058 A 
ATOM     81  C   UNL A   1      38.959  34.194  38.277  1.00  0.00     0.135 A 
ATOM     82  C   UNL A   1      40.435  35.609  37.010  1.00  0.00     0.135 A 
ATOM     83  F   UNL A   1      38.262  33.058  38.430  1.00  0.00    -0.206 F 
ATOM     84  C   UNL A   1      38.874  35.162  39.274  1.00  0.00     0.059 A 
ATOM     85  C   UNL A   1      40.384  36.579  38.005  1.00  0.00     0.059 A 
ATOM     86  F   UNL A   1      41.198  35.849  35.931  1.00  0.00    -0.206 F 
ATOM     87  C   UNL A   1      39.591  36.351  39.129  1.00  0.00     0.060 A 
BRANCH  87  88
ATOM     88  S   UNL A   1      39.500  37.584  40.445  1.00  0.00     0.124 S 
ATOM     89  O   UNL A   1      40.784  38.263  40.301  1.00  0.00    -0.237 OA
ATOM     90  O   UNL A   1      38.325  38.362  40.065  1.00  0.00    -0.237 OA
ATOM     91  O   UNL A   1      39.347  36.780  41.653  1.00  0.00    -0.744 OA
ENDBRANCH  87  88
ENDBRANCH  55  80
ENDBRANCH  29  30
ENDBRANCH  22  24
ENDBRANCH  21  22
ENDBRANCH  20  21
ENDBRANCH   1  20
TORSDOF 19
ENDMDL
