MODEL 1
REMARK VINA RESULT:     -11.3      0.000      0.000
REMARK SMILES O=C(OCCOCCOC(=O)[C@H]1C[N@H+](Cc2ccc(Cl)c(Cl)c2)CC12CCCCC2)c1ccc(-c2c3nc(c(-c4c(F)cc(S(=O)(=O)[O-])cc4F)c4ccc([nH]4)c(-c4c(F)cc(S(=O)(=O)[O-])cc4F)c4nc(c(-c5c(F)cc(S(=O)(=O)[O-])cc5F)c5ccc2[nH]5)C=C4)C=C3)cc1
REMARK SMILES IDX 5 1 4 2 3 3 2 4 1 5 31 6 32 7 96 8 33 9 95 10 34 11 35 12
REMARK SMILES IDX 36 13 89 14 37 15 94 16 88 17 90 18 38 19 93 20 87 21 86 22
REMARK SMILES IDX 39 24 73 25 52 26 72 27 53 28 56 29 71 30 91 31 54 32 55 33
REMARK SMILES IDX 70 35 92 36 57 37 40 38 41 39 50 40 42 41 43 42 49 43 51 44
REMARK SMILES IDX 44 45 45 46 46 47 47 48 48 49 74 50 75 51 84 52 76 53 77 54
REMARK SMILES IDX 83 55 85 56 78 57 79 58 80 59 81 60 82 61 58 62 59 63 68 64
REMARK SMILES IDX 60 65 61 66 67 67 69 68 62 69 63 70 64 71 65 72 66 73 6 74
REMARK SMILES IDX 7 75 8 76 9 77 10 78 11 79 12 80 13 81 25 82 14 83 24 84
REMARK SMILES IDX 26 85 30 86 27 88 29 89 28 90 15 91 16 92 17 93 23 94 18 95
REMARK SMILES IDX 21 96 19 97 22 98 20 99
REMARK H PARENT 90 23 56 34 14 87
REMARK Flexibility Score: inf
ROOT
ATOM      1  C   UNL A   1      31.936  29.908  26.349  1.00  0.00     0.202 C 
ENDROOT
BRANCH   1   2
ATOM      2  C   UNL A   1      33.453  30.012  26.381  1.00  0.00     0.261 C 
BRANCH   2   3
ATOM      3  O   UNL A   1      33.952  29.771  27.706  1.00  0.00    -0.460 OA
BRANCH   3   4
ATOM      4  C   UNL A   1      34.821  30.608  28.338  1.00  0.00     0.338 C 
ATOM      5  O   UNL A   1      34.450  31.681  28.796  1.00  0.00    -0.246 OA
BRANCH   4   6
ATOM      6  C   UNL A   1      36.213  30.155  28.549  1.00  0.00     0.060 A 
ATOM      7  C   UNL A   1      37.170  30.289  27.549  1.00  0.00     0.016 A 
ATOM      8  C   UNL A   1      36.588  29.609  29.771  1.00  0.00     0.016 A 
ATOM      9  C   UNL A   1      38.389  29.667  27.625  1.00  0.00     0.010 A 
ATOM     10  C   UNL A   1      37.914  29.208  29.947  1.00  0.00     0.010 A 
ATOM     11  C   UNL A   1      38.813  29.234  28.865  1.00  0.00    -0.014 A 
BRANCH  11  12
ATOM     12  C   UNL A   1      40.229  28.871  29.014  1.00  0.00     0.031 A 
ATOM     13  C   UNL A   1      41.176  29.934  29.437  1.00  0.00     0.074 A 
ATOM     14  C   UNL A   1      40.616  27.603  28.764  1.00  0.00     0.049 A 
ATOM     15  N   UNL A   1      42.468  29.978  29.311  1.00  0.00    -0.248 NA
ATOM     16  C   UNL A   1      40.578  31.130  30.055  1.00  0.00     0.031 C 
ATOM     17  C   UNL A   1      39.720  26.474  28.472  1.00  0.00     0.029 A 
ATOM     18  N   UNL A   1      41.863  27.042  28.712  1.00  0.00    -0.354 N 
ATOM     19  C   UNL A   1      42.836  31.242  29.745  1.00  0.00     0.074 A 
ATOM     20  C   UNL A   1      41.631  31.926  30.160  1.00  0.00     0.031 C 
ATOM     21  C   UNL A   1      40.441  25.361  28.291  1.00  0.00     0.029 A 
ATOM     22  C   UNL A   1      41.846  25.726  28.308  1.00  0.00     0.049 A 
ATOM     23  H   UNL A   1      42.687  27.530  28.938  1.00  0.00     0.167 HD
ATOM     24  C   UNL A   1      44.079  31.770  29.749  1.00  0.00     0.037 A 
ATOM     25  C   UNL A   1      42.853  24.933  27.902  1.00  0.00     0.037 A 
ATOM     26  C   UNL A   1      45.226  31.013  29.326  1.00  0.00     0.049 A 
ATOM     27  C   UNL A   1      44.218  25.549  27.867  1.00  0.00     0.074 A 
ATOM     28  C   UNL A   1      46.544  31.410  29.227  1.00  0.00     0.029 A 
ATOM     29  N   UNL A   1      45.175  29.677  28.932  1.00  0.00    -0.354 N 
ATOM     30  N   UNL A   1      44.567  26.778  28.174  1.00  0.00    -0.248 NA
ATOM     31  C   UNL A   1      45.321  24.698  27.415  1.00  0.00     0.031 C 
ATOM     32  C   UNL A   1      47.280  30.327  28.734  1.00  0.00     0.029 A 
ATOM     33  C   UNL A   1      46.436  29.234  28.583  1.00  0.00     0.049 A 
ATOM     34  H   UNL A   1      44.358  29.128  28.906  1.00  0.00     0.167 HD
ATOM     35  C   UNL A   1      45.937  26.847  27.979  1.00  0.00     0.074 A 
ATOM     36  C   UNL A   1      46.351  25.530  27.524  1.00  0.00     0.031 C 
ATOM     37  C   UNL A   1      46.780  27.894  28.161  1.00  0.00     0.037 A 
BRANCH  24  38
ATOM     38  C   UNL A   1      44.200  33.225  30.109  1.00  0.00     0.058 A 
ATOM     39  C   UNL A   1      44.095  34.249  29.154  1.00  0.00     0.135 A 
ATOM     40  C   UNL A   1      44.531  33.594  31.424  1.00  0.00     0.135 A 
ATOM     41  F   UNL A   1      43.813  33.954  27.875  1.00  0.00    -0.206 F 
ATOM     42  C   UNL A   1      44.370  35.575  29.474  1.00  0.00     0.059 A 
ATOM     43  C   UNL A   1      44.779  34.918  31.775  1.00  0.00     0.059 A 
ATOM     44  F   UNL A   1      44.658  32.658  32.377  1.00  0.00    -0.206 F 
ATOM     45  C   UNL A   1      44.725  35.898  30.786  1.00  0.00     0.060 A 
BRANCH  45  46
ATOM     46  S   UNL A   1      45.145  37.610  31.173  1.00  0.00     0.124 S 
ATOM     47  O   UNL A   1      43.823  38.193  31.383  1.00  0.00    -0.237 OA
ATOM     48  O   UNL A   1      45.971  37.468  32.367  1.00  0.00    -0.237 OA
ATOM     49  O   UNL A   1      45.849  38.066  29.978  1.00  0.00    -0.744 OA
ENDBRANCH  45  46
ENDBRANCH  24  38
BRANCH  25  50
ATOM     50  C   UNL A   1      42.568  23.544  27.450  1.00  0.00     0.058 A 
ATOM     51  C   UNL A   1      42.506  23.227  26.087  1.00  0.00     0.135 A 
ATOM     52  C   UNL A   1      42.445  22.485  28.368  1.00  0.00     0.135 A 
ATOM     53  F   UNL A   1      42.617  24.197  25.167  1.00  0.00    -0.206 F 
ATOM     54  C   UNL A   1      42.341  21.914  25.648  1.00  0.00     0.059 A 
ATOM     55  C   UNL A   1      42.307  21.162  27.955  1.00  0.00     0.059 A 
ATOM     56  F   UNL A   1      42.518  22.725  29.686  1.00  0.00    -0.206 F 
ATOM     57  C   UNL A   1      42.253  20.887  26.589  1.00  0.00     0.060 A 
BRANCH  57  58
ATOM     58  S   UNL A   1      42.119  19.182  26.005  1.00  0.00     0.124 S 
ATOM     59  O   UNL A   1      40.692  19.079  25.724  1.00  0.00    -0.237 OA
ATOM     60  O   UNL A   1      43.000  19.188  24.840  1.00  0.00    -0.237 OA
ATOM     61  O   UNL A   1      42.598  18.397  27.139  1.00  0.00    -0.744 OA
ENDBRANCH  57  58
ENDBRANCH  25  50
BRANCH  37  62
ATOM     62  C   UNL A   1      48.237  27.632  27.939  1.00  0.00     0.058 A 
ATOM     63  C   UNL A   1      49.072  27.185  28.971  1.00  0.00     0.135 A 
ATOM     64  C   UNL A   1      48.762  27.715  26.640  1.00  0.00     0.135 A 
ATOM     65  F   UNL A   1      48.612  27.105  30.229  1.00  0.00    -0.206 F 
ATOM     66  C   UNL A   1      50.386  26.814  28.719  1.00  0.00     0.059 A 
ATOM     67  C   UNL A   1      50.063  27.323  26.361  1.00  0.00     0.059 A 
ATOM     68  F   UNL A   1      47.991  28.134  25.624  1.00  0.00    -0.206 F 
ATOM     69  C   UNL A   1      50.866  26.872  27.407  1.00  0.00     0.060 A 
BRANCH  69  70
ATOM     70  S   UNL A   1      52.539  26.288  27.076  1.00  0.00     0.124 S 
ATOM     71  O   UNL A   1      52.284  24.960  26.528  1.00  0.00    -0.237 OA
ATOM     72  O   UNL A   1      53.032  27.283  26.128  1.00  0.00    -0.237 OA
ATOM     73  O   UNL A   1      53.174  26.315  28.391  1.00  0.00    -0.744 OA
ENDBRANCH  69  70
ENDBRANCH  37  62
ENDBRANCH  11  12
ENDBRANCH   4   6
ENDBRANCH   3   4
ENDBRANCH   2   3
ENDBRANCH   1   2
BRANCH   1  74
ATOM     74  O   UNL A   1      31.408  28.893  25.526  1.00  0.00    -0.374 OA
BRANCH  74  75
ATOM     75  C   UNL A   1      32.035  28.640  24.283  1.00  0.00     0.202 C 
BRANCH  75  76
ATOM     76  C   UNL A   1      31.671  27.215  23.880  1.00  0.00     0.261 C 
BRANCH  76  77
ATOM     77  O   UNL A   1      32.848  26.399  23.988  1.00  0.00    -0.463 OA
BRANCH  77  78
ATOM     78  C   UNL A   1      33.028  25.633  25.114  1.00  0.00     0.315 C 
ATOM     79  O   UNL A   1      33.100  26.034  26.265  1.00  0.00    -0.252 OA
BRANCH  78  80
ATOM     80  C   UNL A   1      33.159  24.205  24.649  1.00  0.00     0.166 C 
ATOM     81  C   UNL A   1      32.576  24.135  23.255  1.00  0.00     0.278 C 
ATOM     82  C   UNL A   1      34.455  23.340  24.636  1.00  0.00     0.038 C 
ATOM     83  N   UNL A   1      32.917  22.798  22.792  1.00  0.00    -0.330 N 
ATOM     84  C   UNL A   1      34.257  22.519  23.321  1.00  0.00     0.270 C 
ATOM     85  C   UNL A   1      35.812  24.082  24.597  1.00  0.00     0.014 C 
ATOM     86  C   UNL A   1      34.464  22.415  25.887  1.00  0.00     0.014 C 
ATOM     87  H   UNL A   1      32.954  22.758  21.774  1.00  0.00     0.348 HD
ATOM     88  C   UNL A   1      37.035  23.159  24.773  1.00  0.00     0.001 C 
ATOM     89  C   UNL A   1      35.635  21.452  25.965  1.00  0.00     0.001 C 
ATOM     90  C   UNL A   1      36.935  22.231  25.984  1.00  0.00     0.000 C 
BRANCH  83  91
ATOM     91  C   UNL A   1      31.878  21.772  22.953  1.00  0.00     0.299 C 
BRANCH  91  92
ATOM     92  C   UNL A   1      32.227  20.474  23.657  1.00  0.00     0.008 A 
ATOM     93  C   UNL A   1      32.165  20.353  25.055  1.00  0.00     0.011 A 
ATOM     94  C   UNL A   1      32.680  19.371  22.912  1.00  0.00     0.031 A 
ATOM     95  C   UNL A   1      32.679  19.220  25.698  1.00  0.00     0.022 A 
ATOM     96  C   UNL A   1      33.163  18.221  23.551  1.00  0.00     0.060 A 
ATOM     97  C   UNL A   1      33.195  18.160  24.949  1.00  0.00     0.059 A 
ATOM     98  Cl  UNL A   1      33.782  16.951  22.556  1.00  0.00    -0.083 Cl
ATOM     99  Cl  UNL A   1      33.901  16.837  25.805  1.00  0.00    -0.083 Cl
ENDBRANCH  91  92
ENDBRANCH  83  91
ENDBRANCH  78  80
ENDBRANCH  77  78
ENDBRANCH  76  77
ENDBRANCH  75  76
ENDBRANCH  74  75
ENDBRANCH   1  74
TORSDOF 19
ENDMDL
MODEL 2
REMARK VINA RESULT:     -11.3      4.817     10.503
REMARK SMILES O=C(OCCOCCOC(=O)[C@H]1C[N@H+](Cc2ccc(Cl)c(Cl)c2)CC12CCCCC2)c1ccc(-c2c3nc(c(-c4c(F)cc(S(=O)(=O)[O-])cc4F)c4ccc([nH]4)c(-c4c(F)cc(S(=O)(=O)[O-])cc4F)c4nc(c(-c5c(F)cc(S(=O)(=O)[O-])cc5F)c5ccc2[nH]5)C=C4)C=C3)cc1
REMARK SMILES IDX 5 1 4 2 3 3 2 4 1 5 31 6 32 7 96 8 33 9 95 10 34 11 35 12
REMARK SMILES IDX 36 13 89 14 37 15 94 16 88 17 90 18 38 19 93 20 87 21 86 22
REMARK SMILES IDX 39 24 73 25 52 26 72 27 53 28 56 29 71 30 91 31 54 32 55 33
REMARK SMILES IDX 70 35 92 36 57 37 40 38 41 39 50 40 42 41 43 42 49 43 51 44
REMARK SMILES IDX 44 45 45 46 46 47 47 48 48 49 74 50 75 51 84 52 76 53 77 54
REMARK SMILES IDX 83 55 85 56 78 57 79 58 80 59 81 60 82 61 58 62 59 63 68 64
REMARK SMILES IDX 60 65 61 66 67 67 69 68 62 69 63 70 64 71 65 72 66 73 6 74
REMARK SMILES IDX 7 75 8 76 9 77 10 78 11 79 12 80 13 81 25 82 14 83 24 84
REMARK SMILES IDX 26 85 30 86 27 88 29 89 28 90 15 91 16 92 17 93 23 94 18 95
REMARK SMILES IDX 21 96 19 97 22 98 20 99
REMARK H PARENT 90 23 56 34 14 87
REMARK Flexibility Score: inf
ROOT
ATOM      1  C   UNL A   1      35.960  21.242  25.373  1.00  0.00     0.202 C 
ENDROOT
BRANCH   1   2
ATOM      2  C   UNL A   1      37.209  21.786  24.698  1.00  0.00     0.261 C 
BRANCH   2   3
ATOM      3  O   UNL A   1      37.711  22.933  25.404  1.00  0.00    -0.460 OA
BRANCH   3   4
ATOM      4  C   UNL A   1      38.896  22.934  26.074  1.00  0.00     0.338 C 
ATOM      5  O   UNL A   1      39.655  21.976  26.025  1.00  0.00    -0.246 OA
BRANCH   4   6
ATOM      6  C   UNL A   1      39.300  24.163  26.793  1.00  0.00     0.060 A 
ATOM      7  C   UNL A   1      38.955  24.360  28.125  1.00  0.00     0.016 A 
ATOM      8  C   UNL A   1      40.059  25.130  26.143  1.00  0.00     0.016 A 
ATOM      9  C   UNL A   1      39.104  25.577  28.740  1.00  0.00     0.010 A 
ATOM     10  C   UNL A   1      40.442  26.269  26.853  1.00  0.00     0.010 A 
ATOM     11  C   UNL A   1      39.955  26.492  28.154  1.00  0.00    -0.014 A 
BRANCH  11  12
ATOM     12  C   UNL A   1      40.370  27.650  28.959  1.00  0.00     0.031 A 
ATOM     13  C   UNL A   1      41.653  27.553  29.703  1.00  0.00     0.074 A 
ATOM     14  C   UNL A   1      39.585  28.745  28.995  1.00  0.00     0.049 A 
ATOM     15  N   UNL A   1      42.065  28.250  30.718  1.00  0.00    -0.248 NA
ATOM     16  C   UNL A   1      42.582  26.497  29.262  1.00  0.00     0.031 C 
ATOM     17  C   UNL A   1      38.376  28.962  28.185  1.00  0.00     0.029 A 
ATOM     18  N   UNL A   1      39.676  29.887  29.743  1.00  0.00    -0.354 N 
ATOM     19  C   UNL A   1      43.260  27.662  31.103  1.00  0.00     0.074 A 
ATOM     20  C   UNL A   1      43.517  26.564  30.197  1.00  0.00     0.031 C 
ATOM     21  C   UNL A   1      37.855  30.162  28.465  1.00  0.00     0.029 A 
ATOM     22  C   UNL A   1      38.602  30.732  29.572  1.00  0.00     0.049 A 
ATOM     23  H   UNL A   1      40.431  30.084  30.343  1.00  0.00     0.167 HD
ATOM     24  C   UNL A   1      44.035  28.009  32.155  1.00  0.00     0.037 A 
ATOM     25  C   UNL A   1      38.214  31.795  30.297  1.00  0.00     0.037 A 
ATOM     26  C   UNL A   1      43.708  29.124  33.002  1.00  0.00     0.049 A 
ATOM     27  C   UNL A   1      39.057  32.139  31.487  1.00  0.00     0.074 A 
ATOM     28  C   UNL A   1      44.359  29.582  34.129  1.00  0.00     0.029 A 
ATOM     29  N   UNL A   1      42.616  29.966  32.794  1.00  0.00    -0.354 N 
ATOM     30  N   UNL A   1      40.133  31.527  31.928  1.00  0.00    -0.248 NA
ATOM     31  C   UNL A   1      38.638  33.288  32.291  1.00  0.00     0.031 C 
ATOM     32  C   UNL A   1      43.636  30.674  34.625  1.00  0.00     0.029 A 
ATOM     33  C   UNL A   1      42.570  30.938  33.774  1.00  0.00     0.049 A 
ATOM     34  H   UNL A   1      41.971  29.880  32.056  1.00  0.00     0.167 HD
ATOM     35  C   UNL A   1      40.541  32.230  33.050  1.00  0.00     0.074 A 
ATOM     36  C   UNL A   1      39.589  33.315  33.219  1.00  0.00     0.031 C 
ATOM     37  C   UNL A   1      41.602  32.009  33.866  1.00  0.00     0.037 A 
BRANCH  24  38
ATOM     38  C   UNL A   1      45.198  27.111  32.470  1.00  0.00     0.058 A 
ATOM     39  C   UNL A   1      45.089  26.016  33.342  1.00  0.00     0.135 A 
ATOM     40  C   UNL A   1      46.474  27.417  31.967  1.00  0.00     0.135 A 
ATOM     41  F   UNL A   1      43.901  25.695  33.880  1.00  0.00    -0.206 F 
ATOM     42  C   UNL A   1      46.208  25.294  33.750  1.00  0.00     0.059 A 
ATOM     43  C   UNL A   1      47.602  26.689  32.334  1.00  0.00     0.059 A 
ATOM     44  F   UNL A   1      46.642  28.460  31.139  1.00  0.00    -0.206 F 
ATOM     45  C   UNL A   1      47.463  25.648  33.250  1.00  0.00     0.060 A 
BRANCH  45  46
ATOM     46  S   UNL A   1      48.913  24.749  33.838  1.00  0.00     0.124 S 
ATOM     47  O   UNL A   1      48.322  23.477  34.244  1.00  0.00    -0.237 OA
ATOM     48  O   UNL A   1      49.757  24.703  32.648  1.00  0.00    -0.237 OA
ATOM     49  O   UNL A   1      49.413  25.584  34.925  1.00  0.00    -0.744 OA
ENDBRANCH  45  46
ENDBRANCH  24  38
BRANCH  25  50
ATOM     50  C   UNL A   1      36.963  32.519  29.943  1.00  0.00     0.058 A 
ATOM     51  C   UNL A   1      35.756  32.239  30.597  1.00  0.00     0.135 A 
ATOM     52  C   UNL A   1      36.964  33.573  29.010  1.00  0.00     0.135 A 
ATOM     53  F   UNL A   1      35.696  31.245  31.496  1.00  0.00    -0.206 F 
ATOM     54  C   UNL A   1      34.600  32.977  30.348  1.00  0.00     0.059 A 
ATOM     55  C   UNL A   1      35.831  34.343  28.764  1.00  0.00     0.059 A 
ATOM     56  F   UNL A   1      38.097  33.901  28.368  1.00  0.00    -0.206 F 
ATOM     57  C   UNL A   1      34.650  34.034  29.437  1.00  0.00     0.060 A 
BRANCH  57  58
ATOM     58  S   UNL A   1      33.165  35.032  29.183  1.00  0.00     0.124 S 
ATOM     59  O   UNL A   1      33.735  36.307  28.766  1.00  0.00    -0.237 OA
ATOM     60  O   UNL A   1      32.463  34.278  28.149  1.00  0.00    -0.237 OA
ATOM     61  O   UNL A   1      32.525  35.026  30.495  1.00  0.00    -0.744 OA
ENDBRANCH  57  58
ENDBRANCH  25  50
BRANCH  37  62
ATOM     62  C   UNL A   1      41.826  33.002  34.963  1.00  0.00     0.058 A 
ATOM     63  C   UNL A   1      42.604  34.150  34.771  1.00  0.00     0.135 A 
ATOM     64  C   UNL A   1      41.143  32.850  36.180  1.00  0.00     0.135 A 
ATOM     65  F   UNL A   1      43.285  34.325  33.628  1.00  0.00    -0.206 F 
ATOM     66  C   UNL A   1      42.690  35.129  35.752  1.00  0.00     0.059 A 
ATOM     67  C   UNL A   1      41.191  33.828  37.162  1.00  0.00     0.059 A 
ATOM     68  F   UNL A   1      40.383  31.765  36.398  1.00  0.00    -0.206 F 
ATOM     69  C   UNL A   1      41.966  34.965  36.937  1.00  0.00     0.060 A 
BRANCH  69  70
ATOM     70  S   UNL A   1      42.001  36.292  38.158  1.00  0.00     0.124 S 
ATOM     71  O   UNL A   1      42.385  35.569  39.366  1.00  0.00    -0.237 OA
ATOM     72  O   UNL A   1      43.010  37.192  37.607  1.00  0.00    -0.237 OA
ATOM     73  O   UNL A   1      40.634  36.805  38.139  1.00  0.00    -0.744 OA
ENDBRANCH  69  70
ENDBRANCH  37  62
ENDBRANCH  11  12
ENDBRANCH   4   6
ENDBRANCH   3   4
ENDBRANCH   2   3
ENDBRANCH   1   2
BRANCH   1  74
ATOM     74  O   UNL A   1      35.042  22.207  25.835  1.00  0.00    -0.374 OA
BRANCH  74  75
ATOM     75  C   UNL A   1      33.674  22.042  25.513  1.00  0.00     0.202 C 
BRANCH  75  76
ATOM     76  C   UNL A   1      32.977  23.359  25.837  1.00  0.00     0.261 C 
BRANCH  76  77
ATOM     77  O   UNL A   1      32.481  23.922  24.611  1.00  0.00    -0.463 OA
BRANCH  77  78
ATOM     78  C   UNL A   1      33.247  24.847  23.945  1.00  0.00     0.315 C 
ATOM     79  O   UNL A   1      34.371  24.678  23.500  1.00  0.00    -0.252 OA
BRANCH  78  80
ATOM     80  C   UNL A   1      32.446  26.123  23.905  1.00  0.00     0.166 C 
ATOM     81  C   UNL A   1      30.993  25.733  23.738  1.00  0.00     0.278 C 
ATOM     82  C   UNL A   1      32.480  27.283  24.945  1.00  0.00     0.038 C 
ATOM     83  N   UNL A   1      30.265  26.981  23.913  1.00  0.00    -0.330 N 
ATOM     84  C   UNL A   1      30.980  27.719  24.962  1.00  0.00     0.270 C 
ATOM     85  C   UNL A   1      32.950  26.947  26.379  1.00  0.00     0.014 C 
ATOM     86  C   UNL A   1      33.396  28.422  24.408  1.00  0.00     0.014 C 
ATOM     87  H   UNL A   1      29.311  26.810  24.227  1.00  0.00     0.348 HD
ATOM     88  C   UNL A   1      33.129  28.182  27.285  1.00  0.00     0.001 C 
ATOM     89  C   UNL A   1      33.461  29.660  25.285  1.00  0.00     0.001 C 
ATOM     90  C   UNL A   1      33.982  29.284  26.658  1.00  0.00     0.000 C 
BRANCH  83  91
ATOM     91  C   UNL A   1      29.902  27.697  22.683  1.00  0.00     0.299 C 
BRANCH  91  92
ATOM     92  C   UNL A   1      29.703  29.200  22.737  1.00  0.00     0.008 A 
ATOM     93  C   UNL A   1      29.997  29.943  23.892  1.00  0.00     0.011 A 
ATOM     94  C   UNL A   1      29.158  29.876  21.630  1.00  0.00     0.031 A 
ATOM     95  C   UNL A   1      29.621  31.288  23.991  1.00  0.00     0.022 A 
ATOM     96  C   UNL A   1      28.813  31.232  21.715  1.00  0.00     0.060 A 
ATOM     97  C   UNL A   1      29.013  31.931  22.910  1.00  0.00     0.059 A 
ATOM     98  Cl  UNL A   1      28.067  31.955  20.334  1.00  0.00    -0.083 Cl
ATOM     99  Cl  UNL A   1      28.488  33.560  23.132  1.00  0.00    -0.083 Cl
ENDBRANCH  91  92
ENDBRANCH  83  91
ENDBRANCH  78  80
ENDBRANCH  77  78
ENDBRANCH  76  77
ENDBRANCH  75  76
ENDBRANCH  74  75
ENDBRANCH   1  74
TORSDOF 19
ENDMDL
MODEL 3
REMARK VINA RESULT:     -11.0      2.065      8.730
REMARK SMILES O=C(OCCOCCOC(=O)[C@H]1C[N@H+](Cc2ccc(Cl)c(Cl)c2)CC12CCCCC2)c1ccc(-c2c3nc(c(-c4c(F)cc(S(=O)(=O)[O-])cc4F)c4ccc([nH]4)c(-c4c(F)cc(S(=O)(=O)[O-])cc4F)c4nc(c(-c5c(F)cc(S(=O)(=O)[O-])cc5F)c5ccc2[nH]5)C=C4)C=C3)cc1
REMARK SMILES IDX 5 1 4 2 3 3 2 4 1 5 31 6 32 7 96 8 33 9 95 10 34 11 35 12
REMARK SMILES IDX 36 13 89 14 37 15 94 16 88 17 90 18 38 19 93 20 87 21 86 22
REMARK SMILES IDX 39 24 73 25 52 26 72 27 53 28 56 29 71 30 91 31 54 32 55 33
REMARK SMILES IDX 70 35 92 36 57 37 40 38 41 39 50 40 42 41 43 42 49 43 51 44
REMARK SMILES IDX 44 45 45 46 46 47 47 48 48 49 74 50 75 51 84 52 76 53 77 54
REMARK SMILES IDX 83 55 85 56 78 57 79 58 80 59 81 60 82 61 58 62 59 63 68 64
REMARK SMILES IDX 60 65 61 66 67 67 69 68 62 69 63 70 64 71 65 72 66 73 6 74
REMARK SMILES IDX 7 75 8 76 9 77 10 78 11 79 12 80 13 81 25 82 14 83 24 84
REMARK SMILES IDX 26 85 30 86 27 88 29 89 28 90 15 91 16 92 17 93 23 94 18 95
REMARK SMILES IDX 21 96 19 97 22 98 20 99
REMARK H PARENT 90 23 56 34 14 87
REMARK Flexibility Score: inf
ROOT
ATOM      1  C   UNL A   1      34.583  32.381  29.107  1.00  0.00     0.202 C 
ENDROOT
BRANCH   1   2
ATOM      2  C   UNL A   1      35.595  31.977  30.167  1.00  0.00     0.261 C 
BRANCH   2   3
ATOM      3  O   UNL A   1      35.926  30.583  30.051  1.00  0.00    -0.460 OA
BRANCH   3   4
ATOM      4  C   UNL A   1      36.869  29.975  30.821  1.00  0.00     0.338 C 
ATOM      5  O   UNL A   1      36.621  29.616  31.964  1.00  0.00    -0.246 OA
BRANCH   4   6
ATOM      6  C   UNL A   1      38.183  29.665  30.217  1.00  0.00     0.060 A 
ATOM      7  C   UNL A   1      38.442  29.949  28.880  1.00  0.00     0.016 A 
ATOM      8  C   UNL A   1      39.190  29.105  30.994  1.00  0.00     0.016 A 
ATOM      9  C   UNL A   1      39.550  29.460  28.237  1.00  0.00     0.010 A 
ATOM     10  C   UNL A   1      40.427  28.842  30.401  1.00  0.00     0.010 A 
ATOM     11  C   UNL A   1      40.600  29.016  29.015  1.00  0.00    -0.014 A 
BRANCH  11  12
ATOM     12  C   UNL A   1      41.896  28.802  28.355  1.00  0.00     0.031 A 
ATOM     13  C   UNL A   1      42.179  27.451  27.806  1.00  0.00     0.074 A 
ATOM     14  C   UNL A   1      42.772  29.823  28.272  1.00  0.00     0.049 A 
ATOM     15  N   UNL A   1      43.321  26.912  27.503  1.00  0.00    -0.248 NA
ATOM     16  C   UNL A   1      41.013  26.573  27.605  1.00  0.00     0.031 C 
ATOM     17  C   UNL A   1      42.509  31.215  28.672  1.00  0.00     0.029 A 
ATOM     18  N   UNL A   1      44.065  29.859  27.826  1.00  0.00    -0.354 N 
ATOM     19  C   UNL A   1      43.029  25.600  27.165  1.00  0.00     0.074 A 
ATOM     20  C   UNL A   1      41.597  25.431  27.277  1.00  0.00     0.031 C 
ATOM     21  C   UNL A   1      43.593  31.963  28.437  1.00  0.00     0.029 A 
ATOM     22  C   UNL A   1      44.667  31.083  28.012  1.00  0.00     0.049 A 
ATOM     23  H   UNL A   1      44.519  29.088  27.415  1.00  0.00     0.167 HD
ATOM     24  C   UNL A   1      43.910  24.632  26.830  1.00  0.00     0.037 A 
ATOM     25  C   UNL A   1      45.964  31.429  27.940  1.00  0.00     0.037 A 
ATOM     26  C   UNL A   1      45.321  24.890  26.733  1.00  0.00     0.049 A 
ATOM     27  C   UNL A   1      46.933  30.334  27.614  1.00  0.00     0.074 A 
ATOM     28  C   UNL A   1      46.350  24.016  26.450  1.00  0.00     0.029 A 
ATOM     29  N   UNL A   1      45.897  26.146  26.919  1.00  0.00    -0.354 N 
ATOM     30  N   UNL A   1      46.683  29.063  27.396  1.00  0.00    -0.248 NA
ATOM     31  C   UNL A   1      48.350  30.696  27.545  1.00  0.00     0.031 C 
ATOM     32  C   UNL A   1      47.549  24.735  26.506  1.00  0.00     0.029 A 
ATOM     33  C   UNL A   1      47.267  26.071  26.762  1.00  0.00     0.049 A 
ATOM     34  H   UNL A   1      45.399  26.969  27.132  1.00  0.00     0.167 HD
ATOM     35  C   UNL A   1      47.908  28.471  27.136  1.00  0.00     0.074 A 
ATOM     36  C   UNL A   1      48.900  29.530  27.227  1.00  0.00     0.031 C 
ATOM     37  C   UNL A   1      48.195  27.178  26.843  1.00  0.00     0.037 A 
BRANCH  24  38
ATOM     38  C   UNL A   1      43.364  23.240  26.670  1.00  0.00     0.058 A 
ATOM     39  C   UNL A   1      42.962  22.458  27.765  1.00  0.00     0.135 A 
ATOM     40  C   UNL A   1      43.339  22.641  25.399  1.00  0.00     0.135 A 
ATOM     41  F   UNL A   1      42.996  22.966  29.008  1.00  0.00    -0.206 F 
ATOM     42  C   UNL A   1      42.614  21.119  27.616  1.00  0.00     0.059 A 
ATOM     43  C   UNL A   1      42.963  21.313  25.221  1.00  0.00     0.059 A 
ATOM     44  F   UNL A   1      43.724  23.335  24.317  1.00  0.00    -0.206 F 
ATOM     45  C   UNL A   1      42.631  20.551  26.340  1.00  0.00     0.060 A 
BRANCH  45  46
ATOM     46  S   UNL A   1      42.243  18.797  26.168  1.00  0.00     0.124 S 
ATOM     47  O   UNL A   1      43.206  18.385  25.151  1.00  0.00    -0.237 OA
ATOM     48  O   UNL A   1      42.488  18.288  27.514  1.00  0.00    -0.237 OA
ATOM     49  O   UNL A   1      40.846  18.798  25.746  1.00  0.00    -0.744 OA
ENDBRANCH  45  46
ENDBRANCH  24  38
BRANCH  25  50
ATOM     50  C   UNL A   1      46.378  32.825  28.250  1.00  0.00     0.058 A 
ATOM     51  C   UNL A   1      46.789  33.188  29.539  1.00  0.00     0.135 A 
ATOM     52  C   UNL A   1      46.463  33.805  27.244  1.00  0.00     0.135 A 
ATOM     53  F   UNL A   1      46.730  32.293  30.537  1.00  0.00    -0.206 F 
ATOM     54  C   UNL A   1      47.276  34.463  29.820  1.00  0.00     0.059 A 
ATOM     55  C   UNL A   1      46.972  35.077  27.493  1.00  0.00     0.059 A 
ATOM     56  F   UNL A   1      46.103  33.509  25.985  1.00  0.00    -0.206 F 
ATOM     57  C   UNL A   1      47.373  35.398  28.788  1.00  0.00     0.060 A 
BRANCH  57  58
ATOM     58  S   UNL A   1      48.079  37.022  29.151  1.00  0.00     0.124 S 
ATOM     59  O   UNL A   1      48.971  37.215  28.014  1.00  0.00    -0.237 OA
ATOM     60  O   UNL A   1      46.892  37.871  29.183  1.00  0.00    -0.237 OA
ATOM     61  O   UNL A   1      48.734  36.825  30.441  1.00  0.00    -0.744 OA
ENDBRANCH  57  58
ENDBRANCH  25  50
BRANCH  37  62
ATOM     62  C   UNL A   1      49.623  26.858  26.530  1.00  0.00     0.058 A 
ATOM     63  C   UNL A   1      50.487  26.321  27.493  1.00  0.00     0.135 A 
ATOM     64  C   UNL A   1      50.083  26.981  25.210  1.00  0.00     0.135 A 
ATOM     65  F   UNL A   1      50.089  26.201  28.769  1.00  0.00    -0.206 F 
ATOM     66  C   UNL A   1      51.765  25.901  27.153  1.00  0.00     0.059 A 
ATOM     67  C   UNL A   1      51.347  26.542  24.842  1.00  0.00     0.059 A 
ATOM     68  F   UNL A   1      49.282  27.486  24.258  1.00  0.00    -0.206 F 
ATOM     69  C   UNL A   1      52.179  26.001  25.821  1.00  0.00     0.060 A 
BRANCH  69  70
ATOM     70  S   UNL A   1      53.802  25.355  25.373  1.00  0.00     0.124 S 
ATOM     71  O   UNL A   1      53.829  25.603  23.935  1.00  0.00    -0.237 OA
ATOM     72  O   UNL A   1      54.697  26.181  26.177  1.00  0.00    -0.237 OA
ATOM     73  O   UNL A   1      53.729  23.952  25.768  1.00  0.00    -0.744 OA
ENDBRANCH  69  70
ENDBRANCH  37  62
ENDBRANCH  11  12
ENDBRANCH   4   6
ENDBRANCH   3   4
ENDBRANCH   2   3
ENDBRANCH   1   2
BRANCH   1  74
ATOM     74  O   UNL A   1      34.578  31.600  27.934  1.00  0.00    -0.374 OA
BRANCH  74  75
ATOM     75  C   UNL A   1      33.339  31.108  27.459  1.00  0.00     0.202 C 
BRANCH  75  76
ATOM     76  C   UNL A   1      33.522  29.618  27.194  1.00  0.00     0.261 C 
BRANCH  76  77
ATOM     77  O   UNL A   1      32.223  29.018  27.063  1.00  0.00    -0.463 OA
BRANCH  77  78
ATOM     78  C   UNL A   1      31.763  28.692  25.810  1.00  0.00     0.315 C 
ATOM     79  O   UNL A   1      31.236  29.446  25.007  1.00  0.00    -0.252 OA
BRANCH  78  80
ATOM     80  C   UNL A   1      31.999  27.214  25.635  1.00  0.00     0.166 C 
ATOM     81  C   UNL A   1      31.034  26.496  26.554  1.00  0.00     0.278 C 
ATOM     82  C   UNL A   1      32.013  26.420  24.294  1.00  0.00     0.038 C 
ATOM     83  N   UNL A   1      31.168  25.094  26.189  1.00  0.00    -0.330 N 
ATOM     84  C   UNL A   1      31.351  25.074  24.733  1.00  0.00     0.270 C 
ATOM     85  C   UNL A   1      31.242  27.022  23.096  1.00  0.00     0.014 C 
ATOM     86  C   UNL A   1      33.487  26.207  23.843  1.00  0.00     0.014 C 
ATOM     87  H   UNL A   1      30.324  24.571  26.419  1.00  0.00     0.348 HD
ATOM     88  C   UNL A   1      31.462  26.270  21.768  1.00  0.00     0.001 C 
ATOM     89  C   UNL A   1      33.659  25.374  22.585  1.00  0.00     0.001 C 
ATOM     90  C   UNL A   1      32.935  26.039  21.431  1.00  0.00     0.000 C 
BRANCH  83  91
ATOM     91  C   UNL A   1      32.081  24.293  27.016  1.00  0.00     0.299 C 
BRANCH  91  92
ATOM     92  C   UNL A   1      33.097  23.396  26.335  1.00  0.00     0.008 A 
ATOM     93  C   UNL A   1      32.783  22.080  25.955  1.00  0.00     0.011 A 
ATOM     94  C   UNL A   1      34.408  23.856  26.121  1.00  0.00     0.031 A 
ATOM     95  C   UNL A   1      33.783  21.206  25.514  1.00  0.00     0.022 A 
ATOM     96  C   UNL A   1      35.405  22.992  25.647  1.00  0.00     0.060 A 
ATOM     97  C   UNL A   1      35.099  21.654  25.375  1.00  0.00     0.059 A 
ATOM     98  Cl  UNL A   1      37.007  23.623  25.500  1.00  0.00    -0.083 Cl
ATOM     99  Cl  UNL A   1      36.300  20.501  24.920  1.00  0.00    -0.083 Cl
ENDBRANCH  91  92
ENDBRANCH  83  91
ENDBRANCH  78  80
ENDBRANCH  77  78
ENDBRANCH  76  77
ENDBRANCH  75  76
ENDBRANCH  74  75
ENDBRANCH   1  74
TORSDOF 19
ENDMDL
