MODEL 1
REMARK VINA RESULT:     -10.4      0.000      0.000
REMARK SMILES CC(C)CS(=O)(=O)Cc1c(C(=O)OCCOCCOC(=O)c2ccc(-c3c4nc(c(-c5c(F)cc(S(=O)(=O)[O-])cc5F)c5ccc([nH]5)c(-c5c(F)cc(S(=O)(=O)[O-])cc5F)c5nc(c(-c6c(F)cc(S(=O)(=O)[O-])cc6F)c6ccc3[nH]6)C=C5)C=C4)cc2)oc2ccccc12
REMARK SMILES IDX 15 1 14 2 13 3 11 4 12 5 10 6 9 7 94 8 88 9 89 10 93 11
REMARK SMILES IDX 90 12 92 13 91 14 8 15 5 16 6 17 7 18 4 19 2 20 1 21 3 22
REMARK SMILES IDX 16 23 17 24 18 25 19 26 20 27 21 28 22 29 23 30 87 31 24 32
REMARK SMILES IDX 86 33 25 34 26 35 27 36 80 37 28 38 85 39 79 40 81 41 29 42
REMARK SMILES IDX 84 43 78 44 77 45 30 47 64 48 43 49 63 50 44 51 47 52 62 53
REMARK SMILES IDX 82 54 45 55 46 56 61 58 83 59 48 60 31 61 32 62 41 63 33 64
REMARK SMILES IDX 34 65 40 66 42 67 35 68 36 69 37 70 38 71 39 72 65 73 66 74
REMARK SMILES IDX 75 75 67 76 68 77 74 78 76 79 69 80 70 81 71 82 72 83 73 84
REMARK SMILES IDX 49 85 50 86 59 87 51 88 52 89 58 90 60 91 53 92 54 93 55 94
REMARK SMILES IDX 56 95 57 96
REMARK H PARENT 81 46 47 57
REMARK Flexibility Score: inf
ROOT
ATOM      1  C   UNL A   1      34.764  30.383  27.622  1.00  0.00     0.202 C 
ENDROOT
BRANCH   1   2
ATOM      2  C   UNL A   1      33.797  29.217  27.390  1.00  0.00     0.261 C 
BRANCH   2   3
ATOM      3  O   UNL A   1      32.700  29.669  26.586  1.00  0.00    -0.457 OA
BRANCH   3   4
ATOM      4  C   UNL A   1      32.765  29.287  25.279  1.00  0.00     0.374 C 
ATOM      5  O   UNL A   1      33.727  28.752  24.743  1.00  0.00    -0.242 OA
BRANCH   4   6
ATOM      6  C   UNL A   1      31.486  29.482  24.643  1.00  0.00     0.217 A 
ATOM      7  C   UNL A   1      30.721  28.637  23.839  1.00  0.00     0.028 A 
ATOM      8  C   UNL A   1      29.609  29.436  23.406  1.00  0.00     0.025 A 
ATOM      9  O   UNL A   1      30.852  30.679  24.811  1.00  0.00    -0.449 OA
ATOM     10  C   UNL A   1      29.746  30.669  24.032  1.00  0.00     0.135 A 
ATOM     11  C   UNL A   1      28.520  29.267  22.529  1.00  0.00     0.012 A 
ATOM     12  C   UNL A   1      28.888  31.752  23.857  1.00  0.00     0.048 A 
ATOM     13  C   UNL A   1      27.650  30.348  22.308  1.00  0.00     0.001 A 
ATOM     14  C   UNL A   1      27.833  31.569  22.961  1.00  0.00     0.004 A 
BRANCH   7  15
ATOM     15  C   UNL A   1      31.071  27.245  23.398  1.00  0.00     0.177 C 
BRANCH  15  16
ATOM     16  S   UNL A   1      30.130  25.868  24.088  1.00  0.00     0.154 S 
ATOM     17  O   UNL A   1      30.319  24.730  23.203  1.00  0.00    -0.228 OA
ATOM     18  O   UNL A   1      28.776  26.338  24.337  1.00  0.00    -0.228 OA
BRANCH  16  19
ATOM     19  C   UNL A   1      30.818  25.428  25.678  1.00  0.00     0.140 C 
BRANCH  19  20
ATOM     20  C   UNL A   1      32.072  24.545  25.706  1.00  0.00    -0.002 C 
ATOM     21  C   UNL A   1      33.365  25.341  25.821  1.00  0.00     0.008 C 
ATOM     22  C   UNL A   1      31.989  23.579  26.899  1.00  0.00     0.008 C 
ENDBRANCH  19  20
ENDBRANCH  16  19
ENDBRANCH  15  16
ENDBRANCH   7  15
ENDBRANCH   4   6
ENDBRANCH   3   4
ENDBRANCH   2   3
ENDBRANCH   1   2
BRANCH   1  23
ATOM     23  O   UNL A   1      34.073  31.631  27.762  1.00  0.00    -0.374 OA
BRANCH  23  24
ATOM     24  C   UNL A   1      34.900  32.723  28.198  1.00  0.00     0.202 C 
BRANCH  24  25
ATOM     25  C   UNL A   1      34.994  32.750  29.727  1.00  0.00     0.261 C 
BRANCH  25  26
ATOM     26  O   UNL A   1      36.365  32.575  30.092  1.00  0.00    -0.460 OA
BRANCH  26  27
ATOM     27  C   UNL A   1      36.629  31.465  30.819  1.00  0.00     0.338 C 
ATOM     28  O   UNL A   1      35.870  30.889  31.578  1.00  0.00    -0.246 OA
BRANCH  27  29
ATOM     29  C   UNL A   1      37.931  30.922  30.355  1.00  0.00     0.060 A 
ATOM     30  C   UNL A   1      38.852  30.506  31.324  1.00  0.00     0.016 A 
ATOM     31  C   UNL A   1      38.199  30.721  28.994  1.00  0.00     0.016 A 
ATOM     32  C   UNL A   1      40.052  29.913  30.932  1.00  0.00     0.010 A 
ATOM     33  C   UNL A   1      39.387  30.113  28.604  1.00  0.00     0.010 A 
ATOM     34  C   UNL A   1      40.327  29.732  29.571  1.00  0.00    -0.014 A 
BRANCH  34  35
ATOM     35  C   UNL A   1      41.661  29.280  29.128  1.00  0.00     0.031 A 
ATOM     36  C   UNL A   1      42.764  30.296  29.057  1.00  0.00     0.074 A 
ATOM     37  C   UNL A   1      41.861  28.002  28.764  1.00  0.00     0.049 A 
ATOM     38  N   UNL A   1      43.994  30.153  28.642  1.00  0.00    -0.248 NA
ATOM     39  C   UNL A   1      42.429  31.660  29.501  1.00  0.00     0.031 C 
ATOM     40  C   UNL A   1      40.849  26.947  28.789  1.00  0.00     0.029 A 
ATOM     41  N   UNL A   1      42.985  27.381  28.285  1.00  0.00    -0.354 N 
ATOM     42  C   UNL A   1      44.579  31.407  28.772  1.00  0.00     0.074 A 
ATOM     43  C   UNL A   1      43.561  32.307  29.265  1.00  0.00     0.031 C 
ATOM     44  C   UNL A   1      41.398  25.806  28.335  1.00  0.00     0.029 A 
ATOM     45  C   UNL A   1      42.789  26.059  27.966  1.00  0.00     0.049 A 
ATOM     46  H   UNL A   1      43.850  27.839  28.179  1.00  0.00     0.167 HD
ATOM     47  C   UNL A   1      45.856  31.769  28.514  1.00  0.00     0.037 A 
ATOM     48  C   UNL A   1      43.639  25.165  27.427  1.00  0.00     0.037 A 
ATOM     49  C   UNL A   1      46.856  30.861  28.021  1.00  0.00     0.049 A 
ATOM     50  C   UNL A   1      45.049  25.597  27.121  1.00  0.00     0.074 A 
ATOM     51  C   UNL A   1      48.188  31.110  27.748  1.00  0.00     0.029 A 
ATOM     52  N   UNL A   1      46.626  29.525  27.722  1.00  0.00    -0.354 N 
ATOM     53  N   UNL A   1      45.604  26.775  27.290  1.00  0.00    -0.248 NA
ATOM     54  C   UNL A   1      45.950  24.582  26.561  1.00  0.00     0.031 C 
ATOM     55  C   UNL A   1      48.755  29.933  27.248  1.00  0.00     0.029 A 
ATOM     56  C   UNL A   1      47.787  28.940  27.250  1.00  0.00     0.049 A 
ATOM     57  H   UNL A   1      45.764  29.062  27.829  1.00  0.00     0.167 HD
ATOM     58  C   UNL A   1      46.925  26.636  26.879  1.00  0.00     0.074 A 
ATOM     59  C   UNL A   1      47.087  25.257  26.462  1.00  0.00     0.031 C 
ATOM     60  C   UNL A   1      47.917  27.561  26.849  1.00  0.00     0.037 A 
BRANCH  47  61
ATOM     61  C   UNL A   1      46.229  33.204  28.753  1.00  0.00     0.058 A 
ATOM     62  C   UNL A   1      46.118  34.171  27.741  1.00  0.00     0.135 A 
ATOM     63  C   UNL A   1      46.702  33.618  30.008  1.00  0.00     0.135 A 
ATOM     64  F   UNL A   1      45.696  33.821  26.516  1.00  0.00    -0.206 F 
ATOM     65  C   UNL A   1      46.486  35.494  27.957  1.00  0.00     0.059 A 
ATOM     66  C   UNL A   1      47.053  34.943  30.253  1.00  0.00     0.059 A 
ATOM     67  F   UNL A   1      46.836  32.732  31.007  1.00  0.00    -0.206 F 
ATOM     68  C   UNL A   1      46.955  35.870  29.217  1.00  0.00     0.060 A 
BRANCH  68  69
ATOM     69  S   UNL A   1      47.431  37.591  29.482  1.00  0.00     0.124 S 
ATOM     70  O   UNL A   1      47.680  37.604  30.921  1.00  0.00    -0.237 OA
ATOM     71  O   UNL A   1      48.612  37.723  28.636  1.00  0.00    -0.237 OA
ATOM     72  O   UNL A   1      46.259  38.340  29.040  1.00  0.00    -0.744 OA
ENDBRANCH  68  69
ENDBRANCH  47  61
BRANCH  48  73
ATOM     73  C   UNL A   1      43.184  23.777  27.150  1.00  0.00     0.058 A 
ATOM     74  C   UNL A   1      42.868  23.366  25.848  1.00  0.00     0.135 A 
ATOM     75  C   UNL A   1      43.072  22.831  28.181  1.00  0.00     0.135 A 
ATOM     76  F   UNL A   1      42.954  24.236  24.831  1.00  0.00    -0.206 F 
ATOM     77  C   UNL A   1      42.446  22.069  25.576  1.00  0.00     0.059 A 
ATOM     78  C   UNL A   1      42.672  21.521  27.930  1.00  0.00     0.059 A 
ATOM     79  F   UNL A   1      43.376  23.170  29.443  1.00  0.00    -0.206 F 
ATOM     80  C   UNL A   1      42.352  21.152  26.625  1.00  0.00     0.060 A 
BRANCH  80  81
ATOM     81  S   UNL A   1      41.859  19.455  26.253  1.00  0.00     0.124 S 
ATOM     82  O   UNL A   1      42.605  19.194  25.028  1.00  0.00    -0.237 OA
ATOM     83  O   UNL A   1      42.310  18.736  27.442  1.00  0.00    -0.237 OA
ATOM     84  O   UNL A   1      40.410  19.554  26.104  1.00  0.00    -0.744 OA
ENDBRANCH  80  81
ENDBRANCH  48  73
BRANCH  60  85
ATOM     85  C   UNL A   1      49.268  27.105  26.379  1.00  0.00     0.058 A 
ATOM     86  C   UNL A   1      49.611  27.107  25.019  1.00  0.00     0.135 A 
ATOM     87  C   UNL A   1      50.249  26.722  27.308  1.00  0.00     0.135 A 
ATOM     88  F   UNL A   1      48.706  27.461  24.094  1.00  0.00    -0.206 F 
ATOM     89  C   UNL A   1      50.878  26.723  24.593  1.00  0.00     0.059 A 
ATOM     90  C   UNL A   1      51.529  26.357  26.905  1.00  0.00     0.059 A 
ATOM     91  F   UNL A   1      49.972  26.716  28.621  1.00  0.00    -0.206 F 
ATOM     92  C   UNL A   1      51.830  26.350  25.544  1.00  0.00     0.060 A 
BRANCH  92  93
ATOM     93  S   UNL A   1      53.483  25.889  24.982  1.00  0.00     0.124 S 
ATOM     94  O   UNL A   1      54.236  25.922  26.230  1.00  0.00    -0.237 OA
ATOM     95  O   UNL A   1      53.262  24.565  24.409  1.00  0.00    -0.237 OA
ATOM     96  O   UNL A   1      53.816  26.934  24.018  1.00  0.00    -0.744 OA
ENDBRANCH  92  93
ENDBRANCH  60  85
ENDBRANCH  34  35
ENDBRANCH  27  29
ENDBRANCH  26  27
ENDBRANCH  25  26
ENDBRANCH  24  25
ENDBRANCH  23  24
ENDBRANCH   1  23
TORSDOF 21
ENDMDL
MODEL 2
REMARK VINA RESULT:     -10.3      1.217      8.735
REMARK SMILES CC(C)CS(=O)(=O)Cc1c(C(=O)OCCOCCOC(=O)c2ccc(-c3c4nc(c(-c5c(F)cc(S(=O)(=O)[O-])cc5F)c5ccc([nH]5)c(-c5c(F)cc(S(=O)(=O)[O-])cc5F)c5nc(c(-c6c(F)cc(S(=O)(=O)[O-])cc6F)c6ccc3[nH]6)C=C5)C=C4)cc2)oc2ccccc12
REMARK SMILES IDX 15 1 14 2 13 3 11 4 12 5 10 6 9 7 94 8 88 9 89 10 93 11
REMARK SMILES IDX 90 12 92 13 91 14 8 15 5 16 6 17 7 18 4 19 2 20 1 21 3 22
REMARK SMILES IDX 16 23 17 24 18 25 19 26 20 27 21 28 22 29 23 30 87 31 24 32
REMARK SMILES IDX 86 33 25 34 26 35 27 36 80 37 28 38 85 39 79 40 81 41 29 42
REMARK SMILES IDX 84 43 78 44 77 45 30 47 64 48 43 49 63 50 44 51 47 52 62 53
REMARK SMILES IDX 82 54 45 55 46 56 61 58 83 59 48 60 31 61 32 62 41 63 33 64
REMARK SMILES IDX 34 65 40 66 42 67 35 68 36 69 37 70 38 71 39 72 65 73 66 74
REMARK SMILES IDX 75 75 67 76 68 77 74 78 76 79 69 80 70 81 71 82 72 83 73 84
REMARK SMILES IDX 49 85 50 86 59 87 51 88 52 89 58 90 60 91 53 92 54 93 55 94
REMARK SMILES IDX 56 95 57 96
REMARK H PARENT 81 46 47 57
REMARK Flexibility Score: inf
ROOT
ATOM      1  C   UNL A   1      34.069  31.086  27.063  1.00  0.00     0.202 C 
ENDROOT
BRANCH   1   2
ATOM      2  C   UNL A   1      33.701  29.616  27.288  1.00  0.00     0.261 C 
BRANCH   2   3
ATOM      3  O   UNL A   1      32.283  29.459  27.142  1.00  0.00    -0.457 OA
BRANCH   3   4
ATOM      4  C   UNL A   1      31.843  28.177  27.283  1.00  0.00     0.374 C 
ATOM      5  O   UNL A   1      31.036  27.791  28.120  1.00  0.00    -0.242 OA
BRANCH   4   6
ATOM      6  C   UNL A   1      32.364  27.356  26.219  1.00  0.00     0.217 A 
ATOM      7  C   UNL A   1      31.939  27.178  24.902  1.00  0.00     0.028 A 
ATOM      8  C   UNL A   1      32.781  26.144  24.371  1.00  0.00     0.025 A 
ATOM      9  O   UNL A   1      33.465  26.589  26.469  1.00  0.00    -0.449 OA
ATOM     10  C   UNL A   1      33.690  25.827  25.374  1.00  0.00     0.135 A 
ATOM     11  C   UNL A   1      32.856  25.416  23.168  1.00  0.00     0.012 A 
ATOM     12  C   UNL A   1      34.669  24.841  25.278  1.00  0.00     0.048 A 
ATOM     13  C   UNL A   1      33.815  24.396  23.048  1.00  0.00     0.001 A 
ATOM     14  C   UNL A   1      34.705  24.114  24.087  1.00  0.00     0.004 A 
BRANCH   7  15
ATOM     15  C   UNL A   1      30.755  27.822  24.239  1.00  0.00     0.177 C 
BRANCH  15  16
ATOM     16  S   UNL A   1      31.000  28.615  22.636  1.00  0.00     0.154 S 
ATOM     17  O   UNL A   1      30.538  27.683  21.620  1.00  0.00    -0.228 OA
ATOM     18  O   UNL A   1      32.376  29.081  22.578  1.00  0.00    -0.228 OA
BRANCH  16  19
ATOM     19  C   UNL A   1      29.964  30.068  22.538  1.00  0.00     0.140 C 
BRANCH  19  20
ATOM     20  C   UNL A   1      28.463  29.873  22.284  1.00  0.00    -0.002 C 
ATOM     21  C   UNL A   1      27.593  30.342  23.441  1.00  0.00     0.008 C 
ATOM     22  C   UNL A   1      28.055  30.652  21.023  1.00  0.00     0.008 C 
ENDBRANCH  19  20
ENDBRANCH  16  19
ENDBRANCH  15  16
ENDBRANCH   7  15
ENDBRANCH   4   6
ENDBRANCH   3   4
ENDBRANCH   2   3
ENDBRANCH   1   2
BRANCH   1  23
ATOM     23  O   UNL A   1      35.176  31.491  27.878  1.00  0.00    -0.374 OA
BRANCH  23  24
ATOM     24  C   UNL A   1      34.808  32.195  29.076  1.00  0.00     0.202 C 
BRANCH  24  25
ATOM     25  C   UNL A   1      35.714  31.787  30.241  1.00  0.00     0.261 C 
BRANCH  25  26
ATOM     26  O   UNL A   1      36.140  30.441  30.026  1.00  0.00    -0.460 OA
BRANCH  26  27
ATOM     27  C   UNL A   1      36.886  29.907  31.021  1.00  0.00     0.338 C 
ATOM     28  O   UNL A   1      36.483  29.480  32.089  1.00  0.00    -0.246 OA
BRANCH  27  29
ATOM     29  C   UNL A   1      38.260  29.708  30.497  1.00  0.00     0.060 A 
ATOM     30  C   UNL A   1      38.461  29.822  29.115  1.00  0.00     0.016 A 
ATOM     31  C   UNL A   1      39.354  29.524  31.355  1.00  0.00     0.016 A 
ATOM     32  C   UNL A   1      39.747  29.726  28.590  1.00  0.00     0.010 A 
ATOM     33  C   UNL A   1      40.640  29.447  30.832  1.00  0.00     0.010 A 
ATOM     34  C   UNL A   1      40.837  29.521  29.447  1.00  0.00    -0.014 A 
BRANCH  34  35
ATOM     35  C   UNL A   1      42.178  29.232  28.901  1.00  0.00     0.031 A 
ATOM     36  C   UNL A   1      42.465  27.835  28.432  1.00  0.00     0.074 A 
ATOM     37  C   UNL A   1      43.120  30.190  28.867  1.00  0.00     0.049 A 
ATOM     38  N   UNL A   1      43.577  27.329  27.976  1.00  0.00    -0.248 NA
ATOM     39  C   UNL A   1      41.346  26.878  28.501  1.00  0.00     0.031 C 
ATOM     40  C   UNL A   1      42.939  31.572  29.310  1.00  0.00     0.029 A 
ATOM     41  N   UNL A   1      44.425  30.136  28.453  1.00  0.00    -0.354 N 
ATOM     42  C   UNL A   1      43.297  25.994  27.706  1.00  0.00     0.074 A 
ATOM     43  C   UNL A   1      41.922  25.759  28.086  1.00  0.00     0.031 C 
ATOM     44  C   UNL A   1      44.097  32.236  29.152  1.00  0.00     0.029 A 
ATOM     45  C   UNL A   1      45.104  31.320  28.621  1.00  0.00     0.049 A 
ATOM     46  H   UNL A   1      44.838  29.327  28.073  1.00  0.00     0.167 HD
ATOM     47  C   UNL A   1      44.112  25.056  27.175  1.00  0.00     0.037 A 
ATOM     48  C   UNL A   1      46.395  31.616  28.381  1.00  0.00     0.037 A 
ATOM     49  C   UNL A   1      45.479  25.306  26.805  1.00  0.00     0.049 A 
ATOM     50  C   UNL A   1      47.293  30.547  27.816  1.00  0.00     0.074 A 
ATOM     51  C   UNL A   1      46.392  24.438  26.236  1.00  0.00     0.029 A 
ATOM     52  N   UNL A   1      46.130  26.520  26.976  1.00  0.00    -0.354 N 
ATOM     53  N   UNL A   1      47.004  29.300  27.522  1.00  0.00    -0.248 NA
ATOM     54  C   UNL A   1      48.686  30.923  27.543  1.00  0.00     0.031 C 
ATOM     55  C   UNL A   1      47.607  25.116  26.096  1.00  0.00     0.029 A 
ATOM     56  C   UNL A   1      47.439  26.420  26.539  1.00  0.00     0.049 A 
ATOM     57  H   UNL A   1      45.722  27.332  27.353  1.00  0.00     0.167 HD
ATOM     58  C   UNL A   1      48.173  28.749  27.008  1.00  0.00     0.074 A 
ATOM     59  C   UNL A   1      49.169  29.803  27.023  1.00  0.00     0.031 C 
ATOM     60  C   UNL A   1      48.404  27.490  26.561  1.00  0.00     0.037 A 
BRANCH  47  61
ATOM     61  C   UNL A   1      43.544  23.680  26.978  1.00  0.00     0.058 A 
ATOM     62  C   UNL A   1      43.371  22.795  28.054  1.00  0.00     0.135 A 
ATOM     63  C   UNL A   1      43.168  23.240  25.699  1.00  0.00     0.135 A 
ATOM     64  F   UNL A   1      43.739  23.157  29.293  1.00  0.00    -0.206 F 
ATOM     65  C   UNL A   1      42.867  21.512  27.867  1.00  0.00     0.059 A 
ATOM     66  C   UNL A   1      42.638  21.969  25.492  1.00  0.00     0.059 A 
ATOM     67  F   UNL A   1      43.323  24.043  24.635  1.00  0.00    -0.206 F 
ATOM     68  C   UNL A   1      42.505  21.107  26.580  1.00  0.00     0.060 A 
BRANCH  68  69
ATOM     69  S   UNL A   1      41.854  19.439  26.351  1.00  0.00     0.124 S 
ATOM     70  O   UNL A   1      40.418  19.695  26.292  1.00  0.00    -0.237 OA
ATOM     71  O   UNL A   1      42.476  19.030  25.097  1.00  0.00    -0.237 OA
ATOM     72  O   UNL A   1      42.317  18.728  27.539  1.00  0.00    -0.744 OA
ENDBRANCH  68  69
ENDBRANCH  47  61
BRANCH  48  73
ATOM     73  C   UNL A   1      46.911  32.981  28.664  1.00  0.00     0.058 A 
ATOM     74  C   UNL A   1      47.445  33.306  29.920  1.00  0.00     0.135 A 
ATOM     75  C   UNL A   1      46.895  33.983  27.681  1.00  0.00     0.135 A 
ATOM     76  F   UNL A   1      47.476  32.384  30.893  1.00  0.00    -0.206 F 
ATOM     77  C   UNL A   1      47.934  34.578  30.196  1.00  0.00     0.059 A 
ATOM     78  C   UNL A   1      47.399  35.257  27.927  1.00  0.00     0.059 A 
ATOM     79  F   UNL A   1      46.408  33.718  26.459  1.00  0.00    -0.206 F 
ATOM     80  C   UNL A   1      47.909  35.548  29.191  1.00  0.00     0.060 A 
BRANCH  80  81
ATOM     81  S   UNL A   1      48.600  37.179  29.541  1.00  0.00     0.124 S 
ATOM     82  O   UNL A   1      47.902  38.009  28.565  1.00  0.00    -0.237 OA
ATOM     83  O   UNL A   1      48.222  37.380  30.937  1.00  0.00    -0.237 OA
ATOM     84  O   UNL A   1      50.029  36.993  29.309  1.00  0.00    -0.744 OA
ENDBRANCH  80  81
ENDBRANCH  48  73
BRANCH  60  85
ATOM     85  C   UNL A   1      49.775  27.192  26.026  1.00  0.00     0.058 A 
ATOM     86  C   UNL A   1      50.815  26.766  26.866  1.00  0.00     0.135 A 
ATOM     87  C   UNL A   1      50.031  27.274  24.648  1.00  0.00     0.135 A 
ATOM     88  F   UNL A   1      50.620  26.675  28.190  1.00  0.00    -0.206 F 
ATOM     89  C   UNL A   1      52.071  26.451  26.359  1.00  0.00     0.059 A 
ATOM     90  C   UNL A   1      51.272  26.941  24.117  1.00  0.00     0.059 A 
ATOM     91  F   UNL A   1      49.064  27.665  23.803  1.00  0.00    -0.206 F 
ATOM     92  C   UNL A   1      52.289  26.541  24.982  1.00  0.00     0.060 A 
BRANCH  92  93
ATOM     93  S   UNL A   1      53.913  26.095  24.331  1.00  0.00     0.124 S 
ATOM     94  O   UNL A   1      53.719  26.295  22.899  1.00  0.00    -0.237 OA
ATOM     95  O   UNL A   1      54.792  27.054  24.992  1.00  0.00    -0.237 OA
ATOM     96  O   UNL A   1      54.078  24.708  24.756  1.00  0.00    -0.744 OA
ENDBRANCH  92  93
ENDBRANCH  60  85
ENDBRANCH  34  35
ENDBRANCH  27  29
ENDBRANCH  26  27
ENDBRANCH  25  26
ENDBRANCH  24  25
ENDBRANCH  23  24
ENDBRANCH   1  23
TORSDOF 21
ENDMDL
MODEL 3
REMARK VINA RESULT:      -9.9      1.189      8.237
REMARK SMILES CC(C)CS(=O)(=O)Cc1c(C(=O)OCCOCCOC(=O)c2ccc(-c3c4nc(c(-c5c(F)cc(S(=O)(=O)[O-])cc5F)c5ccc([nH]5)c(-c5c(F)cc(S(=O)(=O)[O-])cc5F)c5nc(c(-c6c(F)cc(S(=O)(=O)[O-])cc6F)c6ccc3[nH]6)C=C5)C=C4)cc2)oc2ccccc12
REMARK SMILES IDX 15 1 14 2 13 3 11 4 12 5 10 6 9 7 94 8 88 9 89 10 93 11
REMARK SMILES IDX 90 12 92 13 91 14 8 15 5 16 6 17 7 18 4 19 2 20 1 21 3 22
REMARK SMILES IDX 16 23 17 24 18 25 19 26 20 27 21 28 22 29 23 30 87 31 24 32
REMARK SMILES IDX 86 33 25 34 26 35 27 36 80 37 28 38 85 39 79 40 81 41 29 42
REMARK SMILES IDX 84 43 78 44 77 45 30 47 64 48 43 49 63 50 44 51 47 52 62 53
REMARK SMILES IDX 82 54 45 55 46 56 61 58 83 59 48 60 31 61 32 62 41 63 33 64
REMARK SMILES IDX 34 65 40 66 42 67 35 68 36 69 37 70 38 71 39 72 65 73 66 74
REMARK SMILES IDX 75 75 67 76 68 77 74 78 76 79 69 80 70 81 71 82 72 83 73 84
REMARK SMILES IDX 49 85 50 86 59 87 51 88 52 89 58 90 60 91 53 92 54 93 55 94
REMARK SMILES IDX 56 95 57 96
REMARK H PARENT 81 46 47 57
REMARK Flexibility Score: inf
ROOT
ATOM      1  C   UNL A   1      34.956  31.433  27.780  1.00  0.00     0.202 C 
ENDROOT
BRANCH   1   2
ATOM      2  C   UNL A   1      33.688  30.641  27.445  1.00  0.00     0.261 C 
BRANCH   2   3
ATOM      3  O   UNL A   1      33.813  30.088  26.129  1.00  0.00    -0.457 OA
BRANCH   3   4
ATOM      4  C   UNL A   1      33.635  28.738  26.067  1.00  0.00     0.374 C 
ATOM      5  O   UNL A   1      34.391  27.900  26.541  1.00  0.00    -0.242 OA
BRANCH   4   6
ATOM      6  C   UNL A   1      32.355  28.435  25.476  1.00  0.00     0.217 A 
ATOM      7  C   UNL A   1      31.556  27.294  25.548  1.00  0.00     0.028 A 
ATOM      8  C   UNL A   1      30.463  27.543  24.650  1.00  0.00     0.025 A 
ATOM      9  O   UNL A   1      31.760  29.383  24.694  1.00  0.00    -0.449 OA
ATOM     10  C   UNL A   1      30.645  28.832  24.162  1.00  0.00     0.135 A 
ATOM     11  C   UNL A   1      29.360  26.812  24.169  1.00  0.00     0.012 A 
ATOM     12  C   UNL A   1      29.817  29.455  23.230  1.00  0.00     0.048 A 
ATOM     13  C   UNL A   1      28.520  27.401  23.208  1.00  0.00     0.001 A 
ATOM     14  C   UNL A   1      28.747  28.700  22.747  1.00  0.00     0.004 A 
BRANCH   7  15
ATOM     15  C   UNL A   1      31.859  26.022  26.286  1.00  0.00     0.177 C 
BRANCH  15  16
ATOM     16  S   UNL A   1      32.704  24.699  25.397  1.00  0.00     0.154 S 
ATOM     17  O   UNL A   1      31.722  23.658  25.137  1.00  0.00    -0.228 OA
ATOM     18  O   UNL A   1      33.900  24.354  26.150  1.00  0.00    -0.228 OA
BRANCH  16  19
ATOM     19  C   UNL A   1      33.258  25.318  23.815  1.00  0.00     0.140 C 
BRANCH  19  20
ATOM     20  C   UNL A   1      32.541  24.823  22.552  1.00  0.00    -0.002 C 
ATOM     21  C   UNL A   1      32.470  25.873  21.452  1.00  0.00     0.008 C 
ATOM     22  C   UNL A   1      33.276  23.591  21.999  1.00  0.00     0.008 C 
ENDBRANCH  19  20
ENDBRANCH  16  19
ENDBRANCH  15  16
ENDBRANCH   7  15
ENDBRANCH   4   6
ENDBRANCH   3   4
ENDBRANCH   2   3
ENDBRANCH   1   2
BRANCH   1  23
ATOM     23  O   UNL A   1      34.660  32.788  28.143  1.00  0.00    -0.374 OA
BRANCH  23  24
ATOM     24  C   UNL A   1      35.504  33.325  29.175  1.00  0.00     0.202 C 
BRANCH  24  25
ATOM     25  C   UNL A   1      35.378  32.500  30.459  1.00  0.00     0.261 C 
BRANCH  25  26
ATOM     26  O   UNL A   1      36.694  32.181  30.915  1.00  0.00    -0.460 OA
BRANCH  26  27
ATOM     27  C   UNL A   1      36.911  30.870  31.173  1.00  0.00     0.338 C 
ATOM     28  O   UNL A   1      36.115  30.074  31.637  1.00  0.00    -0.246 OA
BRANCH  27  29
ATOM     29  C   UNL A   1      38.217  30.503  30.570  1.00  0.00     0.060 A 
ATOM     30  C   UNL A   1      39.240  30.078  31.427  1.00  0.00     0.016 A 
ATOM     31  C   UNL A   1      38.401  30.469  29.181  1.00  0.00     0.016 A 
ATOM     32  C   UNL A   1      40.454  29.644  30.897  1.00  0.00     0.010 A 
ATOM     33  C   UNL A   1      39.605  30.019  28.652  1.00  0.00     0.010 A 
ATOM     34  C   UNL A   1      40.644  29.631  29.509  1.00  0.00    -0.014 A 
BRANCH  34  35
ATOM     35  C   UNL A   1      41.976  29.355  28.936  1.00  0.00     0.031 A 
ATOM     36  C   UNL A   1      42.270  27.958  28.472  1.00  0.00     0.074 A 
ATOM     37  C   UNL A   1      42.905  30.324  28.872  1.00  0.00     0.049 A 
ATOM     38  N   UNL A   1      43.378  27.461  27.995  1.00  0.00    -0.248 NA
ATOM     39  C   UNL A   1      41.166  26.987  28.575  1.00  0.00     0.031 C 
ATOM     40  C   UNL A   1      42.716  31.708  29.307  1.00  0.00     0.029 A 
ATOM     41  N   UNL A   1      44.200  30.284  28.428  1.00  0.00    -0.354 N 
ATOM     42  C   UNL A   1      43.110  26.121  27.743  1.00  0.00     0.074 A 
ATOM     43  C   UNL A   1      41.747  25.872  28.156  1.00  0.00     0.031 C 
ATOM     44  C   UNL A   1      43.861  32.385  29.116  1.00  0.00     0.029 A 
ATOM     45  C   UNL A   1      44.867  31.477  28.570  1.00  0.00     0.049 A 
ATOM     46  H   UNL A   1      44.614  29.477  28.046  1.00  0.00     0.167 HD
ATOM     47  C   UNL A   1      43.924  25.188  27.202  1.00  0.00     0.037 A 
ATOM     48  C   UNL A   1      46.149  31.788  28.297  1.00  0.00     0.037 A 
ATOM     49  C   UNL A   1      45.279  25.453  26.798  1.00  0.00     0.049 A 
ATOM     50  C   UNL A   1      47.047  30.726  27.721  1.00  0.00     0.074 A 
ATOM     51  C   UNL A   1      46.189  24.591  26.215  1.00  0.00     0.029 A 
ATOM     52  N   UNL A   1      45.918  26.676  26.944  1.00  0.00    -0.354 N 
ATOM     53  N   UNL A   1      46.768  29.472  27.445  1.00  0.00    -0.248 NA
ATOM     54  C   UNL A   1      48.428  31.117  27.413  1.00  0.00     0.031 C 
ATOM     55  C   UNL A   1      47.392  25.284  26.042  1.00  0.00     0.029 A 
ATOM     56  C   UNL A   1      47.217  26.589  26.478  1.00  0.00     0.049 A 
ATOM     57  H   UNL A   1      45.508  27.487  27.323  1.00  0.00     0.167 HD
ATOM     58  C   UNL A   1      47.932  28.932  26.909  1.00  0.00     0.074 A 
ATOM     59  C   UNL A   1      48.914  29.998  26.892  1.00  0.00     0.031 C 
ATOM     60  C   UNL A   1      48.169  27.672  26.468  1.00  0.00     0.037 A 
BRANCH  47  61
ATOM     61  C   UNL A   1      43.370  23.804  27.029  1.00  0.00     0.058 A 
ATOM     62  C   UNL A   1      42.987  23.316  25.769  1.00  0.00     0.135 A 
ATOM     63  C   UNL A   1      43.220  22.952  28.135  1.00  0.00     0.135 A 
ATOM     64  F   UNL A   1      43.085  24.100  24.684  1.00  0.00    -0.206 F 
ATOM     65  C   UNL A   1      42.451  22.042  25.614  1.00  0.00     0.059 A 
ATOM     66  C   UNL A   1      42.710  21.664  27.999  1.00  0.00     0.059 A 
ATOM     67  F   UNL A   1      43.562  23.372  29.363  1.00  0.00    -0.206 F 
ATOM     68  C   UNL A   1      42.314  21.224  26.737  1.00  0.00     0.060 A 
BRANCH  68  69
ATOM     69  S   UNL A   1      41.616  19.573  26.522  1.00  0.00     0.124 S 
ATOM     70  O   UNL A   1      40.184  19.856  26.573  1.00  0.00    -0.237 OA
ATOM     71  O   UNL A   1      42.137  19.181  25.217  1.00  0.00    -0.237 OA
ATOM     72  O   UNL A   1      42.150  18.828  27.658  1.00  0.00    -0.744 OA
ENDBRANCH  68  69
ENDBRANCH  47  61
BRANCH  48  73
ATOM     73  C   UNL A   1      46.653  33.162  28.558  1.00  0.00     0.058 A 
ATOM     74  C   UNL A   1      46.606  34.150  27.564  1.00  0.00     0.135 A 
ATOM     75  C   UNL A   1      47.175  33.519  29.811  1.00  0.00     0.135 A 
ATOM     76  F   UNL A   1      46.120  33.854  26.349  1.00  0.00    -0.206 F 
ATOM     77  C   UNL A   1      47.070  35.440  27.796  1.00  0.00     0.059 A 
ATOM     78  C   UNL A   1      47.625  34.810  30.074  1.00  0.00     0.059 A 
ATOM     79  F   UNL A   1      47.229  32.614  30.800  1.00  0.00    -0.206 F 
ATOM     80  C   UNL A   1      47.577  35.762  29.057  1.00  0.00     0.060 A 
BRANCH  80  81
ATOM     81  S   UNL A   1      48.123  37.455  29.367  1.00  0.00     0.124 S 
ATOM     82  O   UNL A   1      46.877  38.096  29.771  1.00  0.00    -0.237 OA
ATOM     83  O   UNL A   1      49.116  37.269  30.421  1.00  0.00    -0.237 OA
ATOM     84  O   UNL A   1      48.662  37.874  28.077  1.00  0.00    -0.744 OA
ENDBRANCH  80  81
ENDBRANCH  48  73
BRANCH  60  85
ATOM     85  C   UNL A   1      49.531  27.386  25.903  1.00  0.00     0.058 A 
ATOM     86  C   UNL A   1      49.792  27.488  24.528  1.00  0.00     0.135 A 
ATOM     87  C   UNL A   1      50.599  27.068  26.757  1.00  0.00     0.135 A 
ATOM     88  F   UNL A   1      48.803  27.785  23.673  1.00  0.00    -0.206 F 
ATOM     89  C   UNL A   1      51.065  27.262  24.016  1.00  0.00     0.059 A 
ATOM     90  C   UNL A   1      51.884  26.862  26.268  1.00  0.00     0.059 A 
ATOM     91  F   UNL A   1      50.401  26.971  28.081  1.00  0.00    -0.206 F 
ATOM     92  C   UNL A   1      52.105  26.951  24.895  1.00  0.00     0.060 A 
BRANCH  92  93
ATOM     93  S   UNL A   1      53.761  26.696  24.222  1.00  0.00     0.124 S 
ATOM     94  O   UNL A   1      54.585  27.397  25.201  1.00  0.00    -0.237 OA
ATOM     95  O   UNL A   1      53.879  25.241  24.219  1.00  0.00    -0.237 OA
ATOM     96  O   UNL A   1      53.688  27.315  22.902  1.00  0.00    -0.744 OA
ENDBRANCH  92  93
ENDBRANCH  60  85
ENDBRANCH  34  35
ENDBRANCH  27  29
ENDBRANCH  26  27
ENDBRANCH  25  26
ENDBRANCH  24  25
ENDBRANCH  23  24
ENDBRANCH   1  23
TORSDOF 21
ENDMDL
