MODEL 1
REMARK VINA RESULT:     -13.0      0.000      0.000
REMARK SMILES NS(=O)(=O)c1ccc(-n2nc(C(=O)OCCOCCOC(=O)c3ccc(-c4c5nc(c(-c6c(F)cc(S(=O)(=O)[O-])cc6F)c6ccc([nH]6)c(-c6c(F)cc(S(=O)(=O)[O-])cc6F)c6nc(c(-c7c(F)cc(S(=O)(=O)[O-])cc7F)c7ccc4[nH]7)C=C6)C=C5)cc3)cc2-c2cc3ccccc3s2)cc1
REMARK SMILES IDX 17 1 16 2 15 3 14 4 12 5 13 6 11 7 9 8 10 9 90 10 89 11 8 12
REMARK SMILES IDX 5 13 6 14 101 15 7 16 100 17 2 18 3 19 4 20 1 21 91 24 92 25
REMARK SMILES IDX 99 26 93 27 98 28 94 29 97 30 95 31 96 32 18 33 19 34 20 35
REMARK SMILES IDX 21 36 22 37 23 38 24 39 88 40 25 41 87 42 26 43 27 44 28 45
REMARK SMILES IDX 81 46 29 47 86 48 80 49 82 50 30 51 85 52 79 53 78 54 31 56
REMARK SMILES IDX 65 57 44 58 64 59 45 60 48 61 63 62 83 63 46 64 47 65 62 67
REMARK SMILES IDX 84 68 49 69 32 70 33 71 42 72 34 73 35 74 41 75 43 76 36 77
REMARK SMILES IDX 37 78 38 79 39 80 40 81 66 82 67 83 76 84 68 85 69 86 75 87
REMARK SMILES IDX 77 88 70 89 71 90 72 91 73 92 74 93 50 94 51 95 60 96 52 97
REMARK SMILES IDX 53 98 59 99 61 100 54 101 55 102 56 103 57 104 58 105
REMARK H PARENT 1 22 1 23 82 55 48 66
REMARK Flexibility Score: inf
ROOT
ATOM      1  O   UNL A   1      37.193  22.319  23.763  1.00  0.00    -0.374 OA
ENDROOT
BRANCH   1   2
ATOM      2  C   UNL A   1      36.232  23.374  23.792  1.00  0.00     0.202 C 
BRANCH   2   3
ATOM      3  C   UNL A   1      34.877  23.132  23.127  1.00  0.00     0.261 C 
BRANCH   3   4
ATOM      4  O   UNL A   1      34.372  24.327  22.524  1.00  0.00    -0.458 OA
BRANCH   4   5
ATOM      5  C   UNL A   1      33.292  24.162  21.699  1.00  0.00     0.358 C 
ATOM      6  O   UNL A   1      33.299  23.497  20.670  1.00  0.00    -0.244 OA
BRANCH   5   7
ATOM      7  C   UNL A   1      32.111  24.853  22.229  1.00  0.00     0.171 A 
ATOM      8  N   UNL A   1      30.880  26.478  22.837  1.00  0.00    -0.231 N 
ATOM      9  N   UNL A   1      31.709  26.078  21.839  1.00  0.00    -0.160 NA
ATOM     10  C   UNL A   1      30.798  25.532  23.829  1.00  0.00     0.085 A 
ATOM     11  C   UNL A   1      31.257  24.367  23.240  1.00  0.00     0.068 A 
BRANCH   8  12
ATOM     12  C   UNL A   1      30.238  27.724  22.760  1.00  0.00     0.065 A 
ATOM     13  C   UNL A   1      28.913  30.144  22.584  1.00  0.00     0.082 A 
ATOM     14  C   UNL A   1      30.272  30.071  22.253  1.00  0.00     0.024 A 
ATOM     15  C   UNL A   1      28.213  29.011  23.015  1.00  0.00     0.024 A 
ATOM     16  C   UNL A   1      30.947  28.856  22.356  1.00  0.00     0.030 A 
ATOM     17  C   UNL A   1      28.875  27.787  23.079  1.00  0.00     0.030 A 
BRANCH  13  18
ATOM     18  S   UNL A   1      28.065  31.687  22.437  1.00  0.00     0.238 S 
ATOM     19  O   UNL A   1      27.108  31.790  23.507  1.00  0.00    -0.207 OA
ATOM     20  O   UNL A   1      27.706  31.894  21.047  1.00  0.00    -0.207 OA
BRANCH  18  21
ATOM     21  N   UNL A   1      29.258  32.823  22.755  1.00  0.00    -0.225 NA
ATOM     22  H   UNL A   1      30.155  32.352  22.868  1.00  0.00     0.137 HD
ATOM     23  H   UNL A   1      29.029  33.325  23.613  1.00  0.00     0.137 HD
ENDBRANCH  18  21
ENDBRANCH  13  18
ENDBRANCH   8  12
BRANCH  10  24
ATOM     24  C   UNL A   1      30.596  25.699  25.246  1.00  0.00     0.054 A 
ATOM     25  C   UNL A   1      30.197  24.724  26.152  1.00  0.00     0.031 A 
ATOM     26  S   UNL A   1      31.908  26.526  26.071  1.00  0.00    -0.134 S 
ATOM     27  C   UNL A   1      31.420  24.092  26.631  1.00  0.00    -0.007 A 
ATOM     28  C   UNL A   1      32.522  24.939  26.436  1.00  0.00     0.035 A 
ATOM     29  C   UNL A   1      31.666  22.774  27.069  1.00  0.00     0.009 A 
ATOM     30  C   UNL A   1      33.846  24.483  26.493  1.00  0.00     0.019 A 
ATOM     31  C   UNL A   1      32.983  22.300  27.102  1.00  0.00     0.001 A 
ATOM     32  C   UNL A   1      34.051  23.131  26.773  1.00  0.00     0.001 A 
ENDBRANCH  10  24
ENDBRANCH   5   7
ENDBRANCH   4   5
ENDBRANCH   3   4
ENDBRANCH   2   3
ENDBRANCH   1   2
BRANCH   1  33
ATOM     33  C   UNL A   1      37.267  21.365  24.817  1.00  0.00     0.202 C 
BRANCH  33  34
ATOM     34  C   UNL A   1      38.479  21.353  25.734  1.00  0.00     0.261 C 
BRANCH  34  35
ATOM     35  O   UNL A   1      38.871  22.654  26.140  1.00  0.00    -0.460 OA
BRANCH  35  36
ATOM     36  C   UNL A   1      39.936  22.651  26.976  1.00  0.00     0.338 C 
ATOM     37  O   UNL A   1      40.301  21.739  27.699  1.00  0.00    -0.246 OA
BRANCH  36  38
ATOM     38  C   UNL A   1      40.490  24.006  27.023  1.00  0.00     0.060 A 
ATOM     39  C   UNL A   1      41.601  24.178  27.850  1.00  0.00     0.016 A 
ATOM     40  C   UNL A   1      39.706  25.082  26.583  1.00  0.00     0.016 A 
ATOM     41  C   UNL A   1      41.759  25.397  28.463  1.00  0.00     0.010 A 
ATOM     42  C   UNL A   1      39.856  26.292  27.208  1.00  0.00     0.010 A 
ATOM     43  C   UNL A   1      40.810  26.395  28.215  1.00  0.00    -0.014 A 
BRANCH  43  44
ATOM     44  C   UNL A   1      40.915  27.634  28.946  1.00  0.00     0.031 A 
ATOM     45  C   UNL A   1      41.994  28.477  28.396  1.00  0.00     0.074 A 
ATOM     46  C   UNL A   1      40.058  27.990  29.919  1.00  0.00     0.049 A 
ATOM     47  N   UNL A   1      43.189  28.612  28.864  1.00  0.00    -0.248 NA
ATOM     48  C   UNL A   1      41.824  28.993  27.027  1.00  0.00     0.031 C 
ATOM     49  C   UNL A   1      38.817  27.338  30.338  1.00  0.00     0.029 A 
ATOM     50  N   UNL A   1      40.097  29.099  30.704  1.00  0.00    -0.354 N 
ATOM     51  C   UNL A   1      43.817  29.479  27.982  1.00  0.00     0.074 A 
ATOM     52  C   UNL A   1      43.057  29.426  26.764  1.00  0.00     0.031 C 
ATOM     53  C   UNL A   1      38.113  28.183  31.132  1.00  0.00     0.029 A 
ATOM     54  C   UNL A   1      38.912  29.368  31.386  1.00  0.00     0.049 A 
ATOM     55  H   UNL A   1      40.897  29.666  30.783  1.00  0.00     0.167 HD
ATOM     56  C   UNL A   1      44.686  30.419  28.441  1.00  0.00     0.037 A 
ATOM     57  C   UNL A   1      38.626  30.533  32.030  1.00  0.00     0.037 A 
ATOM     58  C   UNL A   1      45.130  30.099  29.778  1.00  0.00     0.049 A 
ATOM     59  C   UNL A   1      39.935  31.194  32.312  1.00  0.00     0.074 A 
ATOM     60  C   UNL A   1      45.765  29.013  30.352  1.00  0.00     0.029 A 
ATOM     61  N   UNL A   1      44.554  30.788  30.821  1.00  0.00    -0.354 N 
ATOM     62  N   UNL A   1      40.830  30.695  33.126  1.00  0.00    -0.248 NA
ATOM     63  C   UNL A   1      40.455  32.107  31.303  1.00  0.00     0.031 C 
ATOM     64  C   UNL A   1      45.139  28.844  31.621  1.00  0.00     0.029 A 
ATOM     65  C   UNL A   1      44.220  29.880  31.794  1.00  0.00     0.049 A 
ATOM     66  H   UNL A   1      44.407  31.761  30.860  1.00  0.00     0.167 HD
ATOM     67  C   UNL A   1      42.046  30.882  32.480  1.00  0.00     0.074 A 
ATOM     68  C   UNL A   1      41.755  31.805  31.382  1.00  0.00     0.031 C 
ATOM     69  C   UNL A   1      43.106  30.047  32.703  1.00  0.00     0.037 A 
BRANCH  56  70
ATOM     70  C   UNL A   1      44.787  31.812  27.863  1.00  0.00     0.058 A 
ATOM     71  C   UNL A   1      45.969  32.180  27.191  1.00  0.00     0.135 A 
ATOM     72  C   UNL A   1      43.905  32.877  28.165  1.00  0.00     0.135 A 
ATOM     73  F   UNL A   1      46.882  31.254  26.859  1.00  0.00    -0.206 F 
ATOM     74  C   UNL A   1      46.285  33.510  26.913  1.00  0.00     0.059 A 
ATOM     75  C   UNL A   1      44.174  34.200  27.844  1.00  0.00     0.059 A 
ATOM     76  F   UNL A   1      42.780  32.718  28.870  1.00  0.00    -0.206 F 
ATOM     77  C   UNL A   1      45.383  34.513  27.256  1.00  0.00     0.060 A 
BRANCH  77  78
ATOM     78  S   UNL A   1      45.819  36.234  26.977  1.00  0.00     0.124 S 
ATOM     79  O   UNL A   1      46.606  36.530  28.168  1.00  0.00    -0.237 OA
ATOM     80  O   UNL A   1      46.557  36.154  25.721  1.00  0.00    -0.237 OA
ATOM     81  O   UNL A   1      44.521  36.899  26.894  1.00  0.00    -0.744 OA
ENDBRANCH  77  78
ENDBRANCH  56  70
BRANCH  57  82
ATOM     82  C   UNL A   1      37.338  31.287  32.016  1.00  0.00     0.058 A 
ATOM     83  C   UNL A   1      36.755  31.772  33.204  1.00  0.00     0.135 A 
ATOM     84  C   UNL A   1      36.802  31.800  30.816  1.00  0.00     0.135 A 
ATOM     85  F   UNL A   1      37.214  31.359  34.395  1.00  0.00    -0.206 F 
ATOM     86  C   UNL A   1      35.739  32.739  33.202  1.00  0.00     0.059 A 
ATOM     87  C   UNL A   1      35.787  32.756  30.790  1.00  0.00     0.059 A 
ATOM     88  F   UNL A   1      37.316  31.456  29.627  1.00  0.00    -0.206 F 
ATOM     89  C   UNL A   1      35.274  33.241  31.986  1.00  0.00     0.060 A 
BRANCH  89  90
ATOM     90  S   UNL A   1      34.088  34.609  31.970  1.00  0.00     0.124 S 
ATOM     91  O   UNL A   1      34.903  35.721  32.446  1.00  0.00    -0.237 OA
ATOM     92  O   UNL A   1      33.694  34.661  30.566  1.00  0.00    -0.237 OA
ATOM     93  O   UNL A   1      33.045  34.163  32.890  1.00  0.00    -0.744 OA
ENDBRANCH  89  90
ENDBRANCH  57  82
BRANCH  69  94
ATOM     94  C   UNL A   1      43.036  29.089  33.866  1.00  0.00     0.058 A 
ATOM     95  C   UNL A   1      43.307  29.425  35.205  1.00  0.00     0.135 A 
ATOM     96  C   UNL A   1      42.508  27.812  33.625  1.00  0.00     0.135 A 
ATOM     97  F   UNL A   1      43.717  30.659  35.536  1.00  0.00    -0.206 F 
ATOM     98  C   UNL A   1      43.099  28.518  36.249  1.00  0.00     0.059 A 
ATOM     99  C   UNL A   1      42.261  26.905  34.650  1.00  0.00     0.059 A 
ATOM    100  F   UNL A   1      42.170  27.450  32.376  1.00  0.00    -0.206 F 
ATOM    101  C   UNL A   1      42.572  27.258  35.960  1.00  0.00     0.060 A 
BRANCH 101 102
ATOM    102  S   UNL A   1      42.241  26.104  37.309  1.00  0.00     0.124 S 
ATOM    103  O   UNL A   1      40.855  26.415  37.645  1.00  0.00    -0.237 OA
ATOM    104  O   UNL A   1      42.466  24.806  36.680  1.00  0.00    -0.237 OA
ATOM    105  O   UNL A   1      43.225  26.473  38.324  1.00  0.00    -0.744 OA
ENDBRANCH 101 102
ENDBRANCH  69  94
ENDBRANCH  43  44
ENDBRANCH  36  38
ENDBRANCH  35  36
ENDBRANCH  34  35
ENDBRANCH  33  34
ENDBRANCH   1  33
TORSDOF 21
ENDMDL
MODEL 2
REMARK VINA RESULT:     -12.8      3.208      4.865
REMARK SMILES NS(=O)(=O)c1ccc(-n2nc(C(=O)OCCOCCOC(=O)c3ccc(-c4c5nc(c(-c6c(F)cc(S(=O)(=O)[O-])cc6F)c6ccc([nH]6)c(-c6c(F)cc(S(=O)(=O)[O-])cc6F)c6nc(c(-c7c(F)cc(S(=O)(=O)[O-])cc7F)c7ccc4[nH]7)C=C6)C=C5)cc3)cc2-c2cc3ccccc3s2)cc1
REMARK SMILES IDX 17 1 16 2 15 3 14 4 12 5 13 6 11 7 9 8 10 9 90 10 89 11 8 12
REMARK SMILES IDX 5 13 6 14 101 15 7 16 100 17 2 18 3 19 4 20 1 21 91 24 92 25
REMARK SMILES IDX 99 26 93 27 98 28 94 29 97 30 95 31 96 32 18 33 19 34 20 35
REMARK SMILES IDX 21 36 22 37 23 38 24 39 88 40 25 41 87 42 26 43 27 44 28 45
REMARK SMILES IDX 81 46 29 47 86 48 80 49 82 50 30 51 85 52 79 53 78 54 31 56
REMARK SMILES IDX 65 57 44 58 64 59 45 60 48 61 63 62 83 63 46 64 47 65 62 67
REMARK SMILES IDX 84 68 49 69 32 70 33 71 42 72 34 73 35 74 41 75 43 76 36 77
REMARK SMILES IDX 37 78 38 79 39 80 40 81 66 82 67 83 76 84 68 85 69 86 75 87
REMARK SMILES IDX 77 88 70 89 71 90 72 91 73 92 74 93 50 94 51 95 60 96 52 97
REMARK SMILES IDX 53 98 59 99 61 100 54 101 55 102 56 103 57 104 58 105
REMARK H PARENT 1 22 1 23 82 55 48 66
REMARK Flexibility Score: inf
ROOT
ATOM      1  O   UNL A   1      42.716  19.453  26.435  1.00  0.00    -0.374 OA
ENDROOT
BRANCH   1   2
ATOM      2  C   UNL A   1      41.325  19.481  26.118  1.00  0.00     0.202 C 
BRANCH   2   3
ATOM      3  C   UNL A   1      40.453  20.541  26.791  1.00  0.00     0.261 C 
BRANCH   3   4
ATOM      4  O   UNL A   1      39.449  21.034  25.900  1.00  0.00    -0.458 OA
BRANCH   4   5
ATOM      5  C   UNL A   1      38.921  22.256  26.220  1.00  0.00     0.358 C 
ATOM      6  O   UNL A   1      39.489  23.101  26.901  1.00  0.00    -0.244 OA
BRANCH   5   7
ATOM      7  C   UNL A   1      37.601  22.439  25.607  1.00  0.00     0.171 A 
ATOM      8  N   UNL A   1      35.748  23.380  25.150  1.00  0.00    -0.231 N 
ATOM      9  N   UNL A   1      37.076  23.635  25.278  1.00  0.00    -0.160 NA
ATOM     10  C   UNL A   1      35.462  22.065  25.420  1.00  0.00     0.085 A 
ATOM     11  C   UNL A   1      36.679  21.413  25.312  1.00  0.00     0.068 A 
BRANCH   8  12
ATOM     12  C   UNL A   1      34.868  24.409  24.779  1.00  0.00     0.065 A 
ATOM     13  C   UNL A   1      33.170  26.441  23.986  1.00  0.00     0.082 A 
ATOM     14  C   UNL A   1      33.561  26.348  25.328  1.00  0.00     0.024 A 
ATOM     15  C   UNL A   1      33.617  25.514  23.037  1.00  0.00     0.024 A 
ATOM     16  C   UNL A   1      34.404  25.315  25.734  1.00  0.00     0.030 A 
ATOM     17  C   UNL A   1      34.492  24.505  23.432  1.00  0.00     0.030 A 
BRANCH  13  18
ATOM     18  S   UNL A   1      32.112  27.763  23.481  1.00  0.00     0.238 S 
ATOM     19  O   UNL A   1      32.859  28.993  23.524  1.00  0.00    -0.207 OA
ATOM     20  O   UNL A   1      30.826  27.609  24.131  1.00  0.00    -0.207 OA
BRANCH  18  21
ATOM     21  N   UNL A   1      31.825  27.439  21.859  1.00  0.00    -0.225 NA
ATOM     22  H   UNL A   1      32.628  26.951  21.463  1.00  0.00     0.137 HD
ATOM     23  H   UNL A   1      31.679  28.316  21.358  1.00  0.00     0.137 HD
ENDBRANCH  18  21
ENDBRANCH  13  18
ENDBRANCH   8  12
BRANCH  10  24
ATOM     24  C   UNL A   1      34.278  21.479  25.994  1.00  0.00     0.054 A 
ATOM     25  C   UNL A   1      33.177  22.155  26.507  1.00  0.00     0.031 A 
ATOM     26  S   UNL A   1      33.568  20.192  25.031  1.00  0.00    -0.134 S 
ATOM     27  C   UNL A   1      32.264  22.348  25.388  1.00  0.00    -0.007 A 
ATOM     28  C   UNL A   1      32.530  21.421  24.369  1.00  0.00     0.035 A 
ATOM     29  C   UNL A   1      31.332  23.375  25.125  1.00  0.00     0.009 A 
ATOM     30  C   UNL A   1      32.043  21.573  23.062  1.00  0.00     0.019 A 
ATOM     31  C   UNL A   1      30.863  23.553  23.818  1.00  0.00     0.001 A 
ATOM     32  C   UNL A   1      31.251  22.691  22.795  1.00  0.00     0.001 A 
ENDBRANCH  10  24
ENDBRANCH   5   7
ENDBRANCH   4   5
ENDBRANCH   3   4
ENDBRANCH   2   3
ENDBRANCH   1   2
BRANCH   1  33
ATOM     33  C   UNL A   1      43.610  18.592  25.737  1.00  0.00     0.202 C 
BRANCH  33  34
ATOM     34  C   UNL A   1      44.283  19.083  24.465  1.00  0.00     0.261 C 
BRANCH  34  35
ATOM     35  O   UNL A   1      44.294  20.497  24.362  1.00  0.00    -0.460 OA
BRANCH  35  36
ATOM     36  C   UNL A   1      45.527  21.032  24.523  1.00  0.00     0.338 C 
ATOM     37  O   UNL A   1      46.569  20.430  24.720  1.00  0.00    -0.246 OA
BRANCH  36  38
ATOM     38  C   UNL A   1      45.391  22.487  24.611  1.00  0.00     0.060 A 
ATOM     39  C   UNL A   1      46.425  23.153  25.271  1.00  0.00     0.016 A 
ATOM     40  C   UNL A   1      44.134  23.072  24.400  1.00  0.00     0.016 A 
ATOM     41  C   UNL A   1      46.109  24.296  25.965  1.00  0.00     0.010 A 
ATOM     42  C   UNL A   1      43.818  24.203  25.106  1.00  0.00     0.010 A 
ATOM     43  C   UNL A   1      44.780  24.732  25.960  1.00  0.00    -0.014 A 
BRANCH  43  44
ATOM     44  C   UNL A   1      44.431  25.866  26.780  1.00  0.00     0.031 A 
ATOM     45  C   UNL A   1      45.404  26.962  26.601  1.00  0.00     0.074 A 
ATOM     46  C   UNL A   1      43.303  25.928  27.510  1.00  0.00     0.049 A 
ATOM     47  N   UNL A   1      46.387  27.261  27.381  1.00  0.00    -0.248 NA
ATOM     48  C   UNL A   1      45.470  27.604  25.277  1.00  0.00     0.031 C 
ATOM     49  C   UNL A   1      42.168  25.005  27.533  1.00  0.00     0.029 A 
ATOM     50  N   UNL A   1      42.906  26.916  28.354  1.00  0.00    -0.354 N 
ATOM     51  C   UNL A   1      47.011  28.336  26.764  1.00  0.00     0.074 A 
ATOM     52  C   UNL A   1      46.606  28.293  25.386  1.00  0.00     0.031 C 
ATOM     53  C   UNL A   1      41.125  25.593  28.168  1.00  0.00     0.029 A 
ATOM     54  C   UNL A   1      41.560  26.868  28.711  1.00  0.00     0.049 A 
ATOM     55  H   UNL A   1      43.520  27.611  28.686  1.00  0.00     0.167 HD
ATOM     56  C   UNL A   1      47.515  29.358  27.506  1.00  0.00     0.037 A 
ATOM     57  C   UNL A   1      40.879  27.866  29.337  1.00  0.00     0.037 A 
ATOM     58  C   UNL A   1      47.672  28.962  28.886  1.00  0.00     0.049 A 
ATOM     59  C   UNL A   1      41.903  28.723  30.006  1.00  0.00     0.074 A 
ATOM     60  C   UNL A   1      48.365  27.953  29.530  1.00  0.00     0.029 A 
ATOM     61  N   UNL A   1      46.722  29.393  29.783  1.00  0.00    -0.354 N 
ATOM     62  N   UNL A   1      42.654  28.305  30.992  1.00  0.00    -0.248 NA
ATOM     63  C   UNL A   1      42.445  29.838  29.242  1.00  0.00     0.031 C 
ATOM     64  C   UNL A   1      47.496  27.510  30.569  1.00  0.00     0.029 A 
ATOM     65  C   UNL A   1      46.362  28.323  30.563  1.00  0.00     0.049 A 
ATOM     66  H   UNL A   1      46.362  30.308  29.851  1.00  0.00     0.167 HD
ATOM     67  C   UNL A   1      43.922  28.799  30.711  1.00  0.00     0.074 A 
ATOM     68  C   UNL A   1      43.719  29.781  29.645  1.00  0.00     0.031 C 
ATOM     69  C   UNL A   1      45.048  28.160  31.149  1.00  0.00     0.037 A 
BRANCH  56  70
ATOM     70  C   UNL A   1      47.452  30.806  27.077  1.00  0.00     0.058 A 
ATOM     71  C   UNL A   1      48.618  31.590  27.175  1.00  0.00     0.135 A 
ATOM     72  C   UNL A   1      46.257  31.525  26.836  1.00  0.00     0.135 A 
ATOM     73  F   UNL A   1      49.809  31.017  27.408  1.00  0.00    -0.206 F 
ATOM     74  C   UNL A   1      48.587  32.984  27.116  1.00  0.00     0.059 A 
ATOM     75  C   UNL A   1      46.213  32.907  26.715  1.00  0.00     0.059 A 
ATOM     76  F   UNL A   1      45.051  30.949  26.798  1.00  0.00    -0.206 F 
ATOM     77  C   UNL A   1      47.374  33.631  26.897  1.00  0.00     0.060 A 
BRANCH  77  78
ATOM     78  S   UNL A   1      47.312  35.427  26.903  1.00  0.00     0.124 S 
ATOM     79  O   UNL A   1      45.931  35.667  27.306  1.00  0.00    -0.237 OA
ATOM     80  O   UNL A   1      48.337  35.757  27.887  1.00  0.00    -0.237 OA
ATOM     81  O   UNL A   1      47.639  35.778  25.524  1.00  0.00    -0.744 OA
ENDBRANCH  77  78
ENDBRANCH  56  70
BRANCH  57  82
ATOM     82  C   UNL A   1      39.503  28.357  29.032  1.00  0.00     0.058 A 
ATOM     83  C   UNL A   1      38.486  28.356  30.009  1.00  0.00     0.135 A 
ATOM     84  C   UNL A   1      39.233  29.107  27.868  1.00  0.00     0.135 A 
ATOM     85  F   UNL A   1      38.662  27.690  31.161  1.00  0.00    -0.206 F 
ATOM     86  C   UNL A   1      37.300  29.090  29.860  1.00  0.00     0.059 A 
ATOM     87  C   UNL A   1      38.058  29.839  27.696  1.00  0.00     0.059 A 
ATOM     88  F   UNL A   1      40.149  29.229  26.897  1.00  0.00    -0.206 F 
ATOM     89  C   UNL A   1      37.104  29.846  28.705  1.00  0.00     0.060 A 
BRANCH  89  90
ATOM     90  S   UNL A   1      35.661  30.933  28.572  1.00  0.00     0.124 S 
ATOM     91  O   UNL A   1      34.670  30.047  27.973  1.00  0.00    -0.237 OA
ATOM     92  O   UNL A   1      35.425  31.307  29.962  1.00  0.00    -0.237 OA
ATOM     93  O   UNL A   1      36.132  32.015  27.711  1.00  0.00    -0.744 OA
ENDBRANCH  89  90
ENDBRANCH  57  82
BRANCH  69  94
ATOM     94  C   UNL A   1      44.902  27.067  32.179  1.00  0.00     0.058 A 
ATOM     95  C   UNL A   1      44.790  27.276  33.566  1.00  0.00     0.135 A 
ATOM     96  C   UNL A   1      44.700  25.759  31.715  1.00  0.00     0.135 A 
ATOM     97  F   UNL A   1      44.866  28.510  34.086  1.00  0.00    -0.206 F 
ATOM     98  C   UNL A   1      44.528  26.224  34.451  1.00  0.00     0.059 A 
ATOM     99  C   UNL A   1      44.407  24.704  32.572  1.00  0.00     0.059 A 
ATOM    100  F   UNL A   1      44.733  25.502  30.396  1.00  0.00    -0.206 F 
ATOM    101  C   UNL A   1      44.336  24.940  33.942  1.00  0.00     0.060 A 
BRANCH 101 102
ATOM    102  S   UNL A   1      43.935  23.588  35.071  1.00  0.00     0.124 S 
ATOM    103  O   UNL A   1      42.477  23.634  35.099  1.00  0.00    -0.237 OA
ATOM    104  O   UNL A   1      44.521  22.430  34.402  1.00  0.00    -0.237 OA
ATOM    105  O   UNL A   1      44.594  23.976  36.316  1.00  0.00    -0.744 OA
ENDBRANCH 101 102
ENDBRANCH  69  94
ENDBRANCH  43  44
ENDBRANCH  36  38
ENDBRANCH  35  36
ENDBRANCH  34  35
ENDBRANCH  33  34
ENDBRANCH   1  33
TORSDOF 21
ENDMDL
MODEL 3
REMARK VINA RESULT:     -12.4      2.766      3.915
REMARK SMILES NS(=O)(=O)c1ccc(-n2nc(C(=O)OCCOCCOC(=O)c3ccc(-c4c5nc(c(-c6c(F)cc(S(=O)(=O)[O-])cc6F)c6ccc([nH]6)c(-c6c(F)cc(S(=O)(=O)[O-])cc6F)c6nc(c(-c7c(F)cc(S(=O)(=O)[O-])cc7F)c7ccc4[nH]7)C=C6)C=C5)cc3)cc2-c2cc3ccccc3s2)cc1
REMARK SMILES IDX 17 1 16 2 15 3 14 4 12 5 13 6 11 7 9 8 10 9 90 10 89 11 8 12
REMARK SMILES IDX 5 13 6 14 101 15 7 16 100 17 2 18 3 19 4 20 1 21 91 24 92 25
REMARK SMILES IDX 99 26 93 27 98 28 94 29 97 30 95 31 96 32 18 33 19 34 20 35
REMARK SMILES IDX 21 36 22 37 23 38 24 39 88 40 25 41 87 42 26 43 27 44 28 45
REMARK SMILES IDX 81 46 29 47 86 48 80 49 82 50 30 51 85 52 79 53 78 54 31 56
REMARK SMILES IDX 65 57 44 58 64 59 45 60 48 61 63 62 83 63 46 64 47 65 62 67
REMARK SMILES IDX 84 68 49 69 32 70 33 71 42 72 34 73 35 74 41 75 43 76 36 77
REMARK SMILES IDX 37 78 38 79 39 80 40 81 66 82 67 83 76 84 68 85 69 86 75 87
REMARK SMILES IDX 77 88 70 89 71 90 72 91 73 92 74 93 50 94 51 95 60 96 52 97
REMARK SMILES IDX 53 98 59 99 61 100 54 101 55 102 56 103 57 104 58 105
REMARK H PARENT 1 22 1 23 82 55 48 66
REMARK Flexibility Score: inf
ROOT
ATOM      1  O   UNL A   1      39.649  20.301  26.113  1.00  0.00    -0.374 OA
ENDROOT
BRANCH   1   2
ATOM      2  C   UNL A   1      38.728  19.843  25.124  1.00  0.00     0.202 C 
BRANCH   2   3
ATOM      3  C   UNL A   1      37.334  20.470  25.091  1.00  0.00     0.261 C 
BRANCH   3   4
ATOM      4  O   UNL A   1      37.340  21.719  24.394  1.00  0.00    -0.458 OA
BRANCH   4   5
ATOM      5  C   UNL A   1      36.689  22.748  25.018  1.00  0.00     0.358 C 
ATOM      6  O   UNL A   1      37.051  23.262  26.070  1.00  0.00    -0.244 OA
BRANCH   5   7
ATOM      7  C   UNL A   1      35.523  23.186  24.243  1.00  0.00     0.171 A 
ATOM      8  N   UNL A   1      33.784  24.309  23.754  1.00  0.00    -0.231 N 
ATOM      9  N   UNL A   1      35.048  24.445  24.231  1.00  0.00    -0.160 NA
ATOM     10  C   UNL A   1      33.482  22.993  23.504  1.00  0.00     0.085 A 
ATOM     11  C   UNL A   1      34.712  22.359  23.439  1.00  0.00     0.068 A 
BRANCH   8  12
ATOM     12  C   UNL A   1      32.975  25.442  23.575  1.00  0.00     0.065 A 
ATOM     13  C   UNL A   1      31.328  27.640  23.260  1.00  0.00     0.082 A 
ATOM     14  C   UNL A   1      32.195  27.269  22.224  1.00  0.00     0.024 A 
ATOM     15  C   UNL A   1      31.288  26.922  24.461  1.00  0.00     0.024 A 
ATOM     16  C   UNL A   1      33.038  26.171  22.386  1.00  0.00     0.030 A 
ATOM     17  C   UNL A   1      32.100  25.800  24.610  1.00  0.00     0.030 A 
BRANCH  13  18
ATOM     18  S   UNL A   1      30.254  29.026  23.038  1.00  0.00     0.238 S 
ATOM     19  O   UNL A   1      30.448  29.938  24.135  1.00  0.00    -0.207 OA
ATOM     20  O   UNL A   1      28.944  28.546  22.646  1.00  0.00    -0.207 OA
BRANCH  18  21
ATOM     21  N   UNL A   1      30.869  29.785  21.674  1.00  0.00    -0.225 NA
ATOM     22  H   UNL A   1      30.865  29.132  20.890  1.00  0.00     0.137 HD
ATOM     23  H   UNL A   1      31.825  30.091  21.856  1.00  0.00     0.137 HD
ENDBRANCH  18  21
ENDBRANCH  13  18
ENDBRANCH   8  12
BRANCH  10  24
ATOM     24  C   UNL A   1      32.220  22.305  23.591  1.00  0.00     0.054 A 
ATOM     25  C   UNL A   1      31.750  21.312  22.739  1.00  0.00     0.031 A 
ATOM     26  S   UNL A   1      31.836  21.698  25.195  1.00  0.00    -0.134 S 
ATOM     27  C   UNL A   1      32.218  20.049  23.294  1.00  0.00    -0.007 A 
ATOM     28  C   UNL A   1      32.518  20.190  24.658  1.00  0.00     0.035 A 
ATOM     29  C   UNL A   1      32.558  18.834  22.662  1.00  0.00     0.009 A 
ATOM     30  C   UNL A   1      33.285  19.252  25.364  1.00  0.00     0.019 A 
ATOM     31  C   UNL A   1      33.348  17.904  23.349  1.00  0.00     0.001 A 
ATOM     32  C   UNL A   1      33.743  18.134  24.664  1.00  0.00     0.001 A 
ENDBRANCH  10  24
ENDBRANCH   5   7
ENDBRANCH   4   5
ENDBRANCH   3   4
ENDBRANCH   2   3
ENDBRANCH   1   2
BRANCH   1  33
ATOM     33  C   UNL A   1      40.842  19.578  26.395  1.00  0.00     0.202 C 
BRANCH  33  34
ATOM     34  C   UNL A   1      42.162  20.323  26.507  1.00  0.00     0.261 C 
BRANCH  34  35
ATOM     35  O   UNL A   1      42.714  20.652  25.243  1.00  0.00    -0.460 OA
BRANCH  35  36
ATOM     36  C   UNL A   1      44.056  20.825  25.277  1.00  0.00     0.338 C 
ATOM     37  O   UNL A   1      44.907  19.955  25.353  1.00  0.00    -0.246 OA
BRANCH  36  38
ATOM     38  C   UNL A   1      44.334  22.257  25.401  1.00  0.00     0.060 A 
ATOM     39  C   UNL A   1      45.159  22.625  26.464  1.00  0.00     0.016 A 
ATOM     40  C   UNL A   1      43.505  23.176  24.740  1.00  0.00     0.016 A 
ATOM     41  C   UNL A   1      44.945  23.850  27.047  1.00  0.00     0.010 A 
ATOM     42  C   UNL A   1      43.281  24.391  25.333  1.00  0.00     0.010 A 
ATOM     43  C   UNL A   1      43.925  24.661  26.536  1.00  0.00    -0.014 A 
BRANCH  43  44
ATOM     44  C   UNL A   1      43.629  25.896  27.219  1.00  0.00     0.031 A 
ATOM     45  C   UNL A   1      44.659  26.914  26.935  1.00  0.00     0.074 A 
ATOM     46  C   UNL A   1      42.499  26.096  27.921  1.00  0.00     0.049 A 
ATOM     47  N   UNL A   1      45.650  27.247  27.692  1.00  0.00    -0.248 NA
ATOM     48  C   UNL A   1      44.772  27.400  25.549  1.00  0.00     0.031 C 
ATOM     49  C   UNL A   1      41.317  25.240  28.029  1.00  0.00     0.029 A 
ATOM     50  N   UNL A   1      42.146  27.192  28.644  1.00  0.00    -0.354 N 
ATOM     51  C   UNL A   1      46.334  28.214  26.969  1.00  0.00     0.074 A 
ATOM     52  C   UNL A   1      45.941  28.038  25.599  1.00  0.00     0.031 C 
ATOM     53  C   UNL A   1      40.299  25.949  28.578  1.00  0.00     0.029 A 
ATOM     54  C   UNL A   1      40.795  27.252  28.983  1.00  0.00     0.049 A 
ATOM     55  H   UNL A   1      42.792  27.886  28.906  1.00  0.00     0.167 HD
ATOM     56  C   UNL A   1      46.884  29.286  27.600  1.00  0.00     0.037 A 
ATOM     57  C   UNL A   1      40.162  28.347  29.484  1.00  0.00     0.037 A 
ATOM     58  C   UNL A   1      47.007  29.038  29.018  1.00  0.00     0.049 A 
ATOM     59  C   UNL A   1      41.223  29.220  30.070  1.00  0.00     0.074 A 
ATOM     60  C   UNL A   1      47.640  28.074  29.781  1.00  0.00     0.029 A 
ATOM     61  N   UNL A   1      46.072  29.614  29.847  1.00  0.00    -0.354 N 
ATOM     62  N   UNL A   1      41.942  28.877  31.107  1.00  0.00    -0.248 NA
ATOM     63  C   UNL A   1      41.831  30.214  29.195  1.00  0.00     0.031 C 
ATOM     64  C   UNL A   1      46.739  27.794  30.849  1.00  0.00     0.029 A 
ATOM     65  C   UNL A   1      45.649  28.658  30.735  1.00  0.00     0.049 A 
ATOM     66  H   UNL A   1      45.761  30.548  29.808  1.00  0.00     0.167 HD
ATOM     67  C   UNL A   1      43.236  29.271  30.793  1.00  0.00     0.074 A 
ATOM     68  C   UNL A   1      43.095  30.137  29.621  1.00  0.00     0.031 C 
ATOM     69  C   UNL A   1      44.324  28.628  31.316  1.00  0.00     0.037 A 
BRANCH  56  70
ATOM     70  C   UNL A   1      46.901  30.678  27.013  1.00  0.00     0.058 A 
ATOM     71  C   UNL A   1      48.114  31.393  27.006  1.00  0.00     0.135 A 
ATOM     72  C   UNL A   1      45.747  31.439  26.708  1.00  0.00     0.135 A 
ATOM     73  F   UNL A   1      49.273  30.775  27.286  1.00  0.00    -0.206 F 
ATOM     74  C   UNL A   1      48.168  32.770  26.792  1.00  0.00     0.059 A 
ATOM     75  C   UNL A   1      45.786  32.799  26.434  1.00  0.00     0.059 A 
ATOM     76  F   UNL A   1      44.509  30.940  26.751  1.00  0.00    -0.206 F 
ATOM     77  C   UNL A   1      46.993  33.464  26.518  1.00  0.00     0.060 A 
BRANCH  77  78
ATOM     78  S   UNL A   1      47.040  35.251  26.323  1.00  0.00     0.124 S 
ATOM     79  O   UNL A   1      45.694  35.524  25.833  1.00  0.00    -0.237 OA
ATOM     80  O   UNL A   1      47.332  35.690  27.683  1.00  0.00    -0.237 OA
ATOM     81  O   UNL A   1      48.118  35.453  25.359  1.00  0.00    -0.744 OA
ENDBRANCH  77  78
ENDBRANCH  56  70
BRANCH  57  82
ATOM     82  C   UNL A   1      38.816  28.871  29.106  1.00  0.00     0.058 A 
ATOM     83  C   UNL A   1      37.826  29.129  30.075  1.00  0.00     0.135 A 
ATOM     84  C   UNL A   1      38.572  29.404  27.823  1.00  0.00     0.135 A 
ATOM     85  F   UNL A   1      37.983  28.682  31.331  1.00  0.00    -0.206 F 
ATOM     86  C   UNL A   1      36.691  29.906  29.802  1.00  0.00     0.059 A 
ATOM     87  C   UNL A   1      37.447  30.174  27.527  1.00  0.00     0.059 A 
ATOM     88  F   UNL A   1      39.470  29.273  26.837  1.00  0.00    -0.206 F 
ATOM     89  C   UNL A   1      36.520  30.442  28.526  1.00  0.00     0.060 A 
BRANCH  89  90
ATOM     90  S   UNL A   1      35.154  31.586  28.204  1.00  0.00     0.124 S 
ATOM     91  O   UNL A   1      35.849  32.735  27.635  1.00  0.00    -0.237 OA
ATOM     92  O   UNL A   1      34.321  30.822  27.281  1.00  0.00    -0.237 OA
ATOM     93  O   UNL A   1      34.574  31.801  29.528  1.00  0.00    -0.744 OA
ENDBRANCH  89  90
ENDBRANCH  57  82
BRANCH  69  94
ATOM     94  C   UNL A   1      44.110  27.666  32.459  1.00  0.00     0.058 A 
ATOM     95  C   UNL A   1      43.917  26.279  32.319  1.00  0.00     0.135 A 
ATOM     96  C   UNL A   1      44.277  28.157  33.762  1.00  0.00     0.135 A 
ATOM     97  F   UNL A   1      43.851  25.711  31.106  1.00  0.00    -0.206 F 
ATOM     98  C   UNL A   1      43.853  25.429  33.429  1.00  0.00     0.059 A 
ATOM     99  C   UNL A   1      44.250  27.327  34.877  1.00  0.00     0.059 A 
ATOM    100  F   UNL A   1      44.526  29.462  33.960  1.00  0.00    -0.206 F 
ATOM    101  C   UNL A   1      44.023  25.965  34.706  1.00  0.00     0.060 A 
BRANCH 101 102
ATOM    102  S   UNL A   1      44.005  24.865  36.139  1.00  0.00     0.124 S 
ATOM    103  O   UNL A   1      45.429  24.656  36.383  1.00  0.00    -0.237 OA
ATOM    104  O   UNL A   1      43.299  25.659  37.140  1.00  0.00    -0.237 OA
ATOM    105  O   UNL A   1      43.278  23.692  35.660  1.00  0.00    -0.744 OA
ENDBRANCH 101 102
ENDBRANCH  69  94
ENDBRANCH  43  44
ENDBRANCH  36  38
ENDBRANCH  35  36
ENDBRANCH  34  35
ENDBRANCH  33  34
ENDBRANCH   1  33
TORSDOF 21
ENDMDL
