MODEL 1
REMARK VINA RESULT:     -10.8      0.000      0.000
REMARK SMILES COc1ccc(C2=NN(C(=O)CCC(=O)OCCOCCOC(=O)c3ccc(-c4c5nc(c(-c6c(F)cc(S(=O)(=O)[O-])cc6F)c6ccc([nH]6)c(-c6c(F)cc(S(=O)(=O)[O-])cc6F)c6nc(c(-c7c(F)cc(S(=O)(=O)[O-])cc7F)c7ccc4[nH]7)C=C6)C=C5)cc3)[C@@H](c3ccc(Cl)cc3Cl)C2)cc1
REMARK SMILES IDX 18 1 17 2 16 3 14 4 15 5 13 6 12 7 10 8 11 9 9 10 7 11 8 12
REMARK SMILES IDX 100 13 91 14 6 15 3 16 4 17 102 18 5 19 101 20 2 21 1 22
REMARK SMILES IDX 92 23 93 24 98 25 94 26 97 27 99 28 95 29 96 30 19 31 20 32
REMARK SMILES IDX 21 33 22 34 23 35 24 36 25 37 26 38 90 39 27 40 89 41 28 42
REMARK SMILES IDX 29 43 30 44 83 45 31 46 88 47 82 48 84 49 32 50 87 51 81 52
REMARK SMILES IDX 80 53 33 55 67 56 46 57 66 58 47 59 50 60 65 61 85 62 48 63
REMARK SMILES IDX 49 64 64 66 86 67 51 68 34 69 35 70 44 71 36 72 37 73 43 74
REMARK SMILES IDX 45 75 38 76 39 77 40 78 41 79 42 80 68 81 69 82 78 83 70 84
REMARK SMILES IDX 71 85 77 86 79 87 72 88 73 89 74 90 75 91 76 92 52 93 53 94
REMARK SMILES IDX 62 95 54 96 55 97 61 98 63 99 56 100 57 101 58 102 59 103
REMARK SMILES IDX 60 104
REMARK H PARENT 84 54 50 65
REMARK Flexibility Score: inf
ROOT
ATOM      1  C   UNL A   1      34.580  23.978  23.238  1.00  0.00     0.202 C 
ENDROOT
BRANCH   1   2
ATOM      2  C   UNL A   1      33.295  23.776  22.402  1.00  0.00     0.261 C 
BRANCH   2   3
ATOM      3  O   UNL A   1      32.879  24.982  21.778  1.00  0.00    -0.463 OA
BRANCH   3   4
ATOM      4  C   UNL A   1      31.716  25.502  22.160  1.00  0.00     0.306 C 
ATOM      5  O   UNL A   1      30.853  24.898  22.786  1.00  0.00    -0.252 OA
BRANCH   4   6
ATOM      6  C   UNL A   1      31.588  26.934  21.750  1.00  0.00     0.132 C 
BRANCH   6   7
ATOM      7  C   UNL A   1      31.651  28.111  22.725  1.00  0.00     0.114 C 
BRANCH   7   8
ATOM      8  C   UNL A   1      30.745  28.604  23.892  1.00  0.00     0.243 C 
ATOM      9  O   UNL A   1      29.862  29.396  23.522  1.00  0.00    -0.273 OA
BRANCH   8  10
ATOM     10  N   UNL A   1      31.039  28.380  25.240  1.00  0.00    -0.225 N 
ATOM     11  C   UNL A   1      31.605  26.468  26.153  1.00  0.00     0.071 C 
ATOM     12  N   UNL A   1      30.706  27.021  25.418  1.00  0.00    -0.174 NA
ATOM     13  C   UNL A   1      32.591  27.315  26.867  1.00  0.00     0.091 C 
ATOM     14  C   UNL A   1      32.280  28.704  26.323  1.00  0.00     0.149 C 
BRANCH  11  15
ATOM     15  C   UNL A   1      31.744  25.040  26.319  1.00  0.00    -0.002 A 
ATOM     16  C   UNL A   1      32.014  22.328  25.940  1.00  0.00     0.118 A 
ATOM     17  C   UNL A   1      30.771  22.928  25.755  1.00  0.00     0.047 A 
ATOM     18  C   UNL A   1      33.117  23.095  26.326  1.00  0.00     0.047 A 
ATOM     19  C   UNL A   1      30.630  24.289  25.971  1.00  0.00     0.014 A 
ATOM     20  C   UNL A   1      32.992  24.467  26.516  1.00  0.00     0.014 A 
BRANCH  16  21
ATOM     21  O   UNL A   1      32.261  21.001  25.724  1.00  0.00    -0.497 OA
ATOM     22  C   UNL A   1      32.318  20.636  24.347  1.00  0.00     0.278 C 
ENDBRANCH  16  21
ENDBRANCH  11  15
BRANCH  14  23
ATOM     23  C   UNL A   1      33.175  29.965  27.065  1.00  0.00    -0.004 A 
ATOM     24  C   UNL A   1      32.347  31.127  27.214  1.00  0.00     0.009 A 
ATOM     25  C   UNL A   1      34.529  30.267  27.482  1.00  0.00     0.047 A 
ATOM     26  C   UNL A   1      32.790  32.419  27.571  1.00  0.00     0.021 A 
ATOM     27  C   UNL A   1      34.982  31.600  27.739  1.00  0.00     0.041 A 
ATOM     28  Cl  UNL A   1      35.885  29.319  28.005  1.00  0.00    -0.084 Cl
ATOM     29  C   UNL A   1      34.122  32.664  27.779  1.00  0.00     0.042 A 
ATOM     30  Cl  UNL A   1      34.708  34.234  28.142  1.00  0.00    -0.084 Cl
ENDBRANCH  14  23
ENDBRANCH   8  10
ENDBRANCH   7   8
ENDBRANCH   6   7
ENDBRANCH   4   6
ENDBRANCH   3   4
ENDBRANCH   2   3
ENDBRANCH   1   2
BRANCH   1  31
ATOM     31  O   UNL A   1      35.722  23.269  22.719  1.00  0.00    -0.374 OA
BRANCH  31  32
ATOM     32  C   UNL A   1      36.643  22.589  23.565  1.00  0.00     0.202 C 
BRANCH  32  33
ATOM     33  C   UNL A   1      36.349  22.504  25.182  1.00  0.00     0.261 C 
BRANCH  33  34
ATOM     34  O   UNL A   1      37.267  21.710  26.102  1.00  0.00    -0.460 OA
BRANCH  34  35
ATOM     35  C   UNL A   1      38.659  21.639  26.086  1.00  0.00     0.338 C 
ATOM     36  O   UNL A   1      39.268  20.650  25.693  1.00  0.00    -0.246 OA
BRANCH  35  37
ATOM     37  C   UNL A   1      39.454  22.846  26.682  1.00  0.00     0.060 A 
ATOM     38  C   UNL A   1      40.419  22.849  27.705  1.00  0.00     0.016 A 
ATOM     39  C   UNL A   1      39.139  24.120  26.179  1.00  0.00     0.016 A 
ATOM     40  C   UNL A   1      41.122  24.051  28.094  1.00  0.00     0.010 A 
ATOM     41  C   UNL A   1      39.804  25.316  26.588  1.00  0.00     0.010 A 
ATOM     42  C   UNL A   1      40.841  25.314  27.530  1.00  0.00    -0.014 A 
BRANCH  42  43
ATOM     43  C   UNL A   1      41.602  26.597  27.880  1.00  0.00     0.031 A 
ATOM     44  C   UNL A   1      40.996  27.671  28.772  1.00  0.00     0.074 A 
ATOM     45  C   UNL A   1      42.867  26.830  27.439  1.00  0.00     0.049 A 
ATOM     46  N   UNL A   1      41.473  28.855  29.092  1.00  0.00    -0.248 NA
ATOM     47  C   UNL A   1      39.682  27.388  29.361  1.00  0.00     0.031 C 
ATOM     48  C   UNL A   1      43.649  25.915  26.613  1.00  0.00     0.029 A 
ATOM     49  N   UNL A   1      43.758  27.866  27.687  1.00  0.00    -0.354 N 
ATOM     50  C   UNL A   1      40.477  29.493  29.830  1.00  0.00     0.074 A 
ATOM     51  C   UNL A   1      39.419  28.518  30.005  1.00  0.00     0.031 C 
ATOM     52  C   UNL A   1      44.927  26.336  26.564  1.00  0.00     0.029 A 
ATOM     53  C   UNL A   1      45.052  27.615  27.257  1.00  0.00     0.049 A 
ATOM     54  H   UNL A   1      43.495  28.703  28.131  1.00  0.00     0.167 HD
ATOM     55  C   UNL A   1      40.403  30.788  30.246  1.00  0.00     0.037 A 
ATOM     56  C   UNL A   1      46.201  28.319  27.405  1.00  0.00     0.037 A 
ATOM     57  C   UNL A   1      41.435  31.778  30.055  1.00  0.00     0.049 A 
ATOM     58  C   UNL A   1      46.137  29.726  27.958  1.00  0.00     0.074 A 
ATOM     59  C   UNL A   1      41.382  33.147  30.271  1.00  0.00     0.029 A 
ATOM     60  N   UNL A   1      42.719  31.500  29.614  1.00  0.00    -0.354 N 
ATOM     61  N   UNL A   1      45.128  30.351  28.513  1.00  0.00    -0.248 NA
ATOM     62  C   UNL A   1      47.352  30.552  27.826  1.00  0.00     0.031 C 
ATOM     63  C   UNL A   1      42.627  33.699  29.932  1.00  0.00     0.029 A 
ATOM     64  C   UNL A   1      43.465  32.667  29.547  1.00  0.00     0.049 A 
ATOM     65  H   UNL A   1      43.053  30.604  29.380  1.00  0.00     0.167 HD
ATOM     66  C   UNL A   1      45.565  31.655  28.729  1.00  0.00     0.074 A 
ATOM     67  C   UNL A   1      46.956  31.708  28.342  1.00  0.00     0.031 C 
ATOM     68  C   UNL A   1      44.850  32.728  29.152  1.00  0.00     0.037 A 
BRANCH  55  69
ATOM     69  C   UNL A   1      39.073  31.241  30.794  1.00  0.00     0.058 A 
ATOM     70  C   UNL A   1      38.024  31.691  29.977  1.00  0.00     0.135 A 
ATOM     71  C   UNL A   1      38.880  31.287  32.187  1.00  0.00     0.135 A 
ATOM     72  F   UNL A   1      38.155  31.675  28.641  1.00  0.00    -0.206 F 
ATOM     73  C   UNL A   1      36.862  32.235  30.522  1.00  0.00     0.059 A 
ATOM     74  C   UNL A   1      37.721  31.806  32.752  1.00  0.00     0.059 A 
ATOM     75  F   UNL A   1      39.844  30.853  33.016  1.00  0.00    -0.206 F 
ATOM     76  C   UNL A   1      36.733  32.312  31.912  1.00  0.00     0.060 A 
BRANCH  76  77
ATOM     77  S   UNL A   1      35.284  33.134  32.612  1.00  0.00     0.124 S 
ATOM     78  O   UNL A   1      35.362  32.711  34.007  1.00  0.00    -0.237 OA
ATOM     79  O   UNL A   1      35.565  34.543  32.361  1.00  0.00    -0.237 OA
ATOM     80  O   UNL A   1      34.174  32.574  31.847  1.00  0.00    -0.744 OA
ENDBRANCH  76  77
ENDBRANCH  55  69
BRANCH  56  81
ATOM     81  C   UNL A   1      47.541  27.745  27.046  1.00  0.00     0.058 A 
ATOM     82  C   UNL A   1      48.014  27.843  25.723  1.00  0.00     0.135 A 
ATOM     83  C   UNL A   1      48.364  27.073  27.961  1.00  0.00     0.135 A 
ATOM     84  F   UNL A   1      47.254  28.427  24.784  1.00  0.00    -0.206 F 
ATOM     85  C   UNL A   1      49.249  27.332  25.330  1.00  0.00     0.059 A 
ATOM     86  C   UNL A   1      49.617  26.575  27.601  1.00  0.00     0.059 A 
ATOM     87  F   UNL A   1      47.961  26.904  29.229  1.00  0.00    -0.206 F 
ATOM     88  C   UNL A   1      50.050  26.705  26.281  1.00  0.00     0.060 A 
BRANCH  88  89
ATOM     89  S   UNL A   1      51.682  26.101  25.791  1.00  0.00     0.124 S 
ATOM     90  O   UNL A   1      51.539  26.008  24.345  1.00  0.00    -0.237 OA
ATOM     91  O   UNL A   1      52.567  27.153  26.280  1.00  0.00    -0.237 OA
ATOM     92  O   UNL A   1      51.786  24.827  26.503  1.00  0.00    -0.744 OA
ENDBRANCH  88  89
ENDBRANCH  56  81
BRANCH  68  93
ATOM     93  C   UNL A   1      45.534  34.069  29.149  1.00  0.00     0.058 A 
ATOM     94  C   UNL A   1      46.231  34.523  30.280  1.00  0.00     0.135 A 
ATOM     95  C   UNL A   1      45.556  34.875  28.001  1.00  0.00     0.135 A 
ATOM     96  F   UNL A   1      46.238  33.794  31.407  1.00  0.00    -0.206 F 
ATOM     97  C   UNL A   1      46.919  35.732  30.279  1.00  0.00     0.059 A 
ATOM     98  C   UNL A   1      46.252  36.082  27.971  1.00  0.00     0.059 A 
ATOM     99  F   UNL A   1      44.909  34.487  26.891  1.00  0.00    -0.206 F 
ATOM    100  C   UNL A   1      46.928  36.504  29.116  1.00  0.00     0.060 A 
BRANCH 100 101
ATOM    101  S   UNL A   1      47.871  38.045  29.109  1.00  0.00     0.124 S 
ATOM    102  O   UNL A   1      48.852  37.796  30.160  1.00  0.00    -0.237 OA
ATOM    103  O   UNL A   1      48.398  38.086  27.748  1.00  0.00    -0.237 OA
ATOM    104  O   UNL A   1      46.866  39.060  29.415  1.00  0.00    -0.744 OA
ENDBRANCH 100 101
ENDBRANCH  68  93
ENDBRANCH  42  43
ENDBRANCH  35  37
ENDBRANCH  34  35
ENDBRANCH  33  34
ENDBRANCH  32  33
ENDBRANCH  31  32
ENDBRANCH   1  31
TORSDOF 23
ENDMDL
MODEL 2
REMARK VINA RESULT:     -10.3      4.187      6.889
REMARK SMILES COc1ccc(C2=NN(C(=O)CCC(=O)OCCOCCOC(=O)c3ccc(-c4c5nc(c(-c6c(F)cc(S(=O)(=O)[O-])cc6F)c6ccc([nH]6)c(-c6c(F)cc(S(=O)(=O)[O-])cc6F)c6nc(c(-c7c(F)cc(S(=O)(=O)[O-])cc7F)c7ccc4[nH]7)C=C6)C=C5)cc3)[C@@H](c3ccc(Cl)cc3Cl)C2)cc1
REMARK SMILES IDX 18 1 17 2 16 3 14 4 15 5 13 6 12 7 10 8 11 9 9 10 7 11 8 12
REMARK SMILES IDX 100 13 91 14 6 15 3 16 4 17 102 18 5 19 101 20 2 21 1 22
REMARK SMILES IDX 92 23 93 24 98 25 94 26 97 27 99 28 95 29 96 30 19 31 20 32
REMARK SMILES IDX 21 33 22 34 23 35 24 36 25 37 26 38 90 39 27 40 89 41 28 42
REMARK SMILES IDX 29 43 30 44 83 45 31 46 88 47 82 48 84 49 32 50 87 51 81 52
REMARK SMILES IDX 80 53 33 55 67 56 46 57 66 58 47 59 50 60 65 61 85 62 48 63
REMARK SMILES IDX 49 64 64 66 86 67 51 68 34 69 35 70 44 71 36 72 37 73 43 74
REMARK SMILES IDX 45 75 38 76 39 77 40 78 41 79 42 80 68 81 69 82 78 83 70 84
REMARK SMILES IDX 71 85 77 86 79 87 72 88 73 89 74 90 75 91 76 92 52 93 53 94
REMARK SMILES IDX 62 95 54 96 55 97 61 98 63 99 56 100 57 101 58 102 59 103
REMARK SMILES IDX 60 104
REMARK H PARENT 84 54 50 65
REMARK Flexibility Score: inf
ROOT
ATOM      1  C   UNL A   1      30.712  26.770  25.785  1.00  0.00     0.202 C 
ENDROOT
BRANCH   1   2
ATOM      2  C   UNL A   1      29.815  25.541  26.062  1.00  0.00     0.261 C 
BRANCH   2   3
ATOM      3  O   UNL A   1      30.450  24.614  26.931  1.00  0.00    -0.463 OA
BRANCH   3   4
ATOM      4  C   UNL A   1      30.096  23.336  26.831  1.00  0.00     0.306 C 
ATOM      5  O   UNL A   1      29.137  22.831  27.403  1.00  0.00    -0.252 OA
BRANCH   4   6
ATOM      6  C   UNL A   1      31.002  22.580  25.914  1.00  0.00     0.132 C 
BRANCH   6   7
ATOM      7  C   UNL A   1      32.313  21.928  26.356  1.00  0.00     0.114 C 
BRANCH   7   8
ATOM      8  C   UNL A   1      33.609  22.453  27.044  1.00  0.00     0.243 C 
ATOM      9  O   UNL A   1      33.614  22.274  28.273  1.00  0.00    -0.273 OA
BRANCH   8  10
ATOM     10  N   UNL A   1      34.551  23.257  26.395  1.00  0.00    -0.225 N 
ATOM     11  C   UNL A   1      36.484  22.611  25.585  1.00  0.00     0.071 C 
ATOM     12  N   UNL A   1      35.769  22.594  26.655  1.00  0.00    -0.174 NA
ATOM     13  C   UNL A   1      36.089  23.481  24.452  1.00  0.00     0.091 C 
ATOM     14  C   UNL A   1      34.739  24.019  24.911  1.00  0.00     0.149 C 
BRANCH  11  15
ATOM     15  C   UNL A   1      37.663  21.799  25.392  1.00  0.00    -0.002 A 
ATOM     16  C   UNL A   1      39.793  20.082  25.686  1.00  0.00     0.118 A 
ATOM     17  C   UNL A   1      39.863  21.364  26.226  1.00  0.00     0.047 A 
ATOM     18  C   UNL A   1      38.652  19.672  24.989  1.00  0.00     0.047 A 
ATOM     19  C   UNL A   1      38.802  22.237  26.056  1.00  0.00     0.014 A 
ATOM     20  C   UNL A   1      37.569  20.531  24.839  1.00  0.00     0.014 A 
BRANCH  16  21
ATOM     21  O   UNL A   1      40.773  19.139  25.826  1.00  0.00    -0.497 OA
ATOM     22  C   UNL A   1      41.977  19.633  26.407  1.00  0.00     0.278 C 
ENDBRANCH  16  21
ENDBRANCH  11  15
BRANCH  14  23
ATOM     23  C   UNL A   1      34.057  25.193  23.862  1.00  0.00    -0.004 A 
ATOM     24  C   UNL A   1      34.198  26.500  24.437  1.00  0.00     0.009 A 
ATOM     25  C   UNL A   1      33.283  25.272  22.640  1.00  0.00     0.047 A 
ATOM     26  C   UNL A   1      33.567  27.677  23.980  1.00  0.00     0.021 A 
ATOM     27  C   UNL A   1      32.567  26.447  22.251  1.00  0.00     0.041 A 
ATOM     28  Cl  UNL A   1      33.112  24.264  21.238  1.00  0.00    -0.084 Cl
ATOM     29  C   UNL A   1      32.705  27.635  22.916  1.00  0.00     0.042 A 
ATOM     30  Cl  UNL A   1      31.863  29.029  22.378  1.00  0.00    -0.084 Cl
ENDBRANCH  14  23
ENDBRANCH   8  10
ENDBRANCH   7   8
ENDBRANCH   6   7
ENDBRANCH   4   6
ENDBRANCH   3   4
ENDBRANCH   2   3
ENDBRANCH   1   2
BRANCH   1  31
ATOM     31  O   UNL A   1      31.572  27.116  26.888  1.00  0.00    -0.374 OA
BRANCH  31  32
ATOM     32  C   UNL A   1      31.576  28.415  27.470  1.00  0.00     0.202 C 
BRANCH  32  33
ATOM     33  C   UNL A   1      32.163  29.688  26.608  1.00  0.00     0.261 C 
BRANCH  33  34
ATOM     34  O   UNL A   1      33.620  30.111  26.731  1.00  0.00    -0.460 OA
BRANCH  34  35
ATOM     35  C   UNL A   1      34.179  31.052  27.594  1.00  0.00     0.338 C 
ATOM     36  O   UNL A   1      33.695  32.166  27.766  1.00  0.00    -0.246 OA
BRANCH  35  37
ATOM     37  C   UNL A   1      35.529  30.685  28.293  1.00  0.00     0.060 A 
ATOM     38  C   UNL A   1      35.863  29.527  29.017  1.00  0.00     0.016 A 
ATOM     39  C   UNL A   1      36.547  31.655  28.249  1.00  0.00     0.016 A 
ATOM     40  C   UNL A   1      37.191  29.306  29.543  1.00  0.00     0.010 A 
ATOM     41  C   UNL A   1      37.849  31.456  28.802  1.00  0.00     0.010 A 
ATOM     42  C   UNL A   1      38.223  30.262  29.432  1.00  0.00    -0.014 A 
BRANCH  42  43
ATOM     43  C   UNL A   1      39.654  30.040  29.931  1.00  0.00     0.031 A 
ATOM     44  C   UNL A   1      40.120  30.550  31.287  1.00  0.00     0.074 A 
ATOM     45  C   UNL A   1      40.574  29.351  29.204  1.00  0.00     0.049 A 
ATOM     46  N   UNL A   1      41.323  30.522  31.819  1.00  0.00    -0.248 NA
ATOM     47  C   UNL A   1      39.114  31.189  32.142  1.00  0.00     0.031 C 
ATOM     48  C   UNL A   1      40.325  28.738  27.902  1.00  0.00     0.029 A 
ATOM     49  N   UNL A   1      41.879  28.969  29.484  1.00  0.00    -0.354 N 
ATOM     50  C   UNL A   1      41.238  31.227  33.019  1.00  0.00     0.074 A 
ATOM     51  C   UNL A   1      39.839  31.567  33.187  1.00  0.00     0.031 C 
ATOM     52  C   UNL A   1      41.357  27.935  27.580  1.00  0.00     0.029 A 
ATOM     53  C   UNL A   1      42.406  28.051  28.590  1.00  0.00     0.049 A 
ATOM     54  H   UNL A   1      42.386  29.320  30.251  1.00  0.00     0.167 HD
ATOM     55  C   UNL A   1      42.232  31.633  33.858  1.00  0.00     0.037 A 
ATOM     56  C   UNL A   1      43.582  27.376  28.581  1.00  0.00     0.037 A 
ATOM     57  C   UNL A   1      43.632  31.326  33.689  1.00  0.00     0.049 A 
ATOM     58  C   UNL A   1      44.657  27.757  29.575  1.00  0.00     0.074 A 
ATOM     59  C   UNL A   1      44.726  31.838  34.371  1.00  0.00     0.029 A 
ATOM     60  N   UNL A   1      44.132  30.408  32.779  1.00  0.00    -0.354 N 
ATOM     61  N   UNL A   1      44.578  28.551  30.614  1.00  0.00    -0.248 NA
ATOM     62  C   UNL A   1      46.007  27.211  29.341  1.00  0.00     0.031 C 
ATOM     63  C   UNL A   1      45.889  31.250  33.851  1.00  0.00     0.029 A 
ATOM     64  C   UNL A   1      45.514  30.341  32.876  1.00  0.00     0.049 A 
ATOM     65  H   UNL A   1      43.585  29.881  32.153  1.00  0.00     0.167 HD
ATOM     66  C   UNL A   1      45.875  28.653  31.110  1.00  0.00     0.074 A 
ATOM     67  C   UNL A   1      46.702  27.765  30.326  1.00  0.00     0.031 C 
ATOM     68  C   UNL A   1      46.345  29.465  32.090  1.00  0.00     0.037 A 
BRANCH  55  69
ATOM     69  C   UNL A   1      41.841  32.610  34.937  1.00  0.00     0.058 A 
ATOM     70  C   UNL A   1      41.454  32.210  36.225  1.00  0.00     0.135 A 
ATOM     71  C   UNL A   1      41.792  33.984  34.639  1.00  0.00     0.135 A 
ATOM     72  F   UNL A   1      41.475  30.911  36.564  1.00  0.00    -0.206 F 
ATOM     73  C   UNL A   1      40.964  33.128  37.153  1.00  0.00     0.059 A 
ATOM     74  C   UNL A   1      41.327  34.920  35.556  1.00  0.00     0.059 A 
ATOM     75  F   UNL A   1      42.168  34.425  33.427  1.00  0.00    -0.206 F 
ATOM     76  C   UNL A   1      40.879  34.477  36.798  1.00  0.00     0.060 A 
BRANCH  76  77
ATOM     77  S   UNL A   1      40.126  35.642  37.955  1.00  0.00     0.124 S 
ATOM     78  O   UNL A   1      39.762  36.738  37.062  1.00  0.00    -0.237 OA
ATOM     79  O   UNL A   1      39.013  34.873  38.500  1.00  0.00    -0.237 OA
ATOM     80  O   UNL A   1      41.204  35.931  38.896  1.00  0.00    -0.744 OA
ENDBRANCH  76  77
ENDBRANCH  55  69
BRANCH  56  81
ATOM     81  C   UNL A   1      43.851  26.253  27.621  1.00  0.00     0.058 A 
ATOM     82  C   UNL A   1      43.464  24.940  27.951  1.00  0.00     0.135 A 
ATOM     83  C   UNL A   1      44.504  26.428  26.392  1.00  0.00     0.135 A 
ATOM     84  F   UNL A   1      42.881  24.693  29.135  1.00  0.00    -0.206 F 
ATOM     85  C   UNL A   1      43.684  23.858  27.101  1.00  0.00     0.059 A 
ATOM     86  C   UNL A   1      44.713  25.367  25.510  1.00  0.00     0.059 A 
ATOM     87  F   UNL A   1      44.939  27.643  26.029  1.00  0.00    -0.206 F 
ATOM     88  C   UNL A   1      44.304  24.084  25.875  1.00  0.00     0.060 A 
BRANCH  88  89
ATOM     89  S   UNL A   1      44.529  22.695  24.739  1.00  0.00     0.124 S 
ATOM     90  O   UNL A   1      45.276  23.320  23.656  1.00  0.00    -0.237 OA
ATOM     91  O   UNL A   1      45.266  21.736  25.555  1.00  0.00    -0.237 OA
ATOM     92  O   UNL A   1      43.154  22.308  24.421  1.00  0.00    -0.744 OA
ENDBRANCH  88  89
ENDBRANCH  56  81
BRANCH  68  93
ATOM     93  C   UNL A   1      47.831  29.489  32.326  1.00  0.00     0.058 A 
ATOM     94  C   UNL A   1      48.655  30.389  31.630  1.00  0.00     0.135 A 
ATOM     95  C   UNL A   1      48.431  28.668  33.292  1.00  0.00     0.135 A 
ATOM     96  F   UNL A   1      48.134  31.194  30.691  1.00  0.00    -0.206 F 
ATOM     97  C   UNL A   1      50.022  30.468  31.875  1.00  0.00     0.059 A 
ATOM     98  C   UNL A   1      49.796  28.741  33.566  1.00  0.00     0.059 A 
ATOM     99  F   UNL A   1      47.690  27.793  33.989  1.00  0.00    -0.206 F 
ATOM    100  C   UNL A   1      50.584  29.642  32.849  1.00  0.00     0.060 A 
BRANCH 100 101
ATOM    101  S   UNL A   1      52.350  29.794  33.198  1.00  0.00     0.124 S 
ATOM    102  O   UNL A   1      52.339  30.273  34.576  1.00  0.00    -0.237 OA
ATOM    103  O   UNL A   1      52.828  28.429  33.006  1.00  0.00    -0.237 OA
ATOM    104  O   UNL A   1      52.811  30.758  32.202  1.00  0.00    -0.744 OA
ENDBRANCH 100 101
ENDBRANCH  68  93
ENDBRANCH  42  43
ENDBRANCH  35  37
ENDBRANCH  34  35
ENDBRANCH  33  34
ENDBRANCH  32  33
ENDBRANCH  31  32
ENDBRANCH   1  31
TORSDOF 23
ENDMDL
MODEL 3
REMARK VINA RESULT:     -10.2      1.865      8.089
REMARK SMILES COc1ccc(C2=NN(C(=O)CCC(=O)OCCOCCOC(=O)c3ccc(-c4c5nc(c(-c6c(F)cc(S(=O)(=O)[O-])cc6F)c6ccc([nH]6)c(-c6c(F)cc(S(=O)(=O)[O-])cc6F)c6nc(c(-c7c(F)cc(S(=O)(=O)[O-])cc7F)c7ccc4[nH]7)C=C6)C=C5)cc3)[C@@H](c3ccc(Cl)cc3Cl)C2)cc1
REMARK SMILES IDX 18 1 17 2 16 3 14 4 15 5 13 6 12 7 10 8 11 9 9 10 7 11 8 12
REMARK SMILES IDX 100 13 91 14 6 15 3 16 4 17 102 18 5 19 101 20 2 21 1 22
REMARK SMILES IDX 92 23 93 24 98 25 94 26 97 27 99 28 95 29 96 30 19 31 20 32
REMARK SMILES IDX 21 33 22 34 23 35 24 36 25 37 26 38 90 39 27 40 89 41 28 42
REMARK SMILES IDX 29 43 30 44 83 45 31 46 88 47 82 48 84 49 32 50 87 51 81 52
REMARK SMILES IDX 80 53 33 55 67 56 46 57 66 58 47 59 50 60 65 61 85 62 48 63
REMARK SMILES IDX 49 64 64 66 86 67 51 68 34 69 35 70 44 71 36 72 37 73 43 74
REMARK SMILES IDX 45 75 38 76 39 77 40 78 41 79 42 80 68 81 69 82 78 83 70 84
REMARK SMILES IDX 71 85 77 86 79 87 72 88 73 89 74 90 75 91 76 92 52 93 53 94
REMARK SMILES IDX 62 95 54 96 55 97 61 98 63 99 56 100 57 101 58 102 59 103
REMARK SMILES IDX 60 104
REMARK H PARENT 84 54 50 65
REMARK Flexibility Score: inf
ROOT
ATOM      1  C   UNL A   1      34.665  24.626  24.274  1.00  0.00     0.202 C 
ENDROOT
BRANCH   1   2
ATOM      2  C   UNL A   1      34.006  25.866  23.627  1.00  0.00     0.261 C 
BRANCH   2   3
ATOM      3  O   UNL A   1      32.773  25.539  23.002  1.00  0.00    -0.463 OA
BRANCH   3   4
ATOM      4  C   UNL A   1      32.596  25.937  21.746  1.00  0.00     0.306 C 
ATOM      5  O   UNL A   1      33.274  25.568  20.795  1.00  0.00    -0.252 OA
BRANCH   4   6
ATOM      6  C   UNL A   1      31.447  26.886  21.622  1.00  0.00     0.132 C 
BRANCH   6   7
ATOM      7  C   UNL A   1      30.744  27.535  22.815  1.00  0.00     0.114 C 
BRANCH   7   8
ATOM      8  C   UNL A   1      29.907  26.990  24.010  1.00  0.00     0.243 C 
ATOM      9  O   UNL A   1      28.696  26.889  23.751  1.00  0.00    -0.273 OA
BRANCH   8  10
ATOM     10  N   UNL A   1      30.413  26.863  25.307  1.00  0.00    -0.225 N 
ATOM     11  C   UNL A   1      31.389  25.094  26.161  1.00  0.00     0.071 C 
ATOM     12  N   UNL A   1      30.323  25.476  25.550  1.00  0.00    -0.174 NA
ATOM     13  C   UNL A   1      32.319  26.106  26.716  1.00  0.00     0.091 C 
ATOM     14  C   UNL A   1      31.724  27.411  26.200  1.00  0.00     0.149 C 
BRANCH  11  15
ATOM     15  C   UNL A   1      31.771  23.710  26.326  1.00  0.00    -0.002 A 
ATOM     16  C   UNL A   1      32.861  21.198  26.062  1.00  0.00     0.118 A 
ATOM     17  C   UNL A   1      31.794  21.574  25.249  1.00  0.00     0.047 A 
ATOM     18  C   UNL A   1      33.370  22.087  27.014  1.00  0.00     0.047 A 
ATOM     19  C   UNL A   1      31.229  22.829  25.400  1.00  0.00     0.014 A 
ATOM     20  C   UNL A   1      32.828  23.360  27.152  1.00  0.00     0.014 A 
BRANCH  16  21
ATOM     21  O   UNL A   1      33.505  19.996  25.970  1.00  0.00    -0.497 OA
ATOM     22  C   UNL A   1      32.752  18.981  25.309  1.00  0.00     0.278 C 
ENDBRANCH  16  21
ENDBRANCH  11  15
BRANCH  14  23
ATOM     23  C   UNL A   1      32.504  28.820  26.792  1.00  0.00    -0.004 A 
ATOM     24  C   UNL A   1      31.542  29.871  26.968  1.00  0.00     0.009 A 
ATOM     25  C   UNL A   1      33.837  29.321  27.057  1.00  0.00     0.047 A 
ATOM     26  C   UNL A   1      31.837  31.228  27.220  1.00  0.00     0.021 A 
ATOM     27  C   UNL A   1      34.126  30.714  27.207  1.00  0.00     0.041 A 
ATOM     28  Cl  UNL A   1      35.351  28.591  27.486  1.00  0.00    -0.084 Cl
ATOM     29  C   UNL A   1      33.137  31.657  27.283  1.00  0.00     0.042 A 
ATOM     30  Cl  UNL A   1      33.534  33.309  27.513  1.00  0.00    -0.084 Cl
ENDBRANCH  14  23
ENDBRANCH   8  10
ENDBRANCH   7   8
ENDBRANCH   6   7
ENDBRANCH   4   6
ENDBRANCH   3   4
ENDBRANCH   2   3
ENDBRANCH   1   2
BRANCH   1  31
ATOM     31  O   UNL A   1      34.321  23.386  23.626  1.00  0.00    -0.374 OA
BRANCH  31  32
ATOM     32  C   UNL A   1      35.224  22.288  23.556  1.00  0.00     0.202 C 
BRANCH  32  33
ATOM     33  C   UNL A   1      36.802  22.508  23.966  1.00  0.00     0.261 C 
BRANCH  33  34
ATOM     34  O   UNL A   1      37.264  22.348  25.408  1.00  0.00    -0.460 OA
BRANCH  34  35
ATOM     35  C   UNL A   1      38.534  22.021  25.879  1.00  0.00     0.338 C 
ATOM     36  O   UNL A   1      39.023  20.903  25.750  1.00  0.00    -0.246 OA
BRANCH  35  37
ATOM     37  C   UNL A   1      39.315  23.113  26.682  1.00  0.00     0.060 A 
ATOM     38  C   UNL A   1      40.369  22.952  27.597  1.00  0.00     0.016 A 
ATOM     39  C   UNL A   1      38.884  24.442  26.522  1.00  0.00     0.016 A 
ATOM     40  C   UNL A   1      41.039  24.080  28.205  1.00  0.00     0.010 A 
ATOM     41  C   UNL A   1      39.517  25.557  27.151  1.00  0.00     0.010 A 
ATOM     42  C   UNL A   1      40.637  25.415  27.981  1.00  0.00    -0.014 A 
BRANCH  42  43
ATOM     43  C   UNL A   1      41.355  26.635  28.566  1.00  0.00     0.031 A 
ATOM     44  C   UNL A   1      42.797  26.966  28.209  1.00  0.00     0.074 A 
ATOM     45  C   UNL A   1      40.735  27.501  29.411  1.00  0.00     0.049 A 
ATOM     46  N   UNL A   1      43.578  27.911  28.686  1.00  0.00    -0.248 NA
ATOM     47  C   UNL A   1      43.448  26.117  27.205  1.00  0.00     0.031 C 
ATOM     48  C   UNL A   1      39.346  27.398  29.847  1.00  0.00     0.029 A 
ATOM     49  N   UNL A   1      41.157  28.689  29.993  1.00  0.00    -0.354 N 
ATOM     50  C   UNL A   1      44.835  27.705  28.119  1.00  0.00     0.074 A 
ATOM     51  C   UNL A   1      44.677  26.616  27.175  1.00  0.00     0.031 C 
ATOM     52  C   UNL A   1      38.986  28.535  30.472  1.00  0.00     0.029 A 
ATOM     53  C   UNL A   1      40.142  29.419  30.593  1.00  0.00     0.049 A 
ATOM     54  H   UNL A   1      42.094  28.988  29.980  1.00  0.00     0.167 HD
ATOM     55  C   UNL A   1      46.026  28.297  28.414  1.00  0.00     0.037 A 
ATOM     56  C   UNL A   1      40.135  30.649  31.163  1.00  0.00     0.037 A 
ATOM     57  C   UNL A   1      46.204  29.362  29.371  1.00  0.00     0.049 A 
ATOM     58  C   UNL A   1      41.450  31.355  31.407  1.00  0.00     0.074 A 
ATOM     59  C   UNL A   1      47.381  29.898  29.873  1.00  0.00     0.029 A 
ATOM     60  N   UNL A   1      45.169  30.069  29.963  1.00  0.00    -0.354 N 
ATOM     61  N   UNL A   1      42.648  31.044  30.978  1.00  0.00    -0.248 NA
ATOM     62  C   UNL A   1      41.419  32.540  32.286  1.00  0.00     0.031 C 
ATOM     63  C   UNL A   1      47.055  30.908  30.789  1.00  0.00     0.029 A 
ATOM     64  C   UNL A   1      45.677  31.030  30.825  1.00  0.00     0.049 A 
ATOM     65  H   UNL A   1      44.212  29.912  29.797  1.00  0.00     0.167 HD
ATOM     66  C   UNL A   1      43.515  31.946  31.589  1.00  0.00     0.074 A 
ATOM     67  C   UNL A   1      42.701  32.878  32.336  1.00  0.00     0.031 C 
ATOM     68  C   UNL A   1      44.871  31.955  31.580  1.00  0.00     0.037 A 
BRANCH  55  69
ATOM     69  C   UNL A   1      47.256  27.668  27.811  1.00  0.00     0.058 A 
ATOM     70  C   UNL A   1      47.938  26.599  28.411  1.00  0.00     0.135 A 
ATOM     71  C   UNL A   1      47.797  28.206  26.629  1.00  0.00     0.135 A 
ATOM     72  F   UNL A   1      47.471  26.050  29.543  1.00  0.00    -0.206 F 
ATOM     73  C   UNL A   1      49.150  26.134  27.902  1.00  0.00     0.059 A 
ATOM     74  C   UNL A   1      48.993  27.744  26.091  1.00  0.00     0.059 A 
ATOM     75  F   UNL A   1      47.176  29.218  26.003  1.00  0.00    -0.206 F 
ATOM     76  C   UNL A   1      49.682  26.733  26.756  1.00  0.00     0.060 A 
BRANCH  76  77
ATOM     77  S   UNL A   1      51.312  26.215  26.173  1.00  0.00     0.124 S 
ATOM     78  O   UNL A   1      51.157  26.355  24.729  1.00  0.00    -0.237 OA
ATOM     79  O   UNL A   1      52.199  27.182  26.812  1.00  0.00    -0.237 OA
ATOM     80  O   UNL A   1      51.428  24.845  26.663  1.00  0.00    -0.744 OA
ENDBRANCH  76  77
ENDBRANCH  55  69
BRANCH  56  81
ATOM     81  C   UNL A   1      38.860  31.339  31.555  1.00  0.00     0.058 A 
ATOM     82  C   UNL A   1      38.313  31.127  32.836  1.00  0.00     0.135 A 
ATOM     83  C   UNL A   1      38.144  32.184  30.696  1.00  0.00     0.135 A 
ATOM     84  F   UNL A   1      38.920  30.289  33.691  1.00  0.00    -0.206 F 
ATOM     85  C   UNL A   1      37.135  31.741  33.258  1.00  0.00     0.059 A 
ATOM     86  C   UNL A   1      36.976  32.832  31.101  1.00  0.00     0.059 A 
ATOM     87  F   UNL A   1      38.581  32.399  29.446  1.00  0.00    -0.206 F 
ATOM     88  C   UNL A   1      36.477  32.601  32.383  1.00  0.00     0.060 A 
BRANCH  88  89
ATOM     89  S   UNL A   1      34.986  33.453  32.950  1.00  0.00     0.124 S 
ATOM     90  O   UNL A   1      33.939  32.671  32.309  1.00  0.00    -0.237 OA
ATOM     91  O   UNL A   1      35.082  33.326  34.400  1.00  0.00    -0.237 OA
ATOM     92  O   UNL A   1      35.170  34.810  32.436  1.00  0.00    -0.744 OA
ENDBRANCH  88  89
ENDBRANCH  56  81
BRANCH  68  93
ATOM     93  C   UNL A   1      45.569  32.958  32.459  1.00  0.00     0.058 A 
ATOM     94  C   UNL A   1      45.924  32.634  33.779  1.00  0.00     0.135 A 
ATOM     95  C   UNL A   1      45.948  34.218  31.972  1.00  0.00     0.135 A 
ATOM     96  F   UNL A   1      45.581  31.445  34.297  1.00  0.00    -0.206 F 
ATOM     97  C   UNL A   1      46.622  33.525  34.588  1.00  0.00     0.059 A 
ATOM     98  C   UNL A   1      46.662  35.120  32.758  1.00  0.00     0.059 A 
ATOM     99  F   UNL A   1      45.638  34.577  30.716  1.00  0.00    -0.206 F 
ATOM    100  C   UNL A   1      46.990  34.766  34.067  1.00  0.00     0.060 A 
BRANCH 100 101
ATOM    101  S   UNL A   1      47.945  35.892  35.109  1.00  0.00     0.124 S 
ATOM    102  O   UNL A   1      49.084  36.197  34.249  1.00  0.00    -0.237 OA
ATOM    103  O   UNL A   1      47.007  36.988  35.331  1.00  0.00    -0.237 OA
ATOM    104  O   UNL A   1      48.248  35.087  36.290  1.00  0.00    -0.744 OA
ENDBRANCH 100 101
ENDBRANCH  68  93
ENDBRANCH  42  43
ENDBRANCH  35  37
ENDBRANCH  34  35
ENDBRANCH  33  34
ENDBRANCH  32  33
ENDBRANCH  31  32
ENDBRANCH   1  31
TORSDOF 23
ENDMDL
