MODEL 1
REMARK VINA RESULT:     -12.0      0.000      0.000
REMARK SMILES Cc1ccc(C[C@@H](Cc2cc(F)cc(Br)c2)C(=O)OCCOCCOC(=O)c2ccc(-c3c4nc(c(-c5c(F)cc(S(=O)(=O)[O-])cc5F)c5ccc([nH]5)c(-c5c(F)cc(S(=O)(=O)[O-])cc5F)c5nc(c(-c6c(F)cc(S(=O)(=O)[O-])cc6F)c6ccc3[nH]6)C=C5)C=C4)cc2)cc1
REMARK SMILES IDX 23 1 22 2 21 3 20 4 19 5 17 6 18 7 7 8 6 9 5 10 1 11 2 12
REMARK SMILES IDX 3 13 95 14 4 15 94 16 8 17 9 18 10 19 16 20 11 21 14 22
REMARK SMILES IDX 12 23 13 24 15 25 24 26 25 27 26 28 27 29 28 30 29 31 93 32
REMARK SMILES IDX 30 33 92 34 31 35 32 36 33 37 86 38 34 39 91 40 85 41 87 42
REMARK SMILES IDX 35 43 90 44 84 45 83 46 36 48 70 49 49 50 69 51 50 52 53 53
REMARK SMILES IDX 68 54 88 55 51 56 52 57 67 59 89 60 54 61 37 62 38 63 47 64
REMARK SMILES IDX 39 65 40 66 46 67 48 68 41 69 42 70 43 71 44 72 45 73 71 74
REMARK SMILES IDX 72 75 81 76 73 77 74 78 80 79 82 80 75 81 76 82 77 83 78 84
REMARK SMILES IDX 79 85 55 86 56 87 65 88 57 89 58 90 64 91 66 92 59 93 60 94
REMARK SMILES IDX 61 95 62 96 63 97
REMARK H PARENT 87 47 53 58
REMARK Flexibility Score: inf
ROOT
ATOM      1  C   UNL A   1      34.891  32.097  28.302  1.00  0.00     0.202 C 
ENDROOT
BRANCH   1   2
ATOM      2  O   UNL A   1      33.637  31.511  27.947  1.00  0.00    -0.374 OA
BRANCH   2   3
ATOM      3  C   UNL A   1      33.610  30.559  26.904  1.00  0.00     0.202 C 
BRANCH   3   4
ATOM      4  C   UNL A   1      33.864  29.117  27.282  1.00  0.00     0.261 C 
BRANCH   4   5
ATOM      5  O   UNL A   1      33.693  28.191  26.207  1.00  0.00    -0.463 OA
BRANCH   5   6
ATOM      6  C   UNL A   1      32.535  27.497  26.107  1.00  0.00     0.309 C 
ATOM      7  O   UNL A   1      31.429  27.963  26.381  1.00  0.00    -0.252 OA
BRANCH   6   8
ATOM      8  C   UNL A   1      32.793  26.088  25.592  1.00  0.00     0.108 C 
BRANCH   8   9
ATOM      9  C   UNL A   1      31.975  25.754  24.295  1.00  0.00     0.051 C 
BRANCH   9  10
ATOM     10  C   UNL A   1      31.951  24.263  24.034  1.00  0.00    -0.047 A 
ATOM     11  C   UNL A   1      32.572  20.015  23.896  1.00  0.00     0.044 C 
ATOM     12  C   UNL A   1      32.277  21.482  23.889  1.00  0.00    -0.051 A 
ATOM     13  C   UNL A   1      32.947  22.321  22.992  1.00  0.00     0.004 A 
ATOM     14  C   UNL A   1      31.381  22.039  24.809  1.00  0.00     0.004 A 
ATOM     15  C   UNL A   1      32.762  23.700  23.044  1.00  0.00     0.004 A 
ATOM     16  C   UNL A   1      31.219  23.421  24.882  1.00  0.00     0.004 A 
ENDBRANCH   9  10
ENDBRANCH   8   9
BRANCH   8  17
ATOM     17  C   UNL A   1      34.269  25.549  25.541  1.00  0.00     0.051 C 
BRANCH  17  18
ATOM     18  C   UNL A   1      34.826  24.215  25.958  1.00  0.00    -0.043 A 
ATOM     19  C   UNL A   1      34.062  23.411  26.841  1.00  0.00     0.043 A 
ATOM     20  C   UNL A   1      36.005  23.689  25.507  1.00  0.00     0.019 A 
ATOM     21  C   UNL A   1      34.314  22.055  27.010  1.00  0.00     0.124 A 
ATOM     22  C   UNL A   1      36.116  22.307  25.549  1.00  0.00     0.021 A 
ATOM     23  F   UNL A   1      33.525  21.301  27.782  1.00  0.00    -0.207 F 
ATOM     24  C   UNL A   1      35.287  21.467  26.268  1.00  0.00     0.055 A 
ATOM     25  Br  UNL A   1      37.169  21.539  24.263  1.00  0.00    -0.051 Br
ENDBRANCH  17  18
ENDBRANCH   8  17
ENDBRANCH   6   8
ENDBRANCH   5   6
ENDBRANCH   4   5
ENDBRANCH   3   4
ENDBRANCH   2   3
ENDBRANCH   1   2
BRANCH   1  26
ATOM     26  C   UNL A   1      35.306  32.298  29.794  1.00  0.00     0.261 C 
BRANCH  26  27
ATOM     27  O   UNL A   1      36.688  31.958  30.058  1.00  0.00    -0.460 OA
BRANCH  27  28
ATOM     28  C   UNL A   1      36.985  31.204  31.172  1.00  0.00     0.338 C 
ATOM     29  O   UNL A   1      36.702  31.502  32.319  1.00  0.00    -0.246 OA
BRANCH  28  30
ATOM     30  C   UNL A   1      37.278  29.797  30.762  1.00  0.00     0.060 A 
ATOM     31  C   UNL A   1      37.623  28.773  31.640  1.00  0.00     0.016 A 
ATOM     32  C   UNL A   1      37.292  29.521  29.402  1.00  0.00     0.016 A 
ATOM     33  C   UNL A   1      38.274  27.632  31.131  1.00  0.00     0.010 A 
ATOM     34  C   UNL A   1      38.111  28.505  28.926  1.00  0.00     0.010 A 
ATOM     35  C   UNL A   1      38.799  27.691  29.827  1.00  0.00    -0.014 A 
BRANCH  35  36
ATOM     36  C   UNL A   1      40.306  27.598  29.586  1.00  0.00     0.031 A 
ATOM     37  C   UNL A   1      40.899  26.466  28.656  1.00  0.00     0.074 A 
ATOM     38  C   UNL A   1      40.946  28.713  30.084  1.00  0.00     0.049 A 
ATOM     39  N   UNL A   1      42.149  26.157  28.441  1.00  0.00    -0.248 NA
ATOM     40  C   UNL A   1      40.063  25.454  28.010  1.00  0.00     0.031 C 
ATOM     41  C   UNL A   1      42.124  29.473  29.694  1.00  0.00     0.029 A 
ATOM     42  N   UNL A   1      40.770  29.227  31.382  1.00  0.00    -0.354 N 
ATOM     43  C   UNL A   1      42.297  24.889  27.908  1.00  0.00     0.074 A 
ATOM     44  C   UNL A   1      40.952  24.622  27.444  1.00  0.00     0.031 C 
ATOM     45  C   UNL A   1      42.766  29.971  30.768  1.00  0.00     0.029 A 
ATOM     46  C   UNL A   1      42.033  29.484  31.911  1.00  0.00     0.049 A 
ATOM     47  H   UNL A   1      39.910  29.378  31.835  1.00  0.00     0.167 HD
ATOM     48  C   UNL A   1      43.415  24.065  28.024  1.00  0.00     0.037 A 
ATOM     49  C   UNL A   1      42.438  29.726  33.168  1.00  0.00     0.037 A 
ATOM     50  C   UNL A   1      44.409  24.374  29.132  1.00  0.00     0.049 A 
ATOM     51  C   UNL A   1      43.366  28.543  33.632  1.00  0.00     0.074 A 
ATOM     52  C   UNL A   1      45.730  24.812  29.160  1.00  0.00     0.029 A 
ATOM     53  N   UNL A   1      44.079  24.280  30.529  1.00  0.00    -0.354 N 
ATOM     54  N   UNL A   1      43.966  27.687  32.817  1.00  0.00    -0.248 NA
ATOM     55  C   UNL A   1      43.686  28.156  35.003  1.00  0.00     0.031 C 
ATOM     56  C   UNL A   1      46.127  25.104  30.513  1.00  0.00     0.029 A 
ATOM     57  C   UNL A   1      45.026  24.975  31.368  1.00  0.00     0.049 A 
ATOM     58  H   UNL A   1      43.294  23.795  30.876  1.00  0.00     0.167 HD
ATOM     59  C   UNL A   1      44.456  26.531  33.439  1.00  0.00     0.074 A 
ATOM     60  C   UNL A   1      44.371  26.995  34.837  1.00  0.00     0.031 C 
ATOM     61  C   UNL A   1      44.821  25.271  32.866  1.00  0.00     0.037 A 
BRANCH  48  62
ATOM     62  C   UNL A   1      43.735  23.004  26.903  1.00  0.00     0.058 A 
ATOM     63  C   UNL A   1      43.030  21.774  26.807  1.00  0.00     0.135 A 
ATOM     64  C   UNL A   1      44.779  23.094  25.953  1.00  0.00     0.135 A 
ATOM     65  F   UNL A   1      41.950  21.519  27.551  1.00  0.00    -0.206 F 
ATOM     66  C   UNL A   1      43.386  20.719  25.941  1.00  0.00     0.059 A 
ATOM     67  C   UNL A   1      45.201  22.030  25.130  1.00  0.00     0.059 A 
ATOM     68  F   UNL A   1      45.386  24.257  25.696  1.00  0.00    -0.206 F 
ATOM     69  C   UNL A   1      44.501  20.837  25.130  1.00  0.00     0.060 A 
BRANCH  69  70
ATOM     70  S   UNL A   1      44.989  19.457  24.067  1.00  0.00     0.124 S 
ATOM     71  O   UNL A   1      46.445  19.468  24.184  1.00  0.00    -0.237 OA
ATOM     72  O   UNL A   1      44.313  18.328  24.697  1.00  0.00    -0.237 OA
ATOM     73  O   UNL A   1      44.474  19.838  22.754  1.00  0.00    -0.744 OA
ENDBRANCH  69  70
ENDBRANCH  48  62
BRANCH  49  74
ATOM     74  C   UNL A   1      41.680  30.956  33.653  1.00  0.00     0.058 A 
ATOM     75  C   UNL A   1      40.588  30.666  34.523  1.00  0.00     0.135 A 
ATOM     76  C   UNL A   1      42.387  32.138  33.999  1.00  0.00     0.135 A 
ATOM     77  F   UNL A   1      39.852  29.565  34.305  1.00  0.00    -0.206 F 
ATOM     78  C   UNL A   1      40.361  31.342  35.740  1.00  0.00     0.059 A 
ATOM     79  C   UNL A   1      42.167  32.837  35.213  1.00  0.00     0.059 A 
ATOM     80  F   UNL A   1      43.473  32.492  33.293  1.00  0.00    -0.206 F 
ATOM     81  C   UNL A   1      41.191  32.394  36.106  1.00  0.00     0.060 A 
BRANCH  81  82
ATOM     82  S   UNL A   1      41.149  33.008  37.825  1.00  0.00     0.124 S 
ATOM     83  O   UNL A   1      41.940  34.228  37.736  1.00  0.00    -0.237 OA
ATOM     84  O   UNL A   1      39.721  33.184  38.074  1.00  0.00    -0.237 OA
ATOM     85  O   UNL A   1      41.750  31.903  38.561  1.00  0.00    -0.744 OA
ENDBRANCH  81  82
ENDBRANCH  49  74
BRANCH  61  86
ATOM     86  C   UNL A   1      45.118  24.029  33.720  1.00  0.00     0.058 A 
ATOM     87  C   UNL A   1      44.230  22.958  33.893  1.00  0.00     0.135 A 
ATOM     88  C   UNL A   1      46.411  23.820  34.284  1.00  0.00     0.135 A 
ATOM     89  F   UNL A   1      43.051  22.915  33.260  1.00  0.00    -0.206 F 
ATOM     90  C   UNL A   1      44.538  21.847  34.680  1.00  0.00     0.059 A 
ATOM     91  C   UNL A   1      46.768  22.682  34.994  1.00  0.00     0.059 A 
ATOM     92  F   UNL A   1      47.408  24.707  34.163  1.00  0.00    -0.206 F 
ATOM     93  C   UNL A   1      45.806  21.724  35.238  1.00  0.00     0.060 A 
BRANCH  93  94
ATOM     94  S   UNL A   1      46.209  20.303  36.259  1.00  0.00     0.124 S 
ATOM     95  O   UNL A   1      45.795  20.774  37.577  1.00  0.00    -0.237 OA
ATOM     96  O   UNL A   1      45.385  19.248  35.675  1.00  0.00    -0.237 OA
ATOM     97  O   UNL A   1      47.646  20.145  36.066  1.00  0.00    -0.744 OA
ENDBRANCH  93  94
ENDBRANCH  61  86
ENDBRANCH  35  36
ENDBRANCH  28  30
ENDBRANCH  27  28
ENDBRANCH  26  27
ENDBRANCH   1  26
TORSDOF 21
ENDMDL
MODEL 2
REMARK VINA RESULT:     -12.0      5.325     11.639
REMARK SMILES Cc1ccc(C[C@@H](Cc2cc(F)cc(Br)c2)C(=O)OCCOCCOC(=O)c2ccc(-c3c4nc(c(-c5c(F)cc(S(=O)(=O)[O-])cc5F)c5ccc([nH]5)c(-c5c(F)cc(S(=O)(=O)[O-])cc5F)c5nc(c(-c6c(F)cc(S(=O)(=O)[O-])cc6F)c6ccc3[nH]6)C=C5)C=C4)cc2)cc1
REMARK SMILES IDX 23 1 22 2 21 3 20 4 19 5 17 6 18 7 7 8 6 9 5 10 1 11 2 12
REMARK SMILES IDX 3 13 95 14 4 15 94 16 8 17 9 18 10 19 16 20 11 21 14 22
REMARK SMILES IDX 12 23 13 24 15 25 24 26 25 27 26 28 27 29 28 30 29 31 93 32
REMARK SMILES IDX 30 33 92 34 31 35 32 36 33 37 86 38 34 39 91 40 85 41 87 42
REMARK SMILES IDX 35 43 90 44 84 45 83 46 36 48 70 49 49 50 69 51 50 52 53 53
REMARK SMILES IDX 68 54 88 55 51 56 52 57 67 59 89 60 54 61 37 62 38 63 47 64
REMARK SMILES IDX 39 65 40 66 46 67 48 68 41 69 42 70 43 71 44 72 45 73 71 74
REMARK SMILES IDX 72 75 81 76 73 77 74 78 80 79 82 80 75 81 76 82 77 83 78 84
REMARK SMILES IDX 79 85 55 86 56 87 65 88 57 89 58 90 64 91 66 92 59 93 60 94
REMARK SMILES IDX 61 95 62 96 63 97
REMARK H PARENT 87 47 53 58
REMARK Flexibility Score: inf
ROOT
ATOM      1  C   UNL A   1      40.517  21.829  26.992  1.00  0.00     0.202 C 
ENDROOT
BRANCH   1   2
ATOM      2  O   UNL A   1      39.815  21.748  25.751  1.00  0.00    -0.374 OA
BRANCH   2   3
ATOM      3  C   UNL A   1      38.436  21.446  25.774  1.00  0.00     0.202 C 
BRANCH   3   4
ATOM      4  C   UNL A   1      37.484  22.542  25.353  1.00  0.00     0.261 C 
BRANCH   4   5
ATOM      5  O   UNL A   1      36.211  22.495  26.002  1.00  0.00    -0.463 OA
BRANCH   5   6
ATOM      6  C   UNL A   1      35.125  22.090  25.303  1.00  0.00     0.309 C 
ATOM      7  O   UNL A   1      35.013  20.975  24.793  1.00  0.00    -0.252 OA
BRANCH   6   8
ATOM      8  C   UNL A   1      34.071  23.187  25.261  1.00  0.00     0.108 C 
BRANCH   8   9
ATOM      9  C   UNL A   1      32.679  22.715  25.811  1.00  0.00     0.051 C 
BRANCH   9  10
ATOM     10  C   UNL A   1      31.565  23.618  25.324  1.00  0.00    -0.047 A 
ATOM     11  C   UNL A   1      29.080  26.794  23.843  1.00  0.00     0.044 C 
ATOM     12  C   UNL A   1      29.869  25.628  24.354  1.00  0.00    -0.051 A 
ATOM     13  C   UNL A   1      30.075  25.479  25.730  1.00  0.00     0.004 A 
ATOM     14  C   UNL A   1      30.456  24.715  23.471  1.00  0.00     0.004 A 
ATOM     15  C   UNL A   1      30.893  24.462  26.214  1.00  0.00     0.004 A 
ATOM     16  C   UNL A   1      31.300  23.717  23.952  1.00  0.00     0.004 A 
ENDBRANCH   9  10
ENDBRANCH   8   9
BRANCH   8  17
ATOM     17  C   UNL A   1      34.454  24.637  25.730  1.00  0.00     0.051 C 
BRANCH  17  18
ATOM     18  C   UNL A   1      34.031  25.974  25.183  1.00  0.00    -0.043 A 
ATOM     19  C   UNL A   1      33.911  26.121  23.779  1.00  0.00     0.043 A 
ATOM     20  C   UNL A   1      33.702  27.059  25.949  1.00  0.00     0.019 A 
ATOM     21  C   UNL A   1      33.213  27.176  23.204  1.00  0.00     0.124 A 
ATOM     22  C   UNL A   1      32.857  27.990  25.362  1.00  0.00     0.021 A 
ATOM     23  F   UNL A   1      33.040  27.245  21.880  1.00  0.00    -0.207 F 
ATOM     24  C   UNL A   1      32.581  28.066  24.010  1.00  0.00     0.055 A 
ATOM     25  Br  UNL A   1      31.748  28.905  26.495  1.00  0.00    -0.051 Br
ENDBRANCH  17  18
ENDBRANCH   8  17
ENDBRANCH   6   8
ENDBRANCH   5   6
ENDBRANCH   4   5
ENDBRANCH   3   4
ENDBRANCH   2   3
ENDBRANCH   1   2
BRANCH   1  26
ATOM     26  C   UNL A   1      41.884  22.574  27.112  1.00  0.00     0.261 C 
BRANCH  26  27
ATOM     27  O   UNL A   1      41.749  23.977  27.445  1.00  0.00    -0.460 OA
BRANCH  27  28
ATOM     28  C   UNL A   1      42.301  24.915  26.601  1.00  0.00     0.338 C 
ATOM     29  O   UNL A   1      43.192  24.701  25.799  1.00  0.00    -0.246 OA
BRANCH  28  30
ATOM     30  C   UNL A   1      41.376  26.082  26.474  1.00  0.00     0.060 A 
ATOM     31  C   UNL A   1      41.719  27.304  25.903  1.00  0.00     0.016 A 
ATOM     32  C   UNL A   1      40.119  25.962  27.049  1.00  0.00     0.016 A 
ATOM     33  C   UNL A   1      40.942  28.439  26.207  1.00  0.00     0.010 A 
ATOM     34  C   UNL A   1      39.477  27.102  27.517  1.00  0.00     0.010 A 
ATOM     35  C   UNL A   1      40.038  28.358  27.282  1.00  0.00    -0.014 A 
BRANCH  35  36
ATOM     36  C   UNL A   1      40.228  29.219  28.531  1.00  0.00     0.031 A 
ATOM     37  C   UNL A   1      39.032  30.085  29.096  1.00  0.00     0.074 A 
ATOM     38  C   UNL A   1      41.434  28.935  29.136  1.00  0.00     0.049 A 
ATOM     39  N   UNL A   1      39.046  30.965  30.059  1.00  0.00    -0.248 NA
ATOM     40  C   UNL A   1      37.716  30.128  28.457  1.00  0.00     0.031 C 
ATOM     41  C   UNL A   1      41.908  28.924  30.512  1.00  0.00     0.029 A 
ATOM     42  N   UNL A   1      42.674  28.894  28.474  1.00  0.00    -0.354 N 
ATOM     43  C   UNL A   1      37.949  31.808  30.021  1.00  0.00     0.074 A 
ATOM     44  C   UNL A   1      37.056  31.067  29.155  1.00  0.00     0.031 C 
ATOM     45  C   UNL A   1      43.200  29.293  30.589  1.00  0.00     0.029 A 
ATOM     46  C   UNL A   1      43.588  29.617  29.238  1.00  0.00     0.049 A 
ATOM     47  H   UNL A   1      42.864  28.438  27.623  1.00  0.00     0.167 HD
ATOM     48  C   UNL A   1      37.882  33.106  30.524  1.00  0.00     0.037 A 
ATOM     49  C   UNL A   1      44.806  30.101  28.947  1.00  0.00     0.037 A 
ATOM     50  C   UNL A   1      39.192  33.831  30.786  1.00  0.00     0.049 A 
ATOM     51  C   UNL A   1      44.745  31.673  28.991  1.00  0.00     0.074 A 
ATOM     52  C   UNL A   1      39.841  34.283  31.932  1.00  0.00     0.029 A 
ATOM     53  N   UNL A   1      40.114  34.185  29.741  1.00  0.00    -0.354 N 
ATOM     54  N   UNL A   1      43.797  32.376  29.594  1.00  0.00    -0.248 NA
ATOM     55  C   UNL A   1      45.663  32.611  28.353  1.00  0.00     0.031 C 
ATOM     56  C   UNL A   1      41.160  34.758  31.600  1.00  0.00     0.029 A 
ATOM     57  C   UNL A   1      41.427  34.505  30.249  1.00  0.00     0.049 A 
ATOM     58  H   UNL A   1      39.878  34.206  28.785  1.00  0.00     0.167 HD
ATOM     59  C   UNL A   1      43.748  33.728  29.227  1.00  0.00     0.074 A 
ATOM     60  C   UNL A   1      45.062  33.811  28.562  1.00  0.00     0.031 C 
ATOM     61  C   UNL A   1      42.688  34.677  29.380  1.00  0.00     0.037 A 
BRANCH  48  62
ATOM     62  C   UNL A   1      36.502  33.695  31.009  1.00  0.00     0.058 A 
ATOM     63  C   UNL A   1      35.483  34.078  30.096  1.00  0.00     0.135 A 
ATOM     64  C   UNL A   1      36.157  33.993  32.348  1.00  0.00     0.135 A 
ATOM     65  F   UNL A   1      35.567  33.806  28.791  1.00  0.00    -0.206 F 
ATOM     66  C   UNL A   1      34.308  34.767  30.459  1.00  0.00     0.059 A 
ATOM     67  C   UNL A   1      35.026  34.746  32.730  1.00  0.00     0.059 A 
ATOM     68  F   UNL A   1      36.844  33.483  33.374  1.00  0.00    -0.206 F 
ATOM     69  C   UNL A   1      34.103  35.136  31.778  1.00  0.00     0.060 A 
BRANCH  69  70
ATOM     70  S   UNL A   1      32.623  36.074  32.227  1.00  0.00     0.124 S 
ATOM     71  O   UNL A   1      32.301  36.771  30.984  1.00  0.00    -0.237 OA
ATOM     72  O   UNL A   1      31.695  35.020  32.619  1.00  0.00    -0.237 OA
ATOM     73  O   UNL A   1      33.082  36.937  33.314  1.00  0.00    -0.744 OA
ENDBRANCH  69  70
ENDBRANCH  48  62
BRANCH  49  74
ATOM     74  C   UNL A   1      45.670  28.916  28.533  1.00  0.00     0.058 A 
ATOM     75  C   UNL A   1      45.917  28.832  27.130  1.00  0.00     0.135 A 
ATOM     76  C   UNL A   1      46.779  28.529  29.331  1.00  0.00     0.135 A 
ATOM     77  F   UNL A   1      44.946  29.187  26.272  1.00  0.00    -0.206 F 
ATOM     78  C   UNL A   1      47.195  28.614  26.576  1.00  0.00     0.059 A 
ATOM     79  C   UNL A   1      48.069  28.295  28.793  1.00  0.00     0.059 A 
ATOM     80  F   UNL A   1      46.695  28.617  30.668  1.00  0.00    -0.206 F 
ATOM     81  C   UNL A   1      48.281  28.401  27.417  1.00  0.00     0.060 A 
BRANCH  81  82
ATOM     82  S   UNL A   1      49.971  28.505  26.736  1.00  0.00     0.124 S 
ATOM     83  O   UNL A   1      49.743  28.300  25.312  1.00  0.00    -0.237 OA
ATOM     84  O   UNL A   1      50.401  29.843  27.133  1.00  0.00    -0.237 OA
ATOM     85  O   UNL A   1      50.653  27.427  27.441  1.00  0.00    -0.744 OA
ENDBRANCH  81  82
ENDBRANCH  49  74
BRANCH  61  86
ATOM     86  C   UNL A   1      42.712  36.059  28.708  1.00  0.00     0.058 A 
ATOM     87  C   UNL A   1      42.123  36.346  27.469  1.00  0.00     0.135 A 
ATOM     88  C   UNL A   1      43.221  37.199  29.397  1.00  0.00     0.135 A 
ATOM     89  F   UNL A   1      41.430  35.423  26.790  1.00  0.00    -0.206 F 
ATOM     90  C   UNL A   1      42.169  37.617  26.892  1.00  0.00     0.059 A 
ATOM     91  C   UNL A   1      43.195  38.487  28.881  1.00  0.00     0.059 A 
ATOM     92  F   UNL A   1      43.760  37.126  30.622  1.00  0.00    -0.206 F 
ATOM     93  C   UNL A   1      42.720  38.679  27.601  1.00  0.00     0.060 A 
BRANCH  93  94
ATOM     94  S   UNL A   1      42.791  40.315  26.864  1.00  0.00     0.124 S 
ATOM     95  O   UNL A   1      43.198  41.124  28.009  1.00  0.00    -0.237 OA
ATOM     96  O   UNL A   1      43.793  40.149  25.816  1.00  0.00    -0.237 OA
ATOM     97  O   UNL A   1      41.428  40.531  26.390  1.00  0.00    -0.744 OA
ENDBRANCH  93  94
ENDBRANCH  61  86
ENDBRANCH  35  36
ENDBRANCH  28  30
ENDBRANCH  27  28
ENDBRANCH  26  27
ENDBRANCH   1  26
TORSDOF 21
ENDMDL
MODEL 3
REMARK VINA RESULT:     -11.8      5.258     11.691
REMARK SMILES Cc1ccc(C[C@@H](Cc2cc(F)cc(Br)c2)C(=O)OCCOCCOC(=O)c2ccc(-c3c4nc(c(-c5c(F)cc(S(=O)(=O)[O-])cc5F)c5ccc([nH]5)c(-c5c(F)cc(S(=O)(=O)[O-])cc5F)c5nc(c(-c6c(F)cc(S(=O)(=O)[O-])cc6F)c6ccc3[nH]6)C=C5)C=C4)cc2)cc1
REMARK SMILES IDX 23 1 22 2 21 3 20 4 19 5 17 6 18 7 7 8 6 9 5 10 1 11 2 12
REMARK SMILES IDX 3 13 95 14 4 15 94 16 8 17 9 18 10 19 16 20 11 21 14 22
REMARK SMILES IDX 12 23 13 24 15 25 24 26 25 27 26 28 27 29 28 30 29 31 93 32
REMARK SMILES IDX 30 33 92 34 31 35 32 36 33 37 86 38 34 39 91 40 85 41 87 42
REMARK SMILES IDX 35 43 90 44 84 45 83 46 36 48 70 49 49 50 69 51 50 52 53 53
REMARK SMILES IDX 68 54 88 55 51 56 52 57 67 59 89 60 54 61 37 62 38 63 47 64
REMARK SMILES IDX 39 65 40 66 46 67 48 68 41 69 42 70 43 71 44 72 45 73 71 74
REMARK SMILES IDX 72 75 81 76 73 77 74 78 80 79 82 80 75 81 76 82 77 83 78 84
REMARK SMILES IDX 79 85 55 86 56 87 65 88 57 89 58 90 64 91 66 92 59 93 60 94
REMARK SMILES IDX 61 95 62 96 63 97
REMARK H PARENT 87 47 53 58
REMARK Flexibility Score: inf
ROOT
ATOM      1  C   UNL A   1      42.892  21.989  27.861  1.00  0.00     0.202 C 
ENDROOT
BRANCH   1   2
ATOM      2  O   UNL A   1      42.412  21.296  26.708  1.00  0.00    -0.374 OA
BRANCH   2   3
ATOM      3  C   UNL A   1      41.030  21.023  26.611  1.00  0.00     0.202 C 
BRANCH   3   4
ATOM      4  C   UNL A   1      40.143  22.133  26.095  1.00  0.00     0.261 C 
BRANCH   4   5
ATOM      5  O   UNL A   1      38.795  21.735  25.838  1.00  0.00    -0.463 OA
BRANCH   5   6
ATOM      6  C   UNL A   1      37.816  22.670  25.842  1.00  0.00     0.309 C 
ATOM      7  O   UNL A   1      37.884  23.734  26.458  1.00  0.00    -0.252 OA
BRANCH   6   8
ATOM      8  C   UNL A   1      36.648  22.231  24.970  1.00  0.00     0.108 C 
BRANCH   8   9
ATOM      9  C   UNL A   1      35.521  21.502  25.783  1.00  0.00     0.051 C 
BRANCH   9  10
ATOM     10  C   UNL A   1      34.934  20.352  24.993  1.00  0.00    -0.047 A 
ATOM     11  C   UNL A   1      32.983  16.799  23.572  1.00  0.00     0.044 C 
ATOM     12  C   UNL A   1      33.677  18.063  23.975  1.00  0.00    -0.051 A 
ATOM     13  C   UNL A   1      35.031  18.029  24.326  1.00  0.00     0.004 A 
ATOM     14  C   UNL A   1      32.976  19.271  24.063  1.00  0.00     0.004 A 
ATOM     15  C   UNL A   1      35.664  19.174  24.803  1.00  0.00     0.004 A 
ATOM     16  C   UNL A   1      33.600  20.408  24.570  1.00  0.00     0.004 A 
ENDBRANCH   9  10
ENDBRANCH   8   9
BRANCH   8  17
ATOM     17  C   UNL A   1      36.079  23.225  23.893  1.00  0.00     0.051 C 
BRANCH  17  18
ATOM     18  C   UNL A   1      34.860  24.105  23.939  1.00  0.00    -0.043 A 
ATOM     19  C   UNL A   1      34.705  24.988  25.037  1.00  0.00     0.043 A 
ATOM     20  C   UNL A   1      33.900  24.157  22.965  1.00  0.00     0.019 A 
ATOM     21  C   UNL A   1      33.821  26.059  25.005  1.00  0.00     0.124 A 
ATOM     22  C   UNL A   1      33.170  25.334  22.885  1.00  0.00     0.021 A 
ATOM     23  F   UNL A   1      33.758  26.927  26.020  1.00  0.00    -0.207 F 
ATOM     24  C   UNL A   1      33.122  26.304  23.868  1.00  0.00     0.055 A 
ATOM     25  Br  UNL A   1      32.564  25.800  21.222  1.00  0.00    -0.051 Br
ENDBRANCH  17  18
ENDBRANCH   8  17
ENDBRANCH   6   8
ENDBRANCH   5   6
ENDBRANCH   4   5
ENDBRANCH   3   4
ENDBRANCH   2   3
ENDBRANCH   1   2
BRANCH   1  26
ATOM     26  C   UNL A   1      43.463  23.439  27.766  1.00  0.00     0.261 C 
BRANCH  26  27
ATOM     27  O   UNL A   1      42.464  24.432  27.429  1.00  0.00    -0.460 OA
BRANCH  27  28
ATOM     28  C   UNL A   1      42.670  25.234  26.329  1.00  0.00     0.338 C 
ATOM     29  O   UNL A   1      43.332  24.931  25.352  1.00  0.00    -0.246 OA
BRANCH  28  30
ATOM     30  C   UNL A   1      41.630  26.306  26.287  1.00  0.00     0.060 A 
ATOM     31  C   UNL A   1      41.818  27.569  25.732  1.00  0.00     0.016 A 
ATOM     32  C   UNL A   1      40.427  26.050  26.928  1.00  0.00     0.016 A 
ATOM     33  C   UNL A   1      40.953  28.614  26.111  1.00  0.00     0.010 A 
ATOM     34  C   UNL A   1      39.705  27.109  27.463  1.00  0.00     0.010 A 
ATOM     35  C   UNL A   1      40.126  28.420  27.232  1.00  0.00    -0.014 A 
BRANCH  35  36
ATOM     36  C   UNL A   1      40.304  29.268  28.492  1.00  0.00     0.031 A 
ATOM     37  C   UNL A   1      39.105  30.132  29.051  1.00  0.00     0.074 A 
ATOM     38  C   UNL A   1      41.501  28.972  29.109  1.00  0.00     0.049 A 
ATOM     39  N   UNL A   1      39.110  31.003  30.024  1.00  0.00    -0.248 NA
ATOM     40  C   UNL A   1      37.797  30.189  28.397  1.00  0.00     0.031 C 
ATOM     41  C   UNL A   1      41.958  28.944  30.491  1.00  0.00     0.029 A 
ATOM     42  N   UNL A   1      42.750  28.932  28.463  1.00  0.00    -0.354 N 
ATOM     43  C   UNL A   1      38.018  31.852  29.980  1.00  0.00     0.074 A 
ATOM     44  C   UNL A   1      37.133  31.123  29.096  1.00  0.00     0.031 C 
ATOM     45  C   UNL A   1      43.251  29.307  30.589  1.00  0.00     0.029 A 
ATOM     46  C   UNL A   1      43.656  29.643  29.246  1.00  0.00     0.049 A 
ATOM     47  H   UNL A   1      42.948  28.484  27.609  1.00  0.00     0.167 HD
ATOM     48  C   UNL A   1      37.950  33.144  30.496  1.00  0.00     0.037 A 
ATOM     49  C   UNL A   1      44.880  30.125  28.975  1.00  0.00     0.037 A 
ATOM     50  C   UNL A   1      39.260  33.861  30.782  1.00  0.00     0.049 A 
ATOM     51  C   UNL A   1      44.825  31.696  29.034  1.00  0.00     0.074 A 
ATOM     52  C   UNL A   1      39.897  34.298  31.940  1.00  0.00     0.029 A 
ATOM     53  N   UNL A   1      40.197  34.221  29.752  1.00  0.00    -0.354 N 
ATOM     54  N   UNL A   1      43.874  32.397  29.633  1.00  0.00    -0.248 NA
ATOM     55  C   UNL A   1      45.756  32.636  28.418  1.00  0.00     0.031 C 
ATOM     56  C   UNL A   1      41.221  34.770  31.630  1.00  0.00     0.029 A 
ATOM     57  C   UNL A   1      41.504  34.530  30.279  1.00  0.00     0.049 A 
ATOM     58  H   UNL A   1      39.973  34.253  28.793  1.00  0.00     0.167 HD
ATOM     59  C   UNL A   1      43.835  33.753  29.279  1.00  0.00     0.074 A 
ATOM     60  C   UNL A   1      45.158  33.837  28.632  1.00  0.00     0.031 C 
ATOM     61  C   UNL A   1      42.777  34.705  29.428  1.00  0.00     0.037 A 
BRANCH  48  62
ATOM     62  C   UNL A   1      36.567  33.735  30.970  1.00  0.00     0.058 A 
ATOM     63  C   UNL A   1      35.535  34.068  30.051  1.00  0.00     0.135 A 
ATOM     64  C   UNL A   1      36.229  34.081  32.298  1.00  0.00     0.135 A 
ATOM     65  F   UNL A   1      35.612  33.746  28.758  1.00  0.00    -0.206 F 
ATOM     66  C   UNL A   1      34.354  34.756  30.397  1.00  0.00     0.059 A 
ATOM     67  C   UNL A   1      35.092  34.834  32.661  1.00  0.00     0.059 A 
ATOM     68  F   UNL A   1      36.932  33.621  33.338  1.00  0.00    -0.206 F 
ATOM     69  C   UNL A   1      34.155  35.174  31.702  1.00  0.00     0.060 A 
BRANCH  69  70
ATOM     70  S   UNL A   1      32.667  36.111  32.127  1.00  0.00     0.124 S 
ATOM     71  O   UNL A   1      32.406  36.862  30.902  1.00  0.00    -0.237 OA
ATOM     72  O   UNL A   1      31.713  35.052  32.435  1.00  0.00    -0.237 OA
ATOM     73  O   UNL A   1      33.088  36.922  33.268  1.00  0.00    -0.744 OA
ENDBRANCH  69  70
ENDBRANCH  48  62
BRANCH  49  74
ATOM     74  C   UNL A   1      45.744  28.940  28.560  1.00  0.00     0.058 A 
ATOM     75  C   UNL A   1      46.041  28.891  27.165  1.00  0.00     0.135 A 
ATOM     76  C   UNL A   1      46.819  28.517  29.386  1.00  0.00     0.135 A 
ATOM     77  F   UNL A   1      45.105  29.280  26.283  1.00  0.00    -0.206 F 
ATOM     78  C   UNL A   1      47.335  28.671  26.651  1.00  0.00     0.059 A 
ATOM     79  C   UNL A   1      48.125  28.281  28.888  1.00  0.00     0.059 A 
ATOM     80  F   UNL A   1      46.688  28.570  30.721  1.00  0.00    -0.206 F 
ATOM     81  C   UNL A   1      48.387  28.421  27.524  1.00  0.00     0.060 A 
BRANCH  81  82
ATOM     82  S   UNL A   1      50.102  28.521  26.907  1.00  0.00     0.124 S 
ATOM     83  O   UNL A   1      50.578  27.157  27.099  1.00  0.00    -0.237 OA
ATOM     84  O   UNL A   1      49.926  28.951  25.522  1.00  0.00    -0.237 OA
ATOM     85  O   UNL A   1      50.683  29.535  27.777  1.00  0.00    -0.744 OA
ENDBRANCH  81  82
ENDBRANCH  49  74
BRANCH  61  86
ATOM     86  C   UNL A   1      42.816  36.094  28.771  1.00  0.00     0.058 A 
ATOM     87  C   UNL A   1      43.368  37.236  29.368  1.00  0.00     0.135 A 
ATOM     88  C   UNL A   1      42.413  36.274  27.416  1.00  0.00     0.135 A 
ATOM     89  F   UNL A   1      43.969  37.182  30.563  1.00  0.00    -0.206 F 
ATOM     90  C   UNL A   1      43.381  38.481  28.737  1.00  0.00     0.059 A 
ATOM     91  C   UNL A   1      42.501  37.482  26.738  1.00  0.00     0.059 A 
ATOM     92  F   UNL A   1      41.923  35.277  26.666  1.00  0.00    -0.206 F 
ATOM     93  C   UNL A   1      42.933  38.597  27.426  1.00  0.00     0.060 A 
BRANCH  93  94
ATOM     94  S   UNL A   1      42.939  40.195  26.608  1.00  0.00     0.124 S 
ATOM     95  O   UNL A   1      43.119  41.094  27.744  1.00  0.00    -0.237 OA
ATOM     96  O   UNL A   1      44.077  40.084  25.700  1.00  0.00    -0.237 OA
ATOM     97  O   UNL A   1      41.632  40.249  25.960  1.00  0.00    -0.744 OA
ENDBRANCH  93  94
ENDBRANCH  61  86
ENDBRANCH  35  36
ENDBRANCH  28  30
ENDBRANCH  27  28
ENDBRANCH  26  27
ENDBRANCH   1  26
TORSDOF 21
ENDMDL
