MODEL 1
REMARK VINA RESULT:     -11.3      0.000      0.000
REMARK SMILES CS(=O)(=O)c1ccc(N2N=C(C(=O)OCCOCCOC(=O)c3ccc(-c4c5nc(c(-c6c(F)cc(S(=O)(=O)[O-])cc6F)c6ccc([nH]6)c(-c6c(F)cc(S(=O)(=O)[O-])cc6F)c6nc(c(-c7c(F)cc(S(=O)(=O)[O-])cc7F)c7ccc4[nH]7)C=C6)C=C5)cc3)C[C@H]2c2ccco2)cc1
REMARK SMILES IDX 18 1 17 2 16 3 15 4 14 5 12 6 13 7 11 8 9 9 10 10 90 11
REMARK SMILES IDX 89 12 8 13 5 14 6 15 97 16 7 17 96 18 2 19 1 20 3 21 4 22
REMARK SMILES IDX 91 23 92 24 95 25 93 26 94 27 19 28 20 29 21 30 22 31 23 32
REMARK SMILES IDX 24 33 88 34 25 35 87 36 26 37 27 38 28 39 81 40 29 41 86 42
REMARK SMILES IDX 80 43 82 44 30 45 85 46 79 47 78 48 31 50 65 51 44 52 64 53
REMARK SMILES IDX 45 54 48 55 63 56 83 57 46 58 47 59 62 61 84 62 49 63 32 64
REMARK SMILES IDX 33 65 42 66 34 67 35 68 41 69 43 70 36 71 37 72 38 73 39 74
REMARK SMILES IDX 40 75 66 76 67 77 76 78 68 79 69 80 75 81 77 82 70 83 71 84
REMARK SMILES IDX 72 85 73 86 74 87 50 88 51 89 60 90 52 91 53 92 59 93 61 94
REMARK SMILES IDX 54 95 55 96 56 97 57 98 58 99
REMARK H PARENT 82 49 48 60
REMARK Flexibility Score: inf
ROOT
ATOM      1  C   UNL A   1      36.192  21.899  24.054  1.00  0.00     0.202 C 
ENDROOT
BRANCH   1   2
ATOM      2  O   UNL A   1      34.968  22.202  24.728  1.00  0.00    -0.374 OA
BRANCH   2   3
ATOM      3  C   UNL A   1      34.695  21.412  25.892  1.00  0.00     0.202 C 
BRANCH   3   4
ATOM      4  C   UNL A   1      33.344  21.771  26.514  1.00  0.00     0.261 C 
BRANCH   4   5
ATOM      5  O   UNL A   1      33.361  23.174  26.823  1.00  0.00    -0.459 OA
BRANCH   5   6
ATOM      6  C   UNL A   1      32.162  23.787  26.842  1.00  0.00     0.354 C 
ATOM      7  O   UNL A   1      31.200  23.542  27.538  1.00  0.00    -0.245 OA
BRANCH   6   8
ATOM      8  C   UNL A   1      32.244  24.972  25.917  1.00  0.00     0.148 C 
ATOM      9  N   UNL A   1      31.703  26.690  24.813  1.00  0.00    -0.254 N 
ATOM     10  N   UNL A   1      31.238  25.767  25.701  1.00  0.00    -0.169 NA
ATOM     11  C   UNL A   1      33.005  26.333  24.235  1.00  0.00     0.180 C 
ATOM     12  C   UNL A   1      33.549  25.377  25.304  1.00  0.00     0.101 C 
BRANCH   9  13
ATOM     13  C   UNL A   1      30.840  27.647  24.312  1.00  0.00     0.060 A 
ATOM     14  C   UNL A   1      29.123  29.633  23.315  1.00  0.00     0.067 A 
ATOM     15  C   UNL A   1      30.276  30.001  24.008  1.00  0.00     0.022 A 
ATOM     16  C   UNL A   1      28.811  28.285  23.127  1.00  0.00     0.022 A 
ATOM     17  C   UNL A   1      31.119  29.006  24.511  1.00  0.00     0.029 A 
ATOM     18  C   UNL A   1      29.670  27.302  23.626  1.00  0.00     0.029 A 
BRANCH  14  19
ATOM     19  S   UNL A   1      28.019  30.868  22.675  1.00  0.00     0.175 S 
ATOM     20  C   UNL A   1      28.956  32.370  22.601  1.00  0.00     0.163 C 
ATOM     21  O   UNL A   1      26.975  31.073  23.663  1.00  0.00    -0.224 OA
ATOM     22  O   UNL A   1      27.692  30.471  21.319  1.00  0.00    -0.224 OA
ENDBRANCH  14  19
ENDBRANCH   9  13
BRANCH  11  23
ATOM     23  C   UNL A   1      32.993  25.691  22.878  1.00  0.00     0.128 A 
ATOM     24  C   UNL A   1      32.728  26.174  21.611  1.00  0.00     0.048 A 
ATOM     25  O   UNL A   1      33.309  24.363  22.806  1.00  0.00    -0.467 OA
ATOM     26  C   UNL A   1      32.898  25.084  20.723  1.00  0.00     0.042 A 
ATOM     27  C   UNL A   1      33.259  24.008  21.499  1.00  0.00     0.195 A 
ENDBRANCH  11  23
ENDBRANCH   6   8
ENDBRANCH   5   6
ENDBRANCH   4   5
ENDBRANCH   3   4
ENDBRANCH   2   3
ENDBRANCH   1   2
BRANCH   1  28
ATOM     28  C   UNL A   1      37.346  21.627  25.019  1.00  0.00     0.261 C 
BRANCH  28  29
ATOM     29  O   UNL A   1      37.764  22.853  25.645  1.00  0.00    -0.460 OA
BRANCH  29  30
ATOM     30  C   UNL A   1      38.947  22.785  26.304  1.00  0.00     0.338 C 
ATOM     31  O   UNL A   1      39.697  21.825  26.355  1.00  0.00    -0.246 OA
BRANCH  30  32
ATOM     32  C   UNL A   1      39.290  24.107  26.882  1.00  0.00     0.060 A 
ATOM     33  C   UNL A   1      39.919  25.029  26.036  1.00  0.00     0.016 A 
ATOM     34  C   UNL A   1      39.032  24.445  28.217  1.00  0.00     0.016 A 
ATOM     35  C   UNL A   1      40.330  26.265  26.530  1.00  0.00     0.010 A 
ATOM     36  C   UNL A   1      39.445  25.689  28.712  1.00  0.00     0.010 A 
ATOM     37  C   UNL A   1      40.123  26.589  27.877  1.00  0.00    -0.014 A 
BRANCH  37  38
ATOM     38  C   UNL A   1      40.742  27.826  28.406  1.00  0.00     0.031 A 
ATOM     39  C   UNL A   1      42.226  28.013  28.278  1.00  0.00     0.074 A 
ATOM     40  C   UNL A   1      39.983  28.805  28.929  1.00  0.00     0.049 A 
ATOM     41  N   UNL A   1      42.943  29.087  28.480  1.00  0.00    -0.248 NA
ATOM     42  C   UNL A   1      43.002  26.832  27.869  1.00  0.00     0.031 C 
ATOM     43  C   UNL A   1      38.540  28.736  29.143  1.00  0.00     0.029 A 
ATOM     44  N   UNL A   1      40.332  30.057  29.366  1.00  0.00    -0.354 N 
ATOM     45  C   UNL A   1      44.253  28.722  28.201  1.00  0.00     0.074 A 
ATOM     46  C   UNL A   1      44.238  27.315  27.856  1.00  0.00     0.031 C 
ATOM     47  C   UNL A   1      38.124  29.898  29.674  1.00  0.00     0.029 A 
ATOM     48  C   UNL A   1      39.268  30.798  29.815  1.00  0.00     0.049 A 
ATOM     49  H   UNL A   1      41.258  30.392  29.358  1.00  0.00     0.167 HD
ATOM     50  C   UNL A   1      45.368  29.491  28.210  1.00  0.00     0.037 A 
ATOM     51  C   UNL A   1      39.220  32.066  30.266  1.00  0.00     0.037 A 
ATOM     52  C   UNL A   1      45.392  30.884  28.561  1.00  0.00     0.049 A 
ATOM     53  C   UNL A   1      40.460  32.913  30.249  1.00  0.00     0.074 A 
ATOM     54  C   UNL A   1      46.464  31.760  28.555  1.00  0.00     0.029 A 
ATOM     55  N   UNL A   1      44.290  31.603  28.998  1.00  0.00    -0.354 N 
ATOM     56  N   UNL A   1      41.675  32.587  29.878  1.00  0.00    -0.248 NA
ATOM     57  C   UNL A   1      40.318  34.310  30.685  1.00  0.00     0.031 C 
ATOM     58  C   UNL A   1      46.013  33.006  29.010  1.00  0.00     0.029 A 
ATOM     59  C   UNL A   1      44.657  32.908  29.282  1.00  0.00     0.049 A 
ATOM     60  H   UNL A   1      43.380  31.240  29.092  1.00  0.00     0.167 HD
ATOM     61  C   UNL A   1      42.439  33.739  30.021  1.00  0.00     0.074 A 
ATOM     62  C   UNL A   1      41.548  34.774  30.506  1.00  0.00     0.031 C 
ATOM     63  C   UNL A   1      43.758  33.924  29.767  1.00  0.00     0.037 A 
BRANCH  50  64
ATOM     64  C   UNL A   1      46.649  28.816  27.825  1.00  0.00     0.058 A 
ATOM     65  C   UNL A   1      47.077  28.781  26.488  1.00  0.00     0.135 A 
ATOM     66  C   UNL A   1      47.436  28.168  28.787  1.00  0.00     0.135 A 
ATOM     67  F   UNL A   1      46.345  29.372  25.529  1.00  0.00    -0.206 F 
ATOM     68  C   UNL A   1      48.225  28.092  26.113  1.00  0.00     0.059 A 
ATOM     69  C   UNL A   1      48.594  27.483  28.436  1.00  0.00     0.059 A 
ATOM     70  F   UNL A   1      47.061  28.167  30.077  1.00  0.00    -0.206 F 
ATOM     71  C   UNL A   1      48.967  27.433  27.093  1.00  0.00     0.060 A 
BRANCH  71  72
ATOM     72  S   UNL A   1      50.430  26.494  26.600  1.00  0.00     0.124 S 
ATOM     73  O   UNL A   1      50.514  25.510  27.675  1.00  0.00    -0.237 OA
ATOM     74  O   UNL A   1      50.051  25.971  25.292  1.00  0.00    -0.237 OA
ATOM     75  O   UNL A   1      51.484  27.504  26.586  1.00  0.00    -0.744 OA
ENDBRANCH  71  72
ENDBRANCH  50  64
BRANCH  51  76
ATOM     76  C   UNL A   1      37.925  32.617  30.733  1.00  0.00     0.058 A 
ATOM     77  C   UNL A   1      37.559  32.562  32.084  1.00  0.00     0.135 A 
ATOM     78  C   UNL A   1      37.056  33.256  29.837  1.00  0.00     0.135 A 
ATOM     79  F   UNL A   1      38.361  31.957  32.973  1.00  0.00    -0.206 F 
ATOM     80  C   UNL A   1      36.373  33.132  32.538  1.00  0.00     0.059 A 
ATOM     81  C   UNL A   1      35.871  33.841  30.267  1.00  0.00     0.059 A 
ATOM     82  F   UNL A   1      37.374  33.339  28.536  1.00  0.00    -0.206 F 
ATOM     83  C   UNL A   1      35.537  33.772  31.621  1.00  0.00     0.060 A 
BRANCH  83  84
ATOM     84  S   UNL A   1      34.046  34.597  32.220  1.00  0.00     0.124 S 
ATOM     85  O   UNL A   1      33.290  34.767  30.986  1.00  0.00    -0.237 OA
ATOM     86  O   UNL A   1      33.510  33.627  33.170  1.00  0.00    -0.237 OA
ATOM     87  O   UNL A   1      34.568  35.823  32.819  1.00  0.00    -0.744 OA
ENDBRANCH  83  84
ENDBRANCH  51  76
BRANCH  63  88
ATOM     88  C   UNL A   1      44.316  35.297  30.006  1.00  0.00     0.058 A 
ATOM     89  C   UNL A   1      44.874  35.651  31.243  1.00  0.00     0.135 A 
ATOM     90  C   UNL A   1      44.324  36.253  28.979  1.00  0.00     0.135 A 
ATOM     91  F   UNL A   1      44.883  34.769  32.256  1.00  0.00    -0.206 F 
ATOM     92  C   UNL A   1      45.407  36.917  31.463  1.00  0.00     0.059 A 
ATOM     93  C   UNL A   1      44.865  37.521  29.173  1.00  0.00     0.059 A 
ATOM     94  F   UNL A   1      43.809  35.959  27.776  1.00  0.00    -0.206 F 
ATOM     95  C   UNL A   1      45.393  37.847  30.422  1.00  0.00     0.060 A 
BRANCH  95  96
ATOM     96  S   UNL A   1      46.108  39.483  30.697  1.00  0.00     0.124 S 
ATOM     97  O   UNL A   1      46.271  39.964  29.329  1.00  0.00    -0.237 OA
ATOM     98  O   UNL A   1      45.081  40.156  31.486  1.00  0.00    -0.237 OA
ATOM     99  O   UNL A   1      47.345  39.189  31.415  1.00  0.00    -0.744 OA
ENDBRANCH  95  96
ENDBRANCH  63  88
ENDBRANCH  37  38
ENDBRANCH  30  32
ENDBRANCH  29  30
ENDBRANCH  28  29
ENDBRANCH   1  28
TORSDOF 20
ENDMDL
MODEL 2
REMARK VINA RESULT:     -11.3      3.567      8.666
REMARK SMILES CS(=O)(=O)c1ccc(N2N=C(C(=O)OCCOCCOC(=O)c3ccc(-c4c5nc(c(-c6c(F)cc(S(=O)(=O)[O-])cc6F)c6ccc([nH]6)c(-c6c(F)cc(S(=O)(=O)[O-])cc6F)c6nc(c(-c7c(F)cc(S(=O)(=O)[O-])cc7F)c7ccc4[nH]7)C=C6)C=C5)cc3)C[C@H]2c2ccco2)cc1
REMARK SMILES IDX 18 1 17 2 16 3 15 4 14 5 12 6 13 7 11 8 9 9 10 10 90 11
REMARK SMILES IDX 89 12 8 13 5 14 6 15 97 16 7 17 96 18 2 19 1 20 3 21 4 22
REMARK SMILES IDX 91 23 92 24 95 25 93 26 94 27 19 28 20 29 21 30 22 31 23 32
REMARK SMILES IDX 24 33 88 34 25 35 87 36 26 37 27 38 28 39 81 40 29 41 86 42
REMARK SMILES IDX 80 43 82 44 30 45 85 46 79 47 78 48 31 50 65 51 44 52 64 53
REMARK SMILES IDX 45 54 48 55 63 56 83 57 46 58 47 59 62 61 84 62 49 63 32 64
REMARK SMILES IDX 33 65 42 66 34 67 35 68 41 69 43 70 36 71 37 72 38 73 39 74
REMARK SMILES IDX 40 75 66 76 67 77 76 78 68 79 69 80 75 81 77 82 70 83 71 84
REMARK SMILES IDX 72 85 73 86 74 87 50 88 51 89 60 90 52 91 53 92 59 93 61 94
REMARK SMILES IDX 54 95 55 96 56 97 57 98 58 99
REMARK H PARENT 82 49 48 60
REMARK Flexibility Score: inf
ROOT
ATOM      1  C   UNL A   1      31.891  30.184  26.865  1.00  0.00     0.202 C 
ENDROOT
BRANCH   1   2
ATOM      2  O   UNL A   1      31.511  29.039  26.098  1.00  0.00    -0.374 OA
BRANCH   2   3
ATOM      3  C   UNL A   1      31.352  27.824  26.843  1.00  0.00     0.202 C 
BRANCH   3   4
ATOM      4  C   UNL A   1      32.427  26.797  26.483  1.00  0.00     0.261 C 
BRANCH   4   5
ATOM      5  O   UNL A   1      31.838  25.490  26.583  1.00  0.00    -0.459 OA
BRANCH   5   6
ATOM      6  C   UNL A   1      31.228  25.033  25.473  1.00  0.00     0.354 C 
ATOM      7  O   UNL A   1      30.172  25.382  24.993  1.00  0.00    -0.245 OA
BRANCH   6   8
ATOM      8  C   UNL A   1      32.170  24.064  24.805  1.00  0.00     0.148 C 
ATOM      9  N   UNL A   1      33.105  22.262  24.224  1.00  0.00    -0.254 N 
ATOM     10  N   UNL A   1      32.090  22.778  24.972  1.00  0.00    -0.169 NA
ATOM     11  C   UNL A   1      34.045  23.283  23.742  1.00  0.00     0.180 C 
ATOM     12  C   UNL A   1      33.167  24.539  23.794  1.00  0.00     0.101 C 
BRANCH   9  13
ATOM     13  C   UNL A   1      33.345  20.901  24.249  1.00  0.00     0.060 A 
ATOM     14  C   UNL A   1      33.889  18.146  24.319  1.00  0.00     0.067 A 
ATOM     15  C   UNL A   1      34.864  19.053  24.734  1.00  0.00     0.022 A 
ATOM     16  C   UNL A   1      32.651  18.600  23.857  1.00  0.00     0.022 A 
ATOM     17  C   UNL A   1      34.589  20.423  24.685  1.00  0.00     0.029 A 
ATOM     18  C   UNL A   1      32.389  19.973  23.824  1.00  0.00     0.029 A 
BRANCH  14  19
ATOM     19  S   UNL A   1      34.205  16.399  24.353  1.00  0.00     0.175 S 
ATOM     20  C   UNL A   1      32.769  15.657  25.079  1.00  0.00     0.163 C 
ATOM     21  O   UNL A   1      35.305  16.173  25.273  1.00  0.00    -0.224 OA
ATOM     22  O   UNL A   1      34.289  15.965  22.972  1.00  0.00    -0.224 OA
ENDBRANCH  14  19
ENDBRANCH   9  13
BRANCH  11  23
ATOM     23  C   UNL A   1      35.312  23.464  24.526  1.00  0.00     0.128 A 
ATOM     24  C   UNL A   1      35.569  23.899  25.812  1.00  0.00     0.048 A 
ATOM     25  O   UNL A   1      36.489  23.145  23.906  1.00  0.00    -0.467 OA
ATOM     26  C   UNL A   1      36.973  23.834  25.984  1.00  0.00     0.042 A 
ATOM     27  C   UNL A   1      37.485  23.362  24.799  1.00  0.00     0.195 A 
ENDBRANCH  11  23
ENDBRANCH   6   8
ENDBRANCH   5   6
ENDBRANCH   4   5
ENDBRANCH   3   4
ENDBRANCH   2   3
ENDBRANCH   1   2
BRANCH   1  28
ATOM     28  C   UNL A   1      33.374  30.528  26.717  1.00  0.00     0.261 C 
BRANCH  28  29
ATOM     29  O   UNL A   1      34.136  29.881  27.752  1.00  0.00    -0.460 OA
BRANCH  29  30
ATOM     30  C   UNL A   1      34.912  30.709  28.493  1.00  0.00     0.338 C 
ATOM     31  O   UNL A   1      34.544  31.701  29.101  1.00  0.00    -0.246 OA
BRANCH  30  32
ATOM     32  C   UNL A   1      36.295  30.180  28.576  1.00  0.00     0.060 A 
ATOM     33  C   UNL A   1      36.742  29.759  29.835  1.00  0.00     0.016 A 
ATOM     34  C   UNL A   1      37.151  30.110  27.470  1.00  0.00     0.016 A 
ATOM     35  C   UNL A   1      38.051  29.313  29.999  1.00  0.00     0.010 A 
ATOM     36  C   UNL A   1      38.468  29.661  27.637  1.00  0.00     0.010 A 
ATOM     37  C   UNL A   1      38.930  29.291  28.909  1.00  0.00    -0.014 A 
BRANCH  37  38
ATOM     38  C   UNL A   1      40.358  28.994  29.163  1.00  0.00     0.031 A 
ATOM     39  C   UNL A   1      40.902  27.646  28.791  1.00  0.00     0.074 A 
ATOM     40  C   UNL A   1      41.180  29.939  29.653  1.00  0.00     0.049 A 
ATOM     41  N   UNL A   1      42.145  27.244  28.733  1.00  0.00    -0.248 NA
ATOM     42  C   UNL A   1      39.914  26.615  28.438  1.00  0.00     0.031 C 
ATOM     43  C   UNL A   1      40.773  31.273  30.088  1.00  0.00     0.029 A 
ATOM     44  N   UNL A   1      42.536  29.914  29.856  1.00  0.00    -0.354 N 
ATOM     45  C   UNL A   1      42.093  25.921  28.315  1.00  0.00     0.074 A 
ATOM     46  C   UNL A   1      40.693  25.575  28.174  1.00  0.00     0.031 C 
ATOM     47  C   UNL A   1      41.860  31.942  30.509  1.00  0.00     0.029 A 
ATOM     48  C   UNL A   1      43.039  31.090  30.352  1.00  0.00     0.049 A 
ATOM     49  H   UNL A   1      43.095  29.127  29.664  1.00  0.00     0.167 HD
ATOM     50  C   UNL A   1      43.116  25.075  28.050  1.00  0.00     0.037 A 
ATOM     51  C   UNL A   1      44.308  31.448  30.625  1.00  0.00     0.037 A 
ATOM     52  C   UNL A   1      44.506  25.409  28.198  1.00  0.00     0.049 A 
ATOM     53  C   UNL A   1      45.434  30.506  30.306  1.00  0.00     0.074 A 
ATOM     54  C   UNL A   1      45.618  24.634  27.911  1.00  0.00     0.029 A 
ATOM     55  N   UNL A   1      44.976  26.616  28.692  1.00  0.00    -0.354 N 
ATOM     56  N   UNL A   1      45.378  29.294  29.807  1.00  0.00    -0.248 NA
ATOM     57  C   UNL A   1      46.799  30.990  30.561  1.00  0.00     0.031 C 
ATOM     58  C   UNL A   1      46.762  25.369  28.252  1.00  0.00     0.029 A 
ATOM     59  C   UNL A   1      46.360  26.604  28.734  1.00  0.00     0.049 A 
ATOM     60  H   UNL A   1      44.410  27.371  28.969  1.00  0.00     0.167 HD
ATOM     61  C   UNL A   1      46.697  28.876  29.673  1.00  0.00     0.074 A 
ATOM     62  C   UNL A   1      47.531  29.967  30.138  1.00  0.00     0.031 C 
ATOM     63  C   UNL A   1      47.174  27.698  29.203  1.00  0.00     0.037 A 
BRANCH  50  64
ATOM     64  C   UNL A   1      42.745  23.703  27.576  1.00  0.00     0.058 A 
ATOM     65  C   UNL A   1      42.575  22.644  28.483  1.00  0.00     0.135 A 
ATOM     66  C   UNL A   1      42.597  23.432  26.209  1.00  0.00     0.135 A 
ATOM     67  F   UNL A   1      42.727  22.853  29.801  1.00  0.00    -0.206 F 
ATOM     68  C   UNL A   1      42.306  21.352  28.045  1.00  0.00     0.059 A 
ATOM     69  C   UNL A   1      42.316  22.150  25.750  1.00  0.00     0.059 A 
ATOM     70  F   UNL A   1      42.760  24.411  25.305  1.00  0.00    -0.206 F 
ATOM     71  C   UNL A   1      42.194  21.113  26.675  1.00  0.00     0.060 A 
BRANCH  71  72
ATOM     72  S   UNL A   1      41.896  19.426  26.102  1.00  0.00     0.124 S 
ATOM     73  O   UNL A   1      42.287  18.652  27.276  1.00  0.00    -0.237 OA
ATOM     74  O   UNL A   1      40.468  19.437  25.798  1.00  0.00    -0.237 OA
ATOM     75  O   UNL A   1      42.777  19.307  24.946  1.00  0.00    -0.744 OA
ENDBRANCH  71  72
ENDBRANCH  50  64
BRANCH  51  76
ATOM     76  C   UNL A   1      44.573  32.788  31.199  1.00  0.00     0.058 A 
ATOM     77  C   UNL A   1      44.743  33.909  30.376  1.00  0.00     0.135 A 
ATOM     78  C   UNL A   1      44.609  32.976  32.588  1.00  0.00     0.135 A 
ATOM     79  F   UNL A   1      44.719  33.771  29.041  1.00  0.00    -0.206 F 
ATOM     80  C   UNL A   1      44.932  35.179  30.910  1.00  0.00     0.059 A 
ATOM     81  C   UNL A   1      44.786  34.237  33.146  1.00  0.00     0.059 A 
ATOM     82  F   UNL A   1      44.440  31.931  33.413  1.00  0.00    -0.206 F 
ATOM     83  C   UNL A   1      44.948  35.334  32.298  1.00  0.00     0.060 A 
BRANCH  83  84
ATOM     84  S   UNL A   1      45.094  36.993  32.995  1.00  0.00     0.124 S 
ATOM     85  O   UNL A   1      46.488  37.309  32.710  1.00  0.00    -0.237 OA
ATOM     86  O   UNL A   1      44.100  37.743  32.234  1.00  0.00    -0.237 OA
ATOM     87  O   UNL A   1      44.765  36.788  34.403  1.00  0.00    -0.744 OA
ENDBRANCH  83  84
ENDBRANCH  51  76
BRANCH  63  88
ATOM     88  C   UNL A   1      48.665  27.529  29.163  1.00  0.00     0.058 A 
ATOM     89  C   UNL A   1      49.411  27.908  28.038  1.00  0.00     0.135 A 
ATOM     90  C   UNL A   1      49.355  27.016  30.272  1.00  0.00     0.135 A 
ATOM     91  F   UNL A   1      48.792  28.399  26.952  1.00  0.00    -0.206 F 
ATOM     92  C   UNL A   1      50.795  27.768  28.004  1.00  0.00     0.059 A 
ATOM     93  C   UNL A   1      50.740  26.881  30.265  1.00  0.00     0.059 A 
ATOM     94  F   UNL A   1      48.685  26.646  31.375  1.00  0.00    -0.206 F 
ATOM     95  C   UNL A   1      51.450  27.248  29.123  1.00  0.00     0.060 A 
BRANCH  95  96
ATOM     96  S   UNL A   1      53.249  27.089  29.091  1.00  0.00     0.124 S 
ATOM     97  O   UNL A   1      53.483  26.191  30.216  1.00  0.00    -0.237 OA
ATOM     98  O   UNL A   1      53.500  26.526  27.768  1.00  0.00    -0.237 OA
ATOM     99  O   UNL A   1      53.707  28.464  29.275  1.00  0.00    -0.744 OA
ENDBRANCH  95  96
ENDBRANCH  63  88
ENDBRANCH  37  38
ENDBRANCH  30  32
ENDBRANCH  29  30
ENDBRANCH  28  29
ENDBRANCH   1  28
TORSDOF 20
ENDMDL
MODEL 3
REMARK VINA RESULT:     -11.1      5.028      6.745
REMARK SMILES CS(=O)(=O)c1ccc(N2N=C(C(=O)OCCOCCOC(=O)c3ccc(-c4c5nc(c(-c6c(F)cc(S(=O)(=O)[O-])cc6F)c6ccc([nH]6)c(-c6c(F)cc(S(=O)(=O)[O-])cc6F)c6nc(c(-c7c(F)cc(S(=O)(=O)[O-])cc7F)c7ccc4[nH]7)C=C6)C=C5)cc3)C[C@H]2c2ccco2)cc1
REMARK SMILES IDX 18 1 17 2 16 3 15 4 14 5 12 6 13 7 11 8 9 9 10 10 90 11
REMARK SMILES IDX 89 12 8 13 5 14 6 15 97 16 7 17 96 18 2 19 1 20 3 21 4 22
REMARK SMILES IDX 91 23 92 24 95 25 93 26 94 27 19 28 20 29 21 30 22 31 23 32
REMARK SMILES IDX 24 33 88 34 25 35 87 36 26 37 27 38 28 39 81 40 29 41 86 42
REMARK SMILES IDX 80 43 82 44 30 45 85 46 79 47 78 48 31 50 65 51 44 52 64 53
REMARK SMILES IDX 45 54 48 55 63 56 83 57 46 58 47 59 62 61 84 62 49 63 32 64
REMARK SMILES IDX 33 65 42 66 34 67 35 68 41 69 43 70 36 71 37 72 38 73 39 74
REMARK SMILES IDX 40 75 66 76 67 77 76 78 68 79 69 80 75 81 77 82 70 83 71 84
REMARK SMILES IDX 72 85 73 86 74 87 50 88 51 89 60 90 52 91 53 92 59 93 61 94
REMARK SMILES IDX 54 95 55 96 56 97 57 98 58 99
REMARK H PARENT 82 49 48 60
REMARK Flexibility Score: inf
ROOT
ATOM      1  C   UNL A   1      43.287  21.904  26.261  1.00  0.00     0.202 C 
ENDROOT
BRANCH   1   2
ATOM      2  O   UNL A   1      42.099  21.664  25.501  1.00  0.00    -0.374 OA
BRANCH   2   3
ATOM      3  C   UNL A   1      41.176  20.733  26.081  1.00  0.00     0.202 C 
BRANCH   3   4
ATOM      4  C   UNL A   1      40.099  21.444  26.903  1.00  0.00     0.261 C 
BRANCH   4   5
ATOM      5  O   UNL A   1      39.033  21.807  26.011  1.00  0.00    -0.459 OA
BRANCH   5   6
ATOM      6  C   UNL A   1      38.535  23.049  26.164  1.00  0.00     0.354 C 
ATOM      7  O   UNL A   1      39.029  23.996  26.737  1.00  0.00    -0.245 OA
BRANCH   6   8
ATOM      8  C   UNL A   1      37.265  23.131  25.358  1.00  0.00     0.148 C 
ATOM      9  N   UNL A   1      35.446  23.845  24.558  1.00  0.00    -0.254 N 
ATOM     10  N   UNL A   1      36.466  24.155  25.405  1.00  0.00    -0.169 NA
ATOM     11  C   UNL A   1      35.459  22.442  24.124  1.00  0.00     0.180 C 
ATOM     12  C   UNL A   1      36.934  22.081  24.343  1.00  0.00     0.101 C 
BRANCH   9  13
ATOM     13  C   UNL A   1      34.373  24.709  24.440  1.00  0.00     0.060 A 
ATOM     14  C   UNL A   1      32.183  26.459  24.261  1.00  0.00     0.067 A 
ATOM     15  C   UNL A   1      32.560  25.950  25.503  1.00  0.00     0.022 A 
ATOM     16  C   UNL A   1      32.878  26.092  23.106  1.00  0.00     0.022 A 
ATOM     17  C   UNL A   1      33.644  25.070  25.582  1.00  0.00     0.029 A 
ATOM     18  C   UNL A   1      33.966  25.220  23.203  1.00  0.00     0.029 A 
BRANCH  14  19
ATOM     19  S   UNL A   1      30.802  27.566  24.117  1.00  0.00     0.175 S 
ATOM     20  C   UNL A   1      30.620  27.896  22.385  1.00  0.00     0.163 C 
ATOM     21  O   UNL A   1      31.182  28.819  24.745  1.00  0.00    -0.224 OA
ATOM     22  O   UNL A   1      29.633  26.834  24.564  1.00  0.00    -0.224 OA
ENDBRANCH  14  19
ENDBRANCH   9  13
BRANCH  11  23
ATOM     23  C   UNL A   1      34.548  21.497  24.850  1.00  0.00     0.128 A 
ATOM     24  C   UNL A   1      33.725  20.471  24.428  1.00  0.00     0.048 A 
ATOM     25  O   UNL A   1      34.475  21.612  26.211  1.00  0.00    -0.467 OA
ATOM     26  C   UNL A   1      33.126  19.930  25.592  1.00  0.00     0.042 A 
ATOM     27  C   UNL A   1      33.622  20.654  26.650  1.00  0.00     0.195 A 
ENDBRANCH  11  23
ENDBRANCH   6   8
ENDBRANCH   5   6
ENDBRANCH   4   5
ENDBRANCH   3   4
ENDBRANCH   2   3
ENDBRANCH   1   2
BRANCH   1  28
ATOM     28  C   UNL A   1      43.548  23.393  26.494  1.00  0.00     0.261 C 
BRANCH  28  29
ATOM     29  O   UNL A   1      42.326  24.137  26.344  1.00  0.00    -0.460 OA
BRANCH  29  30
ATOM     30  C   UNL A   1      42.489  25.460  26.096  1.00  0.00     0.338 C 
ATOM     31  O   UNL A   1      42.647  25.981  25.005  1.00  0.00    -0.246 OA
BRANCH  30  32
ATOM     32  C   UNL A   1      42.328  26.240  27.347  1.00  0.00     0.060 A 
ATOM     33  C   UNL A   1      41.349  25.805  28.248  1.00  0.00     0.016 A 
ATOM     34  C   UNL A   1      43.088  27.381  27.636  1.00  0.00     0.016 A 
ATOM     35  C   UNL A   1      41.098  26.529  29.412  1.00  0.00     0.010 A 
ATOM     36  C   UNL A   1      42.834  28.107  28.807  1.00  0.00     0.010 A 
ATOM     37  C   UNL A   1      41.816  27.700  29.682  1.00  0.00    -0.014 A 
BRANCH  37  38
ATOM     38  C   UNL A   1      41.390  28.539  30.825  1.00  0.00     0.031 A 
ATOM     39  C   UNL A   1      42.166  28.476  32.108  1.00  0.00     0.074 A 
ATOM     40  C   UNL A   1      40.366  29.402  30.700  1.00  0.00     0.049 A 
ATOM     41  N   UNL A   1      42.099  29.259  33.153  1.00  0.00    -0.248 NA
ATOM     42  C   UNL A   1      43.145  27.385  32.228  1.00  0.00     0.031 C 
ATOM     43  C   UNL A   1      39.510  29.535  29.524  1.00  0.00     0.029 A 
ATOM     44  N   UNL A   1      39.884  30.337  31.579  1.00  0.00    -0.354 N 
ATOM     45  C   UNL A   1      43.044  28.773  34.047  1.00  0.00     0.074 A 
ATOM     46  C   UNL A   1      43.640  27.601  33.440  1.00  0.00     0.031 C 
ATOM     47  C   UNL A   1      38.603  30.500  29.755  1.00  0.00     0.029 A 
ATOM     48  C   UNL A   1      38.830  31.064  31.086  1.00  0.00     0.049 A 
ATOM     49  H   UNL A   1      40.259  30.474  32.479  1.00  0.00     0.167 HD
ATOM     50  C   UNL A   1      43.399  29.268  35.256  1.00  0.00     0.037 A 
ATOM     51  C   UNL A   1      38.144  32.084  31.635  1.00  0.00     0.037 A 
ATOM     52  C   UNL A   1      42.804  30.424  35.869  1.00  0.00     0.049 A 
ATOM     53  C   UNL A   1      38.564  32.635  32.968  1.00  0.00     0.074 A 
ATOM     54  C   UNL A   1      43.128  31.030  37.071  1.00  0.00     0.029 A 
ATOM     55  N   UNL A   1      41.747  31.141  35.331  1.00  0.00    -0.354 N 
ATOM     56  N   UNL A   1      39.532  32.235  33.757  1.00  0.00    -0.248 NA
ATOM     57  C   UNL A   1      37.817  33.797  33.473  1.00  0.00     0.031 C 
ATOM     58  C   UNL A   1      42.250  32.104  37.269  1.00  0.00     0.029 A 
ATOM     59  C   UNL A   1      41.393  32.175  36.183  1.00  0.00     0.049 A 
ATOM     60  H   UNL A   1      41.313  30.947  34.470  1.00  0.00     0.167 HD
ATOM     61  C   UNL A   1      39.521  33.102  34.843  1.00  0.00     0.074 A 
ATOM     62  C   UNL A   1      38.454  34.054  34.607  1.00  0.00     0.031 C 
ATOM     63  C   UNL A   1      40.327  33.111  35.934  1.00  0.00     0.037 A 
BRANCH  50  64
ATOM     64  C   UNL A   1      44.487  28.539  35.984  1.00  0.00     0.058 A 
ATOM     65  C   UNL A   1      45.838  28.866  35.782  1.00  0.00     0.135 A 
ATOM     66  C   UNL A   1      44.186  27.485  36.857  1.00  0.00     0.135 A 
ATOM     67  F   UNL A   1      46.176  29.855  34.940  1.00  0.00    -0.206 F 
ATOM     68  C   UNL A   1      46.857  28.144  36.395  1.00  0.00     0.059 A 
ATOM     69  C   UNL A   1      45.188  26.758  37.490  1.00  0.00     0.059 A 
ATOM     70  F   UNL A   1      42.909  27.131  37.073  1.00  0.00    -0.206 F 
ATOM     71  C   UNL A   1      46.521  27.081  37.235  1.00  0.00     0.060 A 
BRANCH  71  72
ATOM     72  S   UNL A   1      47.843  26.110  37.991  1.00  0.00     0.124 S 
ATOM     73  O   UNL A   1      47.406  24.750  37.691  1.00  0.00    -0.237 OA
ATOM     74  O   UNL A   1      49.028  26.567  37.273  1.00  0.00    -0.237 OA
ATOM     75  O   UNL A   1      47.778  26.498  39.396  1.00  0.00    -0.744 OA
ENDBRANCH  71  72
ENDBRANCH  50  64
BRANCH  51  76
ATOM     76  C   UNL A   1      37.007  32.673  30.889  1.00  0.00     0.058 A 
ATOM     77  C   UNL A   1      37.208  33.687  29.942  1.00  0.00     0.135 A 
ATOM     78  C   UNL A   1      35.703  32.192  31.076  1.00  0.00     0.135 A 
ATOM     79  F   UNL A   1      38.439  34.177  29.736  1.00  0.00    -0.206 F 
ATOM     80  C   UNL A   1      36.153  34.201  29.196  1.00  0.00     0.059 A 
ATOM     81  C   UNL A   1      34.634  32.683  30.336  1.00  0.00     0.059 A 
ATOM     82  F   UNL A   1      35.469  31.215  31.966  1.00  0.00    -0.206 F 
ATOM     83  C   UNL A   1      34.869  33.689  29.397  1.00  0.00     0.060 A 
BRANCH  83  84
ATOM     84  S   UNL A   1      33.514  34.284  28.362  1.00  0.00     0.124 S 
ATOM     85  O   UNL A   1      34.200  35.242  27.503  1.00  0.00    -0.237 OA
ATOM     86  O   UNL A   1      33.053  33.061  27.714  1.00  0.00    -0.237 OA
ATOM     87  O   UNL A   1      32.585  34.855  29.334  1.00  0.00    -0.744 OA
ENDBRANCH  83  84
ENDBRANCH  51  76
BRANCH  63  88
ATOM     88  C   UNL A   1      40.087  34.187  36.953  1.00  0.00     0.058 A 
ATOM     89  C   UNL A   1      39.201  33.992  38.022  1.00  0.00     0.135 A 
ATOM     90  C   UNL A   1      40.774  35.408  36.879  1.00  0.00     0.135 A 
ATOM     91  F   UNL A   1      38.517  32.841  38.130  1.00  0.00    -0.206 F 
ATOM     92  C   UNL A   1      38.988  34.980  38.978  1.00  0.00     0.059 A 
ATOM     93  C   UNL A   1      40.588  36.404  37.832  1.00  0.00     0.059 A 
ATOM     94  F   UNL A   1      41.639  35.638  35.879  1.00  0.00    -0.206 F 
ATOM     95  C   UNL A   1      39.684  36.186  38.871  1.00  0.00     0.060 A 
BRANCH  95  96
ATOM     96  S   UNL A   1      39.430  37.461  40.125  1.00  0.00     0.124 S 
ATOM     97  O   UNL A   1      40.758  38.056  40.211  1.00  0.00    -0.237 OA
ATOM     98  O   UNL A   1      38.397  38.301  39.527  1.00  0.00    -0.237 OA
ATOM     99  O   UNL A   1      39.003  36.696  41.294  1.00  0.00    -0.744 OA
ENDBRANCH  95  96
ENDBRANCH  63  88
ENDBRANCH  37  38
ENDBRANCH  30  32
ENDBRANCH  29  30
ENDBRANCH  28  29
ENDBRANCH   1  28
TORSDOF 20
ENDMDL
