MODEL 1
REMARK VINA RESULT:      -9.6      0.000      0.000
REMARK SMILES C[C@H]1[C@H](C)CC[C@@]2(C(=O)OCCOCCOC(=O)c3ccc(-c4c5nc(c(-c6c(F)cc(S(=O)(=O)[O-])cc6F)c6ccc([nH]6)c(-c6c(F)cc(S(=O)(=O)[O-])cc6F)c6nc(c(-c7c(F)cc(S(=O)(=O)[O-])cc7F)c7ccc4[nH]7)C=C6)C=C5)cc3)CC[C@@]3(C)C(=CC[C@@H]4[C@@]5(C)CC[C@H](O)C(C)(C)[C@@H]5CC[C@]43C)[C@H]12
REMARK SMILES IDX 14 1 13 2 12 3 11 4 10 5 8 6 9 7 7 8 1 9 2 10 3 11 107 12
REMARK SMILES IDX 4 13 5 14 89 15 6 16 85 17 87 18 90 19 86 20 88 21 105 22
REMARK SMILES IDX 91 23 92 24 104 25 106 26 93 27 103 28 94 29 95 30 102 31
REMARK SMILES IDX 96 32 99 33 97 34 100 35 101 36 98 37 15 39 16 40 17 41
REMARK SMILES IDX 18 42 19 43 20 44 84 45 21 46 83 47 22 48 23 49 24 50 77 51
REMARK SMILES IDX 25 52 82 53 76 54 78 55 26 56 81 57 75 58 74 59 27 61 61 62
REMARK SMILES IDX 40 63 60 64 41 65 44 66 59 67 79 68 42 69 43 70 58 72 80 73
REMARK SMILES IDX 45 74 28 75 29 76 38 77 30 78 31 79 37 80 39 81 32 82 33 83
REMARK SMILES IDX 34 84 35 85 36 86 62 87 63 88 72 89 64 90 65 91 71 92 73 93
REMARK SMILES IDX 66 94 67 95 68 96 69 97 70 98 46 99 47 100 56 101 48 102
REMARK SMILES IDX 49 103 55 104 57 105 50 106 51 107 52 108 53 109 54 110
REMARK H PARENT 98 38 78 60 44 71
REMARK Flexibility Score: inf
ROOT
ATOM      1  C   UNL A   1      35.609  33.952  34.222  1.00  0.00     0.202 C 
ENDROOT
BRANCH   1   2
ATOM      2  O   UNL A   1      36.151  32.686  34.541  1.00  0.00    -0.374 OA
BRANCH   2   3
ATOM      3  C   UNL A   1      37.561  32.548  34.446  1.00  0.00     0.202 C 
BRANCH   3   4
ATOM      4  C   UNL A   1      38.317  31.476  35.253  1.00  0.00     0.261 C 
BRANCH   4   5
ATOM      5  O   UNL A   1      39.696  31.279  34.844  1.00  0.00    -0.463 OA
BRANCH   5   6
ATOM      6  C   UNL A   1      40.756  31.763  35.545  1.00  0.00     0.312 C 
ATOM      7  O   UNL A   1      40.903  31.555  36.744  1.00  0.00    -0.252 OA
BRANCH   6   8
ATOM      8  C   UNL A   1      41.737  32.658  34.718  1.00  0.00     0.075 C 
ATOM      9  C   UNL A   1      43.651  34.664  37.532  1.00  0.00     0.008 C 
ATOM     10  C   UNL A   1      42.502  34.069  36.713  1.00  0.00    -0.003 C 
ATOM     11  C   UNL A   1      41.567  35.237  36.215  1.00  0.00    -0.011 C 
ATOM     12  C   UNL A   1      42.996  33.091  35.543  1.00  0.00     0.036 C 
ATOM     13  C   UNL A   1      40.911  36.044  37.349  1.00  0.00     0.008 C 
ATOM     14  C   UNL A   1      40.417  34.753  35.336  1.00  0.00     0.005 C 
ATOM     15  C   UNL A   1      43.803  31.743  35.819  1.00  0.00    -0.063 C 
ATOM     16  C   UNL A   1      40.912  33.872  34.222  1.00  0.00     0.020 C 
ATOM     17  C   UNL A   1      42.194  31.993  33.405  1.00  0.00     0.020 C 
ATOM     18  C   UNL A   1      44.203  30.844  34.582  1.00  0.00    -0.006 C 
ATOM     19  C   UNL A   1      43.910  31.223  37.061  1.00  0.00    -0.027 C 
ATOM     20  C   UNL A   1      43.017  30.741  33.583  1.00  0.00     0.013 C 
ATOM     21  C   UNL A   1      45.381  31.555  33.874  1.00  0.00     0.017 C 
ATOM     22  C   UNL A   1      44.637  29.311  35.008  1.00  0.00    -0.020 C 
ATOM     23  C   UNL A   1      43.917  29.727  37.333  1.00  0.00     0.032 C 
ATOM     24  C   UNL A   1      43.571  28.871  36.073  1.00  0.00     0.006 C 
ATOM     25  C   UNL A   1      44.682  28.311  33.824  1.00  0.00     0.008 C 
ATOM     26  C   UNL A   1      46.083  29.288  35.603  1.00  0.00     0.012 C 
ATOM     27  C   UNL A   1      43.243  27.309  36.289  1.00  0.00    -0.025 C 
ATOM     28  C   UNL A   1      44.784  26.846  34.279  1.00  0.00     0.005 C 
ATOM     29  C   UNL A   1      43.979  26.828  37.552  1.00  0.00     0.012 C 
ATOM     30  C   UNL A   1      41.705  27.115  36.544  1.00  0.00     0.010 C 
ATOM     31  C   UNL A   1      43.487  26.452  34.988  1.00  0.00     0.003 C 
ATOM     32  C   UNL A   1      41.246  25.654  36.676  1.00  0.00     0.033 C 
ATOM     33  C   UNL A   1      43.203  24.900  35.122  1.00  0.00    -0.006 C 
ATOM     34  C   UNL A   1      41.709  24.735  35.541  1.00  0.00     0.120 C 
ATOM     35  C   UNL A   1      44.160  24.145  36.069  1.00  0.00     0.014 C 
ATOM     36  C   UNL A   1      43.364  24.187  33.748  1.00  0.00     0.014 C 
BRANCH  34  37
ATOM     37  O   UNL A   1      41.411  23.377  35.876  1.00  0.00    -0.393 OA
ATOM     38  H   UNL A   1      40.474  23.198  35.701  1.00  0.00     0.210 HD
ENDBRANCH  34  37
ENDBRANCH   6   8
ENDBRANCH   5   6
ENDBRANCH   4   5
ENDBRANCH   3   4
ENDBRANCH   2   3
ENDBRANCH   1   2
BRANCH   1  39
ATOM     39  C   UNL A   1      34.395  33.843  33.287  1.00  0.00     0.261 C 
BRANCH  39  40
ATOM     40  O   UNL A   1      34.363  32.646  32.486  1.00  0.00    -0.460 OA
BRANCH  40  41
ATOM     41  C   UNL A   1      34.577  32.828  31.162  1.00  0.00     0.338 C 
ATOM     42  O   UNL A   1      34.059  33.667  30.431  1.00  0.00    -0.246 OA
BRANCH  41  43
ATOM     43  C   UNL A   1      35.639  31.921  30.692  1.00  0.00     0.060 A 
ATOM     44  C   UNL A   1      36.264  31.067  31.613  1.00  0.00     0.016 A 
ATOM     45  C   UNL A   1      36.111  32.023  29.382  1.00  0.00     0.016 A 
ATOM     46  C   UNL A   1      37.410  30.368  31.253  1.00  0.00     0.010 A 
ATOM     47  C   UNL A   1      37.287  31.360  29.034  1.00  0.00     0.010 A 
ATOM     48  C   UNL A   1      37.968  30.586  29.990  1.00  0.00    -0.014 A 
BRANCH  48  49
ATOM     49  C   UNL A   1      39.394  30.263  29.782  1.00  0.00     0.031 A 
ATOM     50  C   UNL A   1      40.394  31.375  29.967  1.00  0.00     0.074 A 
ATOM     51  C   UNL A   1      39.781  29.015  29.479  1.00  0.00     0.049 A 
ATOM     52  N   UNL A   1      41.681  31.381  29.748  1.00  0.00    -0.248 NA
ATOM     53  C   UNL A   1      39.863  32.657  30.465  1.00  0.00     0.031 C 
ATOM     54  C   UNL A   1      38.888  27.862  29.361  1.00  0.00     0.029 A 
ATOM     55  N   UNL A   1      41.024  28.512  29.203  1.00  0.00    -0.354 N 
ATOM     56  C   UNL A   1      42.108  32.667  30.060  1.00  0.00     0.074 A 
ATOM     57  C   UNL A   1      40.946  33.421  30.465  1.00  0.00     0.031 C 
ATOM     58  C   UNL A   1      39.613  26.787  29.009  1.00  0.00     0.029 A 
ATOM     59  C   UNL A   1      41.008  27.189  28.835  1.00  0.00     0.049 A 
ATOM     60  H   UNL A   1      41.849  29.047  29.263  1.00  0.00     0.167 HD
ATOM     61  C   UNL A   1      43.365  33.168  30.008  1.00  0.00     0.037 A 
ATOM     62  C   UNL A   1      42.005  26.413  28.373  1.00  0.00     0.037 A 
ATOM     63  C   UNL A   1      44.503  32.392  29.597  1.00  0.00     0.049 A 
ATOM     64  C   UNL A   1      43.383  27.012  28.249  1.00  0.00     0.074 A 
ATOM     65  C   UNL A   1      45.826  32.781  29.502  1.00  0.00     0.029 A 
ATOM     66  N   UNL A   1      44.446  31.059  29.207  1.00  0.00    -0.354 N 
ATOM     67  N   UNL A   1      43.781  28.231  28.535  1.00  0.00    -0.248 NA
ATOM     68  C   UNL A   1      44.445  26.135  27.742  1.00  0.00     0.031 C 
ATOM     69  C   UNL A   1      46.559  31.701  29.000  1.00  0.00     0.029 A 
ATOM     70  C   UNL A   1      45.706  30.618  28.845  1.00  0.00     0.049 A 
ATOM     71  H   UNL A   1      43.630  30.511  29.190  1.00  0.00     0.167 HD
ATOM     72  C   UNL A   1      45.146  28.259  28.272  1.00  0.00     0.074 A 
ATOM     73  C   UNL A   1      45.505  26.931  27.814  1.00  0.00     0.031 C 
ATOM     74  C   UNL A   1      46.027  29.283  28.400  1.00  0.00     0.037 A 
BRANCH  61  75
ATOM     75  C   UNL A   1      43.558  34.620  30.357  1.00  0.00     0.058 A 
ATOM     76  C   UNL A   1      43.345  35.648  29.425  1.00  0.00     0.135 A 
ATOM     77  C   UNL A   1      43.945  34.990  31.656  1.00  0.00     0.135 A 
ATOM     78  F   UNL A   1      42.997  35.355  28.161  1.00  0.00    -0.206 F 
ATOM     79  C   UNL A   1      43.527  36.988  29.761  1.00  0.00     0.059 A 
ATOM     80  C   UNL A   1      44.105  36.323  32.022  1.00  0.00     0.059 A 
ATOM     81  F   UNL A   1      44.174  34.050  32.587  1.00  0.00    -0.206 F 
ATOM     82  C   UNL A   1      43.905  37.315  31.064  1.00  0.00     0.060 A 
BRANCH  82  83
ATOM     83  S   UNL A   1      44.119  39.057  31.489  1.00  0.00     0.124 S 
ATOM     84  O   UNL A   1      45.522  39.091  31.886  1.00  0.00    -0.237 OA
ATOM     85  O   UNL A   1      43.800  39.725  30.231  1.00  0.00    -0.237 OA
ATOM     86  O   UNL A   1      43.157  39.265  32.567  1.00  0.00    -0.744 OA
ENDBRANCH  82  83
ENDBRANCH  61  75
BRANCH  62  87
ATOM     87  C   UNL A   1      41.729  25.007  27.976  1.00  0.00     0.058 A 
ATOM     88  C   UNL A   1      41.019  24.707  26.805  1.00  0.00     0.135 A 
ATOM     89  C   UNL A   1      42.188  23.929  28.753  1.00  0.00     0.135 A 
ATOM     90  F   UNL A   1      40.554  25.699  26.031  1.00  0.00    -0.206 F 
ATOM     91  C   UNL A   1      40.762  23.394  26.423  1.00  0.00     0.059 A 
ATOM     92  C   UNL A   1      41.969  22.608  28.377  1.00  0.00     0.059 A 
ATOM     93  F   UNL A   1      42.885  24.159  29.877  1.00  0.00    -0.206 F 
ATOM     94  C   UNL A   1      41.246  22.351  27.215  1.00  0.00     0.060 A 
BRANCH  94  95
ATOM     95  S   UNL A   1      40.950  20.651  26.682  1.00  0.00     0.124 S 
ATOM     96  O   UNL A   1      40.947  19.941  27.956  1.00  0.00    -0.237 OA
ATOM     97  O   UNL A   1      39.660  20.762  26.009  1.00  0.00    -0.237 OA
ATOM     98  O   UNL A   1      42.083  20.371  25.805  1.00  0.00    -0.744 OA
ENDBRANCH  94  95
ENDBRANCH  62  87
BRANCH  74  99
ATOM     99  C   UNL A   1      47.468  28.994  28.084  1.00  0.00     0.058 A 
ATOM    100  C   UNL A   1      47.967  29.064  26.775  1.00  0.00     0.135 A 
ATOM    101  C   UNL A   1      48.372  28.701  29.118  1.00  0.00     0.135 A 
ATOM    102  F   UNL A   1      47.143  29.336  25.750  1.00  0.00    -0.206 F 
ATOM    103  C   UNL A   1      49.309  28.827  26.499  1.00  0.00     0.059 A 
ATOM    104  C   UNL A   1      49.723  28.494  28.869  1.00  0.00     0.059 A 
ATOM    105  F   UNL A   1      47.946  28.636  30.391  1.00  0.00    -0.206 F 
ATOM    106  C   UNL A   1      50.180  28.546  27.553  1.00  0.00     0.060 A 
BRANCH 106 107
ATOM    107  S   UNL A   1      51.924  28.274  27.183  1.00  0.00     0.124 S 
ATOM    108  O   UNL A   1      51.853  27.172  26.230  1.00  0.00    -0.237 OA
ATOM    109  O   UNL A   1      52.331  29.563  26.634  1.00  0.00    -0.237 OA
ATOM    110  O   UNL A   1      52.501  27.942  28.483  1.00  0.00    -0.744 OA
ENDBRANCH 106 107
ENDBRANCH  74  99
ENDBRANCH  48  49
ENDBRANCH  41  43
ENDBRANCH  40  41
ENDBRANCH  39  40
ENDBRANCH   1  39
TORSDOF 18
ENDMDL
MODEL 2
REMARK VINA RESULT:      -9.6      5.430     13.697
REMARK SMILES C[C@H]1[C@H](C)CC[C@@]2(C(=O)OCCOCCOC(=O)c3ccc(-c4c5nc(c(-c6c(F)cc(S(=O)(=O)[O-])cc6F)c6ccc([nH]6)c(-c6c(F)cc(S(=O)(=O)[O-])cc6F)c6nc(c(-c7c(F)cc(S(=O)(=O)[O-])cc7F)c7ccc4[nH]7)C=C6)C=C5)cc3)CC[C@@]3(C)C(=CC[C@@H]4[C@@]5(C)CC[C@H](O)C(C)(C)[C@@H]5CC[C@]43C)[C@H]12
REMARK SMILES IDX 14 1 13 2 12 3 11 4 10 5 8 6 9 7 7 8 1 9 2 10 3 11 107 12
REMARK SMILES IDX 4 13 5 14 89 15 6 16 85 17 87 18 90 19 86 20 88 21 105 22
REMARK SMILES IDX 91 23 92 24 104 25 106 26 93 27 103 28 94 29 95 30 102 31
REMARK SMILES IDX 96 32 99 33 97 34 100 35 101 36 98 37 15 39 16 40 17 41
REMARK SMILES IDX 18 42 19 43 20 44 84 45 21 46 83 47 22 48 23 49 24 50 77 51
REMARK SMILES IDX 25 52 82 53 76 54 78 55 26 56 81 57 75 58 74 59 27 61 61 62
REMARK SMILES IDX 40 63 60 64 41 65 44 66 59 67 79 68 42 69 43 70 58 72 80 73
REMARK SMILES IDX 45 74 28 75 29 76 38 77 30 78 31 79 37 80 39 81 32 82 33 83
REMARK SMILES IDX 34 84 35 85 36 86 62 87 63 88 72 89 64 90 65 91 71 92 73 93
REMARK SMILES IDX 66 94 67 95 68 96 69 97 70 98 46 99 47 100 56 101 48 102
REMARK SMILES IDX 49 103 55 104 57 105 50 106 51 107 52 108 53 109 54 110
REMARK H PARENT 98 38 78 60 44 71
REMARK Flexibility Score: inf
ROOT
ATOM      1  C   UNL A   1      38.873  21.864  26.046  1.00  0.00     0.202 C 
ENDROOT
BRANCH   1   2
ATOM      2  O   UNL A   1      38.449  23.112  25.537  1.00  0.00    -0.374 OA
BRANCH   2   3
ATOM      3  C   UNL A   1      37.313  23.703  26.149  1.00  0.00     0.202 C 
BRANCH   3   4
ATOM      4  C   UNL A   1      36.259  22.847  26.876  1.00  0.00     0.261 C 
BRANCH   4   5
ATOM      5  O   UNL A   1      34.920  22.946  26.324  1.00  0.00    -0.463 OA
BRANCH   5   6
ATOM      6  C   UNL A   1      34.251  21.883  25.802  1.00  0.00     0.312 C 
ATOM      7  O   UNL A   1      33.370  21.292  26.416  1.00  0.00    -0.252 OA
BRANCH   6   8
ATOM      8  C   UNL A   1      34.735  21.434  24.383  1.00  0.00     0.075 C 
ATOM      9  C   UNL A   1      31.778  19.120  23.156  1.00  0.00     0.008 C 
ATOM     10  C   UNL A   1      32.884  19.698  24.044  1.00  0.00    -0.003 C 
ATOM     11  C   UNL A   1      33.923  18.560  24.378  1.00  0.00    -0.011 C 
ATOM     12  C   UNL A   1      33.550  21.027  23.444  1.00  0.00     0.036 C 
ATOM     13  C   UNL A   1      33.327  17.373  25.156  1.00  0.00     0.008 C 
ATOM     14  C   UNL A   1      35.102  19.049  25.214  1.00  0.00     0.005 C 
ATOM     15  C   UNL A   1      32.731  22.373  23.192  1.00  0.00    -0.063 C 
ATOM     16  C   UNL A   1      35.734  20.272  24.608  1.00  0.00     0.020 C 
ATOM     17  C   UNL A   1      35.599  22.499  23.680  1.00  0.00     0.020 C 
ATOM     18  C   UNL A   1      33.510  23.628  22.630  1.00  0.00    -0.006 C 
ATOM     19  C   UNL A   1      31.487  22.549  23.691  1.00  0.00    -0.027 C 
ATOM     20  C   UNL A   1      34.878  23.782  23.351  1.00  0.00     0.013 C 
ATOM     21  C   UNL A   1      33.773  23.357  21.129  1.00  0.00     0.017 C 
ATOM     22  C   UNL A   1      32.679  25.042  22.815  1.00  0.00    -0.020 C 
ATOM     23  C   UNL A   1      30.980  23.893  24.190  1.00  0.00     0.032 C 
ATOM     24  C   UNL A   1      32.098  24.980  24.273  1.00  0.00     0.006 C 
ATOM     25  C   UNL A   1      33.541  26.315  22.616  1.00  0.00     0.008 C 
ATOM     26  C   UNL A   1      31.541  25.161  21.750  1.00  0.00     0.012 C 
ATOM     27  C   UNL A   1      31.769  26.341  25.068  1.00  0.00    -0.025 C 
ATOM     28  C   UNL A   1      32.837  27.597  23.089  1.00  0.00     0.005 C 
ATOM     29  C   UNL A   1      30.252  26.588  25.002  1.00  0.00     0.012 C 
ATOM     30  C   UNL A   1      32.151  26.182  26.583  1.00  0.00     0.010 C 
ATOM     31  C   UNL A   1      32.678  27.546  24.610  1.00  0.00     0.003 C 
ATOM     32  C   UNL A   1      31.969  27.446  27.438  1.00  0.00     0.033 C 
ATOM     33  C   UNL A   1      32.405  28.929  25.334  1.00  0.00    -0.006 C 
ATOM     34  C   UNL A   1      32.626  28.705  26.863  1.00  0.00     0.120 C 
ATOM     35  C   UNL A   1      31.028  29.559  25.031  1.00  0.00     0.014 C 
ATOM     36  C   UNL A   1      33.438  30.002  24.885  1.00  0.00     0.014 C 
BRANCH  34  37
ATOM     37  O   UNL A   1      32.214  29.846  27.619  1.00  0.00    -0.393 OA
ATOM     38  H   UNL A   1      31.573  29.573  28.293  1.00  0.00     0.210 HD
ENDBRANCH  34  37
ENDBRANCH   6   8
ENDBRANCH   5   6
ENDBRANCH   4   5
ENDBRANCH   3   4
ENDBRANCH   2   3
ENDBRANCH   1   2
BRANCH   1  39
ATOM     39  C   UNL A   1      40.403  21.766  26.144  1.00  0.00     0.261 C 
BRANCH  39  40
ATOM     40  O   UNL A   1      41.000  22.678  27.086  1.00  0.00    -0.460 OA
BRANCH  40  41
ATOM     41  C   UNL A   1      41.666  23.722  26.541  1.00  0.00     0.338 C 
ATOM     42  O   UNL A   1      42.485  23.689  25.627  1.00  0.00    -0.246 OA
BRANCH  41  43
ATOM     43  C   UNL A   1      41.196  24.986  27.133  1.00  0.00     0.060 A 
ATOM     44  C   UNL A   1      41.965  26.147  26.963  1.00  0.00     0.016 A 
ATOM     45  C   UNL A   1      40.082  24.988  27.974  1.00  0.00     0.016 A 
ATOM     46  C   UNL A   1      41.671  27.295  27.690  1.00  0.00     0.010 A 
ATOM     47  C   UNL A   1      39.814  26.123  28.738  1.00  0.00     0.010 A 
ATOM     48  C   UNL A   1      40.649  27.250  28.641  1.00  0.00    -0.014 A 
BRANCH  48  49
ATOM     49  C   UNL A   1      40.653  28.248  29.730  1.00  0.00     0.031 A 
ATOM     50  C   UNL A   1      41.680  28.085  30.820  1.00  0.00     0.074 A 
ATOM     51  C   UNL A   1      39.796  29.280  29.722  1.00  0.00     0.049 A 
ATOM     52  N   UNL A   1      41.830  28.757  31.929  1.00  0.00    -0.248 NA
ATOM     53  C   UNL A   1      42.674  27.012  30.629  1.00  0.00     0.031 C 
ATOM     54  C   UNL A   1      38.824  29.559  28.666  1.00  0.00     0.029 A 
ATOM     55  N   UNL A   1      39.600  30.278  30.638  1.00  0.00    -0.354 N 
ATOM     56  C   UNL A   1      42.916  28.176  32.576  1.00  0.00     0.074 A 
ATOM     57  C   UNL A   1      43.378  27.087  31.748  1.00  0.00     0.031 C 
ATOM     58  C   UNL A   1      38.112  30.646  29.009  1.00  0.00     0.029 A 
ATOM     59  C   UNL A   1      38.551  31.107  30.325  1.00  0.00     0.049 A 
ATOM     60  H   UNL A   1      40.157  30.391  31.443  1.00  0.00     0.167 HD
ATOM     61  C   UNL A   1      43.473  28.527  33.759  1.00  0.00     0.037 A 
ATOM     62  C   UNL A   1      37.991  32.097  31.046  1.00  0.00     0.037 A 
ATOM     63  C   UNL A   1      42.988  29.617  34.562  1.00  0.00     0.049 A 
ATOM     64  C   UNL A   1      38.577  32.421  32.396  1.00  0.00     0.074 A 
ATOM     65  C   UNL A   1      43.463  30.073  35.777  1.00  0.00     0.029 A 
ATOM     66  N   UNL A   1      41.906  30.420  34.225  1.00  0.00    -0.354 N 
ATOM     67  N   UNL A   1      39.597  31.864  33.008  1.00  0.00    -0.248 NA
ATOM     68  C   UNL A   1      37.941  33.506  33.152  1.00  0.00     0.031 C 
ATOM     69  C   UNL A   1      42.633  31.115  36.202  1.00  0.00     0.029 A 
ATOM     70  C   UNL A   1      41.682  31.354  35.221  1.00  0.00     0.049 A 
ATOM     71  H   UNL A   1      41.377  30.338  33.399  1.00  0.00     0.167 HD
ATOM     72  C   UNL A   1      39.745  32.550  34.208  1.00  0.00     0.074 A 
ATOM     73  C   UNL A   1      38.714  33.570  34.229  1.00  0.00     0.031 C 
ATOM     74  C   UNL A   1      40.648  32.361  35.203  1.00  0.00     0.037 A 
BRANCH  61  75
ATOM     75  C   UNL A   1      44.625  27.701  34.267  1.00  0.00     0.058 A 
ATOM     76  C   UNL A   1      45.960  28.015  33.969  1.00  0.00     0.135 A 
ATOM     77  C   UNL A   1      44.387  26.584  35.087  1.00  0.00     0.135 A 
ATOM     78  F   UNL A   1      46.248  29.056  33.171  1.00  0.00    -0.206 F 
ATOM     79  C   UNL A   1      47.016  27.243  34.446  1.00  0.00     0.059 A 
ATOM     80  C   UNL A   1      45.428  25.815  35.598  1.00  0.00     0.059 A 
ATOM     81  F   UNL A   1      43.130  26.229  35.397  1.00  0.00    -0.206 F 
ATOM     82  C   UNL A   1      46.740  26.146  35.262  1.00  0.00     0.060 A 
BRANCH  82  83
ATOM     83  S   UNL A   1      48.121  25.165  35.889  1.00  0.00     0.124 S 
ATOM     84  O   UNL A   1      47.672  24.859  37.243  1.00  0.00    -0.237 OA
ATOM     85  O   UNL A   1      48.148  24.039  34.960  1.00  0.00    -0.237 OA
ATOM     86  O   UNL A   1      49.257  26.077  35.796  1.00  0.00    -0.744 OA
ENDBRANCH  82  83
ENDBRANCH  61  75
BRANCH  62  87
ATOM     87  C   UNL A   1      36.807  32.824  30.515  1.00  0.00     0.058 A 
ATOM     88  C   UNL A   1      35.515  32.551  30.985  1.00  0.00     0.135 A 
ATOM     89  C   UNL A   1      36.947  33.823  29.537  1.00  0.00     0.135 A 
ATOM     90  F   UNL A   1      35.326  31.601  31.914  1.00  0.00    -0.206 F 
ATOM     91  C   UNL A   1      34.403  33.232  30.499  1.00  0.00     0.059 A 
ATOM     92  C   UNL A   1      35.854  34.537  29.057  1.00  0.00     0.059 A 
ATOM     93  F   UNL A   1      38.163  34.134  29.062  1.00  0.00    -0.206 F 
ATOM     94  C   UNL A   1      34.584  34.227  29.537  1.00  0.00     0.060 A 
BRANCH  94  95
ATOM     95  S   UNL A   1      33.140  35.138  28.951  1.00  0.00     0.124 S 
ATOM     96  O   UNL A   1      33.757  36.326  28.374  1.00  0.00    -0.237 OA
ATOM     97  O   UNL A   1      32.551  34.198  28.002  1.00  0.00    -0.237 OA
ATOM     98  O   UNL A   1      32.364  35.357  30.168  1.00  0.00    -0.744 OA
ENDBRANCH  94  95
ENDBRANCH  62  87
BRANCH  74  99
ATOM     99  C   UNL A   1      40.592  33.305  36.371  1.00  0.00     0.058 A 
ATOM    100  C   UNL A   1      41.378  34.465  36.424  1.00  0.00     0.135 A 
ATOM    101  C   UNL A   1      39.692  33.071  37.424  1.00  0.00     0.135 A 
ATOM    102  F   UNL A   1      42.257  34.732  35.445  1.00  0.00    -0.206 F 
ATOM    103  C   UNL A   1      41.294  35.348  37.495  1.00  0.00     0.059 A 
ATOM    104  C   UNL A   1      39.567  33.958  38.488  1.00  0.00     0.059 A 
ATOM    105  F   UNL A   1      38.907  31.981  37.414  1.00  0.00    -0.206 F 
ATOM    106  C   UNL A   1      40.383  35.087  38.520  1.00  0.00     0.060 A 
BRANCH 106 107
ATOM    107  S   UNL A   1      40.261  36.259  39.886  1.00  0.00     0.124 S 
ATOM    108  O   UNL A   1      38.896  36.030  40.348  1.00  0.00    -0.237 OA
ATOM    109  O   UNL A   1      41.319  35.805  40.782  1.00  0.00    -0.237 OA
ATOM    110  O   UNL A   1      40.498  37.551  39.249  1.00  0.00    -0.744 OA
ENDBRANCH 106 107
ENDBRANCH  74  99
ENDBRANCH  48  49
ENDBRANCH  41  43
ENDBRANCH  40  41
ENDBRANCH  39  40
ENDBRANCH   1  39
TORSDOF 18
ENDMDL
MODEL 3
REMARK VINA RESULT:      -9.4      2.098      3.334
REMARK SMILES C[C@H]1[C@H](C)CC[C@@]2(C(=O)OCCOCCOC(=O)c3ccc(-c4c5nc(c(-c6c(F)cc(S(=O)(=O)[O-])cc6F)c6ccc([nH]6)c(-c6c(F)cc(S(=O)(=O)[O-])cc6F)c6nc(c(-c7c(F)cc(S(=O)(=O)[O-])cc7F)c7ccc4[nH]7)C=C6)C=C5)cc3)CC[C@@]3(C)C(=CC[C@@H]4[C@@]5(C)CC[C@H](O)C(C)(C)[C@@H]5CC[C@]43C)[C@H]12
REMARK SMILES IDX 14 1 13 2 12 3 11 4 10 5 8 6 9 7 7 8 1 9 2 10 3 11 107 12
REMARK SMILES IDX 4 13 5 14 89 15 6 16 85 17 87 18 90 19 86 20 88 21 105 22
REMARK SMILES IDX 91 23 92 24 104 25 106 26 93 27 103 28 94 29 95 30 102 31
REMARK SMILES IDX 96 32 99 33 97 34 100 35 101 36 98 37 15 39 16 40 17 41
REMARK SMILES IDX 18 42 19 43 20 44 84 45 21 46 83 47 22 48 23 49 24 50 77 51
REMARK SMILES IDX 25 52 82 53 76 54 78 55 26 56 81 57 75 58 74 59 27 61 61 62
REMARK SMILES IDX 40 63 60 64 41 65 44 66 59 67 79 68 42 69 43 70 58 72 80 73
REMARK SMILES IDX 45 74 28 75 29 76 38 77 30 78 31 79 37 80 39 81 32 82 33 83
REMARK SMILES IDX 34 84 35 85 36 86 62 87 63 88 72 89 64 90 65 91 71 92 73 93
REMARK SMILES IDX 66 94 67 95 68 96 69 97 70 98 46 99 47 100 56 101 48 102
REMARK SMILES IDX 49 103 55 104 57 105 50 106 51 107 52 108 53 109 54 110
REMARK H PARENT 98 38 78 60 44 71
REMARK Flexibility Score: inf
ROOT
ATOM      1  C   UNL A   1      36.132  33.483  32.881  1.00  0.00     0.202 C 
ENDROOT
BRANCH   1   2
ATOM      2  O   UNL A   1      37.384  32.878  32.625  1.00  0.00    -0.374 OA
BRANCH   2   3
ATOM      3  C   UNL A   1      37.836  31.916  33.566  1.00  0.00     0.202 C 
BRANCH   3   4
ATOM      4  C   UNL A   1      39.303  31.444  33.586  1.00  0.00     0.261 C 
BRANCH   4   5
ATOM      5  O   UNL A   1      40.169  32.214  34.460  1.00  0.00    -0.463 OA
BRANCH   5   6
ATOM      6  C   UNL A   1      39.987  32.294  35.806  1.00  0.00     0.312 C 
ATOM      7  O   UNL A   1      39.848  31.301  36.512  1.00  0.00    -0.252 OA
BRANCH   6   8
ATOM      8  C   UNL A   1      39.904  33.750  36.373  1.00  0.00     0.075 C 
ATOM      9  C   UNL A   1      39.419  33.138  40.246  1.00  0.00     0.008 C 
ATOM     10  C   UNL A   1      39.206  33.041  38.732  1.00  0.00    -0.003 C 
ATOM     11  C   UNL A   1      37.724  33.459  38.394  1.00  0.00    -0.011 C 
ATOM     12  C   UNL A   1      40.312  33.830  37.883  1.00  0.00     0.036 C 
ATOM     13  C   UNL A   1      36.654  32.559  39.036  1.00  0.00     0.008 C 
ATOM     14  C   UNL A   1      37.424  33.453  36.897  1.00  0.00     0.005 C 
ATOM     15  C   UNL A   1      41.864  33.462  37.920  1.00  0.00    -0.063 C 
ATOM     16  C   UNL A   1      38.453  34.235  36.129  1.00  0.00     0.020 C 
ATOM     17  C   UNL A   1      40.744  34.757  35.565  1.00  0.00     0.020 C 
ATOM     18  C   UNL A   1      42.852  34.293  37.008  1.00  0.00    -0.006 C 
ATOM     19  C   UNL A   1      42.306  32.315  38.481  1.00  0.00    -0.027 C 
ATOM     20  C   UNL A   1      42.232  34.512  35.600  1.00  0.00     0.013 C 
ATOM     21  C   UNL A   1      43.033  35.673  37.684  1.00  0.00     0.017 C 
ATOM     22  C   UNL A   1      44.317  33.562  36.807  1.00  0.00    -0.020 C 
ATOM     23  C   UNL A   1      43.484  31.527  37.930  1.00  0.00     0.032 C 
ATOM     24  C   UNL A   1      43.981  32.051  36.545  1.00  0.00     0.006 C 
ATOM     25  C   UNL A   1      45.166  34.149  35.650  1.00  0.00     0.008 C 
ATOM     26  C   UNL A   1      45.206  33.738  38.081  1.00  0.00     0.012 C 
ATOM     27  C   UNL A   1      45.007  31.129  35.714  1.00  0.00    -0.025 C 
ATOM     28  C   UNL A   1      46.373  33.270  35.283  1.00  0.00     0.005 C 
ATOM     29  C   UNL A   1      45.805  30.269  36.710  1.00  0.00     0.012 C 
ATOM     30  C   UNL A   1      44.211  30.146  34.783  1.00  0.00     0.010 C 
ATOM     31  C   UNL A   1      45.868  31.956  34.683  1.00  0.00     0.003 C 
ATOM     32  C   UNL A   1      45.078  29.270  33.866  1.00  0.00     0.033 C 
ATOM     33  C   UNL A   1      46.916  31.124  33.836  1.00  0.00    -0.006 C 
ATOM     34  C   UNL A   1      46.118  30.039  33.045  1.00  0.00     0.120 C 
ATOM     35  C   UNL A   1      48.074  30.513  34.655  1.00  0.00     0.014 C 
ATOM     36  C   UNL A   1      47.614  32.026  32.778  1.00  0.00     0.014 C 
BRANCH  34  37
ATOM     37  O   UNL A   1      46.998  29.114  32.403  1.00  0.00    -0.393 OA
ATOM     38  H   UNL A   1      47.727  29.598  31.984  1.00  0.00     0.210 HD
ENDBRANCH  34  37
ENDBRANCH   6   8
ENDBRANCH   5   6
ENDBRANCH   4   5
ENDBRANCH   3   4
ENDBRANCH   2   3
ENDBRANCH   1   2
BRANCH   1  39
ATOM     39  C   UNL A   1      35.108  33.188  31.775  1.00  0.00     0.261 C 
BRANCH  39  40
ATOM     40  O   UNL A   1      35.060  31.809  31.359  1.00  0.00    -0.460 OA
BRANCH  40  41
ATOM     41  C   UNL A   1      35.144  31.602  30.025  1.00  0.00     0.338 C 
ATOM     42  O   UNL A   1      34.490  32.151  29.143  1.00  0.00    -0.246 OA
BRANCH  41  43
ATOM     43  C   UNL A   1      36.241  30.666  29.726  1.00  0.00     0.060 A 
ATOM     44  C   UNL A   1      36.818  29.934  30.774  1.00  0.00     0.016 A 
ATOM     45  C   UNL A   1      36.792  30.628  28.444  1.00  0.00     0.016 A 
ATOM     46  C   UNL A   1      37.992  29.219  30.565  1.00  0.00     0.010 A 
ATOM     47  C   UNL A   1      37.994  29.950  28.245  1.00  0.00     0.010 A 
ATOM     48  C   UNL A   1      38.623  29.302  29.322  1.00  0.00    -0.014 A 
BRANCH  48  49
ATOM     49  C   UNL A   1      40.064  28.982  29.238  1.00  0.00     0.031 A 
ATOM     50  C   UNL A   1      41.040  30.088  29.542  1.00  0.00     0.074 A 
ATOM     51  C   UNL A   1      40.477  27.742  28.940  1.00  0.00     0.049 A 
ATOM     52  N   UNL A   1      42.342  30.098  29.442  1.00  0.00    -0.248 NA
ATOM     53  C   UNL A   1      40.465  31.358  30.022  1.00  0.00     0.031 C 
ATOM     54  C   UNL A   1      39.601  26.593  28.712  1.00  0.00     0.029 A 
ATOM     55  N   UNL A   1      41.741  27.245  28.767  1.00  0.00    -0.354 N 
ATOM     56  C   UNL A   1      42.738  31.376  29.825  1.00  0.00     0.074 A 
ATOM     57  C   UNL A   1      41.542  32.120  30.141  1.00  0.00     0.031 C 
ATOM     58  C   UNL A   1      40.357  25.527  28.401  1.00  0.00     0.029 A 
ATOM     59  C   UNL A   1      41.761  25.932  28.366  1.00  0.00     0.049 A 
ATOM     60  H   UNL A   1      42.557  27.777  28.917  1.00  0.00     0.167 HD
ATOM     61  C   UNL A   1      43.993  31.877  29.901  1.00  0.00     0.037 A 
ATOM     62  C   UNL A   1      42.798  25.166  27.979  1.00  0.00     0.037 A 
ATOM     63  C   UNL A   1      45.165  31.109  29.578  1.00  0.00     0.049 A 
ATOM     64  C   UNL A   1      44.180  25.767  27.997  1.00  0.00     0.074 A 
ATOM     65  C   UNL A   1      46.491  31.500  29.615  1.00  0.00     0.029 A 
ATOM     66  N   UNL A   1      45.146  29.787  29.150  1.00  0.00    -0.354 N 
ATOM     67  N   UNL A   1      44.549  26.977  28.350  1.00  0.00    -0.248 NA
ATOM     68  C   UNL A   1      45.285  24.901  27.569  1.00  0.00     0.031 C 
ATOM     69  C   UNL A   1      47.268  30.432  29.155  1.00  0.00     0.029 A 
ATOM     70  C   UNL A   1      46.435  29.353  28.896  1.00  0.00     0.049 A 
ATOM     71  H   UNL A   1      44.335  29.240  29.045  1.00  0.00     0.167 HD
ATOM     72  C   UNL A   1      45.932  27.010  28.214  1.00  0.00     0.074 A 
ATOM     73  C   UNL A   1      46.333  25.694  27.757  1.00  0.00     0.031 C 
ATOM     74  C   UNL A   1      46.796  28.030  28.448  1.00  0.00     0.037 A 
BRANCH  61  75
ATOM     75  C   UNL A   1      44.152  33.319  30.303  1.00  0.00     0.058 A 
ATOM     76  C   UNL A   1      44.147  33.727  31.646  1.00  0.00     0.135 A 
ATOM     77  C   UNL A   1      44.334  34.311  29.323  1.00  0.00     0.135 A 
ATOM     78  F   UNL A   1      43.953  32.828  32.625  1.00  0.00    -0.206 F 
ATOM     79  C   UNL A   1      44.295  35.064  32.004  1.00  0.00     0.059 A 
ATOM     80  C   UNL A   1      44.513  35.649  29.658  1.00  0.00     0.059 A 
ATOM     81  F   UNL A   1      44.337  33.982  28.022  1.00  0.00    -0.206 F 
ATOM     82  C   UNL A   1      44.480  36.019  31.002  1.00  0.00     0.060 A 
BRANCH  82  83
ATOM     83  S   UNL A   1      44.690  37.747  31.483  1.00  0.00     0.124 S 
ATOM     84  O   UNL A   1      43.813  38.423  30.534  1.00  0.00    -0.237 OA
ATOM     85  O   UNL A   1      44.238  37.740  32.871  1.00  0.00    -0.237 OA
ATOM     86  O   UNL A   1      46.118  37.982  31.294  1.00  0.00    -0.744 OA
ENDBRANCH  82  83
ENDBRANCH  61  75
BRANCH  62  87
ATOM     87  C   UNL A   1      42.561  23.771  27.523  1.00  0.00     0.058 A 
ATOM     88  C   UNL A   1      42.404  23.466  26.163  1.00  0.00     0.135 A 
ATOM     89  C   UNL A   1      42.504  22.707  28.439  1.00  0.00     0.135 A 
ATOM     90  F   UNL A   1      42.443  24.446  25.248  1.00  0.00    -0.206 F 
ATOM     91  C   UNL A   1      42.189  22.162  25.728  1.00  0.00     0.059 A 
ATOM     92  C   UNL A   1      42.320  21.392  28.026  1.00  0.00     0.059 A 
ATOM     93  F   UNL A   1      42.662  22.941  29.752  1.00  0.00    -0.206 F 
ATOM     94  C   UNL A   1      42.153  21.131  26.668  1.00  0.00     0.060 A 
BRANCH  94  95
ATOM     95  S   UNL A   1      41.923  19.437  26.086  1.00  0.00     0.124 S 
ATOM     96  O   UNL A   1      42.342  18.667  27.252  1.00  0.00    -0.237 OA
ATOM     97  O   UNL A   1      40.496  19.409  25.781  1.00  0.00    -0.237 OA
ATOM     98  O   UNL A   1      42.806  19.357  24.927  1.00  0.00    -0.744 OA
ENDBRANCH  94  95
ENDBRANCH  62  87
BRANCH  74  99
ATOM     99  C   UNL A   1      48.261  27.748  28.259  1.00  0.00     0.058 A 
ATOM    100  C   UNL A   1      49.058  27.246  29.299  1.00  0.00     0.135 A 
ATOM    101  C   UNL A   1      48.857  27.927  27.001  1.00  0.00     0.135 A 
ATOM    102  F   UNL A   1      48.536  27.062  30.523  1.00  0.00    -0.206 F 
ATOM    103  C   UNL A   1      50.404  26.958  29.105  1.00  0.00     0.059 A 
ATOM    104  C   UNL A   1      50.192  27.613  26.775  1.00  0.00     0.059 A 
ATOM    105  F   UNL A   1      48.133  28.392  25.969  1.00  0.00    -0.206 F 
ATOM    106  C   UNL A   1      50.961  27.142  27.837  1.00  0.00     0.060 A 
BRANCH 106 107
ATOM    107  S   UNL A   1      52.700  26.731  27.592  1.00  0.00     0.124 S 
ATOM    108  O   UNL A   1      52.605  25.426  26.945  1.00  0.00    -0.237 OA
ATOM    109  O   UNL A   1      53.162  27.826  26.745  1.00  0.00    -0.237 OA
ATOM    110  O   UNL A   1      53.243  26.721  28.947  1.00  0.00    -0.744 OA
ENDBRANCH 106 107
ENDBRANCH  74  99
ENDBRANCH  48  49
ENDBRANCH  41  43
ENDBRANCH  40  41
ENDBRANCH  39  40
ENDBRANCH   1  39
TORSDOF 18
ENDMDL
