MODEL 1
REMARK VINA RESULT:     -12.0      0.000      0.000
REMARK SMILES O=C(OCCOCCOC(=O)c1ccc(-c2c3nc(c(-c4c(F)cc(S(=O)(=O)[O-])cc4F)c4ccc([nH]4)c(-c4c(F)cc(S(=O)(=O)[O-])cc4F)c4nc(c(-c5c(F)cc(S(=O)(=O)[O-])cc5F)c5ccc2[nH]5)C=C4)C=C3)cc1)C1=Cc2ccc(Cl)c(Cl)c2O[C@@H]1C(F)(F)F
REMARK SMILES IDX 7 1 6 2 5 3 4 4 3 5 2 6 1 7 78 8 79 9 89 10 80 11 88 12
REMARK SMILES IDX 81 13 87 14 82 15 85 16 83 17 86 18 84 19 90 20 91 21 92 22
REMARK SMILES IDX 93 23 8 24 9 25 10 26 11 27 12 28 13 29 77 30 14 31 76 32
REMARK SMILES IDX 15 33 16 34 17 35 70 36 18 37 75 38 69 39 71 40 19 41 74 42
REMARK SMILES IDX 68 43 67 44 20 46 54 47 33 48 53 49 34 50 37 51 52 52 72 53
REMARK SMILES IDX 35 54 36 55 51 57 73 58 38 59 21 60 22 61 31 62 23 63 24 64
REMARK SMILES IDX 30 65 32 66 25 67 26 68 27 69 28 70 29 71 55 72 56 73 65 74
REMARK SMILES IDX 57 75 58 76 64 77 66 78 59 79 60 80 61 81 62 82 63 83 39 84
REMARK SMILES IDX 40 85 49 86 41 87 42 88 48 89 50 90 43 91 44 92 45 93 46 94
REMARK SMILES IDX 47 95
REMARK H PARENT 71 45 37 56
REMARK Flexibility Score: inf
ROOT
ATOM      1  C   UNL A   1      34.410  32.634  28.439  1.00  0.00     0.202 C 
ENDROOT
BRANCH   1   2
ATOM      2  O   UNL A   1      33.583  31.799  27.614  1.00  0.00    -0.374 OA
BRANCH   2   3
ATOM      3  C   UNL A   1      33.628  30.262  27.170  1.00  0.00     0.202 C 
BRANCH   3   4
ATOM      4  C   UNL A   1      32.176  28.649  27.277  1.00  0.00     0.261 C 
BRANCH   4   5
ATOM      5  O   UNL A   1      31.471  27.961  26.098  1.00  0.00    -0.460 OA
BRANCH   5   6
ATOM      6  C   UNL A   1      31.691  26.645  26.064  1.00  0.00     0.338 C 
ATOM      7  O   UNL A   1      31.402  25.798  26.870  1.00  0.00    -0.246 OA
BRANCH   6   8
ATOM      8  C   UNL A   1      32.677  26.687  25.005  1.00  0.00     0.087 C 
ATOM      9  C   UNL A   1      33.988  26.168  25.454  1.00  0.00     0.027 C 
ATOM     10  C   UNL A   1      31.562  25.856  23.662  1.00  0.00     0.316 C 
ATOM     11  C   UNL A   1      34.645  24.551  24.966  1.00  0.00     0.019 A 
ATOM     12  O   UNL A   1      32.203  24.098  23.185  1.00  0.00    -0.474 OA
ATOM     13  C   UNL A   1      35.769  24.094  25.596  1.00  0.00     0.013 A 
ATOM     14  C   UNL A   1      33.738  23.461  23.956  1.00  0.00     0.148 A 
ATOM     15  C   UNL A   1      36.023  22.728  25.420  1.00  0.00     0.023 A 
ATOM     16  C   UNL A   1      33.970  22.109  24.002  1.00  0.00     0.102 A 
ATOM     17  C   UNL A   1      35.152  21.783  24.728  1.00  0.00     0.063 A 
ATOM     18  Cl  UNL A   1      32.758  20.981  23.586  1.00  0.00    -0.079 Cl
ATOM     19  Cl  UNL A   1      35.655  20.141  24.969  1.00  0.00    -0.083 Cl
BRANCH  10  20
ATOM     20  C   UNL A   1      31.297  27.167  22.797  1.00  0.00     0.430 C 
ATOM     21  F   UNL A   1      32.341  27.997  22.641  1.00  0.00    -0.167 F 
ATOM     22  F   UNL A   1      31.000  26.749  21.526  1.00  0.00    -0.167 F 
ATOM     23  F   UNL A   1      30.213  27.886  23.170  1.00  0.00    -0.167 F 
ENDBRANCH  10  20
ENDBRANCH   6   8
ENDBRANCH   5   6
ENDBRANCH   4   5
ENDBRANCH   3   4
ENDBRANCH   2   3
ENDBRANCH   1   2
BRANCH   1  24
ATOM     24  C   UNL A   1      35.153  32.021  29.614  1.00  0.00     0.261 C 
BRANCH  24  25
ATOM     25  O   UNL A   1      36.020  30.976  29.230  1.00  0.00    -0.460 OA
BRANCH  25  26
ATOM     26  C   UNL A   1      36.559  30.307  30.270  1.00  0.00     0.338 C 
ATOM     27  O   UNL A   1      36.032  30.021  31.330  1.00  0.00    -0.246 OA
BRANCH  26  28
ATOM     28  C   UNL A   1      37.934  29.945  29.895  1.00  0.00     0.060 A 
ATOM     29  C   UNL A   1      38.259  29.935  28.539  1.00  0.00     0.016 A 
ATOM     30  C   UNL A   1      38.898  29.670  30.877  1.00  0.00     0.016 A 
ATOM     31  C   UNL A   1      39.574  29.687  28.162  1.00  0.00     0.010 A 
ATOM     32  C   UNL A   1      40.213  29.435  30.499  1.00  0.00     0.010 A 
ATOM     33  C   UNL A   1      40.550  29.442  29.140  1.00  0.00    -0.014 A 
BRANCH  33  34
ATOM     34  C   UNL A   1      41.878  28.960  28.728  1.00  0.00     0.031 A 
ATOM     35  C   UNL A   1      42.986  29.961  28.733  1.00  0.00     0.074 A 
ATOM     36  C   UNL A   1      42.086  27.680  28.375  1.00  0.00     0.049 A 
ATOM     37  N   UNL A   1      44.243  29.798  28.437  1.00  0.00    -0.248 NA
ATOM     38  C   UNL A   1      42.621  31.339  29.111  1.00  0.00     0.031 C 
ATOM     39  C   UNL A   1      41.062  26.645  28.323  1.00  0.00     0.029 A 
ATOM     40  N   UNL A   1      43.233  27.031  27.998  1.00  0.00    -0.354 N 
ATOM     41  C   UNL A   1      44.823  31.047  28.599  1.00  0.00     0.074 A 
ATOM     42  C   UNL A   1      43.775  31.968  28.974  1.00  0.00     0.031 C 
ATOM     43  C   UNL A   1      41.629  25.474  27.987  1.00  0.00     0.029 A 
ATOM     44  C   UNL A   1      43.045  25.698  27.719  1.00  0.00     0.049 A 
ATOM     45  H   UNL A   1      44.107  27.478  27.932  1.00  0.00     0.167 HD
ATOM     46  C   UNL A   1      46.121  31.386  28.454  1.00  0.00     0.037 A 
ATOM     47  C   UNL A   1      43.920  24.775  27.272  1.00  0.00     0.037 A 
ATOM     48  C   UNL A   1      47.137  30.459  28.039  1.00  0.00     0.049 A 
ATOM     49  C   UNL A   1      45.346  25.202  27.037  1.00  0.00     0.074 A 
ATOM     50  C   UNL A   1      48.485  30.694  27.851  1.00  0.00     0.029 A 
ATOM     51  N   UNL A   1      46.910  29.126  27.723  1.00  0.00    -0.354 N 
ATOM     52  N   UNL A   1      45.900  26.376  27.240  1.00  0.00    -0.248 NA
ATOM     53  C   UNL A   1      46.267  24.187  26.512  1.00  0.00     0.031 C 
ATOM     54  C   UNL A   1      49.061  29.522  27.352  1.00  0.00     0.029 A 
ATOM     55  C   UNL A   1      48.089  28.533  27.308  1.00  0.00     0.049 A 
ATOM     56  H   UNL A   1      46.039  28.671  27.783  1.00  0.00     0.167 HD
ATOM     57  C   UNL A   1      47.240  26.231  26.898  1.00  0.00     0.074 A 
ATOM     58  C   UNL A   1      47.415  24.851  26.491  1.00  0.00     0.031 C 
ATOM     59  C   UNL A   1      48.237  27.151  26.916  1.00  0.00     0.037 A 
BRANCH  46  60
ATOM     60  C   UNL A   1      46.485  32.819  28.701  1.00  0.00     0.058 A 
ATOM     61  C   UNL A   1      46.847  33.282  29.977  1.00  0.00     0.135 A 
ATOM     62  C   UNL A   1      46.467  33.745  27.647  1.00  0.00     0.135 A 
ATOM     63  F   UNL A   1      46.845  32.445  31.028  1.00  0.00    -0.206 F 
ATOM     64  C   UNL A   1      47.156  34.618  30.203  1.00  0.00     0.059 A 
ATOM     65  C   UNL A   1      46.808  35.078  27.843  1.00  0.00     0.059 A 
ATOM     66  F   UNL A   1      46.109  33.359  26.413  1.00  0.00    -0.206 F 
ATOM     67  C   UNL A   1      47.140  35.507  29.128  1.00  0.00     0.060 A 
BRANCH  67  68
ATOM     68  S   UNL A   1      47.567  37.231  29.436  1.00  0.00     0.124 S 
ATOM     69  O   UNL A   1      48.585  37.468  28.417  1.00  0.00    -0.237 OA
ATOM     70  O   UNL A   1      46.291  37.907  29.226  1.00  0.00    -0.237 OA
ATOM     71  O   UNL A   1      48.051  37.222  30.813  1.00  0.00    -0.744 OA
ENDBRANCH  67  68
ENDBRANCH  46  60
BRANCH  47  72
ATOM     72  C   UNL A   1      43.478  23.380  26.995  1.00  0.00     0.058 A 
ATOM     73  C   UNL A   1      43.315  22.447  28.030  1.00  0.00     0.135 A 
ATOM     74  C   UNL A   1      43.229  22.941  25.683  1.00  0.00     0.135 A 
ATOM     75  F   UNL A   1      43.549  22.807  29.301  1.00  0.00    -0.206 F 
ATOM     76  C   UNL A   1      42.945  21.129  27.777  1.00  0.00     0.059 A 
ATOM     77  C   UNL A   1      42.825  21.638  25.407  1.00  0.00     0.059 A 
ATOM     78  F   UNL A   1      43.363  23.790  24.652  1.00  0.00    -0.206 F 
ATOM     79  C   UNL A   1      42.698  20.735  26.460  1.00  0.00     0.060 A 
BRANCH  79  80
ATOM     80  S   UNL A   1      42.181  19.033  26.148  1.00  0.00     0.124 S 
ATOM     81  O   UNL A   1      43.095  18.637  25.083  1.00  0.00    -0.237 OA
ATOM     82  O   UNL A   1      42.405  18.405  27.447  1.00  0.00    -0.237 OA
ATOM     83  O   UNL A   1      40.781  19.171  25.760  1.00  0.00    -0.744 OA
ENDBRANCH  79  80
ENDBRANCH  47  72
BRANCH  59  84
ATOM     84  C   UNL A   1      49.617  26.689  26.534  1.00  0.00     0.058 A 
ATOM     85  C   UNL A   1      50.516  26.168  27.477  1.00  0.00     0.135 A 
ATOM     86  C   UNL A   1      50.016  26.705  25.186  1.00  0.00     0.135 A 
ATOM     87  F   UNL A   1      50.188  26.133  28.778  1.00  0.00    -0.206 F 
ATOM     88  C   UNL A   1      51.773  25.705  27.101  1.00  0.00     0.059 A 
ATOM     89  C   UNL A   1      51.251  26.211  24.784  1.00  0.00     0.059 A 
ATOM     90  F   UNL A   1      49.189  27.181  24.241  1.00  0.00    -0.206 F 
ATOM     91  C   UNL A   1      52.127  25.724  25.751  1.00  0.00     0.060 A 
BRANCH  91  92
ATOM     92  S   UNL A   1      53.745  25.082  25.275  1.00  0.00     0.124 S 
ATOM     93  O   UNL A   1      53.882  25.603  23.920  1.00  0.00    -0.237 OA
ATOM     94  O   UNL A   1      54.622  25.680  26.277  1.00  0.00    -0.237 OA
ATOM     95  O   UNL A   1      53.581  23.635  25.377  1.00  0.00    -0.744 OA
ENDBRANCH  91  92
ENDBRANCH  59  84
ENDBRANCH  33  34
ENDBRANCH  26  28
ENDBRANCH  25  26
ENDBRANCH  24  25
ENDBRANCH   1  24
TORSDOF 18
ENDMDL
MODEL 2
REMARK VINA RESULT:     -11.9      4.784      6.222
REMARK SMILES O=C(OCCOCCOC(=O)c1ccc(-c2c3nc(c(-c4c(F)cc(S(=O)(=O)[O-])cc4F)c4ccc([nH]4)c(-c4c(F)cc(S(=O)(=O)[O-])cc4F)c4nc(c(-c5c(F)cc(S(=O)(=O)[O-])cc5F)c5ccc2[nH]5)C=C4)C=C3)cc1)C1=Cc2ccc(Cl)c(Cl)c2O[C@@H]1C(F)(F)F
REMARK SMILES IDX 7 1 6 2 5 3 4 4 3 5 2 6 1 7 78 8 79 9 89 10 80 11 88 12
REMARK SMILES IDX 81 13 87 14 82 15 85 16 83 17 86 18 84 19 90 20 91 21 92 22
REMARK SMILES IDX 93 23 8 24 9 25 10 26 11 27 12 28 13 29 77 30 14 31 76 32
REMARK SMILES IDX 15 33 16 34 17 35 70 36 18 37 75 38 69 39 71 40 19 41 74 42
REMARK SMILES IDX 68 43 67 44 20 46 54 47 33 48 53 49 34 50 37 51 52 52 72 53
REMARK SMILES IDX 35 54 36 55 51 57 73 58 38 59 21 60 22 61 31 62 23 63 24 64
REMARK SMILES IDX 30 65 32 66 25 67 26 68 27 69 28 70 29 71 55 72 56 73 65 74
REMARK SMILES IDX 57 75 58 76 64 77 66 78 59 79 60 80 61 81 62 82 63 83 39 84
REMARK SMILES IDX 40 85 49 86 41 87 42 88 48 89 50 90 43 91 44 92 45 93 46 94
REMARK SMILES IDX 47 95
REMARK H PARENT 71 45 37 56
REMARK Flexibility Score: inf
ROOT
ATOM      1  C   UNL A   1      32.484  29.456  25.432  1.00  0.00     0.202 C 
ENDROOT
BRANCH   1   2
ATOM      2  O   UNL A   1      31.325  28.745  24.969  1.00  0.00    -0.374 OA
BRANCH   2   3
ATOM      3  C   UNL A   1      31.024  27.222  24.580  1.00  0.00     0.202 C 
BRANCH   3   4
ATOM      4  C   UNL A   1      31.292  25.345  25.640  1.00  0.00     0.261 C 
BRANCH   4   5
ATOM      5  O   UNL A   1      32.531  24.899  26.432  1.00  0.00    -0.460 OA
BRANCH   5   6
ATOM      6  C   UNL A   1      33.006  23.721  26.024  1.00  0.00     0.338 C 
ATOM      7  O   UNL A   1      32.897  22.633  26.530  1.00  0.00    -0.246 OA
BRANCH   6   8
ATOM      8  C   UNL A   1      33.955  24.264  25.076  1.00  0.00     0.087 C 
ATOM      9  C   UNL A   1      35.201  24.709  25.738  1.00  0.00     0.027 C 
ATOM     10  C   UNL A   1      33.835  22.804  23.815  1.00  0.00     0.316 C 
ATOM     11  C   UNL A   1      36.768  23.804  25.633  1.00  0.00     0.019 A 
ATOM     12  O   UNL A   1      35.472  21.781  23.745  1.00  0.00    -0.474 OA
ATOM     13  C   UNL A   1      37.797  24.198  26.442  1.00  0.00     0.013 A 
ATOM     14  C   UNL A   1      36.901  22.300  24.766  1.00  0.00     0.148 A 
ATOM     15  C   UNL A   1      38.840  23.271  26.555  1.00  0.00     0.023 A 
ATOM     16  C   UNL A   1      37.877  21.391  25.090  1.00  0.00     0.102 A 
ATOM     17  C   UNL A   1      38.854  21.932  25.974  1.00  0.00     0.063 A 
ATOM     18  Cl  UNL A   1      37.679  19.723  24.782  1.00  0.00    -0.079 Cl
ATOM     19  Cl  UNL A   1      40.176  20.980  26.571  1.00  0.00    -0.083 Cl
BRANCH  10  20
ATOM     20  C   UNL A   1      33.016  23.586  22.694  1.00  0.00     0.430 C 
ATOM     21  F   UNL A   1      33.444  24.824  22.401  1.00  0.00    -0.167 F 
ATOM     22  F   UNL A   1      33.173  22.885  21.527  1.00  0.00    -0.167 F 
ATOM     23  F   UNL A   1      31.677  23.615  22.884  1.00  0.00    -0.167 F 
ENDBRANCH  10  20
ENDBRANCH   6   8
ENDBRANCH   5   6
ENDBRANCH   4   5
ENDBRANCH   3   4
ENDBRANCH   2   3
ENDBRANCH   1   2
BRANCH   1  24
ATOM     24  C   UNL A   1      32.517  29.985  26.856  1.00  0.00     0.261 C 
BRANCH  24  25
ATOM     25  O   UNL A   1      33.740  29.724  27.510  1.00  0.00    -0.460 OA
BRANCH  25  26
ATOM     26  C   UNL A   1      34.510  30.820  27.677  1.00  0.00     0.338 C 
ATOM     27  O   UNL A   1      34.216  31.981  27.460  1.00  0.00    -0.246 OA
BRANCH  26  28
ATOM     28  C   UNL A   1      35.806  30.369  28.205  1.00  0.00     0.060 A 
ATOM     29  C   UNL A   1      35.802  29.553  29.336  1.00  0.00     0.016 A 
ATOM     30  C   UNL A   1      37.004  30.710  27.558  1.00  0.00     0.016 A 
ATOM     31  C   UNL A   1      37.006  29.038  29.802  1.00  0.00     0.010 A 
ATOM     32  C   UNL A   1      38.204  30.184  28.017  1.00  0.00     0.010 A 
ATOM     33  C   UNL A   1      38.204  29.349  29.141  1.00  0.00    -0.014 A 
BRANCH  33  34
ATOM     34  C   UNL A   1      39.486  28.989  29.767  1.00  0.00     0.031 A 
ATOM     35  C   UNL A   1      39.885  29.772  30.975  1.00  0.00     0.074 A 
ATOM     36  C   UNL A   1      40.255  27.999  29.284  1.00  0.00     0.049 A 
ATOM     37  N   UNL A   1      40.944  29.648  31.722  1.00  0.00    -0.248 NA
ATOM     38  C   UNL A   1      38.970  30.852  31.387  1.00  0.00     0.031 C 
ATOM     39  C   UNL A   1      39.953  27.200  28.104  1.00  0.00     0.029 A 
ATOM     40  N   UNL A   1      41.447  27.492  29.731  1.00  0.00    -0.354 N 
ATOM     41  C   UNL A   1      40.821  30.627  32.697  1.00  0.00     0.074 A 
ATOM     42  C   UNL A   1      39.611  31.367  32.422  1.00  0.00     0.031 C 
ATOM     43  C   UNL A   1      40.905  26.265  27.943  1.00  0.00     0.029 A 
ATOM     44  C   UNL A   1      41.927  26.456  28.965  1.00  0.00     0.049 A 
ATOM     45  H   UNL A   1      41.915  27.838  30.525  1.00  0.00     0.167 HD
ATOM     46  C   UNL A   1      41.647  30.875  33.735  1.00  0.00     0.037 A 
ATOM     47  C   UNL A   1      43.080  25.764  29.069  1.00  0.00     0.037 A 
ATOM     48  C   UNL A   1      42.868  30.151  33.963  1.00  0.00     0.049 A 
ATOM     49  C   UNL A   1      44.024  26.119  30.188  1.00  0.00     0.074 A 
ATOM     50  C   UNL A   1      43.787  30.322  34.979  1.00  0.00     0.029 A 
ATOM     51  N   UNL A   1      43.349  29.137  33.147  1.00  0.00    -0.354 N 
ATOM     52  N   UNL A   1      43.879  27.015  31.138  1.00  0.00    -0.248 NA
ATOM     53  C   UNL A   1      45.289  25.377  30.253  1.00  0.00     0.031 C 
ATOM     54  C   UNL A   1      44.860  29.460  34.738  1.00  0.00     0.029 A 
ATOM     55  C   UNL A   1      44.572  28.693  33.618  1.00  0.00     0.049 A 
ATOM     56  H   UNL A   1      42.890  28.785  32.350  1.00  0.00     0.167 HD
ATOM     57  C   UNL A   1      45.017  26.921  31.930  1.00  0.00     0.074 A 
ATOM     58  C   UNL A   1      45.834  25.869  31.357  1.00  0.00     0.031 C 
ATOM     59  C   UNL A   1      45.360  27.636  33.031  1.00  0.00     0.037 A 
BRANCH  46  60
ATOM     60  C   UNL A   1      41.271  31.997  34.655  1.00  0.00     0.058 A 
ATOM     61  C   UNL A   1      41.777  33.297  34.484  1.00  0.00     0.135 A 
ATOM     62  C   UNL A   1      40.395  31.770  35.727  1.00  0.00     0.135 A 
ATOM     63  F   UNL A   1      42.648  33.561  33.495  1.00  0.00    -0.206 F 
ATOM     64  C   UNL A   1      41.445  34.325  35.357  1.00  0.00     0.059 A 
ATOM     65  C   UNL A   1      40.021  32.791  36.591  1.00  0.00     0.059 A 
ATOM     66  F   UNL A   1      39.899  30.542  35.947  1.00  0.00    -0.206 F 
ATOM     67  C   UNL A   1      40.560  34.063  36.404  1.00  0.00     0.060 A 
BRANCH  67  68
ATOM     68  S   UNL A   1      40.123  35.416  37.514  1.00  0.00     0.124 S 
ATOM     69  O   UNL A   1      39.889  36.505  36.570  1.00  0.00    -0.237 OA
ATOM     70  O   UNL A   1      38.937  34.893  38.185  1.00  0.00    -0.237 OA
ATOM     71  O   UNL A   1      41.306  35.561  38.357  1.00  0.00    -0.744 OA
ENDBRANCH  67  68
ENDBRANCH  46  60
BRANCH  47  72
ATOM     72  C   UNL A   1      43.416  24.696  28.086  1.00  0.00     0.058 A 
ATOM     73  C   UNL A   1      44.158  24.976  26.929  1.00  0.00     0.135 A 
ATOM     74  C   UNL A   1      42.983  23.372  28.272  1.00  0.00     0.135 A 
ATOM     75  F   UNL A   1      44.587  26.225  26.694  1.00  0.00    -0.206 F 
ATOM     76  C   UNL A   1      44.439  23.994  25.983  1.00  0.00     0.059 A 
ATOM     77  C   UNL A   1      43.281  22.365  27.359  1.00  0.00     0.059 A 
ATOM     78  F   UNL A   1      42.275  23.042  29.364  1.00  0.00    -0.206 F 
ATOM     79  C   UNL A   1      43.999  22.689  26.210  1.00  0.00     0.060 A 
BRANCH  79  80
ATOM     80  S   UNL A   1      44.403  21.416  24.994  1.00  0.00     0.124 S 
ATOM     81  O   UNL A   1      45.761  21.054  25.385  1.00  0.00    -0.237 OA
ATOM     82  O   UNL A   1      43.375  20.412  25.253  1.00  0.00    -0.237 OA
ATOM     83  O   UNL A   1      44.279  22.116  23.719  1.00  0.00    -0.744 OA
ENDBRANCH  79  80
ENDBRANCH  47  72
BRANCH  59  84
ATOM     84  C   UNL A   1      46.649  27.276  33.720  1.00  0.00     0.058 A 
ATOM     85  C   UNL A   1      47.862  27.908  33.408  1.00  0.00     0.135 A 
ATOM     86  C   UNL A   1      46.650  26.330  34.760  1.00  0.00     0.135 A 
ATOM     87  F   UNL A   1      47.919  28.815  32.420  1.00  0.00    -0.206 F 
ATOM     88  C   UNL A   1      49.037  27.594  34.084  1.00  0.00     0.059 A 
ATOM     89  C   UNL A   1      47.804  26.032  35.475  1.00  0.00     0.059 A 
ATOM     90  F   UNL A   1      45.513  25.706  35.109  1.00  0.00    -0.206 F 
ATOM     91  C   UNL A   1      48.995  26.660  35.121  1.00  0.00     0.060 A 
BRANCH  91  92
ATOM     92  S   UNL A   1      50.519  26.296  36.015  1.00  0.00     0.124 S 
ATOM     93  O   UNL A   1      51.532  26.759  35.072  1.00  0.00    -0.237 OA
ATOM     94  O   UNL A   1      50.366  27.096  37.225  1.00  0.00    -0.237 OA
ATOM     95  O   UNL A   1      50.461  24.851  36.214  1.00  0.00    -0.744 OA
ENDBRANCH  91  92
ENDBRANCH  59  84
ENDBRANCH  33  34
ENDBRANCH  26  28
ENDBRANCH  25  26
ENDBRANCH  24  25
ENDBRANCH   1  24
TORSDOF 18
ENDMDL
MODEL 3
REMARK VINA RESULT:     -11.9      6.507     12.633
REMARK SMILES O=C(OCCOCCOC(=O)c1ccc(-c2c3nc(c(-c4c(F)cc(S(=O)(=O)[O-])cc4F)c4ccc([nH]4)c(-c4c(F)cc(S(=O)(=O)[O-])cc4F)c4nc(c(-c5c(F)cc(S(=O)(=O)[O-])cc5F)c5ccc2[nH]5)C=C4)C=C3)cc1)C1=Cc2ccc(Cl)c(Cl)c2O[C@@H]1C(F)(F)F
REMARK SMILES IDX 7 1 6 2 5 3 4 4 3 5 2 6 1 7 78 8 79 9 89 10 80 11 88 12
REMARK SMILES IDX 81 13 87 14 82 15 85 16 83 17 86 18 84 19 90 20 91 21 92 22
REMARK SMILES IDX 93 23 8 24 9 25 10 26 11 27 12 28 13 29 77 30 14 31 76 32
REMARK SMILES IDX 15 33 16 34 17 35 70 36 18 37 75 38 69 39 71 40 19 41 74 42
REMARK SMILES IDX 68 43 67 44 20 46 54 47 33 48 53 49 34 50 37 51 52 52 72 53
REMARK SMILES IDX 35 54 36 55 51 57 73 58 38 59 21 60 22 61 31 62 23 63 24 64
REMARK SMILES IDX 30 65 32 66 25 67 26 68 27 69 28 70 29 71 55 72 56 73 65 74
REMARK SMILES IDX 57 75 58 76 64 77 66 78 59 79 60 80 61 81 62 82 63 83 39 84
REMARK SMILES IDX 40 85 49 86 41 87 42 88 48 89 50 90 43 91 44 92 45 93 46 94
REMARK SMILES IDX 47 95
REMARK H PARENT 71 45 37 56
REMARK Flexibility Score: inf
ROOT
ATOM      1  C   UNL A   1      45.696  25.515  25.705  1.00  0.00     0.202 C 
ENDROOT
BRANCH   1   2
ATOM      2  O   UNL A   1      46.380  24.882  24.612  1.00  0.00    -0.374 OA
BRANCH   2   3
ATOM      3  C   UNL A   1      46.772  23.372  24.256  1.00  0.00     0.202 C 
BRANCH   3   4
ATOM      4  C   UNL A   1      45.909  21.453  24.801  1.00  0.00     0.261 C 
BRANCH   4   5
ATOM      5  O   UNL A   1      44.779  21.201  25.811  1.00  0.00    -0.460 OA
BRANCH   5   6
ATOM      6  C   UNL A   1      43.581  21.551  25.340  1.00  0.00     0.338 C 
ATOM      7  O   UNL A   1      43.300  22.235  24.390  1.00  0.00    -0.246 OA
BRANCH   6   8
ATOM      8  C   UNL A   1      42.842  21.185  26.530  1.00  0.00     0.087 C 
ATOM      9  C   UNL A   1      42.145  22.347  27.125  1.00  0.00     0.027 C 
ATOM     10  C   UNL A   1      41.962  19.649  25.753  1.00  0.00     0.316 C 
ATOM     11  C   UNL A   1      40.355  22.605  27.014  1.00  0.00     0.019 A 
ATOM     12  O   UNL A   1      40.062  19.936  25.556  1.00  0.00    -0.474 OA
ATOM     13  C   UNL A   1      39.849  23.806  27.425  1.00  0.00     0.013 A 
ATOM     14  C   UNL A   1      39.323  21.505  26.144  1.00  0.00     0.148 A 
ATOM     15  C   UNL A   1      38.537  24.062  27.008  1.00  0.00     0.023 A 
ATOM     16  C   UNL A   1      38.122  21.929  25.633  1.00  0.00     0.102 A 
ATOM     17  C   UNL A   1      37.747  23.215  26.119  1.00  0.00     0.063 A 
ATOM     18  Cl  UNL A   1      37.409  21.168  24.282  1.00  0.00    -0.079 Cl
ATOM     19  Cl  UNL A   1      36.290  24.001  25.600  1.00  0.00    -0.083 Cl
BRANCH  10  20
ATOM     20  C   UNL A   1      42.799  18.537  26.527  1.00  0.00     0.430 C 
ATOM     21  F   UNL A   1      42.710  18.551  27.867  1.00  0.00    -0.167 F 
ATOM     22  F   UNL A   1      42.278  17.324  26.162  1.00  0.00    -0.167 F 
ATOM     23  F   UNL A   1      44.103  18.457  26.173  1.00  0.00    -0.167 F 
ENDBRANCH  10  20
ENDBRANCH   6   8
ENDBRANCH   5   6
ENDBRANCH   4   5
ENDBRANCH   3   4
ENDBRANCH   2   3
ENDBRANCH   1   2
BRANCH   1  24
ATOM     24  C   UNL A   1      44.193  25.344  25.844  1.00  0.00     0.261 C 
BRANCH  24  25
ATOM     25  O   UNL A   1      43.467  26.441  25.333  1.00  0.00    -0.460 OA
BRANCH  25  26
ATOM     26  C   UNL A   1      42.162  26.435  25.675  1.00  0.00     0.338 C 
ATOM     27  O   UNL A   1      41.233  25.931  25.072  1.00  0.00    -0.246 OA
BRANCH  26  28
ATOM     28  C   UNL A   1      42.041  27.145  26.957  1.00  0.00     0.060 A 
ATOM     29  C   UNL A   1      41.316  26.530  27.978  1.00  0.00     0.016 A 
ATOM     30  C   UNL A   1      42.679  28.379  27.159  1.00  0.00     0.016 A 
ATOM     31  C   UNL A   1      41.264  27.136  29.228  1.00  0.00     0.010 A 
ATOM     32  C   UNL A   1      42.636  28.976  28.411  1.00  0.00     0.010 A 
ATOM     33  C   UNL A   1      41.926  28.354  29.445  1.00  0.00    -0.014 A 
BRANCH  33  34
ATOM     34  C   UNL A   1      41.678  29.095  30.692  1.00  0.00     0.031 A 
ATOM     35  C   UNL A   1      40.499  30.012  30.705  1.00  0.00     0.074 A 
ATOM     36  C   UNL A   1      42.467  28.947  31.770  1.00  0.00     0.049 A 
ATOM     37  N   UNL A   1      40.049  30.760  31.671  1.00  0.00    -0.248 NA
ATOM     38  C   UNL A   1      39.732  30.109  29.450  1.00  0.00     0.031 C 
ATOM     39  C   UNL A   1      43.645  28.093  31.839  1.00  0.00     0.029 A 
ATOM     40  N   UNL A   1      42.392  29.509  33.018  1.00  0.00    -0.354 N 
ATOM     41  C   UNL A   1      38.943  31.410  31.146  1.00  0.00     0.074 A 
ATOM     42  C   UNL A   1      38.815  31.007  29.765  1.00  0.00     0.031 C 
ATOM     43  C   UNL A   1      44.159  28.142  33.079  1.00  0.00     0.029 A 
ATOM     44  C   UNL A   1      43.391  29.097  33.868  1.00  0.00     0.049 A 
ATOM     45  H   UNL A   1      41.690  30.148  33.279  1.00  0.00     0.167 HD
ATOM     46  C   UNL A   1      38.104  32.262  31.772  1.00  0.00     0.037 A 
ATOM     47  C   UNL A   1      43.663  29.478  35.133  1.00  0.00     0.037 A 
ATOM     48  C   UNL A   1      38.278  32.680  33.136  1.00  0.00     0.049 A 
ATOM     49  C   UNL A   1      42.759  30.496  35.779  1.00  0.00     0.074 A 
ATOM     50  C   UNL A   1      37.494  33.547  33.872  1.00  0.00     0.029 A 
ATOM     51  N   UNL A   1      39.322  32.280  33.959  1.00  0.00    -0.354 N 
ATOM     52  N   UNL A   1      41.683  31.071  35.293  1.00  0.00    -0.248 NA
ATOM     53  C   UNL A   1      43.103  30.921  37.142  1.00  0.00     0.031 C 
ATOM     54  C   UNL A   1      38.104  33.727  35.116  1.00  0.00     0.029 A 
ATOM     55  C   UNL A   1      39.222  32.910  35.187  1.00  0.00     0.049 A 
ATOM     56  H   UNL A   1      40.030  31.644  33.706  1.00  0.00     0.167 HD
ATOM     57  C   UNL A   1      41.204  31.901  36.301  1.00  0.00     0.074 A 
ATOM     58  C   UNL A   1      42.100  31.739  37.430  1.00  0.00     0.031 C 
ATOM     59  C   UNL A   1      40.125  32.722  36.298  1.00  0.00     0.037 A 
BRANCH  46  60
ATOM     60  C   UNL A   1      36.970  32.821  30.967  1.00  0.00     0.058 A 
ATOM     61  C   UNL A   1      35.673  32.286  31.044  1.00  0.00     0.135 A 
ATOM     62  C   UNL A   1      37.183  33.904  30.101  1.00  0.00     0.135 A 
ATOM     63  F   UNL A   1      35.422  31.226  31.831  1.00  0.00    -0.206 F 
ATOM     64  C   UNL A   1      34.633  32.792  30.274  1.00  0.00     0.059 A 
ATOM     65  C   UNL A   1      36.150  34.449  29.348  1.00  0.00     0.059 A 
ATOM     66  F   UNL A   1      38.407  34.438  29.975  1.00  0.00    -0.206 F 
ATOM     67  C   UNL A   1      34.880  33.878  29.434  1.00  0.00     0.060 A 
BRANCH  67  68
ATOM     68  S   UNL A   1      33.513  34.536  28.459  1.00  0.00     0.124 S 
ATOM     69  O   UNL A   1      34.153  35.657  27.778  1.00  0.00    -0.237 OA
ATOM     70  O   UNL A   1      33.161  33.399  27.616  1.00  0.00    -0.237 OA
ATOM     71  O   UNL A   1      32.521  34.899  29.467  1.00  0.00    -0.744 OA
ENDBRANCH  67  68
ENDBRANCH  46  60
BRANCH  47  72
ATOM     72  C   UNL A   1      44.841  28.922  35.857  1.00  0.00     0.058 A 
ATOM     73  C   UNL A   1      46.111  29.507  35.742  1.00  0.00     0.135 A 
ATOM     74  C   UNL A   1      44.726  27.778  36.664  1.00  0.00     0.135 A 
ATOM     75  F   UNL A   1      46.281  30.595  34.976  1.00  0.00    -0.206 F 
ATOM     76  C   UNL A   1      47.226  28.970  36.380  1.00  0.00     0.059 A 
ATOM     77  C   UNL A   1      45.819  27.241  37.339  1.00  0.00     0.059 A 
ATOM     78  F   UNL A   1      43.535  27.177  36.817  1.00  0.00    -0.206 F 
ATOM     79  C   UNL A   1      47.068  27.837  37.180  1.00  0.00     0.060 A 
BRANCH  79  80
ATOM     80  S   UNL A   1      48.514  27.171  38.032  1.00  0.00     0.124 S 
ATOM     81  O   UNL A   1      49.450  28.287  37.944  1.00  0.00    -0.237 OA
ATOM     82  O   UNL A   1      47.981  26.890  39.361  1.00  0.00    -0.237 OA
ATOM     83  O   UNL A   1      48.860  25.994  37.241  1.00  0.00    -0.744 OA
ENDBRANCH  79  80
ENDBRANCH  47  72
BRANCH  59  84
ATOM     84  C   UNL A   1      39.818  33.473  37.566  1.00  0.00     0.058 A 
ATOM     85  C   UNL A   1      40.473  34.668  37.901  1.00  0.00     0.135 A 
ATOM     86  C   UNL A   1      38.801  33.020  38.424  1.00  0.00     0.135 A 
ATOM     87  F   UNL A   1      41.456  35.144  37.119  1.00  0.00    -0.206 F 
ATOM     88  C   UNL A   1      40.149  35.373  39.055  1.00  0.00     0.059 A 
ATOM     89  C   UNL A   1      38.434  33.729  39.561  1.00  0.00     0.059 A 
ATOM     90  F   UNL A   1      38.133  31.889  38.144  1.00  0.00    -0.206 F 
ATOM     91  C   UNL A   1      39.122  34.899  39.874  1.00  0.00     0.060 A 
BRANCH  91  92
ATOM     92  S   UNL A   1      38.686  35.847  41.346  1.00  0.00     0.124 S 
ATOM     93  O   UNL A   1      39.856  35.636  42.191  1.00  0.00    -0.237 OA
ATOM     94  O   UNL A   1      38.526  37.195  40.809  1.00  0.00    -0.237 OA
ATOM     95  O   UNL A   1      37.455  35.213  41.808  1.00  0.00    -0.744 OA
ENDBRANCH  91  92
ENDBRANCH  59  84
ENDBRANCH  33  34
ENDBRANCH  26  28
ENDBRANCH  25  26
ENDBRANCH  24  25
ENDBRANCH   1  24
TORSDOF 18
ENDMDL
