MODEL 1
REMARK VINA RESULT:     -12.3      0.000      0.000
REMARK SMILES O=C(Cc1c(C(=O)c2cc3c(cn2)CCCC3)[nH]c2cc(Cl)ccc12)OCCOCCOC(=O)c1ccc(-c2c3nc(c(-c4c(F)cc(S(=O)(=O)[O-])cc4F)c4ccc([nH]4)c(-c4c(F)cc(S(=O)(=O)[O-])cc4F)c4nc(c(-c5c(F)cc(S(=O)(=O)[O-])cc5F)c5ccc2[nH]5)C=C4)C=C3)cc1
REMARK SMILES IDX 29 1 28 2 27 3 26 4 2 5 1 6 3 7 4 8 5 9 25 10 18 11 19 12
REMARK SMILES IDX 24 13 20 15 23 16 21 17 22 18 6 19 7 20 8 21 9 22 13 23
REMARK SMILES IDX 10 24 12 25 11 26 17 27 14 28 16 29 15 30 30 31 31 32 32 33
REMARK SMILES IDX 33 34 34 35 35 36 36 37 100 38 37 39 99 40 38 41 39 42 40 43
REMARK SMILES IDX 93 44 41 45 98 46 92 47 94 48 42 49 97 50 91 51 90 52 43 54
REMARK SMILES IDX 77 55 56 56 76 57 57 58 60 59 75 60 95 61 58 62 59 63 74 65
REMARK SMILES IDX 96 66 61 67 44 68 45 69 54 70 46 71 47 72 53 73 55 74 48 75
REMARK SMILES IDX 49 76 50 77 51 78 52 79 78 80 79 81 88 82 80 83 81 84 87 85
REMARK SMILES IDX 89 86 82 87 83 88 84 89 85 90 86 91 62 92 63 93 72 94 64 95
REMARK SMILES IDX 65 96 71 97 73 98 66 99 67 100 68 101 69 102 70 103
REMARK H PARENT 18 14 94 53 60 64
REMARK Flexibility Score: inf
ROOT
ATOM      1  O   UNL A   1      38.400  22.252  25.993  1.00  0.00    -0.374 OA
ENDROOT
BRANCH   1   2
ATOM      2  C   UNL A   1      37.563  21.590  25.060  1.00  0.00     0.202 C 
BRANCH   2   3
ATOM      3  C   UNL A   1      36.081  21.948  25.048  1.00  0.00     0.261 C 
BRANCH   3   4
ATOM      4  O   UNL A   1      35.566  22.511  23.831  1.00  0.00    -0.463 OA
BRANCH   4   5
ATOM      5  C   UNL A   1      34.923  23.708  23.764  1.00  0.00     0.310 C 
ATOM      6  O   UNL A   1      34.749  24.250  22.672  1.00  0.00    -0.252 OA
BRANCH   5   7
ATOM      7  C   UNL A   1      34.542  24.402  25.046  1.00  0.00     0.161 C 
BRANCH   7   8
ATOM      8  C   UNL A   1      33.085  24.686  25.288  1.00  0.00     0.000 A 
ATOM      9  C   UNL A   1      32.205  23.757  25.853  1.00  0.00     0.093 A 
ATOM     10  C   UNL A   1      32.311  25.830  24.887  1.00  0.00     0.004 A 
ATOM     11  N   UNL A   1      30.956  24.335  25.824  1.00  0.00    -0.351 N 
ATOM     12  C   UNL A   1      30.974  25.501  25.097  1.00  0.00     0.048 A 
ATOM     13  C   UNL A   1      32.601  27.054  24.240  1.00  0.00     0.012 A 
ATOM     14  H   UNL A   1      30.158  23.963  26.263  1.00  0.00     0.167 HD
ATOM     15  C   UNL A   1      29.916  26.275  24.606  1.00  0.00     0.047 A 
ATOM     16  C   UNL A   1      31.559  27.823  23.711  1.00  0.00     0.021 A 
ATOM     17  C   UNL A   1      30.239  27.418  23.871  1.00  0.00     0.043 A 
ATOM     18  Cl  UNL A   1      28.976  28.323  23.128  1.00  0.00    -0.084 Cl
BRANCH   9  19
ATOM     19  C   UNL A   1      32.532  22.423  26.364  1.00  0.00     0.227 C 
ATOM     20  O   UNL A   1      32.791  22.196  27.545  1.00  0.00    -0.285 OA
BRANCH  19  21
ATOM     21  C   UNL A   1      32.549  21.265  25.432  1.00  0.00     0.113 A 
ATOM     22  C   UNL A   1      32.967  20.011  25.864  1.00  0.00     0.036 A 
ATOM     23  N   UNL A   1      32.139  21.533  24.168  1.00  0.00    -0.252 NA
ATOM     24  C   UNL A   1      33.003  18.969  24.932  1.00  0.00    -0.041 A 
ATOM     25  C   UNL A   1      32.159  20.509  23.297  1.00  0.00     0.115 A 
ATOM     26  C   UNL A   1      32.604  19.228  23.611  1.00  0.00    -0.026 A 
ATOM     27  C   UNL A   1      33.530  17.617  25.343  1.00  0.00     0.036 C 
ATOM     28  C   UNL A   1      32.591  18.156  22.555  1.00  0.00     0.037 C 
ATOM     29  C   UNL A   1      33.208  16.510  24.338  1.00  0.00     0.005 C 
ATOM     30  C   UNL A   1      33.488  16.975  22.914  1.00  0.00     0.005 C 
ENDBRANCH  19  21
ENDBRANCH   9  19
ENDBRANCH   7   8
ENDBRANCH   5   7
ENDBRANCH   4   5
ENDBRANCH   3   4
ENDBRANCH   2   3
ENDBRANCH   1   2
BRANCH   1  31
ATOM     31  C   UNL A   1      39.679  21.684  26.281  1.00  0.00     0.202 C 
BRANCH  31  32
ATOM     32  C   UNL A   1      40.827  22.632  26.641  1.00  0.00     0.261 C 
BRANCH  32  33
ATOM     33  O   UNL A   1      40.435  24.014  26.583  1.00  0.00    -0.460 OA
BRANCH  33  34
ATOM     34  C   UNL A   1      41.440  24.917  26.657  1.00  0.00     0.338 C 
ATOM     35  O   UNL A   1      42.437  24.979  25.950  1.00  0.00    -0.246 OA
BRANCH  34  36
ATOM     36  C   UNL A   1      41.066  25.968  27.615  1.00  0.00     0.060 A 
ATOM     37  C   UNL A   1      39.925  25.812  28.400  1.00  0.00     0.016 A 
ATOM     38  C   UNL A   1      41.909  27.077  27.784  1.00  0.00     0.016 A 
ATOM     39  C   UNL A   1      39.649  26.753  29.389  1.00  0.00     0.010 A 
ATOM     40  C   UNL A   1      41.630  28.017  28.777  1.00  0.00     0.010 A 
ATOM     41  C   UNL A   1      40.517  27.841  29.608  1.00  0.00    -0.014 A 
BRANCH  41  42
ATOM     42  C   UNL A   1      40.339  28.656  30.834  1.00  0.00     0.031 A 
ATOM     43  C   UNL A   1      41.222  28.491  32.029  1.00  0.00     0.074 A 
ATOM     44  C   UNL A   1      39.374  29.597  30.814  1.00  0.00     0.049 A 
ATOM     45  N   UNL A   1      41.304  29.251  33.090  1.00  0.00    -0.248 NA
ATOM     46  C   UNL A   1      42.123  27.329  32.047  1.00  0.00     0.031 C 
ATOM     47  C   UNL A   1      38.428  29.801  29.714  1.00  0.00     0.029 A 
ATOM     48  N   UNL A   1      39.048  30.576  31.717  1.00  0.00    -0.354 N 
ATOM     49  C   UNL A   1      42.287  28.684  33.890  1.00  0.00     0.074 A 
ATOM     50  C   UNL A   1      42.733  27.480  33.218  1.00  0.00     0.031 C 
ATOM     51  C   UNL A   1      37.668  30.874  29.980  1.00  0.00     0.029 A 
ATOM     52  C   UNL A   1      38.052  31.417  31.278  1.00  0.00     0.049 A 
ATOM     53  H   UNL A   1      39.485  30.668  32.595  1.00  0.00     0.167 HD
ATOM     54  C   UNL A   1      42.782  29.148  35.062  1.00  0.00     0.037 A 
ATOM     55  C   UNL A   1      37.521  32.516  31.848  1.00  0.00     0.037 A 
ATOM     56  C   UNL A   1      42.314  30.344  35.719  1.00  0.00     0.049 A 
ATOM     57  C   UNL A   1      38.071  32.988  33.165  1.00  0.00     0.074 A 
ATOM     58  C   UNL A   1      42.778  30.916  36.890  1.00  0.00     0.029 A 
ATOM     59  N   UNL A   1      41.274  31.145  35.270  1.00  0.00    -0.354 N 
ATOM     60  N   UNL A   1      39.065  32.493  33.865  1.00  0.00    -0.248 NA
ATOM     61  C   UNL A   1      37.438  34.167  33.769  1.00  0.00     0.031 C 
ATOM     62  C   UNL A   1      41.982  32.028  37.181  1.00  0.00     0.029 A 
ATOM     63  C   UNL A   1      41.061  32.187  36.159  1.00  0.00     0.049 A 
ATOM     64  H   UNL A   1      40.761  30.995  34.442  1.00  0.00     0.167 HD
ATOM     65  C   UNL A   1      39.189  33.313  34.980  1.00  0.00     0.074 A 
ATOM     66  C   UNL A   1      38.182  34.345  34.853  1.00  0.00     0.031 C 
ATOM     67  C   UNL A   1      40.058  33.215  36.015  1.00  0.00     0.037 A 
BRANCH  54  68
ATOM     68  C   UNL A   1      43.903  28.387  35.716  1.00  0.00     0.058 A 
ATOM     69  C   UNL A   1      43.643  27.335  36.609  1.00  0.00     0.135 A 
ATOM     70  C   UNL A   1      45.240  28.625  35.357  1.00  0.00     0.135 A 
ATOM     71  F   UNL A   1      42.385  27.069  36.994  1.00  0.00    -0.206 F 
ATOM     72  C   UNL A   1      44.669  26.549  37.125  1.00  0.00     0.059 A 
ATOM     73  C   UNL A   1      46.280  27.835  35.842  1.00  0.00     0.059 A 
ATOM     74  F   UNL A   1      45.545  29.616  34.505  1.00  0.00    -0.206 F 
ATOM     75  C   UNL A   1      45.983  26.800  36.727  1.00  0.00     0.060 A 
BRANCH  75  76
ATOM     76  S   UNL A   1      47.292  25.736  37.372  1.00  0.00     0.124 S 
ATOM     77  O   UNL A   1      47.294  26.099  38.786  1.00  0.00    -0.237 OA
ATOM     78  O   UNL A   1      46.788  24.403  37.061  1.00  0.00    -0.237 OA
ATOM     79  O   UNL A   1      48.472  26.151  36.619  1.00  0.00    -0.744 OA
ENDBRANCH  75  76
ENDBRANCH  54  68
BRANCH  55  80
ATOM     80  C   UNL A   1      36.428  33.253  31.160  1.00  0.00     0.058 A 
ATOM     81  C   UNL A   1      35.114  33.232  31.650  1.00  0.00     0.135 A 
ATOM     82  C   UNL A   1      36.680  34.011  30.004  1.00  0.00     0.135 A 
ATOM     83  F   UNL A   1      34.821  32.524  32.752  1.00  0.00    -0.206 F 
ATOM     84  C   UNL A   1      34.085  33.913  31.008  1.00  0.00     0.059 A 
ATOM     85  C   UNL A   1      35.675  34.726  29.362  1.00  0.00     0.059 A 
ATOM     86  F   UNL A   1      37.924  34.082  29.504  1.00  0.00    -0.206 F 
ATOM     87  C   UNL A   1      34.377  34.658  29.864  1.00  0.00     0.060 A 
BRANCH  87  88
ATOM     88  S   UNL A   1      33.037  35.555  29.051  1.00  0.00     0.124 S 
ATOM     89  O   UNL A   1      32.231  35.975  30.191  1.00  0.00    -0.237 OA
ATOM     90  O   UNL A   1      33.760  36.615  28.354  1.00  0.00    -0.237 OA
ATOM     91  O   UNL A   1      32.432  34.546  28.187  1.00  0.00    -0.744 OA
ENDBRANCH  87  88
ENDBRANCH  55  80
BRANCH  67  92
ATOM     92  C   UNL A   1      39.978  34.255  37.098  1.00  0.00     0.058 A 
ATOM     93  C   UNL A   1      40.559  35.522  36.943  1.00  0.00     0.135 A 
ATOM     94  C   UNL A   1      39.223  34.018  38.260  1.00  0.00     0.135 A 
ATOM     95  F   UNL A   1      41.299  35.799  35.857  1.00  0.00    -0.206 F 
ATOM     96  C   UNL A   1      40.398  36.518  37.901  1.00  0.00     0.059 A 
ATOM     97  C   UNL A   1      39.024  35.007  39.217  1.00  0.00     0.059 A 
ATOM     98  F   UNL A   1      38.641  32.824  38.454  1.00  0.00    -0.206 F 
ATOM     99  C   UNL A   1      39.617  36.255  39.028  1.00  0.00     0.060 A 
BRANCH  99 100
ATOM    100  S   UNL A   1      39.357  37.583  40.223  1.00  0.00     0.124 S 
ATOM    101  O   UNL A   1      38.422  38.446  39.507  1.00  0.00    -0.237 OA
ATOM    102  O   UNL A   1      38.805  36.865  41.367  1.00  0.00    -0.237 OA
ATOM    103  O   UNL A   1      40.693  38.135  40.420  1.00  0.00    -0.744 OA
ENDBRANCH  99 100
ENDBRANCH  67  92
ENDBRANCH  41  42
ENDBRANCH  34  36
ENDBRANCH  33  34
ENDBRANCH  32  33
ENDBRANCH  31  32
ENDBRANCH   1  31
TORSDOF 20
ENDMDL
MODEL 2
REMARK VINA RESULT:     -12.0      2.776      9.101
REMARK SMILES O=C(Cc1c(C(=O)c2cc3c(cn2)CCCC3)[nH]c2cc(Cl)ccc12)OCCOCCOC(=O)c1ccc(-c2c3nc(c(-c4c(F)cc(S(=O)(=O)[O-])cc4F)c4ccc([nH]4)c(-c4c(F)cc(S(=O)(=O)[O-])cc4F)c4nc(c(-c5c(F)cc(S(=O)(=O)[O-])cc5F)c5ccc2[nH]5)C=C4)C=C3)cc1
REMARK SMILES IDX 29 1 28 2 27 3 26 4 2 5 1 6 3 7 4 8 5 9 25 10 18 11 19 12
REMARK SMILES IDX 24 13 20 15 23 16 21 17 22 18 6 19 7 20 8 21 9 22 13 23
REMARK SMILES IDX 10 24 12 25 11 26 17 27 14 28 16 29 15 30 30 31 31 32 32 33
REMARK SMILES IDX 33 34 34 35 35 36 36 37 100 38 37 39 99 40 38 41 39 42 40 43
REMARK SMILES IDX 93 44 41 45 98 46 92 47 94 48 42 49 97 50 91 51 90 52 43 54
REMARK SMILES IDX 77 55 56 56 76 57 57 58 60 59 75 60 95 61 58 62 59 63 74 65
REMARK SMILES IDX 96 66 61 67 44 68 45 69 54 70 46 71 47 72 53 73 55 74 48 75
REMARK SMILES IDX 49 76 50 77 51 78 52 79 78 80 79 81 88 82 80 83 81 84 87 85
REMARK SMILES IDX 89 86 82 87 83 88 84 89 85 90 86 91 62 92 63 93 72 94 64 95
REMARK SMILES IDX 65 96 71 97 73 98 66 99 67 100 68 101 69 102 70 103
REMARK H PARENT 18 14 94 53 60 64
REMARK Flexibility Score: inf
ROOT
ATOM      1  O   UNL A   1      35.393  22.719  24.801  1.00  0.00    -0.374 OA
ENDROOT
BRANCH   1   2
ATOM      2  C   UNL A   1      35.438  23.531  23.640  1.00  0.00     0.202 C 
BRANCH   2   3
ATOM      3  C   UNL A   1      34.542  24.764  23.594  1.00  0.00     0.261 C 
BRANCH   3   4
ATOM      4  O   UNL A   1      34.142  25.219  22.292  1.00  0.00    -0.463 OA
BRANCH   4   5
ATOM      5  C   UNL A   1      33.014  25.941  22.056  1.00  0.00     0.310 C 
ATOM      6  O   UNL A   1      33.064  27.171  22.054  1.00  0.00    -0.252 OA
BRANCH   5   7
ATOM      7  C   UNL A   1      31.700  25.216  21.919  1.00  0.00     0.161 C 
BRANCH   7   8
ATOM      8  C   UNL A   1      31.209  24.418  23.096  1.00  0.00     0.000 A 
ATOM      9  C   UNL A   1      30.436  24.966  24.125  1.00  0.00     0.093 A 
ATOM     10  C   UNL A   1      31.527  23.066  23.464  1.00  0.00     0.004 A 
ATOM     11  N   UNL A   1      30.267  23.969  25.059  1.00  0.00    -0.351 N 
ATOM     12  C   UNL A   1      31.053  22.882  24.761  1.00  0.00     0.048 A 
ATOM     13  C   UNL A   1      32.289  22.026  22.881  1.00  0.00     0.012 A 
ATOM     14  H   UNL A   1      29.666  24.026  25.836  1.00  0.00     0.167 HD
ATOM     15  C   UNL A   1      31.384  21.766  25.540  1.00  0.00     0.047 A 
ATOM     16  C   UNL A   1      32.661  20.921  23.654  1.00  0.00     0.021 A 
ATOM     17  C   UNL A   1      32.234  20.813  24.972  1.00  0.00     0.043 A 
ATOM     18  Cl  UNL A   1      32.782  19.497  25.939  1.00  0.00    -0.084 Cl
BRANCH   9  19
ATOM     19  C   UNL A   1      29.915  26.333  24.213  1.00  0.00     0.227 C 
ATOM     20  O   UNL A   1      28.771  26.643  23.884  1.00  0.00    -0.285 OA
BRANCH  19  21
ATOM     21  C   UNL A   1      30.789  27.418  24.730  1.00  0.00     0.113 A 
ATOM     22  C   UNL A   1      31.882  27.126  25.540  1.00  0.00     0.036 A 
ATOM     23  N   UNL A   1      30.436  28.673  24.359  1.00  0.00    -0.252 NA
ATOM     24  C   UNL A   1      32.644  28.191  26.032  1.00  0.00    -0.041 A 
ATOM     25  C   UNL A   1      31.199  29.678  24.825  1.00  0.00     0.115 A 
ATOM     26  C   UNL A   1      32.284  29.502  25.679  1.00  0.00    -0.026 A 
ATOM     27  C   UNL A   1      33.784  27.918  26.980  1.00  0.00     0.036 C 
ATOM     28  C   UNL A   1      33.065  30.699  26.146  1.00  0.00     0.037 C 
ATOM     29  C   UNL A   1      34.713  29.117  27.170  1.00  0.00     0.005 C 
ATOM     30  C   UNL A   1      33.911  30.396  27.380  1.00  0.00     0.005 C 
ENDBRANCH  19  21
ENDBRANCH   9  19
ENDBRANCH   7   8
ENDBRANCH   5   7
ENDBRANCH   4   5
ENDBRANCH   3   4
ENDBRANCH   2   3
ENDBRANCH   1   2
BRANCH   1  31
ATOM     31  C   UNL A   1      36.205  21.544  24.840  1.00  0.00     0.202 C 
BRANCH  31  32
ATOM     32  C   UNL A   1      37.709  21.711  25.081  1.00  0.00     0.261 C 
BRANCH  32  33
ATOM     33  O   UNL A   1      38.009  22.860  25.891  1.00  0.00    -0.460 OA
BRANCH  33  34
ATOM     34  C   UNL A   1      39.301  22.994  26.271  1.00  0.00     0.338 C 
ATOM     35  O   UNL A   1      40.233  22.246  26.011  1.00  0.00    -0.246 OA
BRANCH  34  36
ATOM     36  C   UNL A   1      39.477  24.311  26.903  1.00  0.00     0.060 A 
ATOM     37  C   UNL A   1      38.876  24.572  28.132  1.00  0.00     0.016 A 
ATOM     38  C   UNL A   1      40.315  25.258  26.296  1.00  0.00     0.016 A 
ATOM     39  C   UNL A   1      39.151  25.775  28.778  1.00  0.00     0.010 A 
ATOM     40  C   UNL A   1      40.589  26.462  26.946  1.00  0.00     0.010 A 
ATOM     41  C   UNL A   1      40.035  26.712  28.208  1.00  0.00    -0.014 A 
BRANCH  41  42
ATOM     42  C   UNL A   1      40.509  27.841  29.043  1.00  0.00     0.031 A 
ATOM     43  C   UNL A   1      39.676  29.063  29.268  1.00  0.00     0.074 A 
ATOM     44  C   UNL A   1      41.708  27.705  29.644  1.00  0.00     0.049 A 
ATOM     45  N   UNL A   1      39.877  30.040  30.114  1.00  0.00    -0.248 NA
ATOM     46  C   UNL A   1      38.472  29.220  28.439  1.00  0.00     0.031 C 
ATOM     47  C   UNL A   1      42.617  26.573  29.447  1.00  0.00     0.029 A 
ATOM     48  N   UNL A   1      42.355  28.494  30.559  1.00  0.00    -0.354 N 
ATOM     49  C   UNL A   1      38.810  30.912  29.948  1.00  0.00     0.074 A 
ATOM     50  C   UNL A   1      37.993  30.379  28.877  1.00  0.00     0.031 C 
ATOM     51  C   UNL A   1      43.674  26.711  30.260  1.00  0.00     0.029 A 
ATOM     52  C   UNL A   1      43.534  27.951  31.015  1.00  0.00     0.049 A 
ATOM     53  H   UNL A   1      42.009  29.366  30.862  1.00  0.00     0.167 HD
ATOM     54  C   UNL A   1      38.533  32.038  30.649  1.00  0.00     0.037 A 
ATOM     55  C   UNL A   1      44.396  28.393  31.950  1.00  0.00     0.037 A 
ATOM     56  C   UNL A   1      39.368  32.556  31.705  1.00  0.00     0.049 A 
ATOM     57  C   UNL A   1      44.077  29.662  32.690  1.00  0.00     0.074 A 
ATOM     58  C   UNL A   1      39.154  33.670  32.498  1.00  0.00     0.029 A 
ATOM     59  N   UNL A   1      40.577  32.007  32.108  1.00  0.00    -0.354 N 
ATOM     60  N   UNL A   1      43.016  30.428  32.586  1.00  0.00    -0.248 NA
ATOM     61  C   UNL A   1      45.062  30.128  33.674  1.00  0.00     0.031 C 
ATOM     62  C   UNL A   1      40.259  33.827  33.341  1.00  0.00     0.029 A 
ATOM     63  C   UNL A   1      41.135  32.777  33.116  1.00  0.00     0.049 A 
ATOM     64  H   UNL A   1      40.981  31.191  31.733  1.00  0.00     0.167 HD
ATOM     65  C   UNL A   1      43.197  31.453  33.507  1.00  0.00     0.074 A 
ATOM     66  C   UNL A   1      44.459  31.200  34.171  1.00  0.00     0.031 C 
ATOM     67  C   UNL A   1      42.390  32.508  33.775  1.00  0.00     0.037 A 
BRANCH  54  68
ATOM     68  C   UNL A   1      37.270  32.788  30.327  1.00  0.00     0.058 A 
ATOM     69  C   UNL A   1      37.246  33.779  29.334  1.00  0.00     0.135 A 
ATOM     70  C   UNL A   1      36.049  32.433  30.926  1.00  0.00     0.135 A 
ATOM     71  F   UNL A   1      38.384  34.164  28.734  1.00  0.00    -0.206 F 
ATOM     72  C   UNL A   1      36.059  34.394  28.946  1.00  0.00     0.059 A 
ATOM     73  C   UNL A   1      34.846  33.017  30.537  1.00  0.00     0.059 A 
ATOM     74  F   UNL A   1      36.015  31.491  31.881  1.00  0.00    -0.206 F 
ATOM     75  C   UNL A   1      34.863  33.998  29.546  1.00  0.00     0.060 A 
BRANCH  75  76
ATOM     76  S   UNL A   1      33.328  34.774  28.994  1.00  0.00     0.124 S 
ATOM     77  O   UNL A   1      32.589  34.885  30.248  1.00  0.00    -0.237 OA
ATOM     78  O   UNL A   1      33.805  36.031  28.426  1.00  0.00    -0.237 OA
ATOM     79  O   UNL A   1      32.787  33.817  28.033  1.00  0.00    -0.744 OA
ENDBRANCH  75  76
ENDBRANCH  54  68
BRANCH  55  80
ATOM     80  C   UNL A   1      45.624  27.611  32.255  1.00  0.00     0.058 A 
ATOM     81  C   UNL A   1      45.644  26.662  33.288  1.00  0.00     0.135 A 
ATOM     82  C   UNL A   1      46.800  27.785  31.507  1.00  0.00     0.135 A 
ATOM     83  F   UNL A   1      44.547  26.456  34.031  1.00  0.00    -0.206 F 
ATOM     84  C   UNL A   1      46.791  25.931  33.584  1.00  0.00     0.059 A 
ATOM     85  C   UNL A   1      47.949  27.045  31.764  1.00  0.00     0.059 A 
ATOM     86  F   UNL A   1      46.829  28.666  30.495  1.00  0.00    -0.206 F 
ATOM     87  C   UNL A   1      47.939  26.131  32.815  1.00  0.00     0.060 A 
BRANCH  87  88
ATOM     88  S   UNL A   1      49.414  25.163  33.196  1.00  0.00     0.124 S 
ATOM     89  O   UNL A   1      50.180  26.102  34.007  1.00  0.00    -0.237 OA
ATOM     90  O   UNL A   1      48.852  24.017  33.905  1.00  0.00    -0.237 OA
ATOM     91  O   UNL A   1      49.971  24.864  31.880  1.00  0.00    -0.744 OA
ENDBRANCH  87  88
ENDBRANCH  55  80
BRANCH  67  92
ATOM     92  C   UNL A   1      42.830  33.474  34.840  1.00  0.00     0.058 A 
ATOM     93  C   UNL A   1      43.569  34.625  34.527  1.00  0.00     0.135 A 
ATOM     94  C   UNL A   1      42.420  33.302  36.173  1.00  0.00     0.135 A 
ATOM     95  F   UNL A   1      43.995  34.834  33.271  1.00  0.00    -0.206 F 
ATOM     96  C   UNL A   1      43.888  35.570  35.496  1.00  0.00     0.059 A 
ATOM     97  C   UNL A   1      42.702  34.248  37.153  1.00  0.00     0.059 A 
ATOM     98  F   UNL A   1      41.705  32.221  36.525  1.00  0.00    -0.206 F 
ATOM     99  C   UNL A   1      43.438  35.379  36.804  1.00  0.00     0.060 A 
BRANCH  99 100
ATOM    100  S   UNL A   1      43.796  36.653  38.032  1.00  0.00     0.124 S 
ATOM    101  O   UNL A   1      42.502  37.316  38.157  1.00  0.00    -0.237 OA
ATOM    102  O   UNL A   1      44.215  35.862  39.185  1.00  0.00    -0.237 OA
ATOM    103  O   UNL A   1      44.849  37.447  37.406  1.00  0.00    -0.744 OA
ENDBRANCH  99 100
ENDBRANCH  67  92
ENDBRANCH  41  42
ENDBRANCH  34  36
ENDBRANCH  33  34
ENDBRANCH  32  33
ENDBRANCH  31  32
ENDBRANCH   1  31
TORSDOF 20
ENDMDL
MODEL 3
REMARK VINA RESULT:     -11.9      0.613      7.864
REMARK SMILES O=C(Cc1c(C(=O)c2cc3c(cn2)CCCC3)[nH]c2cc(Cl)ccc12)OCCOCCOC(=O)c1ccc(-c2c3nc(c(-c4c(F)cc(S(=O)(=O)[O-])cc4F)c4ccc([nH]4)c(-c4c(F)cc(S(=O)(=O)[O-])cc4F)c4nc(c(-c5c(F)cc(S(=O)(=O)[O-])cc5F)c5ccc2[nH]5)C=C4)C=C3)cc1
REMARK SMILES IDX 29 1 28 2 27 3 26 4 2 5 1 6 3 7 4 8 5 9 25 10 18 11 19 12
REMARK SMILES IDX 24 13 20 15 23 16 21 17 22 18 6 19 7 20 8 21 9 22 13 23
REMARK SMILES IDX 10 24 12 25 11 26 17 27 14 28 16 29 15 30 30 31 31 32 32 33
REMARK SMILES IDX 33 34 34 35 35 36 36 37 100 38 37 39 99 40 38 41 39 42 40 43
REMARK SMILES IDX 93 44 41 45 98 46 92 47 94 48 42 49 97 50 91 51 90 52 43 54
REMARK SMILES IDX 77 55 56 56 76 57 57 58 60 59 75 60 95 61 58 62 59 63 74 65
REMARK SMILES IDX 96 66 61 67 44 68 45 69 54 70 46 71 47 72 53 73 55 74 48 75
REMARK SMILES IDX 49 76 50 77 51 78 52 79 78 80 79 81 88 82 80 83 81 84 87 85
REMARK SMILES IDX 89 86 82 87 83 88 84 89 85 90 86 91 62 92 63 93 72 94 64 95
REMARK SMILES IDX 65 96 71 97 73 98 66 99 67 100 68 101 69 102 70 103
REMARK H PARENT 18 14 94 53 60 64
REMARK Flexibility Score: inf
ROOT
ATOM      1  O   UNL A   1      38.109  22.428  25.754  1.00  0.00    -0.374 OA
ENDROOT
BRANCH   1   2
ATOM      2  C   UNL A   1      37.386  21.839  24.686  1.00  0.00     0.202 C 
BRANCH   2   3
ATOM      3  C   UNL A   1      35.871  22.013  24.666  1.00  0.00     0.261 C 
BRANCH   3   4
ATOM      4  O   UNL A   1      35.311  22.631  23.497  1.00  0.00    -0.463 OA
BRANCH   4   5
ATOM      5  C   UNL A   1      34.679  23.836  23.507  1.00  0.00     0.310 C 
ATOM      6  O   UNL A   1      34.487  24.435  22.449  1.00  0.00    -0.252 OA
BRANCH   5   7
ATOM      7  C   UNL A   1      34.335  24.466  24.831  1.00  0.00     0.161 C 
BRANCH   7   8
ATOM      8  C   UNL A   1      32.883  24.705  25.142  1.00  0.00     0.000 A 
ATOM      9  C   UNL A   1      32.065  23.758  25.768  1.00  0.00     0.093 A 
ATOM     10  C   UNL A   1      32.050  25.813  24.760  1.00  0.00     0.004 A 
ATOM     11  N   UNL A   1      30.797  24.292  25.792  1.00  0.00    -0.351 N 
ATOM     12  C   UNL A   1      30.738  25.444  25.044  1.00  0.00     0.048 A 
ATOM     13  C   UNL A   1      32.265  27.034  24.077  1.00  0.00     0.012 A 
ATOM     14  H   UNL A   1      30.035  23.902  26.277  1.00  0.00     0.167 HD
ATOM     15  C   UNL A   1      29.630  26.171  24.593  1.00  0.00     0.047 A 
ATOM     16  C   UNL A   1      31.171  27.756  23.588  1.00  0.00     0.021 A 
ATOM     17  C   UNL A   1      29.876  27.311  23.823  1.00  0.00     0.043 A 
ATOM     18  Cl  UNL A   1      28.547  28.157  23.129  1.00  0.00    -0.084 Cl
BRANCH   9  19
ATOM     19  C   UNL A   1      32.463  22.446  26.286  1.00  0.00     0.227 C 
ATOM     20  O   UNL A   1      32.767  22.247  27.461  1.00  0.00    -0.285 OA
BRANCH  19  21
ATOM     21  C   UNL A   1      32.502  21.277  25.369  1.00  0.00     0.113 A 
ATOM     22  C   UNL A   1      32.931  20.034  25.819  1.00  0.00     0.036 A 
ATOM     23  N   UNL A   1      32.098  21.524  24.098  1.00  0.00    -0.252 NA
ATOM     24  C   UNL A   1      32.986  18.980  24.901  1.00  0.00    -0.041 A 
ATOM     25  C   UNL A   1      32.137  20.490  23.240  1.00  0.00     0.115 A 
ATOM     26  C   UNL A   1      32.594  19.218  23.573  1.00  0.00    -0.026 A 
ATOM     27  C   UNL A   1      33.525  17.640  25.333  1.00  0.00     0.036 C 
ATOM     28  C   UNL A   1      32.602  18.133  22.531  1.00  0.00     0.037 C 
ATOM     29  C   UNL A   1      33.224  16.517  24.339  1.00  0.00     0.005 C 
ATOM     30  C   UNL A   1      33.510  16.967  22.911  1.00  0.00     0.005 C 
ENDBRANCH  19  21
ENDBRANCH   9  19
ENDBRANCH   7   8
ENDBRANCH   5   7
ENDBRANCH   4   5
ENDBRANCH   3   4
ENDBRANCH   2   3
ENDBRANCH   1   2
BRANCH   1  31
ATOM     31  C   UNL A   1      39.359  21.846  26.130  1.00  0.00     0.202 C 
BRANCH  31  32
ATOM     32  C   UNL A   1      40.505  22.784  26.522  1.00  0.00     0.261 C 
BRANCH  32  33
ATOM     33  O   UNL A   1      40.108  24.166  26.513  1.00  0.00    -0.460 OA
BRANCH  33  34
ATOM     34  C   UNL A   1      41.113  25.068  26.423  1.00  0.00     0.338 C 
ATOM     35  O   UNL A   1      41.792  25.329  25.440  1.00  0.00    -0.246 OA
BRANCH  34  36
ATOM     36  C   UNL A   1      41.155  25.858  27.664  1.00  0.00     0.060 A 
ATOM     37  C   UNL A   1      42.273  26.640  27.946  1.00  0.00     0.016 A 
ATOM     38  C   UNL A   1      40.033  25.875  28.506  1.00  0.00     0.016 A 
ATOM     39  C   UNL A   1      42.250  27.478  29.059  1.00  0.00     0.010 A 
ATOM     40  C   UNL A   1      40.013  26.716  29.619  1.00  0.00     0.010 A 
ATOM     41  C   UNL A   1      41.108  27.548  29.881  1.00  0.00    -0.014 A 
BRANCH  41  42
ATOM     42  C   UNL A   1      41.020  28.639  30.881  1.00  0.00     0.031 A 
ATOM     43  C   UNL A   1      39.984  29.714  30.791  1.00  0.00     0.074 A 
ATOM     44  C   UNL A   1      41.884  28.600  31.916  1.00  0.00     0.049 A 
ATOM     45  N   UNL A   1      39.670  30.618  31.683  1.00  0.00    -0.248 NA
ATOM     46  C   UNL A   1      39.204  29.796  29.548  1.00  0.00     0.031 C 
ATOM     47  C   UNL A   1      42.964  27.621  32.066  1.00  0.00     0.029 A 
ATOM     48  N   UNL A   1      41.975  29.370  33.047  1.00  0.00    -0.354 N 
ATOM     49  C   UNL A   1      38.634  31.356  31.127  1.00  0.00     0.074 A 
ATOM     50  C   UNL A   1      38.411  30.832  29.796  1.00  0.00     0.031 C 
ATOM     51  C   UNL A   1      43.570  27.812  33.246  1.00  0.00     0.029 A 
ATOM     52  C   UNL A   1      42.943  28.941  33.925  1.00  0.00     0.049 A 
ATOM     53  H   UNL A   1      41.403  30.154  33.214  1.00  0.00     0.167 HD
ATOM     54  C   UNL A   1      37.924  32.360  31.697  1.00  0.00     0.037 A 
ATOM     55  C   UNL A   1      43.276  29.394  35.149  1.00  0.00     0.037 A 
ATOM     56  C   UNL A   1      38.172  32.873  33.022  1.00  0.00     0.049 A 
ATOM     57  C   UNL A   1      42.489  30.530  35.741  1.00  0.00     0.074 A 
ATOM     58  C   UNL A   1      37.483  33.863  33.700  1.00  0.00     0.029 A 
ATOM     59  N   UNL A   1      39.190  32.447  33.864  1.00  0.00    -0.354 N 
ATOM     60  N   UNL A   1      41.451  31.158  35.241  1.00  0.00    -0.248 NA
ATOM     61  C   UNL A   1      42.909  31.017  37.061  1.00  0.00     0.031 C 
ATOM     62  C   UNL A   1      38.118  34.076  34.928  1.00  0.00     0.029 A 
ATOM     63  C   UNL A   1      39.166  33.177  35.042  1.00  0.00     0.049 A 
ATOM     64  H   UNL A   1      39.835  31.732  33.657  1.00  0.00     0.167 HD
ATOM     65  C   UNL A   1      41.081  32.099  36.194  1.00  0.00     0.074 A 
ATOM     66  C   UNL A   1      41.995  31.946  37.307  1.00  0.00     0.031 C 
ATOM     67  C   UNL A   1      40.078  33.008  36.148  1.00  0.00     0.037 A 
BRANCH  54  68
ATOM     68  C   UNL A   1      36.793  32.968  30.914  1.00  0.00     0.058 A 
ATOM     69  C   UNL A   1      35.455  32.731  31.266  1.00  0.00     0.135 A 
ATOM     70  C   UNL A   1      37.044  33.890  29.884  1.00  0.00     0.135 A 
ATOM     71  F   UNL A   1      35.157  31.853  32.237  1.00  0.00    -0.206 F 
ATOM     72  C   UNL A   1      34.407  33.383  30.624  1.00  0.00     0.059 A 
ATOM     73  C   UNL A   1      36.012  34.572  29.245  1.00  0.00     0.059 A 
ATOM     74  F   UNL A   1      38.305  34.156  29.508  1.00  0.00    -0.206 F 
ATOM     75  C   UNL A   1      34.696  34.309  29.622  1.00  0.00     0.060 A 
BRANCH  75  76
ATOM     76  S   UNL A   1      33.322  35.179  28.836  1.00  0.00     0.124 S 
ATOM     77  O   UNL A   1      34.023  36.227  28.099  1.00  0.00    -0.237 OA
ATOM     78  O   UNL A   1      32.717  34.129  28.023  1.00  0.00    -0.237 OA
ATOM     79  O   UNL A   1      32.518  35.640  29.964  1.00  0.00    -0.744 OA
ENDBRANCH  75  76
ENDBRANCH  54  68
BRANCH  55  80
ATOM     80  C   UNL A   1      44.387  28.751  35.900  1.00  0.00     0.058 A 
ATOM     81  C   UNL A   1      44.150  27.675  36.769  1.00  0.00     0.135 A 
ATOM     82  C   UNL A   1      45.713  29.190  35.752  1.00  0.00     0.135 A 
ATOM     83  F   UNL A   1      42.902  27.217  36.945  1.00  0.00    -0.206 F 
ATOM     84  C   UNL A   1      45.183  27.073  37.481  1.00  0.00     0.059 A 
ATOM     85  C   UNL A   1      46.766  28.584  36.430  1.00  0.00     0.059 A 
ATOM     86  F   UNL A   1      45.997  30.203  34.918  1.00  0.00    -0.206 F 
ATOM     87  C   UNL A   1      46.488  27.536  37.304  1.00  0.00     0.060 A 
BRANCH  87  88
ATOM     88  S   UNL A   1      47.822  26.733  38.218  1.00  0.00     0.124 S 
ATOM     89  O   UNL A   1      47.077  25.884  39.140  1.00  0.00    -0.237 OA
ATOM     90  O   UNL A   1      48.546  26.042  37.155  1.00  0.00    -0.237 OA
ATOM     91  O   UNL A   1      48.535  27.852  38.827  1.00  0.00    -0.744 OA
ENDBRANCH  87  88
ENDBRANCH  55  80
BRANCH  67  92
ATOM     92  C   UNL A   1      39.894  33.910  37.337  1.00  0.00     0.058 A 
ATOM     93  C   UNL A   1      40.534  35.156  37.418  1.00  0.00     0.135 A 
ATOM     94  C   UNL A   1      38.987  33.572  38.355  1.00  0.00     0.135 A 
ATOM     95  F   UNL A   1      41.418  35.525  36.477  1.00  0.00    -0.206 F 
ATOM     96  C   UNL A   1      40.285  36.033  38.469  1.00  0.00     0.059 A 
ATOM     97  C   UNL A   1      38.700  34.445  39.399  1.00  0.00     0.059 A 
ATOM     98  F   UNL A   1      38.342  32.394  38.322  1.00  0.00    -0.206 F 
ATOM     99  C   UNL A   1      39.356  35.674  39.447  1.00  0.00     0.060 A 
BRANCH  99 100
ATOM    100  S   UNL A   1      38.988  36.858  40.760  1.00  0.00     0.124 S 
ATOM    101  O   UNL A   1      38.223  37.871  40.039  1.00  0.00    -0.237 OA
ATOM    102  O   UNL A   1      38.229  36.045  41.704  1.00  0.00    -0.237 OA
ATOM    103  O   UNL A   1      40.307  37.280  41.221  1.00  0.00    -0.744 OA
ENDBRANCH  99 100
ENDBRANCH  67  92
ENDBRANCH  41  42
ENDBRANCH  34  36
ENDBRANCH  33  34
ENDBRANCH  32  33
ENDBRANCH  31  32
ENDBRANCH   1  31
TORSDOF 20
ENDMDL
