MODEL 1
REMARK VINA RESULT:     -10.1      0.000      0.000
REMARK SMILES CC[C@@H]1CC(=O)N(Cc2ccc(C(=O)OCCOCCOC(=O)c3ccc(-c4c5nc(c(-c6c(F)cc(S(=O)(=O)[O-])cc6F)c6ccc([nH]6)c(-c6c(F)cc(S(=O)(=O)[O-])cc6F)c6nc(c(-c7c(F)cc(S(=O)(=O)[O-])cc7F)c7ccc4[nH]7)C=C6)C=C5)cc3)cn2)C1
REMARK SMILES IDX 18 1 17 2 16 3 15 4 13 5 14 6 12 7 9 8 10 9 91 10 11 11
REMARK SMILES IDX 90 12 8 13 7 14 3 15 4 16 92 17 5 18 6 19 2 20 1 21 19 22
REMARK SMILES IDX 20 23 21 24 22 25 23 26 24 27 25 28 89 29 26 30 88 31 27 32
REMARK SMILES IDX 28 33 29 34 82 35 30 36 87 37 81 38 83 39 31 40 86 41 80 42
REMARK SMILES IDX 79 43 32 45 66 46 45 47 65 48 46 49 49 50 64 51 84 52 47 53
REMARK SMILES IDX 48 54 63 56 85 57 50 58 33 59 34 60 43 61 35 62 36 63 42 64
REMARK SMILES IDX 44 65 37 66 38 67 39 68 40 69 41 70 67 71 68 72 77 73 69 74
REMARK SMILES IDX 70 75 76 76 78 77 71 78 72 79 73 80 74 81 75 82 51 83 52 84
REMARK SMILES IDX 61 85 53 86 54 87 60 88 62 89 55 90 56 91 57 92 58 93 59 94
REMARK H PARENT 83 44 49 55
REMARK Flexibility Score: inf
ROOT
ATOM      1  O   UNL A   1      35.652  34.606  32.069  1.00  0.00    -0.374 OA
ENDROOT
BRANCH   1   2
ATOM      2  C   UNL A   1      34.420  34.121  31.538  1.00  0.00     0.202 C 
BRANCH   2   3
ATOM      3  C   UNL A   1      34.232  34.166  30.018  1.00  0.00     0.261 C 
BRANCH   3   4
ATOM      4  O   UNL A   1      34.498  32.893  29.414  1.00  0.00    -0.460 OA
BRANCH   4   5
ATOM      5  C   UNL A   1      34.237  32.837  28.088  1.00  0.00     0.339 C 
ATOM      6  O   UNL A   1      34.363  33.742  27.275  1.00  0.00    -0.246 OA
BRANCH   5   7
ATOM      7  C   UNL A   1      33.900  31.461  27.691  1.00  0.00     0.078 A 
ATOM      8  C   UNL A   1      33.571  28.878  26.831  1.00  0.00     0.060 A 
ATOM      9  C   UNL A   1      32.462  29.728  26.865  1.00  0.00     0.026 A 
ATOM     10  N   UNL A   1      34.782  29.245  27.313  1.00  0.00    -0.259 NA
ATOM     11  C   UNL A   1      32.633  31.045  27.291  1.00  0.00     0.019 A 
ATOM     12  C   UNL A   1      34.920  30.522  27.732  1.00  0.00     0.127 A 
BRANCH   8  13
ATOM     13  C   UNL A   1      33.520  27.594  26.027  1.00  0.00     0.175 C 
BRANCH  13  14
ATOM     14  N   UNL A   1      32.316  27.544  25.202  1.00  0.00    -0.336 N 
ATOM     15  C   UNL A   1      30.832  27.966  23.453  1.00  0.00     0.017 C 
ATOM     16  C   UNL A   1      30.252  26.861  24.347  1.00  0.00     0.105 C 
ATOM     17  C   UNL A   1      32.310  27.920  23.809  1.00  0.00     0.124 C 
ATOM     18  C   UNL A   1      31.151  26.884  25.563  1.00  0.00     0.223 C 
ATOM     19  O   UNL A   1      30.889  26.378  26.641  1.00  0.00    -0.275 OA
BRANCH  15  20
ATOM     20  C   UNL A   1      30.187  29.329  23.756  1.00  0.00     0.002 C 
ATOM     21  C   UNL A   1      29.579  29.987  22.523  1.00  0.00     0.004 C 
ENDBRANCH  15  20
ENDBRANCH  13  14
ENDBRANCH   8  13
ENDBRANCH   5   7
ENDBRANCH   4   5
ENDBRANCH   3   4
ENDBRANCH   2   3
ENDBRANCH   1   2
BRANCH   1  22
ATOM     22  C   UNL A   1      36.170  33.984  33.245  1.00  0.00     0.202 C 
BRANCH  22  23
ATOM     23  C   UNL A   1      36.630  32.522  33.158  1.00  0.00     0.261 C 
BRANCH  23  24
ATOM     24  O   UNL A   1      37.375  32.233  31.963  1.00  0.00    -0.460 OA
BRANCH  24  25
ATOM     25  C   UNL A   1      36.975  31.110  31.316  1.00  0.00     0.338 C 
ATOM     26  O   UNL A   1      35.826  30.743  31.119  1.00  0.00    -0.246 OA
BRANCH  25  27
ATOM     27  C   UNL A   1      38.133  30.450  30.689  1.00  0.00     0.060 A 
ATOM     28  C   UNL A   1      39.063  29.832  31.536  1.00  0.00     0.016 A 
ATOM     29  C   UNL A   1      38.349  30.497  29.311  1.00  0.00     0.016 A 
ATOM     30  C   UNL A   1      40.236  29.297  31.011  1.00  0.00     0.010 A 
ATOM     31  C   UNL A   1      39.532  29.965  28.787  1.00  0.00     0.010 A 
ATOM     32  C   UNL A   1      40.496  29.392  29.638  1.00  0.00    -0.014 A 
BRANCH  32  33
ATOM     33  C   UNL A   1      41.827  28.993  29.117  1.00  0.00     0.031 A 
ATOM     34  C   UNL A   1      42.932  30.012  29.064  1.00  0.00     0.074 A 
ATOM     35  C   UNL A   1      42.053  27.725  28.729  1.00  0.00     0.049 A 
ATOM     36  N   UNL A   1      44.159  29.881  28.628  1.00  0.00    -0.248 NA
ATOM     37  C   UNL A   1      42.613  31.359  29.565  1.00  0.00     0.031 C 
ATOM     38  C   UNL A   1      41.070  26.644  28.767  1.00  0.00     0.029 A 
ATOM     39  N   UNL A   1      43.184  27.134  28.224  1.00  0.00    -0.354 N 
ATOM     40  C   UNL A   1      44.756  31.125  28.796  1.00  0.00     0.074 A 
ATOM     41  C   UNL A   1      43.747  32.008  29.341  1.00  0.00     0.031 C 
ATOM     42  C   UNL A   1      41.639  25.520  28.300  1.00  0.00     0.029 A 
ATOM     43  C   UNL A   1      43.013  25.809  27.897  1.00  0.00     0.049 A 
ATOM     44  H   UNL A   1      44.035  27.613  28.105  1.00  0.00     0.167 HD
ATOM     45  C   UNL A   1      46.033  31.493  28.532  1.00  0.00     0.037 A 
ATOM     46  C   UNL A   1      43.863  24.937  27.318  1.00  0.00     0.037 A 
ATOM     47  C   UNL A   1      47.032  30.606  27.991  1.00  0.00     0.049 A 
ATOM     48  C   UNL A   1      45.258  25.389  26.971  1.00  0.00     0.074 A 
ATOM     49  C   UNL A   1      48.359  30.877  27.708  1.00  0.00     0.029 A 
ATOM     50  N   UNL A   1      46.813  29.281  27.642  1.00  0.00    -0.354 N 
ATOM     51  N   UNL A   1      45.817  26.560  27.161  1.00  0.00    -0.248 NA
ATOM     52  C   UNL A   1      46.138  24.398  26.336  1.00  0.00     0.031 C 
ATOM     53  C   UNL A   1      48.927  29.735  27.135  1.00  0.00     0.029 A 
ATOM     54  C   UNL A   1      47.973  28.731  27.118  1.00  0.00     0.049 A 
ATOM     55  H   UNL A   1      45.961  28.802  27.752  1.00  0.00     0.167 HD
ATOM     56  C   UNL A   1      47.124  26.439  26.695  1.00  0.00     0.074 A 
ATOM     57  C   UNL A   1      47.273  25.076  26.228  1.00  0.00     0.031 C 
ATOM     58  C   UNL A   1      48.109  27.371  26.657  1.00  0.00     0.037 A 
BRANCH  45  59
ATOM     59  C   UNL A   1      46.419  32.924  28.798  1.00  0.00     0.058 A 
ATOM     60  C   UNL A   1      46.293  33.920  27.817  1.00  0.00     0.135 A 
ATOM     61  C   UNL A   1      46.882  33.312  30.066  1.00  0.00     0.135 A 
ATOM     62  F   UNL A   1      45.871  33.605  26.581  1.00  0.00    -0.206 F 
ATOM     63  C   UNL A   1      46.638  35.244  28.075  1.00  0.00     0.059 A 
ATOM     64  C   UNL A   1      47.203  34.634  30.356  1.00  0.00     0.059 A 
ATOM     65  F   UNL A   1      47.022  32.401  31.042  1.00  0.00    -0.206 F 
ATOM     66  C   UNL A   1      47.091  35.591  29.349  1.00  0.00     0.060 A 
BRANCH  66  67
ATOM     67  S   UNL A   1      47.528  37.314  29.669  1.00  0.00     0.124 S 
ATOM     68  O   UNL A   1      48.621  37.164  30.625  1.00  0.00    -0.237 OA
ATOM     69  O   UNL A   1      47.907  37.790  28.343  1.00  0.00    -0.237 OA
ATOM     70  O   UNL A   1      46.297  37.883  30.209  1.00  0.00    -0.744 OA
ENDBRANCH  66  67
ENDBRANCH  45  59
BRANCH  46  71
ATOM     71  C   UNL A   1      43.414  23.550  27.021  1.00  0.00     0.058 A 
ATOM     72  C   UNL A   1      43.154  23.136  25.707  1.00  0.00     0.135 A 
ATOM     73  C   UNL A   1      43.238  22.610  28.049  1.00  0.00     0.135 A 
ATOM     74  F   UNL A   1      43.296  24.001  24.691  1.00  0.00    -0.206 F 
ATOM     75  C   UNL A   1      42.723  21.844  25.421  1.00  0.00     0.059 A 
ATOM     76  C   UNL A   1      42.836  21.305  27.786  1.00  0.00     0.059 A 
ATOM     77  F   UNL A   1      43.483  22.952  29.324  1.00  0.00    -0.206 F 
ATOM     78  C   UNL A   1      42.572  20.934  26.469  1.00  0.00     0.060 A 
BRANCH  78  79
ATOM     79  S   UNL A   1      42.063  19.245  26.083  1.00  0.00     0.124 S 
ATOM     80  O   UNL A   1      42.818  18.981  24.865  1.00  0.00    -0.237 OA
ATOM     81  O   UNL A   1      42.493  18.519  27.273  1.00  0.00    -0.237 OA
ATOM     82  O   UNL A   1      40.616  19.361  25.917  1.00  0.00    -0.744 OA
ENDBRANCH  78  79
ENDBRANCH  46  71
BRANCH  58  83
ATOM     83  C   UNL A   1      49.450  26.941  26.122  1.00  0.00     0.058 A 
ATOM     84  C   UNL A   1      50.436  26.388  26.953  1.00  0.00     0.135 A 
ATOM     85  C   UNL A   1      49.735  27.047  24.750  1.00  0.00     0.135 A 
ATOM     86  F   UNL A   1      50.221  26.269  28.273  1.00  0.00    -0.206 F 
ATOM     87  C   UNL A   1      51.669  25.983  26.448  1.00  0.00     0.059 A 
ATOM     88  C   UNL A   1      50.947  26.617  24.219  1.00  0.00     0.059 A 
ATOM     89  F   UNL A   1      48.823  27.558  23.907  1.00  0.00    -0.206 F 
ATOM     90  C   UNL A   1      51.914  26.100  25.079  1.00  0.00     0.060 A 
BRANCH  90  91
ATOM     91  S   UNL A   1      53.509  25.548  24.436  1.00  0.00     0.124 S 
ATOM     92  O   UNL A   1      53.389  25.888  23.023  1.00  0.00    -0.237 OA
ATOM     93  O   UNL A   1      54.451  26.355  25.206  1.00  0.00    -0.237 OA
ATOM     94  O   UNL A   1      53.522  24.120  24.739  1.00  0.00    -0.744 OA
ENDBRANCH  90  91
ENDBRANCH  58  83
ENDBRANCH  32  33
ENDBRANCH  25  27
ENDBRANCH  24  25
ENDBRANCH  23  24
ENDBRANCH  22  23
ENDBRANCH   1  22
TORSDOF 20
ENDMDL
MODEL 2
REMARK VINA RESULT:     -10.1      6.520     12.467
REMARK SMILES CC[C@@H]1CC(=O)N(Cc2ccc(C(=O)OCCOCCOC(=O)c3ccc(-c4c5nc(c(-c6c(F)cc(S(=O)(=O)[O-])cc6F)c6ccc([nH]6)c(-c6c(F)cc(S(=O)(=O)[O-])cc6F)c6nc(c(-c7c(F)cc(S(=O)(=O)[O-])cc7F)c7ccc4[nH]7)C=C6)C=C5)cc3)cn2)C1
REMARK SMILES IDX 18 1 17 2 16 3 15 4 13 5 14 6 12 7 9 8 10 9 91 10 11 11
REMARK SMILES IDX 90 12 8 13 7 14 3 15 4 16 92 17 5 18 6 19 2 20 1 21 19 22
REMARK SMILES IDX 20 23 21 24 22 25 23 26 24 27 25 28 89 29 26 30 88 31 27 32
REMARK SMILES IDX 28 33 29 34 82 35 30 36 87 37 81 38 83 39 31 40 86 41 80 42
REMARK SMILES IDX 79 43 32 45 66 46 45 47 65 48 46 49 49 50 64 51 84 52 47 53
REMARK SMILES IDX 48 54 63 56 85 57 50 58 33 59 34 60 43 61 35 62 36 63 42 64
REMARK SMILES IDX 44 65 37 66 38 67 39 68 40 69 41 70 67 71 68 72 77 73 69 74
REMARK SMILES IDX 70 75 76 76 78 77 71 78 72 79 73 80 74 81 75 82 51 83 52 84
REMARK SMILES IDX 61 85 53 86 54 87 60 88 62 89 55 90 56 91 57 92 58 93 59 94
REMARK H PARENT 83 44 49 55
REMARK Flexibility Score: inf
ROOT
ATOM      1  O   UNL A   1      42.647  21.774  26.868  1.00  0.00    -0.374 OA
ENDROOT
BRANCH   1   2
ATOM      2  C   UNL A   1      41.429  21.598  26.147  1.00  0.00     0.202 C 
BRANCH   2   3
ATOM      3  C   UNL A   1      40.117  21.890  26.882  1.00  0.00     0.261 C 
BRANCH   3   4
ATOM      4  O   UNL A   1      39.018  22.023  25.969  1.00  0.00    -0.460 OA
BRANCH   4   5
ATOM      5  C   UNL A   1      38.316  23.172  26.102  1.00  0.00     0.339 C 
ATOM      6  O   UNL A   1      38.734  24.246  26.509  1.00  0.00    -0.246 OA
BRANCH   5   7
ATOM      7  C   UNL A   1      36.964  23.011  25.544  1.00  0.00     0.078 A 
ATOM      8  C   UNL A   1      34.336  22.750  24.807  1.00  0.00     0.060 A 
ATOM      9  C   UNL A   1      35.315  22.067  24.081  1.00  0.00     0.026 A 
ATOM     10  N   UNL A   1      34.643  23.628  25.791  1.00  0.00    -0.259 NA
ATOM     11  C   UNL A   1      36.650  22.190  24.464  1.00  0.00     0.019 A 
ATOM     12  C   UNL A   1      35.944  23.740  26.137  1.00  0.00     0.127 A 
BRANCH   8  13
ATOM     13  C   UNL A   1      32.879  22.350  24.682  1.00  0.00     0.175 C 
BRANCH  13  14
ATOM     14  N   UNL A   1      32.754  20.924  24.392  1.00  0.00    -0.336 N 
ATOM     15  C   UNL A   1      32.889  18.610  24.646  1.00  0.00     0.017 C 
ATOM     16  C   UNL A   1      32.098  18.929  23.369  1.00  0.00     0.105 C 
ATOM     17  C   UNL A   1      32.781  19.914  25.421  1.00  0.00     0.124 C 
ATOM     18  C   UNL A   1      32.323  20.413  23.177  1.00  0.00     0.223 C 
ATOM     19  O   UNL A   1      32.122  21.026  22.143  1.00  0.00    -0.275 OA
BRANCH  15  20
ATOM     20  C   UNL A   1      34.343  18.226  24.323  1.00  0.00     0.002 C 
ATOM     21  C   UNL A   1      34.529  16.730  24.103  1.00  0.00     0.004 C 
ENDBRANCH  15  20
ENDBRANCH  13  14
ENDBRANCH   8  13
ENDBRANCH   5   7
ENDBRANCH   4   5
ENDBRANCH   3   4
ENDBRANCH   2   3
ENDBRANCH   1   2
BRANCH   1  22
ATOM     22  C   UNL A   1      43.483  22.876  26.518  1.00  0.00     0.202 C 
BRANCH  22  23
ATOM     23  C   UNL A   1      43.031  23.808  25.385  1.00  0.00     0.261 C 
BRANCH  23  24
ATOM     24  O   UNL A   1      43.288  25.196  25.656  1.00  0.00    -0.460 OA
BRANCH  24  25
ATOM     25  C   UNL A   1      42.171  25.953  25.791  1.00  0.00     0.338 C 
ATOM     26  O   UNL A   1      41.206  25.981  25.043  1.00  0.00    -0.246 OA
BRANCH  25  27
ATOM     27  C   UNL A   1      42.177  26.631  27.100  1.00  0.00     0.060 A 
ATOM     28  C   UNL A   1      41.339  26.117  28.098  1.00  0.00     0.016 A 
ATOM     29  C   UNL A   1      42.924  27.788  27.324  1.00  0.00     0.016 A 
ATOM     30  C   UNL A   1      41.213  26.785  29.313  1.00  0.00     0.010 A 
ATOM     31  C   UNL A   1      42.789  28.461  28.543  1.00  0.00     0.010 A 
ATOM     32  C   UNL A   1      41.908  27.981  29.531  1.00  0.00    -0.014 A 
BRANCH  32  33
ATOM     33  C   UNL A   1      41.621  28.783  30.746  1.00  0.00     0.031 A 
ATOM     34  C   UNL A   1      40.457  29.735  30.742  1.00  0.00     0.074 A 
ATOM     35  C   UNL A   1      42.373  28.635  31.851  1.00  0.00     0.049 A 
ATOM     36  N   UNL A   1      40.043  30.542  31.686  1.00  0.00    -0.248 NA
ATOM     37  C   UNL A   1      39.652  29.788  29.511  1.00  0.00     0.031 C 
ATOM     38  C   UNL A   1      43.506  27.719  31.984  1.00  0.00     0.029 A 
ATOM     39  N   UNL A   1      42.298  29.256  33.073  1.00  0.00    -0.354 N 
ATOM     40  C   UNL A   1      38.937  31.201  31.163  1.00  0.00     0.074 A 
ATOM     41  C   UNL A   1      38.764  30.727  29.806  1.00  0.00     0.031 C 
ATOM     42  C   UNL A   1      44.023  27.842  33.218  1.00  0.00     0.029 A 
ATOM     43  C   UNL A   1      43.283  28.868  33.950  1.00  0.00     0.049 A 
ATOM     44  H   UNL A   1      41.605  29.918  33.299  1.00  0.00     0.167 HD
ATOM     45  C   UNL A   1      38.131  32.110  31.764  1.00  0.00     0.037 A 
ATOM     46  C   UNL A   1      43.567  29.306  35.192  1.00  0.00     0.037 A 
ATOM     47  C   UNL A   1      38.310  32.575  33.116  1.00  0.00     0.049 A 
ATOM     48  C   UNL A   1      42.697  30.367  35.815  1.00  0.00     0.074 A 
ATOM     49  C   UNL A   1      37.536  33.478  33.824  1.00  0.00     0.029 A 
ATOM     50  N   UNL A   1      39.338  32.184  33.962  1.00  0.00    -0.354 N 
ATOM     51  N   UNL A   1      41.638  30.962  35.320  1.00  0.00    -0.248 NA
ATOM     52  C   UNL A   1      43.059  30.812  37.169  1.00  0.00     0.031 C 
ATOM     53  C   UNL A   1      38.127  33.676  35.076  1.00  0.00     0.029 A 
ATOM     54  C   UNL A   1      39.235  32.850  35.174  1.00  0.00     0.049 A 
ATOM     55  H   UNL A   1      40.037  31.529  33.736  1.00  0.00     0.167 HD
ATOM     56  C   UNL A   1      41.190  31.831  36.311  1.00  0.00     0.074 A 
ATOM     57  C   UNL A   1      42.086  31.671  37.439  1.00  0.00     0.031 C 
ATOM     58  C   UNL A   1      40.134  32.682  36.290  1.00  0.00     0.037 A 
BRANCH  45  59
ATOM     59  C   UNL A   1      36.998  32.684  30.957  1.00  0.00     0.058 A 
ATOM     60  C   UNL A   1      37.196  33.726  30.037  1.00  0.00     0.135 A 
ATOM     61  C   UNL A   1      35.702  32.156  31.075  1.00  0.00     0.135 A 
ATOM     62  F   UNL A   1      38.411  34.280  29.892  1.00  0.00    -0.206 F 
ATOM     63  C   UNL A   1      36.145  34.242  29.282  1.00  0.00     0.059 A 
ATOM     64  C   UNL A   1      34.643  32.636  30.310  1.00  0.00     0.059 A 
ATOM     65  F   UNL A   1      35.455  31.160  31.941  1.00  0.00    -0.206 F 
ATOM     66  C   UNL A   1      34.872  33.688  29.426  1.00  0.00     0.060 A 
BRANCH  66  67
ATOM     67  S   UNL A   1      33.521  34.364  28.436  1.00  0.00     0.124 S 
ATOM     68  O   UNL A   1      33.058  33.176  27.725  1.00  0.00    -0.237 OA
ATOM     69  O   UNL A   1      32.618  34.883  29.458  1.00  0.00    -0.237 OA
ATOM     70  O   UNL A   1      34.177  35.373  27.610  1.00  0.00    -0.744 OA
ENDBRANCH  66  67
ENDBRANCH  45  59
BRANCH  46  71
ATOM     71  C   UNL A   1      44.736  28.749  35.926  1.00  0.00     0.058 A 
ATOM     72  C   UNL A   1      44.601  27.641  36.773  1.00  0.00     0.135 A 
ATOM     73  C   UNL A   1      46.014  29.317  35.791  1.00  0.00     0.135 A 
ATOM     74  F   UNL A   1      43.398  27.070  36.946  1.00  0.00    -0.206 F 
ATOM     75  C   UNL A   1      45.686  27.121  37.473  1.00  0.00     0.059 A 
ATOM     76  C   UNL A   1      47.119  28.797  36.456  1.00  0.00     0.059 A 
ATOM     77  F   UNL A   1      46.199  30.373  34.983  1.00  0.00    -0.206 F 
ATOM     78  C   UNL A   1      46.943  27.703  37.303  1.00  0.00     0.060 A 
BRANCH  78  79
ATOM     79  S   UNL A   1      48.355  26.989  38.173  1.00  0.00     0.124 S 
ATOM     80  O   UNL A   1      47.696  26.125  39.144  1.00  0.00    -0.237 OA
ATOM     81  O   UNL A   1      49.066  26.313  37.093  1.00  0.00    -0.237 OA
ATOM     82  O   UNL A   1      49.034  28.158  38.725  1.00  0.00    -0.744 OA
ENDBRANCH  78  79
ENDBRANCH  46  71
BRANCH  58  83
ATOM     83  C   UNL A   1      39.865  33.485  37.535  1.00  0.00     0.058 A 
ATOM     84  C   UNL A   1      40.489  34.720  37.770  1.00  0.00     0.135 A 
ATOM     85  C   UNL A   1      38.936  33.032  38.487  1.00  0.00     0.135 A 
ATOM     86  F   UNL A   1      41.390  35.199  36.897  1.00  0.00    -0.206 F 
ATOM     87  C   UNL A   1      40.226  35.462  38.918  1.00  0.00     0.059 A 
ATOM     88  C   UNL A   1      38.633  33.773  39.625  1.00  0.00     0.059 A 
ATOM     89  F   UNL A   1      38.300  31.863  38.308  1.00  0.00    -0.206 F 
ATOM     90  C   UNL A   1      39.295  34.980  39.839  1.00  0.00     0.060 A 
BRANCH  90  91
ATOM     91  S   UNL A   1      38.947  35.966  41.312  1.00  0.00     0.124 S 
ATOM     92  O   UNL A   1      37.645  35.445  41.713  1.00  0.00    -0.237 OA
ATOM     93  O   UNL A   1      40.064  35.624  42.187  1.00  0.00    -0.237 OA
ATOM     94  O   UNL A   1      38.948  37.337  40.812  1.00  0.00    -0.744 OA
ENDBRANCH  90  91
ENDBRANCH  58  83
ENDBRANCH  32  33
ENDBRANCH  25  27
ENDBRANCH  24  25
ENDBRANCH  23  24
ENDBRANCH  22  23
ENDBRANCH   1  22
TORSDOF 20
ENDMDL
MODEL 3
REMARK VINA RESULT:      -9.9      0.909      2.030
REMARK SMILES CC[C@@H]1CC(=O)N(Cc2ccc(C(=O)OCCOCCOC(=O)c3ccc(-c4c5nc(c(-c6c(F)cc(S(=O)(=O)[O-])cc6F)c6ccc([nH]6)c(-c6c(F)cc(S(=O)(=O)[O-])cc6F)c6nc(c(-c7c(F)cc(S(=O)(=O)[O-])cc7F)c7ccc4[nH]7)C=C6)C=C5)cc3)cn2)C1
REMARK SMILES IDX 18 1 17 2 16 3 15 4 13 5 14 6 12 7 9 8 10 9 91 10 11 11
REMARK SMILES IDX 90 12 8 13 7 14 3 15 4 16 92 17 5 18 6 19 2 20 1 21 19 22
REMARK SMILES IDX 20 23 21 24 22 25 23 26 24 27 25 28 89 29 26 30 88 31 27 32
REMARK SMILES IDX 28 33 29 34 82 35 30 36 87 37 81 38 83 39 31 40 86 41 80 42
REMARK SMILES IDX 79 43 32 45 66 46 45 47 65 48 46 49 49 50 64 51 84 52 47 53
REMARK SMILES IDX 48 54 63 56 85 57 50 58 33 59 34 60 43 61 35 62 36 63 42 64
REMARK SMILES IDX 44 65 37 66 38 67 39 68 40 69 41 70 67 71 68 72 77 73 69 74
REMARK SMILES IDX 70 75 76 76 78 77 71 78 72 79 73 80 74 81 75 82 51 83 52 84
REMARK SMILES IDX 61 85 53 86 54 87 60 88 62 89 55 90 56 91 57 92 58 93 59 94
REMARK H PARENT 83 44 49 55
REMARK Flexibility Score: inf
ROOT
ATOM      1  O   UNL A   1      35.681  34.836  32.556  1.00  0.00    -0.374 OA
ENDROOT
BRANCH   1   2
ATOM      2  C   UNL A   1      34.324  34.765  32.121  1.00  0.00     0.202 C 
BRANCH   2   3
ATOM      3  C   UNL A   1      34.016  35.171  30.677  1.00  0.00     0.261 C 
BRANCH   3   4
ATOM      4  O   UNL A   1      33.538  34.060  29.905  1.00  0.00    -0.460 OA
BRANCH   4   5
ATOM      5  C   UNL A   1      33.897  34.088  28.601  1.00  0.00     0.339 C 
ATOM      6  O   UNL A   1      34.557  34.950  28.038  1.00  0.00    -0.246 OA
BRANCH   5   7
ATOM      7  C   UNL A   1      33.502  32.837  27.936  1.00  0.00     0.078 A 
ATOM      8  C   UNL A   1      32.471  30.557  26.814  1.00  0.00     0.060 A 
ATOM      9  C   UNL A   1      33.817  30.578  27.192  1.00  0.00     0.026 A 
ATOM     10  N   UNL A   1      31.683  31.656  26.875  1.00  0.00    -0.259 NA
ATOM     11  C   UNL A   1      34.337  31.733  27.774  1.00  0.00     0.019 A 
ATOM     12  C   UNL A   1      32.213  32.768  27.431  1.00  0.00     0.127 A 
BRANCH   8  13
ATOM     13  C   UNL A   1      31.777  29.236  26.550  1.00  0.00     0.175 C 
BRANCH  13  14
ATOM     14  N   UNL A   1      31.711  28.959  25.117  1.00  0.00    -0.336 N 
ATOM     15  C   UNL A   1      30.918  28.902  22.925  1.00  0.00     0.017 C 
ATOM     16  C   UNL A   1      32.350  28.349  22.955  1.00  0.00     0.105 C 
ATOM     17  C   UNL A   1      30.858  29.698  24.219  1.00  0.00     0.124 C 
ATOM     18  C   UNL A   1      32.632  28.181  24.432  1.00  0.00     0.223 C 
ATOM     19  O   UNL A   1      33.531  27.507  24.904  1.00  0.00    -0.275 OA
BRANCH  15  20
ATOM     20  C   UNL A   1      29.880  27.768  22.872  1.00  0.00     0.002 C 
ATOM     21  C   UNL A   1      28.457  28.253  23.121  1.00  0.00     0.004 C 
ENDBRANCH  15  20
ENDBRANCH  13  14
ENDBRANCH   8  13
ENDBRANCH   5   7
ENDBRANCH   4   5
ENDBRANCH   3   4
ENDBRANCH   2   3
ENDBRANCH   1   2
BRANCH   1  22
ATOM     22  C   UNL A   1      36.104  33.948  33.590  1.00  0.00     0.202 C 
BRANCH  22  23
ATOM     23  C   UNL A   1      36.123  32.442  33.299  1.00  0.00     0.261 C 
BRANCH  23  24
ATOM     24  O   UNL A   1      37.254  32.031  32.514  1.00  0.00    -0.460 OA
BRANCH  24  25
ATOM     25  C   UNL A   1      36.939  31.591  31.270  1.00  0.00     0.338 C 
ATOM     26  O   UNL A   1      35.928  31.848  30.633  1.00  0.00    -0.246 OA
BRANCH  25  27
ATOM     27  C   UNL A   1      38.089  30.886  30.677  1.00  0.00     0.060 A 
ATOM     28  C   UNL A   1      39.112  30.475  31.542  1.00  0.00     0.016 A 
ATOM     29  C   UNL A   1      38.204  30.698  29.299  1.00  0.00     0.016 A 
ATOM     30  C   UNL A   1      40.276  29.912  31.026  1.00  0.00     0.010 A 
ATOM     31  C   UNL A   1      39.378  30.138  28.783  1.00  0.00     0.010 A 
ATOM     32  C   UNL A   1      40.432  29.773  29.641  1.00  0.00    -0.014 A 
BRANCH  32  33
ATOM     33  C   UNL A   1      41.746  29.352  29.093  1.00  0.00     0.031 A 
ATOM     34  C   UNL A   1      42.855  30.362  28.983  1.00  0.00     0.074 A 
ATOM     35  C   UNL A   1      41.953  28.073  28.731  1.00  0.00     0.049 A 
ATOM     36  N   UNL A   1      44.068  30.211  28.516  1.00  0.00    -0.248 NA
ATOM     37  C   UNL A   1      42.559  31.722  29.460  1.00  0.00     0.031 C 
ATOM     38  C   UNL A   1      40.964  27.000  28.823  1.00  0.00     0.029 A 
ATOM     39  N   UNL A   1      43.065  27.462  28.208  1.00  0.00    -0.354 N 
ATOM     40  C   UNL A   1      44.678  31.455  28.637  1.00  0.00     0.074 A 
ATOM     41  C   UNL A   1      43.690  32.358  29.187  1.00  0.00     0.031 C 
ATOM     42  C   UNL A   1      41.513  25.861  28.367  1.00  0.00     0.029 A 
ATOM     43  C   UNL A   1      42.877  26.131  27.919  1.00  0.00     0.049 A 
ATOM     44  H   UNL A   1      43.916  27.932  28.054  1.00  0.00     0.167 HD
ATOM     45  C   UNL A   1      45.949  31.808  28.328  1.00  0.00     0.037 A 
ATOM     46  C   UNL A   1      43.704  25.239  27.338  1.00  0.00     0.037 A 
ATOM     47  C   UNL A   1      46.926  30.901  27.780  1.00  0.00     0.049 A 
ATOM     48  C   UNL A   1      45.092  25.673  26.941  1.00  0.00     0.074 A 
ATOM     49  C   UNL A   1      48.247  31.156  27.454  1.00  0.00     0.029 A 
ATOM     50  N   UNL A   1      46.690  29.570  27.471  1.00  0.00    -0.354 N 
ATOM     51  N   UNL A   1      45.664  26.844  27.086  1.00  0.00    -0.248 NA
ATOM     52  C   UNL A   1      45.947  24.660  26.306  1.00  0.00     0.031 C 
ATOM     53  C   UNL A   1      48.791  29.996  26.893  1.00  0.00     0.029 A 
ATOM     54  C   UNL A   1      47.831  28.998  26.928  1.00  0.00     0.049 A 
ATOM     55  H   UNL A   1      45.838  29.099  27.616  1.00  0.00     0.167 HD
ATOM     56  C   UNL A   1      46.956  26.703  26.586  1.00  0.00     0.074 A 
ATOM     57  C   UNL A   1      47.083  25.327  26.149  1.00  0.00     0.031 C 
ATOM     58  C   UNL A   1      47.945  27.627  26.497  1.00  0.00     0.037 A 
BRANCH  45  59
ATOM     59  C   UNL A   1      46.351  33.242  28.547  1.00  0.00     0.058 A 
ATOM     60  C   UNL A   1      47.001  33.659  29.719  1.00  0.00     0.135 A 
ATOM     61  C   UNL A   1      46.118  34.205  27.551  1.00  0.00     0.135 A 
ATOM     62  F   UNL A   1      47.236  32.785  30.711  1.00  0.00    -0.206 F 
ATOM     63  C   UNL A   1      47.383  34.985  29.908  1.00  0.00     0.059 A 
ATOM     64  C   UNL A   1      46.518  35.529  27.706  1.00  0.00     0.059 A 
ATOM     65  F   UNL A   1      45.498  33.863  26.411  1.00  0.00    -0.206 F 
ATOM     66  C   UNL A   1      47.138  35.913  28.893  1.00  0.00     0.060 A 
BRANCH  66  67
ATOM     67  S   UNL A   1      47.645  37.626  29.151  1.00  0.00     0.124 S 
ATOM     68  O   UNL A   1      47.185  38.255  27.917  1.00  0.00    -0.237 OA
ATOM     69  O   UNL A   1      46.910  37.988  30.359  1.00  0.00    -0.237 OA
ATOM     70  O   UNL A   1      49.094  37.533  29.305  1.00  0.00    -0.744 OA
ENDBRANCH  66  67
ENDBRANCH  45  59
BRANCH  46  71
ATOM     71  C   UNL A   1      43.238  23.849  27.089  1.00  0.00     0.058 A 
ATOM     72  C   UNL A   1      43.117  22.923  28.135  1.00  0.00     0.135 A 
ATOM     73  C   UNL A   1      42.902  23.419  25.794  1.00  0.00     0.135 A 
ATOM     74  F   UNL A   1      43.438  23.282  29.388  1.00  0.00    -0.206 F 
ATOM     75  C   UNL A   1      42.694  21.617  27.908  1.00  0.00     0.059 A 
ATOM     76  C   UNL A   1      42.448  22.128  25.547  1.00  0.00     0.059 A 
ATOM     77  F   UNL A   1      42.990  24.268  24.759  1.00  0.00    -0.206 F 
ATOM     78  C   UNL A   1      42.356  21.231  26.610  1.00  0.00     0.060 A 
BRANCH  78  79
ATOM     79  S   UNL A   1      41.757  19.550  26.334  1.00  0.00     0.124 S 
ATOM     80  O   UNL A   1      40.314  19.753  26.305  1.00  0.00    -0.237 OA
ATOM     81  O   UNL A   1      42.381  19.210  25.060  1.00  0.00    -0.237 OA
ATOM     82  O   UNL A   1      42.269  18.818  27.489  1.00  0.00    -0.744 OA
ENDBRANCH  78  79
ENDBRANCH  46  71
BRANCH  58  83
ATOM     83  C   UNL A   1      49.268  27.175  25.935  1.00  0.00     0.058 A 
ATOM     84  C   UNL A   1      49.565  27.275  24.568  1.00  0.00     0.135 A 
ATOM     85  C   UNL A   1      50.267  26.674  26.787  1.00  0.00     0.135 A 
ATOM     86  F   UNL A   1      48.645  27.742  23.708  1.00  0.00    -0.206 F 
ATOM     87  C   UNL A   1      50.795  26.866  24.059  1.00  0.00     0.059 A 
ATOM     88  C   UNL A   1      51.515  26.290  26.304  1.00  0.00     0.059 A 
ATOM     89  F   UNL A   1      50.042  26.566  28.106  1.00  0.00    -0.206 F 
ATOM     90  C   UNL A   1      51.763  26.376  24.935  1.00  0.00     0.060 A 
BRANCH  90  91
ATOM     91  S   UNL A   1      53.362  25.871  24.263  1.00  0.00     0.124 S 
ATOM     92  O   UNL A   1      53.465  24.500  24.748  1.00  0.00    -0.237 OA
ATOM     93  O   UNL A   1      53.157  26.023  22.826  1.00  0.00    -0.237 OA
ATOM     94  O   UNL A   1      54.297  26.820  24.861  1.00  0.00    -0.744 OA
ENDBRANCH  90  91
ENDBRANCH  58  83
ENDBRANCH  32  33
ENDBRANCH  25  27
ENDBRANCH  24  25
ENDBRANCH  23  24
ENDBRANCH  22  23
ENDBRANCH   1  22
TORSDOF 20
ENDMDL
