MODEL 1
REMARK VINA RESULT:     -10.3      0.000      0.000
REMARK SMILES CCNC(=O)N1CC[C@H](Cc2cccc(C(=O)OCCOCCOC(=O)c3ccc(-c4c5nc(c(-c6c(F)cc(S(=O)(=O)[O-])cc6F)c6ccc([nH]6)c(-c6c(F)cc(S(=O)(=O)[O-])cc6F)c6nc(c(-c7c(F)cc(S(=O)(=O)[O-])cc7F)c7ccc4[nH]7)C=C6)C=C5)cc3)c2)C1
REMARK SMILES IDX 20 1 19 2 18 3 16 4 17 5 15 6 11 7 12 8 93 9 13 10 14 11
REMARK SMILES IDX 10 12 9 13 6 14 7 15 94 16 8 17 4 18 3 19 5 21 2 22 1 23
REMARK SMILES IDX 21 24 22 25 23 26 24 27 25 28 26 29 27 30 28 31 92 32 29 33
REMARK SMILES IDX 91 34 30 35 31 36 32 37 85 38 33 39 90 40 84 41 86 42 34 43
REMARK SMILES IDX 89 44 83 45 82 46 35 48 69 49 48 50 68 51 49 52 52 53 67 54
REMARK SMILES IDX 87 55 50 56 51 57 66 59 88 60 53 61 36 62 37 63 46 64 38 65
REMARK SMILES IDX 39 66 45 67 47 68 40 69 41 70 42 71 43 72 44 73 70 74 71 75
REMARK SMILES IDX 80 76 72 77 73 78 79 79 81 80 74 81 75 82 76 83 77 84 78 85
REMARK SMILES IDX 54 86 55 87 64 88 56 89 57 90 63 91 65 92 58 93 59 94 60 95
REMARK SMILES IDX 61 96 62 97
REMARK H PARENT 3 20 86 47 52 58
REMARK Flexibility Score: inf
ROOT
ATOM      1  C   UNL A   1      37.963  22.224  25.738  1.00  0.00     0.202 C 
ENDROOT
BRANCH   1   2
ATOM      2  C   UNL A   1      37.072  23.382  25.276  1.00  0.00     0.261 C 
BRANCH   2   3
ATOM      3  O   UNL A   1      35.719  23.201  25.721  1.00  0.00    -0.460 OA
BRANCH   3   4
ATOM      4  C   UNL A   1      34.762  23.493  24.809  1.00  0.00     0.338 C 
ATOM      5  O   UNL A   1      34.596  22.961  23.720  1.00  0.00    -0.246 OA
BRANCH   4   6
ATOM      6  C   UNL A   1      33.798  24.458  25.388  1.00  0.00     0.060 A 
ATOM      7  C   UNL A   1      33.206  26.660  26.230  1.00  0.00    -0.047 A 
ATOM      8  C   UNL A   1      31.905  26.195  26.475  1.00  0.00     0.004 A 
ATOM      9  C   UNL A   1      34.164  25.764  25.730  1.00  0.00     0.019 A 
ATOM     10  C   UNL A   1      31.550  24.879  26.176  1.00  0.00     0.001 A 
ATOM     11  C   UNL A   1      32.489  24.017  25.615  1.00  0.00     0.016 A 
BRANCH   7  12
ATOM     12  C   UNL A   1      33.539  28.117  26.462  1.00  0.00     0.041 C 
BRANCH  12  13
ATOM     13  C   UNL A   1      33.365  28.996  25.214  1.00  0.00     0.015 C 
ATOM     14  N   UNL A   1      31.592  29.183  23.659  1.00  0.00    -0.325 N 
ATOM     15  C   UNL A   1      32.810  29.000  22.897  1.00  0.00     0.121 C 
ATOM     16  C   UNL A   1      31.920  29.498  25.038  1.00  0.00     0.125 C 
ATOM     17  C   UNL A   1      33.671  28.257  23.893  1.00  0.00     0.027 C 
BRANCH  14  18
ATOM     18  C   UNL A   1      30.317  29.261  23.201  1.00  0.00     0.317 C 
ATOM     19  N   UNL A   1      29.738  28.149  22.681  1.00  0.00    -0.338 N 
ATOM     20  H   UNL A   1      29.125  28.289  21.925  1.00  0.00     0.165 HD
ATOM     21  O   UNL A   1      29.638  30.282  23.291  1.00  0.00    -0.249 OA
BRANCH  19  22
ATOM     22  C   UNL A   1      29.922  26.775  23.116  1.00  0.00     0.114 C 
ATOM     23  C   UNL A   1      28.928  26.413  24.207  1.00  0.00     0.027 C 
ENDBRANCH  19  22
ENDBRANCH  14  18
ENDBRANCH  12  13
ENDBRANCH   7  12
ENDBRANCH   4   6
ENDBRANCH   3   4
ENDBRANCH   2   3
ENDBRANCH   1   2
BRANCH   1  24
ATOM     24  O   UNL A   1      39.246  22.575  26.257  1.00  0.00    -0.374 OA
BRANCH  24  25
ATOM     25  C   UNL A   1      40.218  21.532  26.356  1.00  0.00     0.202 C 
BRANCH  25  26
ATOM     26  C   UNL A   1      41.683  21.915  26.115  1.00  0.00     0.261 C 
BRANCH  26  27
ATOM     27  O   UNL A   1      42.128  22.961  26.994  1.00  0.00    -0.460 OA
BRANCH  27  28
ATOM     28  C   UNL A   1      42.383  24.145  26.387  1.00  0.00     0.338 C 
ATOM     29  O   UNL A   1      42.732  24.320  25.228  1.00  0.00    -0.246 OA
BRANCH  28  30
ATOM     30  C   UNL A   1      42.002  25.253  27.281  1.00  0.00     0.060 A 
ATOM     31  C   UNL A   1      42.825  26.387  27.306  1.00  0.00     0.016 A 
ATOM     32  C   UNL A   1      40.893  25.160  28.123  1.00  0.00     0.016 A 
ATOM     33  C   UNL A   1      42.563  27.420  28.204  1.00  0.00     0.010 A 
ATOM     34  C   UNL A   1      40.638  26.192  29.030  1.00  0.00     0.010 A 
ATOM     35  C   UNL A   1      41.488  27.313  29.096  1.00  0.00    -0.014 A 
BRANCH  35  36
ATOM     36  C   UNL A   1      41.317  28.302  30.187  1.00  0.00     0.031 A 
ATOM     37  C   UNL A   1      42.166  28.174  31.422  1.00  0.00     0.074 A 
ATOM     38  C   UNL A   1      40.401  29.283  30.089  1.00  0.00     0.049 A 
ATOM     39  N   UNL A   1      42.099  28.840  32.545  1.00  0.00    -0.248 NA
ATOM     40  C   UNL A   1      43.226  27.153  31.388  1.00  0.00     0.031 C 
ATOM     41  C   UNL A   1      39.545  29.525  28.928  1.00  0.00     0.029 A 
ATOM     42  N   UNL A   1      40.018  30.241  30.994  1.00  0.00    -0.354 N 
ATOM     43  C   UNL A   1      43.086  28.301  33.362  1.00  0.00     0.074 A 
ATOM     44  C   UNL A   1      43.732  27.247  32.610  1.00  0.00     0.031 C 
ATOM     45  C   UNL A   1      38.713  30.544  29.205  1.00  0.00     0.029 A 
ATOM     46  C   UNL A   1      38.950  30.999  30.575  1.00  0.00     0.049 A 
ATOM     47  H   UNL A   1      40.466  30.373  31.862  1.00  0.00     0.167 HD
ATOM     48  C   UNL A   1      43.419  28.656  34.626  1.00  0.00     0.037 A 
ATOM     49  C   UNL A   1      38.221  31.921  31.234  1.00  0.00     0.037 A 
ATOM     50  C   UNL A   1      42.782  29.719  35.356  1.00  0.00     0.049 A 
ATOM     51  C   UNL A   1      38.583  32.267  32.656  1.00  0.00     0.074 A 
ATOM     52  C   UNL A   1      43.082  30.188  36.624  1.00  0.00     0.029 A 
ATOM     53  N   UNL A   1      41.712  30.469  34.894  1.00  0.00    -0.354 N 
ATOM     54  N   UNL A   1      39.546  31.780  33.404  1.00  0.00    -0.248 NA
ATOM     55  C   UNL A   1      37.764  33.288  33.326  1.00  0.00     0.031 C 
ATOM     56  C   UNL A   1      42.156  31.183  36.951  1.00  0.00     0.029 A 
ATOM     57  C   UNL A   1      41.319  31.378  35.864  1.00  0.00     0.049 A 
ATOM     58  H   UNL A   1      41.294  30.372  34.009  1.00  0.00     0.167 HD
ATOM     59  C   UNL A   1      39.466  32.457  34.618  1.00  0.00     0.074 A 
ATOM     60  C   UNL A   1      38.368  33.393  34.502  1.00  0.00     0.031 C 
ATOM     61  C   UNL A   1      40.234  32.318  35.726  1.00  0.00     0.037 A 
BRANCH  48  62
ATOM     62  C   UNL A   1      44.501  27.874  35.318  1.00  0.00     0.058 A 
ATOM     63  C   UNL A   1      44.231  26.687  36.016  1.00  0.00     0.135 A 
ATOM     64  C   UNL A   1      45.841  28.284  35.217  1.00  0.00     0.135 A 
ATOM     65  F   UNL A   1      42.967  26.258  36.159  1.00  0.00    -0.206 F 
ATOM     66  C   UNL A   1      45.250  25.941  36.600  1.00  0.00     0.059 A 
ATOM     67  C   UNL A   1      46.878  27.540  35.769  1.00  0.00     0.059 A 
ATOM     68  F   UNL A   1      46.154  29.414  34.564  1.00  0.00    -0.206 F 
ATOM     69  C   UNL A   1      46.571  26.372  36.465  1.00  0.00     0.060 A 
BRANCH  69  70
ATOM     70  S   UNL A   1      47.885  25.372  37.197  1.00  0.00     0.124 S 
ATOM     71  O   UNL A   1      49.077  26.024  36.663  1.00  0.00    -0.237 OA
ATOM     72  O   UNL A   1      47.652  25.551  38.626  1.00  0.00    -0.237 OA
ATOM     73  O   UNL A   1      47.621  24.031  36.683  1.00  0.00    -0.744 OA
ENDBRANCH  69  70
ENDBRANCH  48  62
BRANCH  49  74
ATOM     74  C   UNL A   1      37.049  32.558  30.572  1.00  0.00     0.058 A 
ATOM     75  C   UNL A   1      37.192  33.716  29.796  1.00  0.00     0.135 A 
ATOM     76  C   UNL A   1      35.758  32.025  30.719  1.00  0.00     0.135 A 
ATOM     77  F   UNL A   1      38.403  34.270  29.634  1.00  0.00    -0.206 F 
ATOM     78  C   UNL A   1      36.095  34.338  29.206  1.00  0.00     0.059 A 
ATOM     79  C   UNL A   1      34.650  32.611  30.115  1.00  0.00     0.059 A 
ATOM     80  F   UNL A   1      35.568  30.910  31.442  1.00  0.00    -0.206 F 
ATOM     81  C   UNL A   1      34.828  33.776  29.371  1.00  0.00     0.060 A 
BRANCH  81  82
ATOM     82  S   UNL A   1      33.416  34.570  28.570  1.00  0.00     0.124 S 
ATOM     83  O   UNL A   1      32.904  33.488  27.739  1.00  0.00    -0.237 OA
ATOM     84  O   UNL A   1      32.589  34.946  29.713  1.00  0.00    -0.237 OA
ATOM     85  O   UNL A   1      34.023  35.687  27.853  1.00  0.00    -0.744 OA
ENDBRANCH  81  82
ENDBRANCH  49  74
BRANCH  61  86
ATOM     86  C   UNL A   1      39.958  33.227  36.892  1.00  0.00     0.058 A 
ATOM     87  C   UNL A   1      38.998  32.913  37.866  1.00  0.00     0.135 A 
ATOM     88  C   UNL A   1      40.726  34.389  37.081  1.00  0.00     0.135 A 
ATOM     89  F   UNL A   1      38.232  31.819  37.732  1.00  0.00    -0.206 F 
ATOM     90  C   UNL A   1      38.802  33.724  38.980  1.00  0.00     0.059 A 
ATOM     91  C   UNL A   1      40.567  35.197  38.201  1.00  0.00     0.059 A 
ATOM     92  F   UNL A   1      41.665  34.730  36.184  1.00  0.00    -0.206 F 
ATOM     93  C   UNL A   1      39.596  34.861  39.142  1.00  0.00     0.060 A 
BRANCH  93  94
ATOM     94  S   UNL A   1      39.370  35.872  40.621  1.00  0.00     0.124 S 
ATOM     95  O   UNL A   1      38.992  37.157  40.044  1.00  0.00    -0.237 OA
ATOM     96  O   UNL A   1      38.312  35.158  41.329  1.00  0.00    -0.237 OA
ATOM     97  O   UNL A   1      40.681  35.834  41.263  1.00  0.00    -0.744 OA
ENDBRANCH  93  94
ENDBRANCH  61  86
ENDBRANCH  35  36
ENDBRANCH  28  30
ENDBRANCH  27  28
ENDBRANCH  26  27
ENDBRANCH  25  26
ENDBRANCH  24  25
ENDBRANCH   1  24
TORSDOF 21
ENDMDL
MODEL 2
REMARK VINA RESULT:     -10.2      5.005     12.357
REMARK SMILES CCNC(=O)N1CC[C@H](Cc2cccc(C(=O)OCCOCCOC(=O)c3ccc(-c4c5nc(c(-c6c(F)cc(S(=O)(=O)[O-])cc6F)c6ccc([nH]6)c(-c6c(F)cc(S(=O)(=O)[O-])cc6F)c6nc(c(-c7c(F)cc(S(=O)(=O)[O-])cc7F)c7ccc4[nH]7)C=C6)C=C5)cc3)c2)C1
REMARK SMILES IDX 20 1 19 2 18 3 16 4 17 5 15 6 11 7 12 8 93 9 13 10 14 11
REMARK SMILES IDX 10 12 9 13 6 14 7 15 94 16 8 17 4 18 3 19 5 21 2 22 1 23
REMARK SMILES IDX 21 24 22 25 23 26 24 27 25 28 26 29 27 30 28 31 92 32 29 33
REMARK SMILES IDX 91 34 30 35 31 36 32 37 85 38 33 39 90 40 84 41 86 42 34 43
REMARK SMILES IDX 89 44 83 45 82 46 35 48 69 49 48 50 68 51 49 52 52 53 67 54
REMARK SMILES IDX 87 55 50 56 51 57 66 59 88 60 53 61 36 62 37 63 46 64 38 65
REMARK SMILES IDX 39 66 45 67 47 68 40 69 41 70 42 71 43 72 44 73 70 74 71 75
REMARK SMILES IDX 80 76 72 77 73 78 79 79 81 80 74 81 75 82 76 83 77 84 78 85
REMARK SMILES IDX 54 86 55 87 64 88 56 89 57 90 63 91 65 92 58 93 59 94 60 95
REMARK SMILES IDX 61 96 62 97
REMARK H PARENT 3 20 86 47 52 58
REMARK Flexibility Score: inf
ROOT
ATOM      1  C   UNL A   1      33.965  35.236  31.628  1.00  0.00     0.202 C 
ENDROOT
BRANCH   1   2
ATOM      2  C   UNL A   1      34.899  35.269  32.843  1.00  0.00     0.261 C 
BRANCH   2   3
ATOM      3  O   UNL A   1      35.992  34.355  32.677  1.00  0.00    -0.460 OA
BRANCH   3   4
ATOM      4  C   UNL A   1      36.284  33.594  33.759  1.00  0.00     0.338 C 
ATOM      5  O   UNL A   1      35.497  33.161  34.588  1.00  0.00    -0.246 OA
BRANCH   4   6
ATOM      6  C   UNL A   1      37.710  33.193  33.717  1.00  0.00     0.060 A 
ATOM      7  C   UNL A   1      39.470  31.518  33.639  1.00  0.00    -0.047 A 
ATOM      8  C   UNL A   1      40.423  32.548  33.638  1.00  0.00     0.004 A 
ATOM      9  C   UNL A   1      38.109  31.852  33.729  1.00  0.00     0.019 A 
ATOM     10  C   UNL A   1      40.027  33.886  33.670  1.00  0.00     0.001 A 
ATOM     11  C   UNL A   1      38.673  34.209  33.690  1.00  0.00     0.016 A 
BRANCH   7  12
ATOM     12  C   UNL A   1      39.917  30.080  33.496  1.00  0.00     0.041 C 
BRANCH  12  13
ATOM     13  C   UNL A   1      41.440  29.897  33.575  1.00  0.00     0.015 C 
ATOM     14  N   UNL A   1      42.775  27.984  33.970  1.00  0.00    -0.325 N 
ATOM     15  C   UNL A   1      43.231  29.016  34.878  1.00  0.00     0.121 C 
ATOM     16  C   UNL A   1      41.912  28.568  32.958  1.00  0.00     0.125 C 
ATOM     17  C   UNL A   1      41.981  29.854  35.021  1.00  0.00     0.027 C 
BRANCH  14  18
ATOM     18  C   UNL A   1      43.190  26.695  33.885  1.00  0.00     0.317 C 
ATOM     19  N   UNL A   1      42.868  25.835  34.884  1.00  0.00    -0.338 N 
ATOM     20  H   UNL A   1      43.542  25.153  35.108  1.00  0.00     0.165 HD
ATOM     21  O   UNL A   1      43.798  26.253  32.911  1.00  0.00    -0.249 OA
BRANCH  19  22
ATOM     22  C   UNL A   1      41.640  25.807  35.660  1.00  0.00     0.114 C 
ATOM     23  C   UNL A   1      41.900  26.209  37.102  1.00  0.00     0.027 C 
ENDBRANCH  19  22
ENDBRANCH  14  18
ENDBRANCH  12  13
ENDBRANCH   7  12
ENDBRANCH   4   6
ENDBRANCH   3   4
ENDBRANCH   2   3
ENDBRANCH   1   2
BRANCH   1  24
ATOM     24  O   UNL A   1      34.546  34.833  30.388  1.00  0.00    -0.374 OA
BRANCH  24  25
ATOM     25  C   UNL A   1      33.659  34.622  29.289  1.00  0.00     0.202 C 
BRANCH  25  26
ATOM     26  C   UNL A   1      33.899  33.379  28.423  1.00  0.00     0.261 C 
BRANCH  26  27
ATOM     27  O   UNL A   1      34.607  32.347  29.130  1.00  0.00    -0.460 OA
BRANCH  27  28
ATOM     28  C   UNL A   1      34.578  31.129  28.540  1.00  0.00     0.338 C 
ATOM     29  O   UNL A   1      33.676  30.660  27.860  1.00  0.00    -0.246 OA
BRANCH  28  30
ATOM     30  C   UNL A   1      35.893  30.479  28.677  1.00  0.00     0.060 A 
ATOM     31  C   UNL A   1      36.387  30.267  29.971  1.00  0.00     0.016 A 
ATOM     32  C   UNL A   1      36.657  30.138  27.559  1.00  0.00     0.016 A 
ATOM     33  C   UNL A   1      37.667  29.746  30.154  1.00  0.00     0.010 A 
ATOM     34  C   UNL A   1      37.943  29.626  27.745  1.00  0.00     0.010 A 
ATOM     35  C   UNL A   1      38.466  29.455  29.041  1.00  0.00    -0.014 A 
BRANCH  35  36
ATOM     36  C   UNL A   1      39.893  29.094  29.217  1.00  0.00     0.031 A 
ATOM     37  C   UNL A   1      40.863  30.158  29.652  1.00  0.00     0.074 A 
ATOM     38  C   UNL A   1      40.322  27.843  28.965  1.00  0.00     0.049 A 
ATOM     39  N   UNL A   1      42.165  30.104  29.744  1.00  0.00    -0.248 NA
ATOM     40  C   UNL A   1      40.285  31.460  30.026  1.00  0.00     0.031 C 
ATOM     41  C   UNL A   1      39.471  26.722  28.569  1.00  0.00     0.029 A 
ATOM     42  N   UNL A   1      41.589  27.315  28.978  1.00  0.00    -0.354 N 
ATOM     43  C   UNL A   1      42.567  31.369  30.158  1.00  0.00     0.074 A 
ATOM     44  C   UNL A   1      41.372  32.173  30.290  1.00  0.00     0.031 C 
ATOM     45  C   UNL A   1      40.244  25.646  28.343  1.00  0.00     0.029 A 
ATOM     46  C   UNL A   1      41.646  26.012  28.540  1.00  0.00     0.049 A 
ATOM     47  H   UNL A   1      42.382  27.819  29.274  1.00  0.00     0.167 HD
ATOM     48  C   UNL A   1      43.822  31.815  30.402  1.00  0.00     0.037 A 
ATOM     49  C   UNL A   1      42.708  25.222  28.287  1.00  0.00     0.037 A 
ATOM     50  C   UNL A   1      45.002  31.000  30.286  1.00  0.00     0.049 A 
ATOM     51  C   UNL A   1      44.098  25.757  28.524  1.00  0.00     0.074 A 
ATOM     52  C   UNL A   1      46.314  31.347  30.560  1.00  0.00     0.029 A 
ATOM     53  N   UNL A   1      45.018  29.684  29.850  1.00  0.00    -0.354 N 
ATOM     54  N   UNL A   1      44.463  26.942  28.956  1.00  0.00    -0.248 NA
ATOM     55  C   UNL A   1      45.221  24.850  28.244  1.00  0.00     0.031 C 
ATOM     56  C   UNL A   1      47.129  30.259  30.235  1.00  0.00     0.029 A 
ATOM     57  C   UNL A   1      46.320  29.213  29.818  1.00  0.00     0.049 A 
ATOM     58  H   UNL A   1      44.222  29.162  29.601  1.00  0.00     0.167 HD
ATOM     59  C   UNL A   1      45.853  26.910  29.027  1.00  0.00     0.074 A 
ATOM     60  C   UNL A   1      46.263  25.588  28.603  1.00  0.00     0.031 C 
ATOM     61  C   UNL A   1      46.711  27.887  29.411  1.00  0.00     0.037 A 
BRANCH  48  62
ATOM     62  C   UNL A   1      43.996  33.257  30.793  1.00  0.00     0.058 A 
ATOM     63  C   UNL A   1      44.224  34.264  29.842  1.00  0.00     0.135 A 
ATOM     64  C   UNL A   1      43.859  33.644  32.136  1.00  0.00     0.135 A 
ATOM     65  F   UNL A   1      44.381  33.947  28.546  1.00  0.00    -0.206 F 
ATOM     66  C   UNL A   1      44.323  35.601  30.210  1.00  0.00     0.059 A 
ATOM     67  C   UNL A   1      43.926  34.978  32.524  1.00  0.00     0.059 A 
ATOM     68  F   UNL A   1      43.645  32.721  33.087  1.00  0.00    -0.206 F 
ATOM     69  C   UNL A   1      44.165  35.950  31.553  1.00  0.00     0.060 A 
BRANCH  69  70
ATOM     70  S   UNL A   1      44.258  37.694  32.010  1.00  0.00     0.124 S 
ATOM     71  O   UNL A   1      43.408  37.730  33.197  1.00  0.00    -0.237 OA
ATOM     72  O   UNL A   1      45.686  37.878  32.247  1.00  0.00    -0.237 OA
ATOM     73  O   UNL A   1      43.726  38.383  30.838  1.00  0.00    -0.744 OA
ENDBRANCH  69  70
ENDBRANCH  48  62
BRANCH  49  74
ATOM     74  C   UNL A   1      42.505  23.852  27.741  1.00  0.00     0.058 A 
ATOM     75  C   UNL A   1      42.457  22.732  28.583  1.00  0.00     0.135 A 
ATOM     76  C   UNL A   1      42.370  23.636  26.360  1.00  0.00     0.135 A 
ATOM     77  F   UNL A   1      42.591  22.884  29.910  1.00  0.00    -0.206 F 
ATOM     78  C   UNL A   1      42.305  21.445  28.076  1.00  0.00     0.059 A 
ATOM     79  C   UNL A   1      42.188  22.362  25.831  1.00  0.00     0.059 A 
ATOM     80  F   UNL A   1      42.396  24.675  25.511  1.00  0.00    -0.206 F 
ATOM     81  C   UNL A   1      42.170  21.271  26.699  1.00  0.00     0.060 A 
BRANCH  81  82
ATOM     82  S   UNL A   1      41.936  19.599  26.054  1.00  0.00     0.124 S 
ATOM     83  O   UNL A   1      40.507  19.592  25.768  1.00  0.00    -0.237 OA
ATOM     84  O   UNL A   1      42.821  19.593  24.893  1.00  0.00    -0.237 OA
ATOM     85  O   UNL A   1      42.364  18.750  27.162  1.00  0.00    -0.744 OA
ENDBRANCH  81  82
ENDBRANCH  49  74
BRANCH  61  86
ATOM     86  C   UNL A   1      48.179  27.560  29.444  1.00  0.00     0.058 A 
ATOM     87  C   UNL A   1      49.022  27.819  28.352  1.00  0.00     0.135 A 
ATOM     88  C   UNL A   1      48.766  27.057  30.619  1.00  0.00     0.135 A 
ATOM     89  F   UNL A   1      48.513  28.293  27.204  1.00  0.00    -0.206 F 
ATOM     90  C   UNL A   1      50.391  27.581  28.419  1.00  0.00     0.059 A 
ATOM     91  C   UNL A   1      50.135  26.840  30.717  1.00  0.00     0.059 A 
ATOM     92  F   UNL A   1      48.006  26.801  31.696  1.00  0.00    -0.206 F 
ATOM     93  C   UNL A   1      50.940  27.098  29.609  1.00  0.00     0.060 A 
BRANCH  93  94
ATOM     94  S   UNL A   1      52.726  26.849  29.700  1.00  0.00     0.124 S 
ATOM     95  O   UNL A   1      53.007  26.249  28.401  1.00  0.00    -0.237 OA
ATOM     96  O   UNL A   1      53.222  28.208  29.892  1.00  0.00    -0.237 OA
ATOM     97  O   UNL A   1      52.888  25.962  30.849  1.00  0.00    -0.744 OA
ENDBRANCH  93  94
ENDBRANCH  61  86
ENDBRANCH  35  36
ENDBRANCH  28  30
ENDBRANCH  27  28
ENDBRANCH  26  27
ENDBRANCH  25  26
ENDBRANCH  24  25
ENDBRANCH   1  24
TORSDOF 21
ENDMDL
MODEL 3
REMARK VINA RESULT:     -10.2      1.388      2.408
REMARK SMILES CCNC(=O)N1CC[C@H](Cc2cccc(C(=O)OCCOCCOC(=O)c3ccc(-c4c5nc(c(-c6c(F)cc(S(=O)(=O)[O-])cc6F)c6ccc([nH]6)c(-c6c(F)cc(S(=O)(=O)[O-])cc6F)c6nc(c(-c7c(F)cc(S(=O)(=O)[O-])cc7F)c7ccc4[nH]7)C=C6)C=C5)cc3)c2)C1
REMARK SMILES IDX 20 1 19 2 18 3 16 4 17 5 15 6 11 7 12 8 93 9 13 10 14 11
REMARK SMILES IDX 10 12 9 13 6 14 7 15 94 16 8 17 4 18 3 19 5 21 2 22 1 23
REMARK SMILES IDX 21 24 22 25 23 26 24 27 25 28 26 29 27 30 28 31 92 32 29 33
REMARK SMILES IDX 91 34 30 35 31 36 32 37 85 38 33 39 90 40 84 41 86 42 34 43
REMARK SMILES IDX 89 44 83 45 82 46 35 48 69 49 48 50 68 51 49 52 52 53 67 54
REMARK SMILES IDX 87 55 50 56 51 57 66 59 88 60 53 61 36 62 37 63 46 64 38 65
REMARK SMILES IDX 39 66 45 67 47 68 40 69 41 70 42 71 43 72 44 73 70 74 71 75
REMARK SMILES IDX 80 76 72 77 73 78 79 79 81 80 74 81 75 82 76 83 77 84 78 85
REMARK SMILES IDX 54 86 55 87 64 88 56 89 57 90 63 91 65 92 58 93 59 94 60 95
REMARK SMILES IDX 61 96 62 97
REMARK H PARENT 3 20 86 47 52 58
REMARK Flexibility Score: inf
ROOT
ATOM      1  C   UNL A   1      37.662  23.397  25.748  1.00  0.00     0.202 C 
ENDROOT
BRANCH   1   2
ATOM      2  C   UNL A   1      37.543  21.968  25.206  1.00  0.00     0.261 C 
BRANCH   2   3
ATOM      3  O   UNL A   1      36.478  21.868  24.248  1.00  0.00    -0.460 OA
BRANCH   3   4
ATOM      4  C   UNL A   1      35.239  21.712  24.771  1.00  0.00     0.338 C 
ATOM      5  O   UNL A   1      34.910  20.951  25.670  1.00  0.00    -0.246 OA
BRANCH   4   6
ATOM      6  C   UNL A   1      34.328  22.739  24.212  1.00  0.00     0.060 A 
ATOM      7  C   UNL A   1      33.528  25.026  24.022  1.00  0.00    -0.047 A 
ATOM      8  C   UNL A   1      32.566  24.592  23.097  1.00  0.00     0.004 A 
ATOM      9  C   UNL A   1      34.377  24.078  24.615  1.00  0.00     0.019 A 
ATOM     10  C   UNL A   1      32.488  23.249  22.727  1.00  0.00     0.001 A 
ATOM     11  C   UNL A   1      33.380  22.327  23.268  1.00  0.00     0.016 A 
BRANCH   7  12
ATOM     12  C   UNL A   1      33.665  26.501  24.329  1.00  0.00     0.041 C 
BRANCH  12  13
ATOM     13  C   UNL A   1      32.428  27.106  25.011  1.00  0.00     0.015 C 
ATOM     14  N   UNL A   1      32.168  29.013  26.387  1.00  0.00    -0.325 N 
ATOM     15  C   UNL A   1      31.536  27.905  27.072  1.00  0.00     0.121 C 
ATOM     16  C   UNL A   1      32.442  28.646  25.009  1.00  0.00     0.125 C 
ATOM     17  C   UNL A   1      32.304  26.732  26.505  1.00  0.00     0.027 C 
BRANCH  14  18
ATOM     18  C   UNL A   1      32.336  30.287  26.825  1.00  0.00     0.317 C 
ATOM     19  N   UNL A   1      33.357  30.558  27.676  1.00  0.00    -0.338 N 
ATOM     20  H   UNL A   1      33.183  31.239  28.365  1.00  0.00     0.165 HD
ATOM     21  O   UNL A   1      31.637  31.222  26.438  1.00  0.00    -0.249 OA
BRANCH  19  22
ATOM     22  C   UNL A   1      34.680  29.957  27.684  1.00  0.00     0.114 C 
ATOM     23  C   UNL A   1      35.761  31.024  27.675  1.00  0.00     0.027 C 
ENDBRANCH  19  22
ENDBRANCH  14  18
ENDBRANCH  12  13
ENDBRANCH   7  12
ENDBRANCH   4   6
ENDBRANCH   3   4
ENDBRANCH   2   3
ENDBRANCH   1   2
BRANCH   1  24
ATOM     24  O   UNL A   1      38.752  23.653  26.635  1.00  0.00    -0.374 OA
BRANCH  24  25
ATOM     25  C   UNL A   1      39.842  22.731  26.614  1.00  0.00     0.202 C 
BRANCH  25  26
ATOM     26  C   UNL A   1      41.045  23.047  27.511  1.00  0.00     0.261 C 
BRANCH  26  27
ATOM     27  O   UNL A   1      42.065  23.787  26.819  1.00  0.00    -0.460 OA
BRANCH  27  28
ATOM     28  C   UNL A   1      41.719  25.050  26.474  1.00  0.00     0.338 C 
ATOM     29  O   UNL A   1      41.348  25.439  25.376  1.00  0.00    -0.246 OA
BRANCH  28  30
ATOM     30  C   UNL A   1      41.674  25.898  27.678  1.00  0.00     0.060 A 
ATOM     31  C   UNL A   1      40.470  25.958  28.392  1.00  0.00     0.016 A 
ATOM     32  C   UNL A   1      42.772  26.668  28.068  1.00  0.00     0.016 A 
ATOM     33  C   UNL A   1      40.345  26.820  29.480  1.00  0.00     0.010 A 
ATOM     34  C   UNL A   1      42.641  27.539  29.153  1.00  0.00     0.010 A 
ATOM     35  C   UNL A   1      41.419  27.641  29.846  1.00  0.00    -0.014 A 
BRANCH  35  36
ATOM     36  C   UNL A   1      41.239  28.702  30.866  1.00  0.00     0.031 A 
ATOM     37  C   UNL A   1      42.075  28.655  32.116  1.00  0.00     0.074 A 
ATOM     38  C   UNL A   1      40.326  29.675  30.694  1.00  0.00     0.049 A 
ATOM     39  N   UNL A   1      42.000  29.394  33.191  1.00  0.00    -0.248 NA
ATOM     40  C   UNL A   1      43.134  27.633  32.161  1.00  0.00     0.031 C 
ATOM     41  C   UNL A   1      39.482  29.840  29.511  1.00  0.00     0.029 A 
ATOM     42  N   UNL A   1      39.936  30.691  31.530  1.00  0.00    -0.354 N 
ATOM     43  C   UNL A   1      42.977  28.910  34.052  1.00  0.00     0.074 A 
ATOM     44  C   UNL A   1      43.628  27.807  33.379  1.00  0.00     0.031 C 
ATOM     45  C   UNL A   1      38.649  30.876  29.711  1.00  0.00     0.029 A 
ATOM     46  C   UNL A   1      38.874  31.421  31.050  1.00  0.00     0.049 A 
ATOM     47  H   UNL A   1      40.375  30.881  32.390  1.00  0.00     0.167 HD
ATOM     48  C   UNL A   1      43.299  29.348  35.292  1.00  0.00     0.037 A 
ATOM     49  C   UNL A   1      38.141  32.386  31.638  1.00  0.00     0.037 A 
ATOM     50  C   UNL A   1      42.656  30.459  35.944  1.00  0.00     0.049 A 
ATOM     51  C   UNL A   1      38.489  32.826  33.038  1.00  0.00     0.074 A 
ATOM     52  C   UNL A   1      42.944  31.010  37.180  1.00  0.00     0.029 A 
ATOM     53  N   UNL A   1      41.592  31.178  35.422  1.00  0.00    -0.354 N 
ATOM     54  N   UNL A   1      39.444  32.389  33.826  1.00  0.00    -0.248 NA
ATOM     55  C   UNL A   1      37.666  33.891  33.630  1.00  0.00     0.031 C 
ATOM     56  C   UNL A   1      42.017  32.027  37.431  1.00  0.00     0.029 A 
ATOM     57  C   UNL A   1      41.191  32.149  36.325  1.00  0.00     0.049 A 
ATOM     58  H   UNL A   1      41.183  31.022  34.541  1.00  0.00     0.167 HD
ATOM     59  C   UNL A   1      39.353  33.146  34.991  1.00  0.00     0.074 A 
ATOM     60  C   UNL A   1      38.258  34.073  34.802  1.00  0.00     0.031 C 
ATOM     61  C   UNL A   1      40.110  33.080  36.114  1.00  0.00     0.037 A 
BRANCH  48  62
ATOM     62  C   UNL A   1      44.372  28.613  36.046  1.00  0.00     0.058 A 
ATOM     63  C   UNL A   1      45.723  28.987  35.973  1.00  0.00     0.135 A 
ATOM     64  C   UNL A   1      44.030  27.561  36.913  1.00  0.00     0.135 A 
ATOM     65  F   UNL A   1      46.108  29.973  35.147  1.00  0.00    -0.206 F 
ATOM     66  C   UNL A   1      46.698  28.337  36.723  1.00  0.00     0.059 A 
ATOM     67  C   UNL A   1      44.984  26.915  37.692  1.00  0.00     0.059 A 
ATOM     68  F   UNL A   1      42.753  27.160  37.017  1.00  0.00    -0.206 F 
ATOM     69  C   UNL A   1      46.317  27.307  37.585  1.00  0.00     0.060 A 
BRANCH  69  70
ATOM     70  S   UNL A   1      47.589  26.499  38.579  1.00  0.00     0.124 S 
ATOM     71  O   UNL A   1      46.783  25.639  39.441  1.00  0.00    -0.237 OA
ATOM     72  O   UNL A   1      48.386  25.812  37.567  1.00  0.00    -0.237 OA
ATOM     73  O   UNL A   1      48.256  27.610  39.251  1.00  0.00    -0.744 OA
ENDBRANCH  69  70
ENDBRANCH  48  62
BRANCH  49  74
ATOM     74  C   UNL A   1      36.976  32.979  30.924  1.00  0.00     0.058 A 
ATOM     75  C   UNL A   1      37.141  34.025  30.006  1.00  0.00     0.135 A 
ATOM     76  C   UNL A   1      35.671  32.517  31.161  1.00  0.00     0.135 A 
ATOM     77  F   UNL A   1      38.367  34.509  29.753  1.00  0.00    -0.206 F 
ATOM     78  C   UNL A   1      36.053  34.609  29.364  1.00  0.00     0.059 A 
ATOM     79  C   UNL A   1      34.571  33.064  30.509  1.00  0.00     0.059 A 
ATOM     80  F   UNL A   1      35.460  31.509  32.021  1.00  0.00    -0.206 F 
ATOM     81  C   UNL A   1      34.772  34.120  29.621  1.00  0.00     0.060 A 
BRANCH  81  82
ATOM     82  S   UNL A   1      33.370  34.860  28.754  1.00  0.00     0.124 S 
ATOM     83  O   UNL A   1      32.474  35.176  29.860  1.00  0.00    -0.237 OA
ATOM     84  O   UNL A   1      33.991  36.002  28.089  1.00  0.00    -0.237 OA
ATOM     85  O   UNL A   1      32.925  33.793  27.864  1.00  0.00    -0.744 OA
ENDBRANCH  81  82
ENDBRANCH  49  74
BRANCH  61  86
ATOM     86  C   UNL A   1      39.824  34.065  37.214  1.00  0.00     0.058 A 
ATOM     87  C   UNL A   1      38.954  33.763  38.273  1.00  0.00     0.135 A 
ATOM     88  C   UNL A   1      40.498  35.298  37.251  1.00  0.00     0.135 A 
ATOM     89  F   UNL A   1      38.281  32.602  38.284  1.00  0.00    -0.206 F 
ATOM     90  C   UNL A   1      38.754  34.653  39.324  1.00  0.00     0.059 A 
ATOM     91  C   UNL A   1      40.334  36.189  38.306  1.00  0.00     0.059 A 
ATOM     92  F   UNL A   1      41.348  35.633  36.268  1.00  0.00    -0.206 F 
ATOM     93  C   UNL A   1      39.453  35.861  39.335  1.00  0.00     0.060 A 
BRANCH  93  94
ATOM     94  S   UNL A   1      39.227  36.980  40.734  1.00  0.00     0.124 S 
ATOM     95  O   UNL A   1      38.294  37.956  40.182  1.00  0.00    -0.237 OA
ATOM     96  O   UNL A   1      38.686  36.094  41.759  1.00  0.00    -0.237 OA
ATOM     97  O   UNL A   1      40.575  37.478  40.993  1.00  0.00    -0.744 OA
ENDBRANCH  93  94
ENDBRANCH  61  86
ENDBRANCH  35  36
ENDBRANCH  28  30
ENDBRANCH  27  28
ENDBRANCH  26  27
ENDBRANCH  25  26
ENDBRANCH  24  25
ENDBRANCH   1  24
TORSDOF 21
ENDMDL
