MODEL 1
REMARK VINA RESULT:     -11.2      0.000      0.000
REMARK SMILES C=CCN1C[C@@]2(C(=O)OCCOCCOC(=O)c3ccc(-c4c5nc(c(-c6c(F)cc(S(=O)(=O)[O-])cc6F)c6ccc([nH]6)c(-c6c(F)cc(S(=O)(=O)[O-])cc6F)c6nc(c(-c7c(F)cc(S(=O)(=O)[O-])cc7F)c7ccc4[nH]7)C=C6)C=C5)cc3)CN(C(=O)c3cccc(C#N)c3)C[C@H]2C1=O
REMARK SMILES IDX 12 1 11 2 10 3 9 4 7 5 8 6 6 7 4 8 5 9 98 10 97 11 99 12
REMARK SMILES IDX 84 13 96 14 85 15 3 16 2 17 1 18 86 19 87 20 88 21 89 22
REMARK SMILES IDX 95 23 90 24 92 25 91 26 93 27 94 28 13 29 14 30 15 31 16 32
REMARK SMILES IDX 17 33 18 34 19 35 83 36 20 37 82 38 21 39 22 40 23 41 76 42
REMARK SMILES IDX 24 43 81 44 75 45 77 46 25 47 80 48 74 49 73 50 26 52 60 53
REMARK SMILES IDX 39 54 59 55 40 56 43 57 58 58 78 59 41 60 42 61 57 63 79 64
REMARK SMILES IDX 44 65 27 66 28 67 37 68 29 69 30 70 36 71 38 72 31 73 32 74
REMARK SMILES IDX 33 75 34 76 35 77 61 78 62 79 71 80 63 81 64 82 70 83 72 84
REMARK SMILES IDX 65 85 66 86 67 87 68 88 69 89 45 90 46 91 55 92 47 93 48 94
REMARK SMILES IDX 54 95 56 96 49 97 50 98 51 99 52 100 53 101
REMARK H PARENT 77 51 43 62
REMARK Flexibility Score: inf
ROOT
ATOM      1  O   UNL A   1      39.321  22.004  26.017  1.00  0.00    -0.374 OA
ENDROOT
BRANCH   1   2
ATOM      2  C   UNL A   1      38.748  23.206  26.530  1.00  0.00     0.202 C 
BRANCH   2   3
ATOM      3  C   UNL A   1      37.573  23.761  25.737  1.00  0.00     0.261 C 
BRANCH   3   4
ATOM      4  O   UNL A   1      36.444  22.884  25.811  1.00  0.00    -0.463 OA
BRANCH   4   5
ATOM      5  C   UNL A   1      36.180  21.937  24.849  1.00  0.00     0.316 C 
ATOM      6  O   UNL A   1      37.022  21.339  24.197  1.00  0.00    -0.251 OA
BRANCH   5   7
ATOM      7  C   UNL A   1      34.688  22.012  24.552  1.00  0.00     0.116 C 
ATOM      8  N   UNL A   1      33.255  20.118  24.820  1.00  0.00    -0.337 N 
ATOM      9  C   UNL A   1      34.606  20.498  24.769  1.00  0.00     0.141 C 
ATOM     10  C   UNL A   1      32.465  21.197  25.125  1.00  0.00     0.229 C 
ATOM     11  C   UNL A   1      33.390  22.414  25.296  1.00  0.00     0.119 C 
ATOM     12  O   UNL A   1      31.253  21.180  25.257  1.00  0.00    -0.274 OA
ATOM     13  C   UNL A   1      34.598  22.898  23.284  1.00  0.00     0.141 C 
ATOM     14  C   UNL A   1      32.712  23.563  24.552  1.00  0.00     0.134 C 
ATOM     15  N   UNL A   1      33.658  23.988  23.561  1.00  0.00    -0.337 N 
BRANCH   8  16
ATOM     16  C   UNL A   1      32.933  18.713  24.920  1.00  0.00     0.146 C 
BRANCH  16  17
ATOM     17  C   UNL A   1      33.081  18.134  23.551  1.00  0.00    -0.014 C 
ATOM     18  C   UNL A   1      33.673  16.966  23.260  1.00  0.00     0.006 C 
ENDBRANCH  16  17
ENDBRANCH   8  16
BRANCH  15  19
ATOM     19  C   UNL A   1      33.535  25.276  23.024  1.00  0.00     0.253 C 
ATOM     20  O   UNL A   1      33.689  25.487  21.819  1.00  0.00    -0.269 OA
BRANCH  19  21
ATOM     21  C   UNL A   1      33.209  26.461  23.868  1.00  0.00     0.041 A 
ATOM     22  C   UNL A   1      33.962  26.732  25.024  1.00  0.00     0.014 A 
ATOM     23  C   UNL A   1      32.112  27.266  23.592  1.00  0.00     0.033 A 
ATOM     24  C   UNL A   1      33.606  27.788  25.873  1.00  0.00     0.002 A 
ATOM     25  C   UNL A   1      31.803  28.371  24.383  1.00  0.00     0.053 A 
ATOM     26  C   UNL A   1      32.516  28.605  25.555  1.00  0.00     0.019 A 
BRANCH  25  27
ATOM     27  C   UNL A   1      30.789  29.239  23.888  1.00  0.00     0.099 C 
ATOM     28  N   UNL A   1      29.885  29.946  23.673  1.00  0.00    -0.192 NA
ENDBRANCH  25  27
ENDBRANCH  19  21
ENDBRANCH  15  19
ENDBRANCH   5   7
ENDBRANCH   4   5
ENDBRANCH   3   4
ENDBRANCH   2   3
ENDBRANCH   1   2
BRANCH   1  29
ATOM     29  C   UNL A   1      40.471  21.493  26.696  1.00  0.00     0.202 C 
BRANCH  29  30
ATOM     30  C   UNL A   1      41.822  22.107  26.363  1.00  0.00     0.261 C 
BRANCH  30  31
ATOM     31  O   UNL A   1      42.131  23.193  27.241  1.00  0.00    -0.460 OA
BRANCH  31  32
ATOM     32  C   UNL A   1      42.403  24.353  26.593  1.00  0.00     0.338 C 
ATOM     33  O   UNL A   1      42.817  24.488  25.456  1.00  0.00    -0.246 OA
BRANCH  32  34
ATOM     34  C   UNL A   1      41.964  25.475  27.438  1.00  0.00     0.060 A 
ATOM     35  C   UNL A   1      42.697  26.667  27.435  1.00  0.00     0.016 A 
ATOM     36  C   UNL A   1      40.865  25.323  28.270  1.00  0.00     0.016 A 
ATOM     37  C   UNL A   1      42.363  27.700  28.315  1.00  0.00     0.010 A 
ATOM     38  C   UNL A   1      40.534  26.360  29.139  1.00  0.00     0.010 A 
ATOM     39  C   UNL A   1      41.297  27.544  29.205  1.00  0.00    -0.014 A 
BRANCH  39  40
ATOM     40  C   UNL A   1      41.051  28.504  30.325  1.00  0.00     0.031 A 
ATOM     41  C   UNL A   1      41.886  28.366  31.576  1.00  0.00     0.074 A 
ATOM     42  C   UNL A   1      40.095  29.455  30.277  1.00  0.00     0.049 A 
ATOM     43  N   UNL A   1      41.765  28.973  32.727  1.00  0.00    -0.248 NA
ATOM     44  C   UNL A   1      42.979  27.378  31.535  1.00  0.00     0.031 C 
ATOM     45  C   UNL A   1      39.239  29.742  29.131  1.00  0.00     0.029 A 
ATOM     46  N   UNL A   1      39.667  30.349  31.230  1.00  0.00    -0.354 N 
ATOM     47  C   UNL A   1      42.751  28.426  33.540  1.00  0.00     0.074 A 
ATOM     48  C   UNL A   1      43.366  27.351  32.798  1.00  0.00     0.031 C 
ATOM     49  C   UNL A   1      38.359  30.704  29.455  1.00  0.00     0.029 A 
ATOM     50  C   UNL A   1      38.600  31.125  30.830  1.00  0.00     0.049 A 
ATOM     51  H   UNL A   1      40.084  30.428  32.118  1.00  0.00     0.167 HD
ATOM     52  C   UNL A   1      43.164  28.823  34.765  1.00  0.00     0.037 A 
ATOM     53  C   UNL A   1      37.906  32.078  31.485  1.00  0.00     0.037 A 
ATOM     54  C   UNL A   1      42.596  29.932  35.479  1.00  0.00     0.049 A 
ATOM     55  C   UNL A   1      38.342  32.473  32.872  1.00  0.00     0.074 A 
ATOM     56  C   UNL A   1      42.976  30.450  36.704  1.00  0.00     0.029 A 
ATOM     57  N   UNL A   1      41.532  30.700  35.031  1.00  0.00    -0.354 N 
ATOM     58  N   UNL A   1      39.312  31.979  33.605  1.00  0.00    -0.248 NA
ATOM     59  C   UNL A   1      37.619  33.584  33.505  1.00  0.00     0.031 C 
ATOM     60  C   UNL A   1      42.103  31.493  37.024  1.00  0.00     0.029 A 
ATOM     61  C   UNL A   1      41.228  31.676  35.966  1.00  0.00     0.049 A 
ATOM     62  H   UNL A   1      41.063  30.572  34.174  1.00  0.00     0.167 HD
ATOM     63  C   UNL A   1      39.356  32.761  34.754  1.00  0.00     0.074 A 
ATOM     64  C   UNL A   1      38.313  33.755  34.621  1.00  0.00     0.031 C 
ATOM     65  C   UNL A   1      40.197  32.673  35.816  1.00  0.00     0.037 A 
BRANCH  52  66
ATOM     66  C   UNL A   1      44.302  28.059  35.388  1.00  0.00     0.058 A 
ATOM     67  C   UNL A   1      45.645  28.400  35.144  1.00  0.00     0.135 A 
ATOM     68  C   UNL A   1      44.049  26.964  36.227  1.00  0.00     0.135 A 
ATOM     69  F   UNL A   1      45.948  29.425  34.332  1.00  0.00    -0.206 F 
ATOM     70  C   UNL A   1      46.692  27.650  35.667  1.00  0.00     0.059 A 
ATOM     71  C   UNL A   1      45.082  26.227  36.797  1.00  0.00     0.059 A 
ATOM     72  F   UNL A   1      42.786  26.592  36.494  1.00  0.00    -0.206 F 
ATOM     73  C   UNL A   1      46.399  26.566  36.493  1.00  0.00     0.060 A 
BRANCH  73  74
ATOM     74  S   UNL A   1      47.772  25.600  37.156  1.00  0.00     0.124 S 
ATOM     75  O   UNL A   1      48.792  25.803  36.131  1.00  0.00    -0.237 OA
ATOM     76  O   UNL A   1      48.020  26.256  38.436  1.00  0.00    -0.237 OA
ATOM     77  O   UNL A   1      47.227  24.249  37.241  1.00  0.00    -0.744 OA
ENDBRANCH  73  74
ENDBRANCH  52  66
BRANCH  53  78
ATOM     78  C   UNL A   1      36.775  32.785  30.815  1.00  0.00     0.058 A 
ATOM     79  C   UNL A   1      35.444  32.510  31.166  1.00  0.00     0.135 A 
ATOM     80  C   UNL A   1      36.995  33.734  29.805  1.00  0.00     0.135 A 
ATOM     81  F   UNL A   1      35.177  31.603  32.119  1.00  0.00    -0.206 F 
ATOM     82  C   UNL A   1      34.374  33.125  30.524  1.00  0.00     0.059 A 
ATOM     83  C   UNL A   1      35.941  34.386  29.167  1.00  0.00     0.059 A 
ATOM     84  F   UNL A   1      38.248  34.045  29.436  1.00  0.00    -0.206 F 
ATOM     85  C   UNL A   1      34.633  34.066  29.527  1.00  0.00     0.060 A 
BRANCH  85  86
ATOM     86  S   UNL A   1      33.231  34.882  28.729  1.00  0.00     0.124 S 
ATOM     87  O   UNL A   1      32.752  33.837  27.830  1.00  0.00    -0.237 OA
ATOM     88  O   UNL A   1      32.370  35.188  29.867  1.00  0.00    -0.237 OA
ATOM     89  O   UNL A   1      33.839  36.040  28.080  1.00  0.00    -0.744 OA
ENDBRANCH  85  86
ENDBRANCH  53  78
BRANCH  65  90
ATOM     90  C   UNL A   1      40.080  33.720  36.892  1.00  0.00     0.058 A 
ATOM     91  C   UNL A   1      40.837  34.901  36.875  1.00  0.00     0.135 A 
ATOM     92  C   UNL A   1      39.149  33.555  37.932  1.00  0.00     0.135 A 
ATOM     93  F   UNL A   1      41.743  35.110  35.905  1.00  0.00    -0.206 F 
ATOM     94  C   UNL A   1      40.703  35.863  37.870  1.00  0.00     0.059 A 
ATOM     95  C   UNL A   1      38.969  34.522  38.914  1.00  0.00     0.059 A 
ATOM     96  F   UNL A   1      38.386  32.451  37.991  1.00  0.00    -0.206 F 
ATOM     97  C   UNL A   1      39.764  35.666  38.883  1.00  0.00     0.060 A 
BRANCH  97  98
ATOM     98  S   UNL A   1      39.583  36.936  40.152  1.00  0.00     0.124 S 
ATOM     99  O   UNL A   1      38.622  36.313  41.057  1.00  0.00    -0.237 OA
ATOM    100  O   UNL A   1      40.944  37.061  40.663  1.00  0.00    -0.237 OA
ATOM    101  O   UNL A   1      39.089  38.092  39.411  1.00  0.00    -0.744 OA
ENDBRANCH  97  98
ENDBRANCH  65  90
ENDBRANCH  39  40
ENDBRANCH  32  34
ENDBRANCH  31  32
ENDBRANCH  30  31
ENDBRANCH  29  30
ENDBRANCH   1  29
TORSDOF 22
ENDMDL
MODEL 2
REMARK VINA RESULT:     -11.1      1.015      4.105
REMARK SMILES C=CCN1C[C@@]2(C(=O)OCCOCCOC(=O)c3ccc(-c4c5nc(c(-c6c(F)cc(S(=O)(=O)[O-])cc6F)c6ccc([nH]6)c(-c6c(F)cc(S(=O)(=O)[O-])cc6F)c6nc(c(-c7c(F)cc(S(=O)(=O)[O-])cc7F)c7ccc4[nH]7)C=C6)C=C5)cc3)CN(C(=O)c3cccc(C#N)c3)C[C@H]2C1=O
REMARK SMILES IDX 12 1 11 2 10 3 9 4 7 5 8 6 6 7 4 8 5 9 98 10 97 11 99 12
REMARK SMILES IDX 84 13 96 14 85 15 3 16 2 17 1 18 86 19 87 20 88 21 89 22
REMARK SMILES IDX 95 23 90 24 92 25 91 26 93 27 94 28 13 29 14 30 15 31 16 32
REMARK SMILES IDX 17 33 18 34 19 35 83 36 20 37 82 38 21 39 22 40 23 41 76 42
REMARK SMILES IDX 24 43 81 44 75 45 77 46 25 47 80 48 74 49 73 50 26 52 60 53
REMARK SMILES IDX 39 54 59 55 40 56 43 57 58 58 78 59 41 60 42 61 57 63 79 64
REMARK SMILES IDX 44 65 27 66 28 67 37 68 29 69 30 70 36 71 38 72 31 73 32 74
REMARK SMILES IDX 33 75 34 76 35 77 61 78 62 79 71 80 63 81 64 82 70 83 72 84
REMARK SMILES IDX 65 85 66 86 67 87 68 88 69 89 45 90 46 91 55 92 47 93 48 94
REMARK SMILES IDX 54 95 56 96 49 97 50 98 51 99 52 100 53 101
REMARK H PARENT 77 51 43 62
REMARK Flexibility Score: inf
ROOT
ATOM      1  O   UNL A   1      39.073  21.796  25.839  1.00  0.00    -0.374 OA
ENDROOT
BRANCH   1   2
ATOM      2  C   UNL A   1      38.392  22.931  26.370  1.00  0.00     0.202 C 
BRANCH   2   3
ATOM      3  C   UNL A   1      37.566  23.727  25.369  1.00  0.00     0.261 C 
BRANCH   3   4
ATOM      4  O   UNL A   1      36.517  22.924  24.817  1.00  0.00    -0.463 OA
BRANCH   4   5
ATOM      5  C   UNL A   1      36.059  23.092  23.531  1.00  0.00     0.316 C 
ATOM      6  O   UNL A   1      36.762  23.251  22.546  1.00  0.00    -0.251 OA
BRANCH   5   7
ATOM      7  C   UNL A   1      34.560  23.345  23.626  1.00  0.00     0.116 C 
ATOM      8  N   UNL A   1      33.627  25.521  23.298  1.00  0.00    -0.337 N 
ATOM      9  C   UNL A   1      34.842  24.845  23.500  1.00  0.00     0.141 C 
ATOM     10  C   UNL A   1      32.673  24.660  22.823  1.00  0.00     0.229 C 
ATOM     11  C   UNL A   1      33.323  23.272  22.694  1.00  0.00     0.119 C 
ATOM     12  O   UNL A   1      31.525  24.954  22.535  1.00  0.00    -0.274 OA
ATOM     13  C   UNL A   1      34.099  22.458  24.810  1.00  0.00     0.141 C 
ATOM     14  C   UNL A   1      32.312  22.280  23.266  1.00  0.00     0.134 C 
ATOM     15  N   UNL A   1      32.992  21.618  24.342  1.00  0.00    -0.337 N 
BRANCH   8  16
ATOM     16  C   UNL A   1      33.638  26.965  23.249  1.00  0.00     0.146 C 
BRANCH  16  17
ATOM     17  C   UNL A   1      33.045  27.449  24.532  1.00  0.00    -0.014 C 
ATOM     18  C   UNL A   1      33.556  27.237  25.755  1.00  0.00     0.006 C 
ENDBRANCH  16  17
ENDBRANCH   8  16
BRANCH  15  19
ATOM     19  C   UNL A   1      32.516  20.373  24.773  1.00  0.00     0.253 C 
ATOM     20  O   UNL A   1      31.646  20.285  25.643  1.00  0.00    -0.269 OA
BRANCH  19  21
ATOM     21  C   UNL A   1      33.024  19.091  24.210  1.00  0.00     0.041 A 
ATOM     22  C   UNL A   1      32.612  18.668  22.934  1.00  0.00     0.014 A 
ATOM     23  C   UNL A   1      33.835  18.244  24.955  1.00  0.00     0.033 A 
ATOM     24  C   UNL A   1      33.010  17.420  22.435  1.00  0.00     0.002 A 
ATOM     25  C   UNL A   1      34.307  17.041  24.431  1.00  0.00     0.053 A 
ATOM     26  C   UNL A   1      33.854  16.602  23.191  1.00  0.00     0.019 A 
BRANCH  25  27
ATOM     27  C   UNL A   1      35.292  16.361  25.201  1.00  0.00     0.099 C 
ATOM     28  N   UNL A   1      36.069  15.649  25.704  1.00  0.00    -0.192 NA
ENDBRANCH  25  27
ENDBRANCH  19  21
ENDBRANCH  15  19
ENDBRANCH   5   7
ENDBRANCH   4   5
ENDBRANCH   3   4
ENDBRANCH   2   3
ENDBRANCH   1   2
BRANCH   1  29
ATOM     29  C   UNL A   1      40.286  21.405  26.487  1.00  0.00     0.202 C 
BRANCH  29  30
ATOM     30  C   UNL A   1      41.586  22.015  25.986  1.00  0.00     0.261 C 
BRANCH  30  31
ATOM     31  O   UNL A   1      42.076  23.010  26.889  1.00  0.00    -0.460 OA
BRANCH  31  32
ATOM     32  C   UNL A   1      42.425  24.170  26.278  1.00  0.00     0.338 C 
ATOM     33  O   UNL A   1      42.872  24.311  25.154  1.00  0.00    -0.246 OA
BRANCH  32  34
ATOM     34  C   UNL A   1      42.028  25.292  27.143  1.00  0.00     0.060 A 
ATOM     35  C   UNL A   1      42.813  26.451  27.173  1.00  0.00     0.016 A 
ATOM     36  C   UNL A   1      40.916  25.172  27.963  1.00  0.00     0.016 A 
ATOM     37  C   UNL A   1      42.516  27.478  28.071  1.00  0.00     0.010 A 
ATOM     38  C   UNL A   1      40.622  26.204  28.851  1.00  0.00     0.010 A 
ATOM     39  C   UNL A   1      41.436  27.351  28.949  1.00  0.00    -0.014 A 
BRANCH  39  40
ATOM     40  C   UNL A   1      41.222  28.297  30.087  1.00  0.00     0.031 A 
ATOM     41  C   UNL A   1      42.080  28.132  31.319  1.00  0.00     0.074 A 
ATOM     42  C   UNL A   1      40.275  29.257  30.072  1.00  0.00     0.049 A 
ATOM     43  N   UNL A   1      41.987  28.723  32.481  1.00  0.00    -0.248 NA
ATOM     44  C   UNL A   1      43.161  27.134  31.243  1.00  0.00     0.031 C 
ATOM     45  C   UNL A   1      39.399  29.570  28.947  1.00  0.00     0.029 A 
ATOM     46  N   UNL A   1      39.874  30.142  31.046  1.00  0.00    -0.354 N 
ATOM     47  C   UNL A   1      42.983  28.155  33.266  1.00  0.00     0.074 A 
ATOM     48  C   UNL A   1      43.573  27.085  32.498  1.00  0.00     0.031 C 
ATOM     49  C   UNL A   1      38.536  30.536  29.302  1.00  0.00     0.029 A 
ATOM     50  C   UNL A   1      38.807  30.934  30.678  1.00  0.00     0.049 A 
ATOM     51  H   UNL A   1      40.309  30.204  31.927  1.00  0.00     0.167 HD
ATOM     52  C   UNL A   1      43.424  28.530  34.489  1.00  0.00     0.037 A 
ATOM     53  C   UNL A   1      38.136  31.885  31.360  1.00  0.00     0.037 A 
ATOM     54  C   UNL A   1      42.881  29.634  35.230  1.00  0.00     0.049 A 
ATOM     55  C   UNL A   1      38.604  32.255  32.744  1.00  0.00     0.074 A 
ATOM     56  C   UNL A   1      43.291  30.131  36.455  1.00  0.00     0.029 A 
ATOM     57  N   UNL A   1      41.817  30.419  34.814  1.00  0.00    -0.354 N 
ATOM     58  N   UNL A   1      39.582  31.741  33.450  1.00  0.00    -0.248 NA
ATOM     59  C   UNL A   1      37.904  33.364  33.407  1.00  0.00     0.031 C 
ATOM     60  C   UNL A   1      42.435  31.177  36.806  1.00  0.00     0.029 A 
ATOM     61  C   UNL A   1      41.541  31.384  35.768  1.00  0.00     0.049 A 
ATOM     62  H   UNL A   1      41.330  30.308  33.965  1.00  0.00     0.167 HD
ATOM     63  C   UNL A   1      39.657  32.505  34.610  1.00  0.00     0.074 A 
ATOM     64  C   UNL A   1      38.621  33.512  34.511  1.00  0.00     0.031 C 
ATOM     65  C   UNL A   1      40.518  32.394  35.653  1.00  0.00     0.037 A 
BRANCH  52  66
ATOM     66  C   UNL A   1      44.566  27.746  35.078  1.00  0.00     0.058 A 
ATOM     67  C   UNL A   1      45.907  28.092  34.835  1.00  0.00     0.135 A 
ATOM     68  C   UNL A   1      44.318  26.624  35.885  1.00  0.00     0.135 A 
ATOM     69  F   UNL A   1      46.205  29.143  34.053  1.00  0.00    -0.206 F 
ATOM     70  C   UNL A   1      46.957  27.326  35.325  1.00  0.00     0.059 A 
ATOM     71  C   UNL A   1      45.355  25.869  36.422  1.00  0.00     0.059 A 
ATOM     72  F   UNL A   1      43.057  26.246  36.150  1.00  0.00    -0.206 F 
ATOM     73  C   UNL A   1      46.670  26.216  36.118  1.00  0.00     0.060 A 
BRANCH  73  74
ATOM     74  S   UNL A   1      48.047  25.229  36.740  1.00  0.00     0.124 S 
ATOM     75  O   UNL A   1      47.623  24.973  38.114  1.00  0.00    -0.237 OA
ATOM     76  O   UNL A   1      48.028  24.076  35.846  1.00  0.00    -0.237 OA
ATOM     77  O   UNL A   1      49.195  26.117  36.593  1.00  0.00    -0.744 OA
ENDBRANCH  73  74
ENDBRANCH  52  66
BRANCH  53  78
ATOM     78  C   UNL A   1      37.000  32.613  30.723  1.00  0.00     0.058 A 
ATOM     79  C   UNL A   1      35.671  32.312  31.062  1.00  0.00     0.135 A 
ATOM     80  C   UNL A   1      37.213  33.608  29.756  1.00  0.00     0.135 A 
ATOM     81  F   UNL A   1      35.411  31.362  31.973  1.00  0.00    -0.206 F 
ATOM     82  C   UNL A   1      34.596  32.948  30.448  1.00  0.00     0.059 A 
ATOM     83  C   UNL A   1      36.154  34.280  29.148  1.00  0.00     0.059 A 
ATOM     84  F   UNL A   1      38.463  33.944  29.400  1.00  0.00    -0.206 F 
ATOM     85  C   UNL A   1      34.848  33.934  29.493  1.00  0.00     0.060 A 
BRANCH  85  86
ATOM     86  S   UNL A   1      33.439  34.775  28.733  1.00  0.00     0.124 S 
ATOM     87  O   UNL A   1      32.547  34.949  29.875  1.00  0.00    -0.237 OA
ATOM     88  O   UNL A   1      34.056  35.991  28.214  1.00  0.00    -0.237 OA
ATOM     89  O   UNL A   1      32.986  33.826  27.720  1.00  0.00    -0.744 OA
ENDBRANCH  85  86
ENDBRANCH  53  78
BRANCH  65  90
ATOM     90  C   UNL A   1      40.432  33.425  36.746  1.00  0.00     0.058 A 
ATOM     91  C   UNL A   1      39.561  33.291  37.838  1.00  0.00     0.135 A 
ATOM     92  C   UNL A   1      41.281  34.545  36.722  1.00  0.00     0.135 A 
ATOM     93  F   UNL A   1      38.727  32.241  37.912  1.00  0.00    -0.206 F 
ATOM     94  C   UNL A   1      39.508  34.247  38.846  1.00  0.00     0.059 A 
ATOM     95  C   UNL A   1      41.274  35.492  37.739  1.00  0.00     0.059 A 
ATOM     96  F   UNL A   1      42.146  34.718  35.709  1.00  0.00    -0.206 F 
ATOM     97  C   UNL A   1      40.371  35.343  38.789  1.00  0.00     0.060 A 
BRANCH  97  98
ATOM     98  S   UNL A   1      40.308  36.562  40.118  1.00  0.00     0.124 S 
ATOM     99  O   UNL A   1      40.068  37.795  39.376  1.00  0.00    -0.237 OA
ATOM    100  O   UNL A   1      39.193  36.082  40.928  1.00  0.00    -0.237 OA
ATOM    101  O   UNL A   1      41.622  36.452  40.744  1.00  0.00    -0.744 OA
ENDBRANCH  97  98
ENDBRANCH  65  90
ENDBRANCH  39  40
ENDBRANCH  32  34
ENDBRANCH  31  32
ENDBRANCH  30  31
ENDBRANCH  29  30
ENDBRANCH   1  29
TORSDOF 22
ENDMDL
MODEL 3
REMARK VINA RESULT:     -10.9      6.022     11.950
REMARK SMILES C=CCN1C[C@@]2(C(=O)OCCOCCOC(=O)c3ccc(-c4c5nc(c(-c6c(F)cc(S(=O)(=O)[O-])cc6F)c6ccc([nH]6)c(-c6c(F)cc(S(=O)(=O)[O-])cc6F)c6nc(c(-c7c(F)cc(S(=O)(=O)[O-])cc7F)c7ccc4[nH]7)C=C6)C=C5)cc3)CN(C(=O)c3cccc(C#N)c3)C[C@H]2C1=O
REMARK SMILES IDX 12 1 11 2 10 3 9 4 7 5 8 6 6 7 4 8 5 9 98 10 97 11 99 12
REMARK SMILES IDX 84 13 96 14 85 15 3 16 2 17 1 18 86 19 87 20 88 21 89 22
REMARK SMILES IDX 95 23 90 24 92 25 91 26 93 27 94 28 13 29 14 30 15 31 16 32
REMARK SMILES IDX 17 33 18 34 19 35 83 36 20 37 82 38 21 39 22 40 23 41 76 42
REMARK SMILES IDX 24 43 81 44 75 45 77 46 25 47 80 48 74 49 73 50 26 52 60 53
REMARK SMILES IDX 39 54 59 55 40 56 43 57 58 58 78 59 41 60 42 61 57 63 79 64
REMARK SMILES IDX 44 65 27 66 28 67 37 68 29 69 30 70 36 71 38 72 31 73 32 74
REMARK SMILES IDX 33 75 34 76 35 77 61 78 62 79 71 80 63 81 64 82 70 83 72 84
REMARK SMILES IDX 65 85 66 86 67 87 68 88 69 89 45 90 46 91 55 92 47 93 48 94
REMARK SMILES IDX 54 95 56 96 49 97 50 98 51 99 52 100 53 101
REMARK H PARENT 77 51 43 62
REMARK Flexibility Score: inf
ROOT
ATOM      1  O   UNL A   1      33.473  29.885  27.014  1.00  0.00    -0.374 OA
ENDROOT
BRANCH   1   2
ATOM      2  C   UNL A   1      33.229  28.704  26.252  1.00  0.00     0.202 C 
BRANCH   2   3
ATOM      3  C   UNL A   1      32.676  27.522  27.035  1.00  0.00     0.261 C 
BRANCH   3   4
ATOM      4  O   UNL A   1      31.734  26.782  26.251  1.00  0.00    -0.463 OA
BRANCH   4   5
ATOM      5  C   UNL A   1      31.673  25.408  26.272  1.00  0.00     0.316 C 
ATOM      6  O   UNL A   1      31.419  24.728  27.254  1.00  0.00    -0.251 OA
BRANCH   5   7
ATOM      7  C   UNL A   1      32.273  24.919  24.960  1.00  0.00     0.116 C 
ATOM      8  N   UNL A   1      31.930  26.090  22.905  1.00  0.00    -0.337 N 
ATOM      9  C   UNL A   1      31.481  26.009  24.233  1.00  0.00     0.141 C 
ATOM     10  C   UNL A   1      33.184  25.547  22.790  1.00  0.00     0.229 C 
ATOM     11  C   UNL A   1      33.608  25.060  24.186  1.00  0.00     0.119 C 
ATOM     12  O   UNL A   1      33.845  25.487  21.767  1.00  0.00    -0.274 OA
ATOM     13  C   UNL A   1      32.123  23.378  25.026  1.00  0.00     0.141 C 
ATOM     14  C   UNL A   1      34.225  23.678  23.979  1.00  0.00     0.134 C 
ATOM     15  N   UNL A   1      33.440  22.785  24.781  1.00  0.00    -0.337 N 
BRANCH   8  16
ATOM     16  C   UNL A   1      31.254  26.989  21.998  1.00  0.00     0.146 C 
BRANCH  16  17
ATOM     17  C   UNL A   1      30.761  28.140  22.814  1.00  0.00    -0.014 C 
ATOM     18  C   UNL A   1      29.532  28.674  22.743  1.00  0.00     0.006 C 
ENDBRANCH  16  17
ENDBRANCH   8  16
BRANCH  15  19
ATOM     19  C   UNL A   1      33.998  21.556  25.159  1.00  0.00     0.253 C 
ATOM     20  O   UNL A   1      34.827  21.480  26.069  1.00  0.00    -0.269 OA
BRANCH  19  21
ATOM     21  C   UNL A   1      33.625  20.277  24.492  1.00  0.00     0.041 A 
ATOM     22  C   UNL A   1      32.644  20.265  23.486  1.00  0.00     0.014 A 
ATOM     23  C   UNL A   1      34.162  19.063  24.903  1.00  0.00     0.033 A 
ATOM     24  C   UNL A   1      32.220  19.056  22.919  1.00  0.00     0.002 A 
ATOM     25  C   UNL A   1      33.810  17.865  24.283  1.00  0.00     0.053 A 
ATOM     26  C   UNL A   1      32.801  17.851  23.326  1.00  0.00     0.019 A 
BRANCH  25  27
ATOM     27  C   UNL A   1      34.575  16.720  24.644  1.00  0.00     0.099 C 
ATOM     28  N   UNL A   1      35.033  15.675  24.895  1.00  0.00    -0.192 NA
ENDBRANCH  25  27
ENDBRANCH  19  21
ENDBRANCH  15  19
ENDBRANCH   5   7
ENDBRANCH   4   5
ENDBRANCH   3   4
ENDBRANCH   2   3
ENDBRANCH   1   2
BRANCH   1  29
ATOM     29  C   UNL A   1      34.772  30.024  27.596  1.00  0.00     0.202 C 
BRANCH  29  30
ATOM     30  C   UNL A   1      35.011  31.208  28.521  1.00  0.00     0.261 C 
BRANCH  30  31
ATOM     31  O   UNL A   1      35.791  30.831  29.658  1.00  0.00    -0.460 OA
BRANCH  31  32
ATOM     32  C   UNL A   1      36.878  31.619  29.854  1.00  0.00     0.338 C 
ATOM     33  O   UNL A   1      36.902  32.753  30.296  1.00  0.00    -0.246 OA
BRANCH  32  34
ATOM     34  C   UNL A   1      38.087  30.822  29.589  1.00  0.00     0.060 A 
ATOM     35  C   UNL A   1      39.063  30.700  30.585  1.00  0.00     0.016 A 
ATOM     36  C   UNL A   1      38.275  30.248  28.341  1.00  0.00     0.016 A 
ATOM     37  C   UNL A   1      40.266  30.045  30.313  1.00  0.00     0.010 A 
ATOM     38  C   UNL A   1      39.475  29.590  28.080  1.00  0.00     0.010 A 
ATOM     39  C   UNL A   1      40.503  29.512  29.042  1.00  0.00    -0.014 A 
BRANCH  39  40
ATOM     40  C   UNL A   1      41.853  29.024  28.624  1.00  0.00     0.031 A 
ATOM     41  C   UNL A   1      42.973  30.032  28.523  1.00  0.00     0.074 A 
ATOM     42  C   UNL A   1      42.097  27.738  28.299  1.00  0.00     0.049 A 
ATOM     43  N   UNL A   1      44.181  29.887  28.046  1.00  0.00    -0.248 NA
ATOM     44  C   UNL A   1      42.674  31.401  28.984  1.00  0.00     0.031 C 
ATOM     45  C   UNL A   1      41.138  26.642  28.385  1.00  0.00     0.029 A 
ATOM     46  N   UNL A   1      43.232  27.134  27.809  1.00  0.00    -0.354 N 
ATOM     47  C   UNL A   1      44.768  31.143  28.137  1.00  0.00     0.074 A 
ATOM     48  C   UNL A   1      43.747  32.061  28.584  1.00  0.00     0.031 C 
ATOM     49  C   UNL A   1      41.699  25.513  27.922  1.00  0.00     0.029 A 
ATOM     50  C   UNL A   1      43.074  25.795  27.523  1.00  0.00     0.049 A 
ATOM     51  H   UNL A   1      44.080  27.615  27.674  1.00  0.00     0.167 HD
ATOM     52  C   UNL A   1      46.059  31.498  27.939  1.00  0.00     0.037 A 
ATOM     53  C   UNL A   1      43.937  24.891  27.017  1.00  0.00     0.037 A 
ATOM     54  C   UNL A   1      47.091  30.577  27.556  1.00  0.00     0.049 A 
ATOM     55  C   UNL A   1      45.359  25.314  26.749  1.00  0.00     0.074 A 
ATOM     56  C   UNL A   1      48.441  30.823  27.380  1.00  0.00     0.029 A 
ATOM     57  N   UNL A   1      46.892  29.229  27.295  1.00  0.00    -0.354 N 
ATOM     58  N   UNL A   1      45.910  26.496  26.891  1.00  0.00    -0.248 NA
ATOM     59  C   UNL A   1      46.287  24.270  26.293  1.00  0.00     0.031 C 
ATOM     60  C   UNL A   1      49.047  29.638  26.955  1.00  0.00     0.029 A 
ATOM     61  C   UNL A   1      48.091  28.635  26.939  1.00  0.00     0.049 A 
ATOM     62  H   UNL A   1      46.026  28.763  27.356  1.00  0.00     0.167 HD
ATOM     63  C   UNL A   1      47.260  26.322  26.607  1.00  0.00     0.074 A 
ATOM     64  C   UNL A   1      47.440  24.924  26.279  1.00  0.00     0.031 C 
ATOM     65  C   UNL A   1      48.263  27.237  26.631  1.00  0.00     0.037 A 
BRANCH  52  66
ATOM     66  C   UNL A   1      46.416  32.943  28.163  1.00  0.00     0.058 A 
ATOM     67  C   UNL A   1      46.808  33.424  29.425  1.00  0.00     0.135 A 
ATOM     68  C   UNL A   1      46.353  33.864  27.105  1.00  0.00     0.135 A 
ATOM     69  F   UNL A   1      46.865  32.593  30.479  1.00  0.00    -0.206 F 
ATOM     70  C   UNL A   1      47.071  34.770  29.642  1.00  0.00     0.059 A 
ATOM     71  C   UNL A   1      46.656  35.209  27.290  1.00  0.00     0.059 A 
ATOM     72  F   UNL A   1      45.985  33.462  25.878  1.00  0.00    -0.206 F 
ATOM     73  C   UNL A   1      46.993  35.655  28.567  1.00  0.00     0.060 A 
BRANCH  73  74
ATOM     74  S   UNL A   1      47.332  37.401  28.869  1.00  0.00     0.124 S 
ATOM     75  O   UNL A   1      47.196  37.477  30.321  1.00  0.00    -0.237 OA
ATOM     76  O   UNL A   1      48.688  37.546  28.351  1.00  0.00    -0.237 OA
ATOM     77  O   UNL A   1      46.294  38.086  28.105  1.00  0.00    -0.744 OA
ENDBRANCH  73  74
ENDBRANCH  52  66
BRANCH  53  78
ATOM     78  C   UNL A   1      43.513  23.476  26.802  1.00  0.00     0.058 A 
ATOM     79  C   UNL A   1      43.275  22.984  25.510  1.00  0.00     0.135 A 
ATOM     80  C   UNL A   1      43.321  22.594  27.877  1.00  0.00     0.135 A 
ATOM     81  F   UNL A   1      43.434  23.788  24.447  1.00  0.00    -0.206 F 
ATOM     82  C   UNL A   1      42.837  21.682  25.290  1.00  0.00     0.059 A 
ATOM     83  C   UNL A   1      42.911  21.277  27.682  1.00  0.00     0.059 A 
ATOM     84  F   UNL A   1      43.543  23.008  29.135  1.00  0.00    -0.206 F 
ATOM     85  C   UNL A   1      42.660  20.833  26.383  1.00  0.00     0.060 A 
BRANCH  85  86
ATOM     86  S   UNL A   1      42.125  19.134  26.077  1.00  0.00     0.124 S 
ATOM     87  O   UNL A   1      40.689  19.306  25.881  1.00  0.00    -0.237 OA
ATOM     88  O   UNL A   1      42.894  18.784  24.887  1.00  0.00    -0.237 OA
ATOM     89  O   UNL A   1      42.514  18.432  27.296  1.00  0.00    -0.744 OA
ENDBRANCH  85  86
ENDBRANCH  53  78
BRANCH  65  90
ATOM     90  C   UNL A   1      49.663  26.750  26.366  1.00  0.00     0.058 A 
ATOM     91  C   UNL A   1      50.264  26.847  25.102  1.00  0.00     0.135 A 
ATOM     92  C   UNL A   1      50.432  26.223  27.417  1.00  0.00     0.135 A 
ATOM     93  F   UNL A   1      49.574  27.342  24.061  1.00  0.00    -0.206 F 
ATOM     94  C   UNL A   1      51.564  26.406  24.881  1.00  0.00     0.059 A 
ATOM     95  C   UNL A   1      51.748  25.814  27.229  1.00  0.00     0.059 A 
ATOM     96  F   UNL A   1      49.914  26.119  28.652  1.00  0.00    -0.206 F 
ATOM     97  C   UNL A   1      52.299  25.893  25.952  1.00  0.00     0.060 A 
BRANCH  97  98
ATOM     98  S   UNL A   1      53.993  25.349  25.655  1.00  0.00     0.124 S 
ATOM     99  O   UNL A   1      54.735  26.160  26.615  1.00  0.00    -0.237 OA
ATOM    100  O   UNL A   1      53.919  23.923  25.955  1.00  0.00    -0.237 OA
ATOM    101  O   UNL A   1      54.217  25.678  24.251  1.00  0.00    -0.744 OA
ENDBRANCH  97  98
ENDBRANCH  65  90
ENDBRANCH  39  40
ENDBRANCH  32  34
ENDBRANCH  31  32
ENDBRANCH  30  31
ENDBRANCH  29  30
ENDBRANCH   1  29
TORSDOF 22
ENDMDL
