MODEL 1
REMARK VINA RESULT:     -12.4      0.000      0.000
REMARK SMILES C[N@@H+]1CCN(C(=O)c2ccc3[nH]c4c(c3c2)CSCC4)C[C@H]1C(=O)OCCOCCOC(=O)c1ccc(-c2c3nc(c(-c4c(F)cc(S(=O)(=O)[O-])cc4F)c4ccc([nH]4)c(-c4c(F)cc(S(=O)(=O)[O-])cc4F)c4nc(c(-c5c(F)cc(S(=O)(=O)[O-])cc5F)c5ccc2[nH]5)C=C4)C=C3)cc1
REMARK SMILES IDX 29 1 28 2 27 3 26 4 25 5 23 6 24 7 22 8 1 9 2 10 3 11 4 13
REMARK SMILES IDX 21 14 5 15 6 16 7 17 8 18 9 19 16 20 10 21 15 22 11 23 14 24
REMARK SMILES IDX 12 25 13 26 17 27 20 29 18 30 19 31 30 32 31 33 32 34 33 35
REMARK SMILES IDX 34 36 35 37 99 38 36 39 98 40 37 41 38 42 39 43 92 44 40 45
REMARK SMILES IDX 97 46 91 47 93 48 41 49 96 50 90 51 89 52 42 54 76 55 55 56
REMARK SMILES IDX 75 57 56 58 59 59 74 60 94 61 57 62 58 63 73 65 95 66 60 67
REMARK SMILES IDX 43 68 44 69 53 70 45 71 46 72 52 73 54 74 47 75 48 76 49 77
REMARK SMILES IDX 50 78 51 79 77 80 78 81 87 82 79 83 80 84 86 85 88 86 81 87
REMARK SMILES IDX 82 88 83 89 84 90 85 91 61 92 62 93 71 94 63 95 64 96 70 97
REMARK SMILES IDX 72 98 65 99 66 100 67 101 68 102 69 103
REMARK H PARENT 2 12 12 28 93 53 59 64
REMARK Flexibility Score: inf
ROOT
ATOM      1  C   UNL A   1      37.108  22.130  24.044  1.00  0.00     0.202 C 
ENDROOT
BRANCH   1   2
ATOM      2  O   UNL A   1      35.686  22.236  23.992  1.00  0.00    -0.374 OA
BRANCH   2   3
ATOM      3  C   UNL A   1      35.109  22.980  22.923  1.00  0.00     0.202 C 
BRANCH   3   4
ATOM      4  C   UNL A   1      34.103  24.104  23.221  1.00  0.00     0.261 C 
BRANCH   4   5
ATOM      5  O   UNL A   1      33.622  24.853  22.091  1.00  0.00    -0.459 OA
BRANCH   5   6
ATOM      6  C   UNL A   1      32.536  25.612  22.383  1.00  0.00     0.366 C 
ATOM      7  O   UNL A   1      31.779  26.083  21.534  1.00  0.00    -0.245 OA
BRANCH   6   8
ATOM      8  C   UNL A   1      32.324  25.935  23.846  1.00  0.00     0.314 C 
ATOM      9  C   UNL A   1      33.816  27.915  23.944  1.00  0.00     0.333 C 
ATOM     10  N   UNL A   1      32.557  27.326  24.367  1.00  0.00    -0.323 N 
ATOM     11  C   UNL A   1      32.522  27.233  25.857  1.00  0.00     0.284 C 
ATOM     12  H   UNL A   1      31.833  27.937  23.989  1.00  0.00     0.348 HD
ATOM     13  C   UNL A   1      31.217  26.607  26.408  1.00  0.00     0.181 C 
ATOM     14  C   UNL A   1      30.898  25.515  24.229  1.00  0.00     0.197 C 
ATOM     15  N   UNL A   1      30.852  25.384  25.693  1.00  0.00    -0.326 N 
BRANCH  15  16
ATOM     16  C   UNL A   1      30.571  24.218  26.389  1.00  0.00     0.254 C 
ATOM     17  O   UNL A   1      29.506  24.006  26.963  1.00  0.00    -0.269 OA
BRANCH  16  18
ATOM     18  C   UNL A   1      31.595  23.154  26.400  1.00  0.00     0.040 A 
ATOM     19  C   UNL A   1      32.607  23.133  27.364  1.00  0.00     0.016 A 
ATOM     20  C   UNL A   1      31.537  22.202  25.376  1.00  0.00     0.024 A 
ATOM     21  C   UNL A   1      33.631  22.182  27.292  1.00  0.00     0.027 A 
ATOM     22  C   UNL A   1      32.543  21.220  25.306  1.00  0.00     0.004 A 
ATOM     23  C   UNL A   1      33.572  21.242  26.253  1.00  0.00     0.046 A 
ATOM     24  C   UNL A   1      32.797  20.135  24.414  1.00  0.00    -0.009 A 
ATOM     25  N   UNL A   1      34.449  20.236  25.909  1.00  0.00    -0.358 N 
ATOM     26  C   UNL A   1      33.938  19.510  24.870  1.00  0.00     0.021 A 
ATOM     27  C   UNL A   1      32.009  19.756  23.210  1.00  0.00     0.107 C 
ATOM     28  H   UNL A   1      35.314  20.065  26.348  1.00  0.00     0.166 HD
ATOM     29  C   UNL A   1      34.592  18.312  24.287  1.00  0.00     0.065 C 
ATOM     30  S   UNL A   1      32.505  18.211  22.367  1.00  0.00    -0.157 SA
ATOM     31  C   UNL A   1      33.536  17.406  23.650  1.00  0.00     0.076 C 
ENDBRANCH  16  18
ENDBRANCH  15  16
ENDBRANCH   6   8
ENDBRANCH   5   6
ENDBRANCH   4   5
ENDBRANCH   3   4
ENDBRANCH   2   3
ENDBRANCH   1   2
BRANCH   1  32
ATOM     32  C   UNL A   1      37.744  21.549  25.317  1.00  0.00     0.261 C 
BRANCH  32  33
ATOM     33  O   UNL A   1      38.249  22.592  26.160  1.00  0.00    -0.460 OA
BRANCH  33  34
ATOM     34  C   UNL A   1      39.535  22.383  26.567  1.00  0.00     0.338 C 
ATOM     35  O   UNL A   1      40.248  21.453  26.284  1.00  0.00    -0.246 OA
BRANCH  34  36
ATOM     36  C   UNL A   1      40.001  23.700  27.052  1.00  0.00     0.060 A 
ATOM     37  C   UNL A   1      41.164  23.819  27.813  1.00  0.00     0.016 A 
ATOM     38  C   UNL A   1      39.087  24.760  26.950  1.00  0.00     0.016 A 
ATOM     39  C   UNL A   1      41.387  25.004  28.508  1.00  0.00     0.010 A 
ATOM     40  C   UNL A   1      39.305  25.933  27.667  1.00  0.00     0.010 A 
ATOM     41  C   UNL A   1      40.447  26.052  28.461  1.00  0.00    -0.014 A 
BRANCH  41  42
ATOM     42  C   UNL A   1      40.819  27.320  29.097  1.00  0.00     0.031 A 
ATOM     43  C   UNL A   1      42.011  27.971  28.484  1.00  0.00     0.074 A 
ATOM     44  C   UNL A   1      40.128  28.016  30.022  1.00  0.00     0.049 A 
ATOM     45  N   UNL A   1      43.155  28.231  29.026  1.00  0.00    -0.248 NA
ATOM     46  C   UNL A   1      41.933  28.288  27.050  1.00  0.00     0.031 C 
ATOM     47  C   UNL A   1      38.773  27.779  30.522  1.00  0.00     0.029 A 
ATOM     48  N   UNL A   1      40.492  29.178  30.648  1.00  0.00    -0.354 N 
ATOM     49  C   UNL A   1      43.890  28.905  28.054  1.00  0.00     0.074 A 
ATOM     50  C   UNL A   1      43.141  28.804  26.828  1.00  0.00     0.031 C 
ATOM     51  C   UNL A   1      38.360  28.868  31.212  1.00  0.00     0.029 A 
ATOM     52  C   UNL A   1      39.456  29.820  31.313  1.00  0.00     0.049 A 
ATOM     53  H   UNL A   1      41.411  29.530  30.627  1.00  0.00     0.167 HD
ATOM     54  C   UNL A   1      44.985  29.655  28.352  1.00  0.00     0.037 A 
ATOM     55  C   UNL A   1      39.488  31.066  31.851  1.00  0.00     0.037 A 
ATOM     56  C   UNL A   1      45.496  29.380  29.665  1.00  0.00     0.049 A 
ATOM     57  C   UNL A   1      40.906  31.437  32.078  1.00  0.00     0.074 A 
ATOM     58  C   UNL A   1      46.009  28.270  30.306  1.00  0.00     0.029 A 
ATOM     59  N   UNL A   1      45.254  30.304  30.650  1.00  0.00    -0.354 N 
ATOM     60  N   UNL A   1      41.684  30.890  32.970  1.00  0.00    -0.248 NA
ATOM     61  C   UNL A   1      41.583  32.264  31.089  1.00  0.00     0.031 C 
ATOM     62  C   UNL A   1      45.642  28.418  31.675  1.00  0.00     0.029 A 
ATOM     63  C   UNL A   1      44.927  29.611  31.787  1.00  0.00     0.049 A 
ATOM     64  H   UNL A   1      45.307  31.283  30.557  1.00  0.00     0.167 HD
ATOM     65  C   UNL A   1      42.955  30.968  32.429  1.00  0.00     0.074 A 
ATOM     66  C   UNL A   1      42.852  31.944  31.354  1.00  0.00     0.031 C 
ATOM     67  C   UNL A   1      43.902  30.030  32.718  1.00  0.00     0.037 A 
BRANCH  54  68
ATOM     68  C   UNL A   1      45.414  30.871  27.567  1.00  0.00     0.058 A 
ATOM     69  C   UNL A   1      46.725  30.946  27.057  1.00  0.00     0.135 A 
ATOM     70  C   UNL A   1      44.673  32.073  27.542  1.00  0.00     0.135 A 
ATOM     71  F   UNL A   1      47.519  29.864  27.052  1.00  0.00    -0.206 F 
ATOM     72  C   UNL A   1      47.283  32.145  26.614  1.00  0.00     0.059 A 
ATOM     73  C   UNL A   1      45.190  33.266  27.052  1.00  0.00     0.059 A 
ATOM     74  F   UNL A   1      43.451  32.163  28.085  1.00  0.00    -0.206 F 
ATOM     75  C   UNL A   1      46.511  33.303  26.634  1.00  0.00     0.060 A 
BRANCH  75  76
ATOM     76  S   UNL A   1      47.268  34.876  26.188  1.00  0.00     0.124 S 
ATOM     77  O   UNL A   1      48.165  34.469  25.112  1.00  0.00    -0.237 OA
ATOM     78  O   UNL A   1      46.111  35.671  25.790  1.00  0.00    -0.237 OA
ATOM     79  O   UNL A   1      47.916  35.299  27.426  1.00  0.00    -0.744 OA
ENDBRANCH  75  76
ENDBRANCH  54  68
BRANCH  55  80
ATOM     80  C   UNL A   1      38.399  32.073  31.959  1.00  0.00     0.058 A 
ATOM     81  C   UNL A   1      37.818  32.638  30.807  1.00  0.00     0.135 A 
ATOM     82  C   UNL A   1      37.705  32.276  33.168  1.00  0.00     0.135 A 
ATOM     83  F   UNL A   1      38.401  32.484  29.609  1.00  0.00    -0.206 F 
ATOM     84  C   UNL A   1      36.589  33.303  30.841  1.00  0.00     0.059 A 
ATOM     85  C   UNL A   1      36.486  32.949  33.228  1.00  0.00     0.059 A 
ATOM     86  F   UNL A   1      38.144  31.738  34.315  1.00  0.00    -0.206 F 
ATOM     87  C   UNL A   1      35.917  33.431  32.055  1.00  0.00     0.060 A 
BRANCH  87  88
ATOM     88  S   UNL A   1      34.242  34.110  32.071  1.00  0.00     0.124 S 
ATOM     89  O   UNL A   1      34.470  35.466  32.557  1.00  0.00    -0.237 OA
ATOM     90  O   UNL A   1      33.850  33.990  30.671  1.00  0.00    -0.237 OA
ATOM     91  O   UNL A   1      33.529  33.228  32.992  1.00  0.00    -0.744 OA
ENDBRANCH  87  88
ENDBRANCH  55  80
BRANCH  67  92
ATOM     92  C   UNL A   1      43.696  29.171  33.934  1.00  0.00     0.058 A 
ATOM     93  C   UNL A   1      42.926  27.997  33.945  1.00  0.00     0.135 A 
ATOM     94  C   UNL A   1      44.430  29.473  35.093  1.00  0.00     0.135 A 
ATOM     95  F   UNL A   1      42.281  27.582  32.844  1.00  0.00    -0.206 F 
ATOM     96  C   UNL A   1      42.858  27.178  35.069  1.00  0.00     0.059 A 
ATOM     97  C   UNL A   1      44.408  28.650  36.215  1.00  0.00     0.059 A 
ATOM     98  F   UNL A   1      45.233  30.551  35.119  1.00  0.00    -0.206 F 
ATOM     99  C   UNL A   1      43.612  27.508  36.195  1.00  0.00     0.060 A 
BRANCH  99 100
ATOM    100  S   UNL A   1      43.631  26.356  37.579  1.00  0.00     0.124 S 
ATOM    101  O   UNL A   1      44.327  25.199  37.022  1.00  0.00    -0.237 OA
ATOM    102  O   UNL A   1      44.371  27.107  38.587  1.00  0.00    -0.237 OA
ATOM    103  O   UNL A   1      42.216  26.145  37.873  1.00  0.00    -0.744 OA
ENDBRANCH  99 100
ENDBRANCH  67  92
ENDBRANCH  41  42
ENDBRANCH  34  36
ENDBRANCH  33  34
ENDBRANCH  32  33
ENDBRANCH   1  32
TORSDOF 19
ENDMDL
MODEL 2
REMARK VINA RESULT:     -12.2      3.119      9.395
REMARK SMILES C[N@@H+]1CCN(C(=O)c2ccc3[nH]c4c(c3c2)CSCC4)C[C@H]1C(=O)OCCOCCOC(=O)c1ccc(-c2c3nc(c(-c4c(F)cc(S(=O)(=O)[O-])cc4F)c4ccc([nH]4)c(-c4c(F)cc(S(=O)(=O)[O-])cc4F)c4nc(c(-c5c(F)cc(S(=O)(=O)[O-])cc5F)c5ccc2[nH]5)C=C4)C=C3)cc1
REMARK SMILES IDX 29 1 28 2 27 3 26 4 25 5 23 6 24 7 22 8 1 9 2 10 3 11 4 13
REMARK SMILES IDX 21 14 5 15 6 16 7 17 8 18 9 19 16 20 10 21 15 22 11 23 14 24
REMARK SMILES IDX 12 25 13 26 17 27 20 29 18 30 19 31 30 32 31 33 32 34 33 35
REMARK SMILES IDX 34 36 35 37 99 38 36 39 98 40 37 41 38 42 39 43 92 44 40 45
REMARK SMILES IDX 97 46 91 47 93 48 41 49 96 50 90 51 89 52 42 54 76 55 55 56
REMARK SMILES IDX 75 57 56 58 59 59 74 60 94 61 57 62 58 63 73 65 95 66 60 67
REMARK SMILES IDX 43 68 44 69 53 70 45 71 46 72 52 73 54 74 47 75 48 76 49 77
REMARK SMILES IDX 50 78 51 79 77 80 78 81 87 82 79 83 80 84 86 85 88 86 81 87
REMARK SMILES IDX 82 88 83 89 84 90 85 91 61 92 62 93 71 94 63 95 64 96 70 97
REMARK SMILES IDX 72 98 65 99 66 100 67 101 68 102 69 103
REMARK H PARENT 2 12 12 28 93 53 59 64
REMARK Flexibility Score: inf
ROOT
ATOM      1  C   UNL A   1      31.876  29.825  26.865  1.00  0.00     0.202 C 
ENDROOT
BRANCH   1   2
ATOM      2  O   UNL A   1      32.202  28.566  27.452  1.00  0.00    -0.374 OA
BRANCH   2   3
ATOM      3  C   UNL A   1      33.073  27.698  26.733  1.00  0.00     0.202 C 
BRANCH   3   4
ATOM      4  C   UNL A   1      32.534  26.391  26.129  1.00  0.00     0.261 C 
BRANCH   4   5
ATOM      5  O   UNL A   1      31.453  25.755  26.833  1.00  0.00    -0.459 OA
BRANCH   5   6
ATOM      6  C   UNL A   1      31.401  24.416  26.624  1.00  0.00     0.366 C 
ATOM      7  O   UNL A   1      30.610  23.661  27.192  1.00  0.00    -0.245 OA
BRANCH   6   8
ATOM      8  C   UNL A   1      32.443  23.848  25.685  1.00  0.00     0.314 C 
ATOM      9  C   UNL A   1      33.826  22.716  27.406  1.00  0.00     0.333 C 
ATOM     10  N   UNL A   1      33.252  22.642  26.073  1.00  0.00    -0.323 N 
ATOM     11  C   UNL A   1      34.344  22.518  25.062  1.00  0.00     0.284 C 
ATOM     12  H   UNL A   1      32.633  21.831  26.091  1.00  0.00     0.348 HD
ATOM     13  C   UNL A   1      33.832  22.441  23.603  1.00  0.00     0.181 C 
ATOM     14  C   UNL A   1      31.767  23.555  24.337  1.00  0.00     0.197 C 
ATOM     15  N   UNL A   1      32.826  23.465  23.320  1.00  0.00    -0.326 N 
BRANCH  15  16
ATOM     16  C   UNL A   1      32.954  24.294  22.216  1.00  0.00     0.254 C 
ATOM     17  O   UNL A   1      33.254  23.895  21.094  1.00  0.00    -0.269 OA
BRANCH  16  18
ATOM     18  C   UNL A   1      32.670  25.733  22.393  1.00  0.00     0.040 A 
ATOM     19  C   UNL A   1      33.701  26.677  22.417  1.00  0.00     0.016 A 
ATOM     20  C   UNL A   1      31.334  26.100  22.587  1.00  0.00     0.024 A 
ATOM     21  C   UNL A   1      33.422  28.019  22.697  1.00  0.00     0.027 A 
ATOM     22  C   UNL A   1      31.033  27.451  22.840  1.00  0.00     0.004 A 
ATOM     23  C   UNL A   1      32.081  28.374  22.905  1.00  0.00     0.046 A 
ATOM     24  C   UNL A   1      29.817  28.157  23.090  1.00  0.00    -0.009 A 
ATOM     25  N   UNL A   1      31.521  29.589  23.239  1.00  0.00    -0.358 N 
ATOM     26  C   UNL A   1      30.159  29.482  23.254  1.00  0.00     0.021 A 
ATOM     27  C   UNL A   1      28.446  27.585  23.185  1.00  0.00     0.107 C 
ATOM     28  H   UNL A   1      32.028  30.409  23.436  1.00  0.00     0.166 HD
ATOM     29  C   UNL A   1      29.236  30.616  23.513  1.00  0.00     0.065 C 
ATOM     30  S   UNL A   1      27.076  28.782  23.357  1.00  0.00    -0.157 SA
ATOM     31  C   UNL A   1      27.885  30.344  22.846  1.00  0.00     0.076 C 
ENDBRANCH  16  18
ENDBRANCH  15  16
ENDBRANCH   6   8
ENDBRANCH   5   6
ENDBRANCH   4   5
ENDBRANCH   3   4
ENDBRANCH   2   3
ENDBRANCH   1   2
BRANCH   1  32
ATOM     32  C   UNL A   1      32.827  31.006  27.112  1.00  0.00     0.261 C 
BRANCH  32  33
ATOM     33  O   UNL A   1      33.920  30.617  27.953  1.00  0.00    -0.460 OA
BRANCH  33  34
ATOM     34  C   UNL A   1      34.735  31.657  28.296  1.00  0.00     0.338 C 
ATOM     35  O   UNL A   1      34.421  32.676  28.857  1.00  0.00    -0.246 OA
BRANCH  34  36
ATOM     36  C   UNL A   1      36.106  31.104  28.233  1.00  0.00     0.060 A 
ATOM     37  C   UNL A   1      36.332  29.775  27.875  1.00  0.00     0.016 A 
ATOM     38  C   UNL A   1      37.119  31.884  28.811  1.00  0.00     0.016 A 
ATOM     39  C   UNL A   1      37.580  29.218  28.137  1.00  0.00     0.010 A 
ATOM     40  C   UNL A   1      38.357  31.313  29.092  1.00  0.00     0.010 A 
ATOM     41  C   UNL A   1      38.585  29.973  28.771  1.00  0.00    -0.014 A 
BRANCH  41  42
ATOM     42  C   UNL A   1      39.916  29.367  28.881  1.00  0.00     0.031 A 
ATOM     43  C   UNL A   1      40.368  29.162  30.287  1.00  0.00     0.074 A 
ATOM     44  C   UNL A   1      40.668  28.838  27.895  1.00  0.00     0.049 A 
ATOM     45  N   UNL A   1      41.383  29.685  30.891  1.00  0.00    -0.248 NA
ATOM     46  C   UNL A   1      39.513  28.330  31.146  1.00  0.00     0.031 C 
ATOM     47  C   UNL A   1      40.305  28.592  26.499  1.00  0.00     0.029 A 
ATOM     48  N   UNL A   1      41.927  28.308  27.988  1.00  0.00    -0.354 N 
ATOM     49  C   UNL A   1      41.402  29.116  32.161  1.00  0.00     0.074 A 
ATOM     50  C   UNL A   1      40.167  28.389  32.306  1.00  0.00     0.031 C 
ATOM     51  C   UNL A   1      41.237  27.787  25.935  1.00  0.00     0.029 A 
ATOM     52  C   UNL A   1      42.320  27.567  26.883  1.00  0.00     0.049 A 
ATOM     53  H   UNL A   1      42.506  28.442  28.774  1.00  0.00     0.167 HD
ATOM     54  C   UNL A   1      42.507  29.131  32.955  1.00  0.00     0.037 A 
ATOM     55  C   UNL A   1      43.425  26.783  26.783  1.00  0.00     0.037 A 
ATOM     56  C   UNL A   1      43.486  30.083  32.512  1.00  0.00     0.049 A 
ATOM     57  C   UNL A   1      44.400  27.226  27.809  1.00  0.00     0.074 A 
ATOM     58  C   UNL A   1      43.516  31.453  32.343  1.00  0.00     0.029 A 
ATOM     59  N   UNL A   1      44.603  29.602  31.876  1.00  0.00    -0.354 N 
ATOM     60  N   UNL A   1      45.042  28.360  27.785  1.00  0.00    -0.248 NA
ATOM     61  C   UNL A   1      44.471  26.500  29.070  1.00  0.00     0.031 C 
ATOM     62  C   UNL A   1      44.403  31.682  31.251  1.00  0.00     0.029 A 
ATOM     63  C   UNL A   1      44.861  30.436  30.820  1.00  0.00     0.049 A 
ATOM     64  H   UNL A   1      45.121  28.805  32.133  1.00  0.00     0.167 HD
ATOM     65  C   UNL A   1      45.250  28.680  29.116  1.00  0.00     0.074 A 
ATOM     66  C   UNL A   1      45.013  27.443  29.845  1.00  0.00     0.031 C 
ATOM     67  C   UNL A   1      45.317  29.979  29.525  1.00  0.00     0.037 A 
BRANCH  54  68
ATOM     68  C   UNL A   1      42.837  28.057  33.962  1.00  0.00     0.058 A 
ATOM     69  C   UNL A   1      42.894  28.377  35.333  1.00  0.00     0.135 A 
ATOM     70  C   UNL A   1      43.369  26.800  33.600  1.00  0.00     0.135 A 
ATOM     71  F   UNL A   1      42.432  29.556  35.778  1.00  0.00    -0.206 F 
ATOM     72  C   UNL A   1      43.496  27.537  36.269  1.00  0.00     0.059 A 
ATOM     73  C   UNL A   1      43.922  25.922  34.526  1.00  0.00     0.059 A 
ATOM     74  F   UNL A   1      43.466  26.413  32.322  1.00  0.00    -0.206 F 
ATOM     75  C   UNL A   1      44.024  26.319  35.850  1.00  0.00     0.060 A 
BRANCH  75  76
ATOM     76  S   UNL A   1      44.919  25.292  37.030  1.00  0.00     0.124 S 
ATOM     77  O   UNL A   1      46.296  25.702  36.780  1.00  0.00    -0.237 OA
ATOM     78  O   UNL A   1      44.345  25.718  38.302  1.00  0.00    -0.237 OA
ATOM     79  O   UNL A   1      44.578  23.934  36.618  1.00  0.00    -0.744 OA
ENDBRANCH  75  76
ENDBRANCH  54  68
BRANCH  55  80
ATOM     80  C   UNL A   1      43.615  25.514  26.033  1.00  0.00     0.058 A 
ATOM     81  C   UNL A   1      44.800  25.267  25.313  1.00  0.00     0.135 A 
ATOM     82  C   UNL A   1      42.778  24.401  26.251  1.00  0.00     0.135 A 
ATOM     83  F   UNL A   1      45.664  26.264  25.069  1.00  0.00    -0.206 F 
ATOM     84  C   UNL A   1      45.167  23.985  24.896  1.00  0.00     0.059 A 
ATOM     85  C   UNL A   1      43.117  23.116  25.832  1.00  0.00     0.059 A 
ATOM     86  F   UNL A   1      41.651  24.514  26.969  1.00  0.00    -0.206 F 
ATOM     87  C   UNL A   1      44.329  22.910  25.183  1.00  0.00     0.060 A 
BRANCH  87  88
ATOM     88  S   UNL A   1      44.892  21.230  24.825  1.00  0.00     0.124 S 
ATOM     89  O   UNL A   1      44.643  21.127  23.392  1.00  0.00    -0.237 OA
ATOM     90  O   UNL A   1      46.292  21.284  25.229  1.00  0.00    -0.237 OA
ATOM     91  O   UNL A   1      44.035  20.399  25.668  1.00  0.00    -0.744 OA
ENDBRANCH  87  88
ENDBRANCH  55  80
BRANCH  67  92
ATOM     92  C   UNL A   1      45.588  31.032  28.489  1.00  0.00     0.058 A 
ATOM     93  C   UNL A   1      44.613  31.546  27.618  1.00  0.00     0.135 A 
ATOM     94  C   UNL A   1      46.850  31.648  28.481  1.00  0.00     0.135 A 
ATOM     95  F   UNL A   1      43.353  31.085  27.640  1.00  0.00    -0.206 F 
ATOM     96  C   UNL A   1      44.890  32.601  26.752  1.00  0.00     0.059 A 
ATOM     97  C   UNL A   1      47.140  32.726  27.651  1.00  0.00     0.059 A 
ATOM     98  F   UNL A   1      47.804  31.239  29.336  1.00  0.00    -0.206 F 
ATOM     99  C   UNL A   1      46.154  33.191  26.784  1.00  0.00     0.060 A 
BRANCH  99 100
ATOM    100  S   UNL A   1      46.442  34.650  25.768  1.00  0.00     0.124 S 
ATOM    101  O   UNL A   1      47.826  34.471  25.337  1.00  0.00    -0.237 OA
ATOM    102  O   UNL A   1      45.435  34.494  24.724  1.00  0.00    -0.237 OA
ATOM    103  O   UNL A   1      46.219  35.761  26.689  1.00  0.00    -0.744 OA
ENDBRANCH  99 100
ENDBRANCH  67  92
ENDBRANCH  41  42
ENDBRANCH  34  36
ENDBRANCH  33  34
ENDBRANCH  32  33
ENDBRANCH   1  32
TORSDOF 19
ENDMDL
MODEL 3
REMARK VINA RESULT:     -11.5      1.776      4.207
REMARK SMILES C[N@@H+]1CCN(C(=O)c2ccc3[nH]c4c(c3c2)CSCC4)C[C@H]1C(=O)OCCOCCOC(=O)c1ccc(-c2c3nc(c(-c4c(F)cc(S(=O)(=O)[O-])cc4F)c4ccc([nH]4)c(-c4c(F)cc(S(=O)(=O)[O-])cc4F)c4nc(c(-c5c(F)cc(S(=O)(=O)[O-])cc5F)c5ccc2[nH]5)C=C4)C=C3)cc1
REMARK SMILES IDX 29 1 28 2 27 3 26 4 25 5 23 6 24 7 22 8 1 9 2 10 3 11 4 13
REMARK SMILES IDX 21 14 5 15 6 16 7 17 8 18 9 19 16 20 10 21 15 22 11 23 14 24
REMARK SMILES IDX 12 25 13 26 17 27 20 29 18 30 19 31 30 32 31 33 32 34 33 35
REMARK SMILES IDX 34 36 35 37 99 38 36 39 98 40 37 41 38 42 39 43 92 44 40 45
REMARK SMILES IDX 97 46 91 47 93 48 41 49 96 50 90 51 89 52 42 54 76 55 55 56
REMARK SMILES IDX 75 57 56 58 59 59 74 60 94 61 57 62 58 63 73 65 95 66 60 67
REMARK SMILES IDX 43 68 44 69 53 70 45 71 46 72 52 73 54 74 47 75 48 76 49 77
REMARK SMILES IDX 50 78 51 79 77 80 78 81 87 82 79 83 80 84 86 85 88 86 81 87
REMARK SMILES IDX 82 88 83 89 84 90 85 91 61 92 62 93 71 94 63 95 64 96 70 97
REMARK SMILES IDX 72 98 65 99 66 100 67 101 68 102 69 103
REMARK H PARENT 2 12 12 28 93 53 59 64
REMARK Flexibility Score: inf
ROOT
ATOM      1  C   UNL A   1      36.086  21.961  25.036  1.00  0.00     0.202 C 
ENDROOT
BRANCH   1   2
ATOM      2  O   UNL A   1      35.244  21.435  26.062  1.00  0.00    -0.374 OA
BRANCH   2   3
ATOM      3  C   UNL A   1      34.810  22.320  27.091  1.00  0.00     0.202 C 
BRANCH   3   4
ATOM      4  C   UNL A   1      33.416  22.150  27.716  1.00  0.00     0.261 C 
BRANCH   4   5
ATOM      5  O   UNL A   1      32.498  23.245  27.547  1.00  0.00    -0.459 OA
BRANCH   5   6
ATOM      6  C   UNL A   1      31.582  23.021  26.572  1.00  0.00     0.366 C 
ATOM      7  O   UNL A   1      30.391  22.790  26.787  1.00  0.00    -0.245 OA
BRANCH   6   8
ATOM      8  C   UNL A   1      32.113  22.988  25.156  1.00  0.00     0.314 C 
ATOM      9  C   UNL A   1      32.274  20.521  24.943  1.00  0.00     0.333 C 
ATOM     10  N   UNL A   1      31.923  21.772  24.291  1.00  0.00    -0.323 N 
ATOM     11  C   UNL A   1      32.783  21.969  23.086  1.00  0.00     0.284 C 
ATOM     12  H   UNL A   1      30.932  21.689  24.064  1.00  0.00     0.348 HD
ATOM     13  C   UNL A   1      32.491  23.285  22.325  1.00  0.00     0.181 C 
ATOM     14  C   UNL A   1      31.547  24.200  24.402  1.00  0.00     0.197 C 
ATOM     15  N   UNL A   1      32.403  24.433  23.229  1.00  0.00    -0.326 N 
BRANCH  15  16
ATOM     16  C   UNL A   1      33.142  25.581  22.984  1.00  0.00     0.254 C 
ATOM     17  O   UNL A   1      34.058  25.642  22.169  1.00  0.00    -0.269 OA
BRANCH  16  18
ATOM     18  C   UNL A   1      32.773  26.810  23.716  1.00  0.00     0.040 A 
ATOM     19  C   UNL A   1      31.571  27.475  23.454  1.00  0.00     0.016 A 
ATOM     20  C   UNL A   1      33.699  27.304  24.640  1.00  0.00     0.024 A 
ATOM     21  C   UNL A   1      31.291  28.696  24.076  1.00  0.00     0.027 A 
ATOM     22  C   UNL A   1      33.419  28.517  25.297  1.00  0.00     0.004 A 
ATOM     23  C   UNL A   1      32.233  29.191  24.990  1.00  0.00     0.046 A 
ATOM     24  C   UNL A   1      34.123  29.297  26.263  1.00  0.00    -0.009 A 
ATOM     25  N   UNL A   1      32.248  30.369  25.706  1.00  0.00    -0.358 N 
ATOM     26  C   UNL A   1      33.329  30.389  26.541  1.00  0.00     0.021 A 
ATOM     27  C   UNL A   1      35.464  29.015  26.844  1.00  0.00     0.107 C 
ATOM     28  H   UNL A   1      31.580  31.088  25.627  1.00  0.00     0.166 HD
ATOM     29  C   UNL A   1      33.621  31.481  27.504  1.00  0.00     0.065 C 
ATOM     30  S   UNL A   1      36.022  30.129  28.182  1.00  0.00    -0.157 SA
ATOM     31  C   UNL A   1      34.450  30.936  28.668  1.00  0.00     0.076 C 
ENDBRANCH  16  18
ENDBRANCH  15  16
ENDBRANCH   6   8
ENDBRANCH   5   6
ENDBRANCH   4   5
ENDBRANCH   3   4
ENDBRANCH   2   3
ENDBRANCH   1   2
BRANCH   1  32
ATOM     32  C   UNL A   1      37.565  21.544  25.030  1.00  0.00     0.261 C 
BRANCH  32  33
ATOM     33  O   UNL A   1      38.403  22.621  25.469  1.00  0.00    -0.460 OA
BRANCH  33  34
ATOM     34  C   UNL A   1      39.358  22.233  26.364  1.00  0.00     0.338 C 
ATOM     35  O   UNL A   1      40.071  21.264  26.294  1.00  0.00    -0.246 OA
BRANCH  34  36
ATOM     36  C   UNL A   1      39.628  23.436  27.180  1.00  0.00     0.060 A 
ATOM     37  C   UNL A   1      38.836  24.579  27.066  1.00  0.00     0.016 A 
ATOM     38  C   UNL A   1      40.860  23.470  27.851  1.00  0.00     0.016 A 
ATOM     39  C   UNL A   1      39.309  25.774  27.599  1.00  0.00     0.010 A 
ATOM     40  C   UNL A   1      41.337  24.673  28.362  1.00  0.00     0.010 A 
ATOM     41  C   UNL A   1      40.571  25.832  28.223  1.00  0.00    -0.014 A 
BRANCH  41  42
ATOM     42  C   UNL A   1      40.936  27.087  28.888  1.00  0.00     0.031 A 
ATOM     43  C   UNL A   1      42.126  27.758  28.293  1.00  0.00     0.074 A 
ATOM     44  C   UNL A   1      40.239  27.758  29.828  1.00  0.00     0.049 A 
ATOM     45  N   UNL A   1      43.268  28.011  28.843  1.00  0.00    -0.248 NA
ATOM     46  C   UNL A   1      42.048  28.108  26.866  1.00  0.00     0.031 C 
ATOM     47  C   UNL A   1      38.885  27.503  30.319  1.00  0.00     0.029 A 
ATOM     48  N   UNL A   1      40.597  28.907  30.481  1.00  0.00    -0.354 N 
ATOM     49  C   UNL A   1      44.000  28.710  27.888  1.00  0.00     0.074 A 
ATOM     50  C   UNL A   1      43.254  28.634  26.658  1.00  0.00     0.031 C 
ATOM     51  C   UNL A   1      38.465  28.574  31.034  1.00  0.00     0.029 A 
ATOM     52  C   UNL A   1      39.557  29.529  31.158  1.00  0.00     0.049 A 
ATOM     53  H   UNL A   1      41.515  29.264  30.469  1.00  0.00     0.167 HD
ATOM     54  C   UNL A   1      45.092  29.459  28.204  1.00  0.00     0.037 A 
ATOM     55  C   UNL A   1      39.582  30.762  31.725  1.00  0.00     0.037 A 
ATOM     56  C   UNL A   1      45.602  29.156  29.512  1.00  0.00     0.049 A 
ATOM     57  C   UNL A   1      40.998  31.134  31.964  1.00  0.00     0.074 A 
ATOM     58  C   UNL A   1      46.119  28.034  30.128  1.00  0.00     0.029 A 
ATOM     59  N   UNL A   1      45.354  30.056  30.518  1.00  0.00    -0.354 N 
ATOM     60  N   UNL A   1      41.777  30.571  32.844  1.00  0.00    -0.248 NA
ATOM     61  C   UNL A   1      41.673  31.988  30.996  1.00  0.00     0.031 C 
ATOM     62  C   UNL A   1      45.749  28.148  31.499  1.00  0.00     0.029 A 
ATOM     63  C   UNL A   1      45.028  29.335  31.637  1.00  0.00     0.049 A 
ATOM     64  H   UNL A   1      45.403  31.036  30.447  1.00  0.00     0.167 HD
ATOM     65  C   UNL A   1      43.049  30.667  32.308  1.00  0.00     0.074 A 
ATOM     66  C   UNL A   1      42.943  31.667  31.255  1.00  0.00     0.031 C 
ATOM     67  C   UNL A   1      44.000  29.727  32.577  1.00  0.00     0.037 A 
BRANCH  54  68
ATOM     68  C   UNL A   1      45.516  30.694  27.449  1.00  0.00     0.058 A 
ATOM     69  C   UNL A   1      46.832  30.794  26.956  1.00  0.00     0.135 A 
ATOM     70  C   UNL A   1      44.762  31.888  27.439  1.00  0.00     0.135 A 
ATOM     71  F   UNL A   1      47.639  29.721  26.940  1.00  0.00    -0.206 F 
ATOM     72  C   UNL A   1      47.382  32.007  26.543  1.00  0.00     0.059 A 
ATOM     73  C   UNL A   1      45.272  33.096  26.977  1.00  0.00     0.059 A 
ATOM     74  F   UNL A   1      43.533  31.953  27.968  1.00  0.00    -0.206 F 
ATOM     75  C   UNL A   1      46.597  33.156  26.576  1.00  0.00     0.060 A 
BRANCH  75  76
ATOM     76  S   UNL A   1      47.341  34.746  26.171  1.00  0.00     0.124 S 
ATOM     77  O   UNL A   1      47.827  35.177  27.477  1.00  0.00    -0.237 OA
ATOM     78  O   UNL A   1      48.364  34.366  25.201  1.00  0.00    -0.237 OA
ATOM     79  O   UNL A   1      46.224  35.511  25.627  1.00  0.00    -0.744 OA
ENDBRANCH  75  76
ENDBRANCH  54  68
BRANCH  55  80
ATOM     80  C   UNL A   1      38.488  31.761  31.855  1.00  0.00     0.058 A 
ATOM     81  C   UNL A   1      38.007  32.459  30.729  1.00  0.00     0.135 A 
ATOM     82  C   UNL A   1      37.694  31.832  33.015  1.00  0.00     0.135 A 
ATOM     83  F   UNL A   1      38.691  32.436  29.575  1.00  0.00    -0.206 F 
ATOM     84  C   UNL A   1      36.781  33.128  30.734  1.00  0.00     0.059 A 
ATOM     85  C   UNL A   1      36.474  32.506  33.048  1.00  0.00     0.059 A 
ATOM     86  F   UNL A   1      38.033  31.164  34.127  1.00  0.00    -0.206 F 
ATOM     87  C   UNL A   1      36.008  33.124  31.894  1.00  0.00     0.060 A 
BRANCH  87  88
ATOM     88  S   UNL A   1      34.337  33.814  31.845  1.00  0.00     0.124 S 
ATOM     89  O   UNL A   1      34.014  33.722  30.426  1.00  0.00    -0.237 OA
ATOM     90  O   UNL A   1      33.608  32.910  32.727  1.00  0.00    -0.237 OA
ATOM     91  O   UNL A   1      34.516  35.170  32.358  1.00  0.00    -0.744 OA
ENDBRANCH  87  88
ENDBRANCH  55  80
BRANCH  67  92
ATOM     92  C   UNL A   1      43.796  28.839  33.772  1.00  0.00     0.058 A 
ATOM     93  C   UNL A   1      43.001  27.681  33.763  1.00  0.00     0.135 A 
ATOM     94  C   UNL A   1      44.555  29.094  34.926  1.00  0.00     0.135 A 
ATOM     95  F   UNL A   1      42.330  27.310  32.662  1.00  0.00    -0.206 F 
ATOM     96  C   UNL A   1      42.935  26.833  34.866  1.00  0.00     0.059 A 
ATOM     97  C   UNL A   1      44.533  28.242  36.025  1.00  0.00     0.059 A 
ATOM     98  F   UNL A   1      45.380  30.154  34.968  1.00  0.00    -0.206 F 
ATOM     99  C   UNL A   1      43.713  27.116  35.988  1.00  0.00     0.060 A 
BRANCH  99 100
ATOM    100  S   UNL A   1      43.731  25.926  37.339  1.00  0.00     0.124 S 
ATOM    101  O   UNL A   1      44.972  26.253  38.037  1.00  0.00    -0.237 OA
ATOM    102  O   UNL A   1      42.504  26.262  38.053  1.00  0.00    -0.237 OA
ATOM    103  O   UNL A   1      43.725  24.633  36.661  1.00  0.00    -0.744 OA
ENDBRANCH  99 100
ENDBRANCH  67  92
ENDBRANCH  41  42
ENDBRANCH  34  36
ENDBRANCH  33  34
ENDBRANCH  32  33
ENDBRANCH   1  32
TORSDOF 19
ENDMDL
