MODEL 1
REMARK VINA RESULT:     -12.2      0.000      0.000
REMARK SMILES Cc1c(C(=O)Nc2ccc(C(=O)Nc3ccccc3C(=O)OCCOCCOC(=O)c3ccc(-c4c5nc(c(-c6c(F)cc(S(=O)(=O)[O-])cc6F)c6ccc([nH]6)c(-c6c(F)cc(S(=O)(=O)[O-])cc6F)c6nc(c(-c7c(F)cc(S(=O)(=O)[O-])cc7F)c7ccc4[nH]7)C=C6)C=C5)cc3)cc2)cccc1[N+](=O)[O-]
REMARK SMILES IDX 24 1 23 2 22 3 20 4 21 5 19 6 14 7 15 8 16 9 18 10 17 11
REMARK SMILES IDX 13 12 11 13 12 14 10 16 7 17 8 18 98 19 9 20 97 21 6 22 4 23
REMARK SMILES IDX 5 24 3 26 1 27 2 28 102 29 99 30 101 31 100 32 103 33 104 34
REMARK SMILES IDX 105 35 25 36 26 37 27 38 28 39 29 40 30 41 31 42 32 43 96 44
REMARK SMILES IDX 33 45 95 46 34 47 35 48 36 49 89 50 37 51 94 52 88 53 90 54
REMARK SMILES IDX 38 55 93 56 87 57 86 58 39 60 73 61 52 62 72 63 53 64 56 65
REMARK SMILES IDX 71 66 91 67 54 68 55 69 70 71 92 72 57 73 40 74 41 75 50 76
REMARK SMILES IDX 42 77 43 78 49 79 51 80 44 81 45 82 46 83 47 84 48 85 74 86
REMARK SMILES IDX 75 87 84 88 76 89 77 90 83 91 85 92 78 93 79 94 80 95 81 96
REMARK SMILES IDX 82 97 58 98 59 99 68 100 60 101 61 102 67 103 69 104 62 105
REMARK SMILES IDX 63 106 64 107 65 108 66 109
REMARK H PARENT 13 15 6 25 90 59 56 70
REMARK Flexibility Score: inf
ROOT
ATOM      1  C   UNL A   1      34.711  22.177  24.874  1.00  0.00     0.202 C 
ENDROOT
BRANCH   1   2
ATOM      2  C   UNL A   1      34.847  23.382  23.951  1.00  0.00     0.261 C 
BRANCH   2   3
ATOM      3  O   UNL A   1      34.703  24.731  24.450  1.00  0.00    -0.460 OA
BRANCH   3   4
ATOM      4  C   UNL A   1      33.640  25.269  25.108  1.00  0.00     0.340 C 
ATOM      5  O   UNL A   1      33.180  25.001  26.175  1.00  0.00    -0.246 OA
BRANCH   4   6
ATOM      6  C   UNL A   1      33.246  26.445  24.273  1.00  0.00     0.083 A 
ATOM      7  C   UNL A   1      32.444  27.483  24.779  1.00  0.00     0.056 A 
ATOM      8  C   UNL A   1      32.238  28.632  23.999  1.00  0.00     0.027 A 
ATOM      9  C   UNL A   1      32.882  28.788  22.771  1.00  0.00     0.002 A 
ATOM     10  C   UNL A   1      33.816  26.577  22.990  1.00  0.00     0.018 A 
ATOM     11  C   UNL A   1      33.660  27.754  22.259  1.00  0.00     0.001 A 
BRANCH   7  12
ATOM     12  N   UNL A   1      31.870  27.541  26.057  1.00  0.00    -0.321 N 
ATOM     13  C   UNL A   1      32.186  28.286  27.173  1.00  0.00     0.255 C 
ATOM     14  O   UNL A   1      31.425  28.203  28.142  1.00  0.00    -0.269 OA
ATOM     15  H   UNL A   1      31.102  26.938  26.181  1.00  0.00     0.170 HD
BRANCH  13  16
ATOM     16  C   UNL A   1      33.346  29.225  27.278  1.00  0.00     0.040 A 
ATOM     17  C   UNL A   1      35.360  31.131  27.808  1.00  0.00     0.041 A 
ATOM     18  C   UNL A   1      35.651  29.771  27.791  1.00  0.00     0.027 A 
ATOM     19  C   UNL A   1      34.057  31.547  27.549  1.00  0.00     0.027 A 
ATOM     20  C   UNL A   1      34.674  28.843  27.433  1.00  0.00     0.016 A 
ATOM     21  C   UNL A   1      33.060  30.602  27.278  1.00  0.00     0.016 A 
BRANCH  17  22
ATOM     22  N   UNL A   1      36.360  32.102  27.964  1.00  0.00    -0.322 N 
ATOM     23  C   UNL A   1      36.507  33.012  29.000  1.00  0.00     0.256 C 
ATOM     24  O   UNL A   1      37.405  33.850  28.987  1.00  0.00    -0.269 OA
ATOM     25  H   UNL A   1      37.040  32.143  27.253  1.00  0.00     0.170 HD
BRANCH  23  26
ATOM     26  C   UNL A   1      35.601  32.948  30.189  1.00  0.00     0.049 A 
ATOM     27  C   UNL A   1      34.021  34.749  29.336  1.00  0.00     0.053 C 
ATOM     28  C   UNL A   1      34.590  33.908  30.450  1.00  0.00     0.039 A 
ATOM     29  C   UNL A   1      34.164  34.029  31.791  1.00  0.00     0.273 A 
ATOM     30  C   UNL A   1      35.902  31.950  31.128  1.00  0.00     0.014 A 
ATOM     31  C   UNL A   1      34.488  33.037  32.737  1.00  0.00     0.086 A 
ATOM     32  C   UNL A   1      35.300  31.964  32.381  1.00  0.00     0.008 A 
BRANCH  29  33
ATOM     33  N   UNL A   1      33.521  35.259  32.309  1.00  0.00     0.063 N 
ATOM     34  O   UNL A   1      32.280  35.300  32.290  1.00  0.00    -0.258 OA
ATOM     35  O   UNL A   1      34.229  36.172  32.750  1.00  0.00    -0.258 OA
ENDBRANCH  29  33
ENDBRANCH  23  26
ENDBRANCH  17  22
ENDBRANCH  13  16
ENDBRANCH   7  12
ENDBRANCH   4   6
ENDBRANCH   3   4
ENDBRANCH   2   3
ENDBRANCH   1   2
BRANCH   1  36
ATOM     36  O   UNL A   1      35.732  22.114  25.847  1.00  0.00    -0.374 OA
BRANCH  36  37
ATOM     37  C   UNL A   1      36.785  21.236  25.500  1.00  0.00     0.202 C 
BRANCH  37  38
ATOM     38  C   UNL A   1      38.226  21.769  25.620  1.00  0.00     0.261 C 
BRANCH  38  39
ATOM     39  O   UNL A   1      38.538  23.095  26.139  1.00  0.00    -0.460 OA
BRANCH  39  40
ATOM     40  C   UNL A   1      39.715  23.643  26.547  1.00  0.00     0.338 C 
ATOM     41  O   UNL A   1      40.740  22.987  26.669  1.00  0.00    -0.246 OA
BRANCH  40  42
ATOM     42  C   UNL A   1      39.697  25.070  26.861  1.00  0.00     0.060 A 
ATOM     43  C   UNL A   1      40.536  25.958  26.176  1.00  0.00     0.016 A 
ATOM     44  C   UNL A   1      39.046  25.439  28.017  1.00  0.00     0.016 A 
ATOM     45  C   UNL A   1      40.906  27.157  26.795  1.00  0.00     0.010 A 
ATOM     46  C   UNL A   1      39.559  26.530  28.679  1.00  0.00     0.010 A 
ATOM     47  C   UNL A   1      40.518  27.384  28.118  1.00  0.00    -0.014 A 
BRANCH  47  48
ATOM     48  C   UNL A   1      41.187  28.320  29.044  1.00  0.00     0.031 A 
ATOM     49  C   UNL A   1      40.396  29.338  29.780  1.00  0.00     0.074 A 
ATOM     50  C   UNL A   1      42.521  28.294  29.267  1.00  0.00     0.049 A 
ATOM     51  N   UNL A   1      40.766  30.580  29.878  1.00  0.00    -0.248 NA
ATOM     52  C   UNL A   1      39.056  29.114  30.344  1.00  0.00     0.031 C 
ATOM     53  C   UNL A   1      43.260  28.928  30.354  1.00  0.00     0.029 A 
ATOM     54  N   UNL A   1      43.506  27.643  28.531  1.00  0.00    -0.354 N 
ATOM     55  C   UNL A   1      39.896  31.132  30.790  1.00  0.00     0.074 A 
ATOM     56  C   UNL A   1      38.708  30.354  30.681  1.00  0.00     0.031 C 
ATOM     57  C   UNL A   1      44.579  28.756  30.156  1.00  0.00     0.029 A 
ATOM     58  C   UNL A   1      44.776  28.145  28.849  1.00  0.00     0.049 A 
ATOM     59  H   UNL A   1      43.336  26.927  27.877  1.00  0.00     0.167 HD
ATOM     60  C   UNL A   1      40.351  31.921  31.803  1.00  0.00     0.037 A 
ATOM     61  C   UNL A   1      45.604  28.649  27.882  1.00  0.00     0.037 A 
ATOM     62  C   UNL A   1      41.765  32.257  31.613  1.00  0.00     0.049 A 
ATOM     63  C   UNL A   1      45.668  30.163  27.915  1.00  0.00     0.074 A 
ATOM     64  C   UNL A   1      42.908  32.008  32.351  1.00  0.00     0.029 A 
ATOM     65  N   UNL A   1      42.203  32.732  30.377  1.00  0.00    -0.354 N 
ATOM     66  N   UNL A   1      45.034  30.882  28.801  1.00  0.00    -0.248 NA
ATOM     67  C   UNL A   1      46.399  31.005  26.967  1.00  0.00     0.031 C 
ATOM     68  C   UNL A   1      44.033  32.244  31.510  1.00  0.00     0.029 A 
ATOM     69  C   UNL A   1      43.581  32.684  30.278  1.00  0.00     0.049 A 
ATOM     70  H   UNL A   1      41.607  33.060  29.665  1.00  0.00     0.167 HD
ATOM     71  C   UNL A   1      45.064  32.198  28.448  1.00  0.00     0.074 A 
ATOM     72  C   UNL A   1      46.008  32.238  27.347  1.00  0.00     0.031 C 
ATOM     73  C   UNL A   1      44.243  33.112  29.045  1.00  0.00     0.037 A 
BRANCH  60  74
ATOM     74  C   UNL A   1      39.562  32.202  33.086  1.00  0.00     0.058 A 
ATOM     75  C   UNL A   1      39.706  31.345  34.196  1.00  0.00     0.135 A 
ATOM     76  C   UNL A   1      38.624  33.248  33.296  1.00  0.00     0.135 A 
ATOM     77  F   UNL A   1      40.497  30.264  34.132  1.00  0.00    -0.206 F 
ATOM     78  C   UNL A   1      39.038  31.545  35.413  1.00  0.00     0.059 A 
ATOM     79  C   UNL A   1      38.012  33.515  34.522  1.00  0.00     0.059 A 
ATOM     80  F   UNL A   1      38.166  34.029  32.312  1.00  0.00    -0.206 F 
ATOM     81  C   UNL A   1      38.217  32.654  35.578  1.00  0.00     0.060 A 
BRANCH  81  82
ATOM     82  S   UNL A   1      37.408  32.957  37.158  1.00  0.00     0.124 S 
ATOM     83  O   UNL A   1      37.364  31.618  37.736  1.00  0.00    -0.237 OA
ATOM     84  O   UNL A   1      38.318  33.900  37.798  1.00  0.00    -0.237 OA
ATOM     85  O   UNL A   1      36.111  33.511  36.777  1.00  0.00    -0.744 OA
ENDBRANCH  81  82
ENDBRANCH  60  74
BRANCH  61  86
ATOM     86  C   UNL A   1      45.733  27.764  26.686  1.00  0.00     0.058 A 
ATOM     87  C   UNL A   1      46.714  26.754  26.735  1.00  0.00     0.135 A 
ATOM     88  C   UNL A   1      44.664  27.573  25.798  1.00  0.00     0.135 A 
ATOM     89  F   UNL A   1      47.773  26.888  27.552  1.00  0.00    -0.206 F 
ATOM     90  C   UNL A   1      46.547  25.531  26.085  1.00  0.00     0.059 A 
ATOM     91  C   UNL A   1      44.459  26.341  25.164  1.00  0.00     0.059 A 
ATOM     92  F   UNL A   1      43.721  28.515  25.668  1.00  0.00    -0.206 F 
ATOM     93  C   UNL A   1      45.373  25.306  25.369  1.00  0.00     0.060 A 
BRANCH  93  94
ATOM     94  S   UNL A   1      44.904  23.589  24.994  1.00  0.00     0.124 S 
ATOM     95  O   UNL A   1      43.495  23.724  24.654  1.00  0.00    -0.237 OA
ATOM     96  O   UNL A   1      45.796  23.261  23.883  1.00  0.00    -0.237 OA
ATOM     97  O   UNL A   1      45.207  22.894  26.239  1.00  0.00    -0.744 OA
ENDBRANCH  93  94
ENDBRANCH  61  86
BRANCH  73  98
ATOM     98  C   UNL A   1      43.995  34.507  28.526  1.00  0.00     0.058 A 
ATOM     99  C   UNL A   1      43.560  34.797  27.221  1.00  0.00     0.135 A 
ATOM    100  C   UNL A   1      44.060  35.610  29.411  1.00  0.00     0.135 A 
ATOM    101  F   UNL A   1      43.342  33.824  26.325  1.00  0.00    -0.206 F 
ATOM    102  C   UNL A   1      43.300  36.099  26.795  1.00  0.00     0.059 A 
ATOM    103  C   UNL A   1      43.744  36.907  29.024  1.00  0.00     0.059 A 
ATOM    104  F   UNL A   1      44.431  35.457  30.691  1.00  0.00    -0.206 F 
ATOM    105  C   UNL A   1      43.406  37.149  27.701  1.00  0.00     0.060 A 
BRANCH 105 106
ATOM    106  S   UNL A   1      43.092  38.835  27.152  1.00  0.00     0.124 S 
ATOM    107  O   UNL A   1      43.031  39.544  28.426  1.00  0.00    -0.237 OA
ATOM    108  O   UNL A   1      44.258  39.129  26.323  1.00  0.00    -0.237 OA
ATOM    109  O   UNL A   1      41.829  38.723  26.429  1.00  0.00    -0.744 OA
ENDBRANCH 105 106
ENDBRANCH  73  98
ENDBRANCH  47  48
ENDBRANCH  40  42
ENDBRANCH  39  40
ENDBRANCH  38  39
ENDBRANCH  37  38
ENDBRANCH  36  37
ENDBRANCH   1  36
TORSDOF 22
ENDMDL
MODEL 2
REMARK VINA RESULT:     -11.0      2.789      6.252
REMARK SMILES Cc1c(C(=O)Nc2ccc(C(=O)Nc3ccccc3C(=O)OCCOCCOC(=O)c3ccc(-c4c5nc(c(-c6c(F)cc(S(=O)(=O)[O-])cc6F)c6ccc([nH]6)c(-c6c(F)cc(S(=O)(=O)[O-])cc6F)c6nc(c(-c7c(F)cc(S(=O)(=O)[O-])cc7F)c7ccc4[nH]7)C=C6)C=C5)cc3)cc2)cccc1[N+](=O)[O-]
REMARK SMILES IDX 24 1 23 2 22 3 20 4 21 5 19 6 14 7 15 8 16 9 18 10 17 11
REMARK SMILES IDX 13 12 11 13 12 14 10 16 7 17 8 18 98 19 9 20 97 21 6 22 4 23
REMARK SMILES IDX 5 24 3 26 1 27 2 28 102 29 99 30 101 31 100 32 103 33 104 34
REMARK SMILES IDX 105 35 25 36 26 37 27 38 28 39 29 40 30 41 31 42 32 43 96 44
REMARK SMILES IDX 33 45 95 46 34 47 35 48 36 49 89 50 37 51 94 52 88 53 90 54
REMARK SMILES IDX 38 55 93 56 87 57 86 58 39 60 73 61 52 62 72 63 53 64 56 65
REMARK SMILES IDX 71 66 91 67 54 68 55 69 70 71 92 72 57 73 40 74 41 75 50 76
REMARK SMILES IDX 42 77 43 78 49 79 51 80 44 81 45 82 46 83 47 84 48 85 74 86
REMARK SMILES IDX 75 87 84 88 76 89 77 90 83 91 85 92 78 93 79 94 80 95 81 96
REMARK SMILES IDX 82 97 58 98 59 99 68 100 60 101 61 102 67 103 69 104 62 105
REMARK SMILES IDX 63 106 64 107 65 108 66 109
REMARK H PARENT 13 15 6 25 90 59 56 70
REMARK Flexibility Score: inf
ROOT
ATOM      1  C   UNL A   1      42.335  19.217  26.595  1.00  0.00     0.202 C 
ENDROOT
BRANCH   1   2
ATOM      2  C   UNL A   1      41.213  19.957  27.315  1.00  0.00     0.261 C 
BRANCH   2   3
ATOM      3  O   UNL A   1      40.280  20.790  26.592  1.00  0.00    -0.460 OA
BRANCH   3   4
ATOM      4  C   UNL A   1      39.239  20.394  25.809  1.00  0.00     0.340 C 
ATOM      5  O   UNL A   1      38.950  19.311  25.403  1.00  0.00    -0.246 OA
BRANCH   4   6
ATOM      6  C   UNL A   1      38.377  21.611  25.698  1.00  0.00     0.083 A 
ATOM      7  C   UNL A   1      37.020  21.533  25.338  1.00  0.00     0.056 A 
ATOM      8  C   UNL A   1      36.227  22.690  25.402  1.00  0.00     0.027 A 
ATOM      9  C   UNL A   1      36.747  23.887  25.892  1.00  0.00     0.002 A 
ATOM     10  C   UNL A   1      38.913  22.850  26.105  1.00  0.00     0.018 A 
ATOM     11  C   UNL A   1      38.094  23.972  26.231  1.00  0.00     0.001 A 
BRANCH   7  12
ATOM     12  N   UNL A   1      36.320  20.370  24.987  1.00  0.00    -0.321 N 
ATOM     13  C   UNL A   1      34.973  20.079  24.968  1.00  0.00     0.255 C 
ATOM     14  O   UNL A   1      34.638  18.984  24.504  1.00  0.00    -0.269 OA
ATOM     15  H   UNL A   1      36.897  19.623  24.704  1.00  0.00     0.170 HD
BRANCH  13  16
ATOM     16  C   UNL A   1      33.888  21.007  25.413  1.00  0.00     0.040 A 
ATOM     17  C   UNL A   1      31.588  22.479  26.128  1.00  0.00     0.041 A 
ATOM     18  C   UNL A   1      32.500  22.068  27.093  1.00  0.00     0.027 A 
ATOM     19  C   UNL A   1      31.826  22.164  24.793  1.00  0.00     0.027 A 
ATOM     20  C   UNL A   1      33.681  21.426  26.723  1.00  0.00     0.016 A 
ATOM     21  C   UNL A   1      32.973  21.441  24.438  1.00  0.00     0.016 A 
BRANCH  17  22
ATOM     22  N   UNL A   1      30.494  23.299  26.441  1.00  0.00    -0.322 N 
ATOM     23  C   UNL A   1      30.382  24.671  26.271  1.00  0.00     0.256 C 
ATOM     24  O   UNL A   1      29.380  25.278  26.640  1.00  0.00    -0.269 OA
ATOM     25  H   UNL A   1      29.709  22.847  26.828  1.00  0.00     0.170 HD
BRANCH  23  26
ATOM     26  C   UNL A   1      31.468  25.431  25.577  1.00  0.00     0.049 A 
ATOM     27  C   UNL A   1      30.110  25.847  23.468  1.00  0.00     0.053 C 
ATOM     28  C   UNL A   1      31.426  25.771  24.201  1.00  0.00     0.039 A 
ATOM     29  C   UNL A   1      32.665  26.022  23.572  1.00  0.00     0.273 A 
ATOM     30  C   UNL A   1      32.622  25.671  26.339  1.00  0.00     0.014 A 
ATOM     31  C   UNL A   1      33.825  26.239  24.339  1.00  0.00     0.086 A 
ATOM     32  C   UNL A   1      33.783  26.131  25.727  1.00  0.00     0.008 A 
BRANCH  29  33
ATOM     33  N   UNL A   1      32.848  25.898  22.107  1.00  0.00     0.063 N 
ATOM     34  O   UNL A   1      32.044  26.505  21.383  1.00  0.00    -0.258 OA
ATOM     35  O   UNL A   1      33.788  25.223  21.671  1.00  0.00    -0.258 OA
ENDBRANCH  29  33
ENDBRANCH  23  26
ENDBRANCH  17  22
ENDBRANCH  13  16
ENDBRANCH   7  12
ENDBRANCH   4   6
ENDBRANCH   3   4
ENDBRANCH   2   3
ENDBRANCH   1   2
BRANCH   1  36
ATOM     36  O   UNL A   1      42.722  19.845  25.391  1.00  0.00    -0.374 OA
BRANCH  36  37
ATOM     37  C   UNL A   1      44.023  20.397  25.436  1.00  0.00     0.202 C 
BRANCH  37  38
ATOM     38  C   UNL A   1      44.146  21.914  25.678  1.00  0.00     0.261 C 
BRANCH  38  39
ATOM     39  O   UNL A   1      42.995  22.766  25.951  1.00  0.00    -0.460 OA
BRANCH  39  40
ATOM     40  C   UNL A   1      42.743  24.062  25.621  1.00  0.00     0.338 C 
ATOM     41  O   UNL A   1      43.234  24.601  24.639  1.00  0.00    -0.246 OA
BRANCH  40  42
ATOM     42  C   UNL A   1      41.862  24.805  26.520  1.00  0.00     0.060 A 
ATOM     43  C   UNL A   1      41.184  25.945  26.067  1.00  0.00     0.016 A 
ATOM     44  C   UNL A   1      41.953  24.506  27.860  1.00  0.00     0.016 A 
ATOM     45  C   UNL A   1      40.795  26.917  26.994  1.00  0.00     0.010 A 
ATOM     46  C   UNL A   1      41.725  25.546  28.730  1.00  0.00     0.010 A 
ATOM     47  C   UNL A   1      41.189  26.777  28.328  1.00  0.00    -0.014 A 
BRANCH  47  48
ATOM     48  C   UNL A   1      41.282  27.884  29.301  1.00  0.00     0.031 A 
ATOM     49  C   UNL A   1      40.332  29.023  29.234  1.00  0.00     0.074 A 
ATOM     50  C   UNL A   1      42.213  27.912  30.283  1.00  0.00     0.049 A 
ATOM     51  N   UNL A   1      40.712  30.261  29.329  1.00  0.00    -0.248 NA
ATOM     52  C   UNL A   1      38.903  28.906  28.904  1.00  0.00     0.031 C 
ATOM     53  C   UNL A   1      42.233  28.756  31.474  1.00  0.00     0.029 A 
ATOM     54  N   UNL A   1      43.360  27.135  30.408  1.00  0.00    -0.354 N 
ATOM     55  C   UNL A   1      39.542  30.978  29.428  1.00  0.00     0.074 A 
ATOM     56  C   UNL A   1      38.568  30.186  28.755  1.00  0.00     0.031 C 
ATOM     57  C   UNL A   1      43.383  28.558  32.140  1.00  0.00     0.029 A 
ATOM     58  C   UNL A   1      44.243  27.699  31.338  1.00  0.00     0.049 A 
ATOM     59  H   UNL A   1      43.528  26.302  29.910  1.00  0.00     0.167 HD
ATOM     60  C   UNL A   1      39.396  31.957  30.364  1.00  0.00     0.037 A 
ATOM     61  C   UNL A   1      45.533  28.006  30.999  1.00  0.00     0.037 A 
ATOM     62  C   UNL A   1      40.676  32.259  31.012  1.00  0.00     0.049 A 
ATOM     63  C   UNL A   1      45.739  29.497  30.815  1.00  0.00     0.074 A 
ATOM     64  C   UNL A   1      41.123  32.171  32.318  1.00  0.00     0.029 A 
ATOM     65  N   UNL A   1      41.811  32.480  30.232  1.00  0.00    -0.354 N 
ATOM     66  N   UNL A   1      44.791  30.374  31.008  1.00  0.00    -0.248 NA
ATOM     67  C   UNL A   1      46.979  30.138  30.376  1.00  0.00     0.031 C 
ATOM     68  C   UNL A   1      42.547  32.242  32.299  1.00  0.00     0.029 A 
ATOM     69  C   UNL A   1      42.964  32.423  30.992  1.00  0.00     0.049 A 
ATOM     70  H   UNL A   1      41.793  32.655  29.263  1.00  0.00     0.167 HD
ATOM     71  C   UNL A   1      45.174  31.593  30.534  1.00  0.00     0.074 A 
ATOM     72  C   UNL A   1      46.583  31.419  30.236  1.00  0.00     0.031 C 
ATOM     73  C   UNL A   1      44.271  32.602  30.356  1.00  0.00     0.037 A 
BRANCH  60  74
ATOM     74  C   UNL A   1      38.040  32.483  30.846  1.00  0.00     0.058 A 
ATOM     75  C   UNL A   1      37.556  32.105  32.116  1.00  0.00     0.135 A 
ATOM     76  C   UNL A   1      37.143  33.312  30.121  1.00  0.00     0.135 A 
ATOM     77  F   UNL A   1      38.250  31.262  32.893  1.00  0.00    -0.206 F 
ATOM     78  C   UNL A   1      36.337  32.560  32.638  1.00  0.00     0.059 A 
ATOM     79  C   UNL A   1      35.967  33.844  30.652  1.00  0.00     0.059 A 
ATOM     80  F   UNL A   1      37.294  33.595  28.823  1.00  0.00    -0.206 F 
ATOM     81  C   UNL A   1      35.563  33.458  31.912  1.00  0.00     0.060 A 
BRANCH  81  82
ATOM     82  S   UNL A   1      34.030  34.100  32.604  1.00  0.00     0.124 S 
ATOM     83  O   UNL A   1      34.520  34.992  33.649  1.00  0.00    -0.237 OA
ATOM     84  O   UNL A   1      33.415  34.746  31.450  1.00  0.00    -0.237 OA
ATOM     85  O   UNL A   1      33.342  32.903  33.081  1.00  0.00    -0.744 OA
ENDBRANCH  81  82
ENDBRANCH  60  74
BRANCH  61  86
ATOM     86  C   UNL A   1      46.242  26.902  30.286  1.00  0.00     0.058 A 
ATOM     87  C   UNL A   1      46.363  27.013  28.886  1.00  0.00     0.135 A 
ATOM     88  C   UNL A   1      47.173  26.083  30.943  1.00  0.00     0.135 A 
ATOM     89  F   UNL A   1      45.490  27.766  28.196  1.00  0.00    -0.206 F 
ATOM     90  C   UNL A   1      47.462  26.498  28.197  1.00  0.00     0.059 A 
ATOM     91  C   UNL A   1      48.300  25.588  30.278  1.00  0.00     0.059 A 
ATOM     92  F   UNL A   1      47.087  25.898  32.268  1.00  0.00    -0.206 F 
ATOM     93  C   UNL A   1      48.468  25.859  28.919  1.00  0.00     0.060 A 
BRANCH  93  94
ATOM     94  S   UNL A   1      50.105  25.680  28.148  1.00  0.00     0.124 S 
ATOM     95  O   UNL A   1      50.087  24.291  27.712  1.00  0.00    -0.237 OA
ATOM     96  O   UNL A   1      50.056  26.681  27.084  1.00  0.00    -0.237 OA
ATOM     97  O   UNL A   1      51.012  26.004  29.243  1.00  0.00    -0.744 OA
ENDBRANCH  93  94
ENDBRANCH  61  86
BRANCH  73  98
ATOM     98  C   UNL A   1      44.539  33.863  29.574  1.00  0.00     0.058 A 
ATOM     99  C   UNL A   1      44.689  33.906  28.177  1.00  0.00     0.135 A 
ATOM    100  C   UNL A   1      44.510  35.118  30.228  1.00  0.00     0.135 A 
ATOM    101  F   UNL A   1      44.612  32.796  27.430  1.00  0.00    -0.206 F 
ATOM    102  C   UNL A   1      44.893  35.101  27.487  1.00  0.00     0.059 A 
ATOM    103  C   UNL A   1      44.646  36.325  29.551  1.00  0.00     0.059 A 
ATOM    104  F   UNL A   1      44.341  35.210  31.556  1.00  0.00    -0.206 F 
ATOM    105  C   UNL A   1      44.881  36.305  28.184  1.00  0.00     0.060 A 
BRANCH 105 106
ATOM    106  S   UNL A   1      45.164  37.849  27.302  1.00  0.00     0.124 S 
ATOM    107  O   UNL A   1      43.818  38.159  26.832  1.00  0.00    -0.237 OA
ATOM    108  O   UNL A   1      45.686  38.727  28.345  1.00  0.00    -0.237 OA
ATOM    109  O   UNL A   1      46.124  37.474  26.268  1.00  0.00    -0.744 OA
ENDBRANCH 105 106
ENDBRANCH  73  98
ENDBRANCH  47  48
ENDBRANCH  40  42
ENDBRANCH  39  40
ENDBRANCH  38  39
ENDBRANCH  37  38
ENDBRANCH  36  37
ENDBRANCH   1  36
TORSDOF 22
ENDMDL
MODEL 3
REMARK VINA RESULT:     -10.9      1.477      1.978
REMARK SMILES Cc1c(C(=O)Nc2ccc(C(=O)Nc3ccccc3C(=O)OCCOCCOC(=O)c3ccc(-c4c5nc(c(-c6c(F)cc(S(=O)(=O)[O-])cc6F)c6ccc([nH]6)c(-c6c(F)cc(S(=O)(=O)[O-])cc6F)c6nc(c(-c7c(F)cc(S(=O)(=O)[O-])cc7F)c7ccc4[nH]7)C=C6)C=C5)cc3)cc2)cccc1[N+](=O)[O-]
REMARK SMILES IDX 24 1 23 2 22 3 20 4 21 5 19 6 14 7 15 8 16 9 18 10 17 11
REMARK SMILES IDX 13 12 11 13 12 14 10 16 7 17 8 18 98 19 9 20 97 21 6 22 4 23
REMARK SMILES IDX 5 24 3 26 1 27 2 28 102 29 99 30 101 31 100 32 103 33 104 34
REMARK SMILES IDX 105 35 25 36 26 37 27 38 28 39 29 40 30 41 31 42 32 43 96 44
REMARK SMILES IDX 33 45 95 46 34 47 35 48 36 49 89 50 37 51 94 52 88 53 90 54
REMARK SMILES IDX 38 55 93 56 87 57 86 58 39 60 73 61 52 62 72 63 53 64 56 65
REMARK SMILES IDX 71 66 91 67 54 68 55 69 70 71 92 72 57 73 40 74 41 75 50 76
REMARK SMILES IDX 42 77 43 78 49 79 51 80 44 81 45 82 46 83 47 84 48 85 74 86
REMARK SMILES IDX 75 87 84 88 76 89 77 90 83 91 85 92 78 93 79 94 80 95 81 96
REMARK SMILES IDX 82 97 58 98 59 99 68 100 60 101 61 102 67 103 69 104 62 105
REMARK SMILES IDX 63 106 64 107 65 108 66 109
REMARK H PARENT 13 15 6 25 90 59 56 70
REMARK Flexibility Score: inf
ROOT
ATOM      1  C   UNL A   1      34.894  24.459  25.284  1.00  0.00     0.202 C 
ENDROOT
BRANCH   1   2
ATOM      2  C   UNL A   1      33.476  25.012  25.368  1.00  0.00     0.261 C 
BRANCH   2   3
ATOM      3  O   UNL A   1      32.990  25.981  24.412  1.00  0.00    -0.460 OA
BRANCH   3   4
ATOM      4  C   UNL A   1      33.406  27.265  24.239  1.00  0.00     0.340 C 
ATOM      5  O   UNL A   1      34.505  27.727  24.258  1.00  0.00    -0.246 OA
BRANCH   4   6
ATOM      6  C   UNL A   1      32.173  27.998  23.817  1.00  0.00     0.083 A 
ATOM      7  C   UNL A   1      31.118  28.258  24.710  1.00  0.00     0.056 A 
ATOM      8  C   UNL A   1      30.060  29.083  24.298  1.00  0.00     0.027 A 
ATOM      9  C   UNL A   1      30.083  29.706  23.051  1.00  0.00     0.002 A 
ATOM     10  C   UNL A   1      32.137  28.561  22.525  1.00  0.00     0.018 A 
ATOM     11  C   UNL A   1      31.114  29.435  22.158  1.00  0.00     0.001 A 
BRANCH   7  12
ATOM     12  N   UNL A   1      31.040  27.840  26.047  1.00  0.00    -0.321 N 
ATOM     13  C   UNL A   1      31.767  28.193  27.164  1.00  0.00     0.255 C 
ATOM     14  O   UNL A   1      31.397  27.730  28.248  1.00  0.00    -0.269 OA
ATOM     15  H   UNL A   1      30.339  27.171  26.218  1.00  0.00     0.170 HD
BRANCH  13  16
ATOM     16  C   UNL A   1      32.930  29.133  27.170  1.00  0.00     0.040 A 
ATOM     17  C   UNL A   1      34.960  31.066  27.504  1.00  0.00     0.041 A 
ATOM     18  C   UNL A   1      35.247  29.709  27.589  1.00  0.00     0.027 A 
ATOM     19  C   UNL A   1      33.652  31.467  27.241  1.00  0.00     0.027 A 
ATOM     20  C   UNL A   1      34.260  28.759  27.327  1.00  0.00     0.016 A 
ATOM     21  C   UNL A   1      32.647  30.506  27.066  1.00  0.00     0.016 A 
BRANCH  17  22
ATOM     22  N   UNL A   1      35.965  32.043  27.562  1.00  0.00    -0.322 N 
ATOM     23  C   UNL A   1      36.350  32.804  28.655  1.00  0.00     0.256 C 
ATOM     24  O   UNL A   1      37.216  33.669  28.555  1.00  0.00    -0.269 OA
ATOM     25  H   UNL A   1      36.457  32.209  26.726  1.00  0.00     0.170 HD
BRANCH  23  26
ATOM     26  C   UNL A   1      35.750  32.540  30.001  1.00  0.00     0.049 A 
ATOM     27  C   UNL A   1      33.858  34.215  29.712  1.00  0.00     0.053 C 
ATOM     28  C   UNL A   1      34.743  33.354  30.579  1.00  0.00     0.039 A 
ATOM     29  C   UNL A   1      34.627  33.315  31.986  1.00  0.00     0.273 A 
ATOM     30  C   UNL A   1      36.350  31.509  30.740  1.00  0.00     0.014 A 
ATOM     31  C   UNL A   1      35.250  32.292  32.726  1.00  0.00     0.086 A 
ATOM     32  C   UNL A   1      36.053  31.350  32.089  1.00  0.00     0.008 A 
BRANCH  29  33
ATOM     33  N   UNL A   1      34.011  34.417  32.759  1.00  0.00     0.063 N 
ATOM     34  O   UNL A   1      32.772  34.491  32.751  1.00  0.00    -0.258 OA
ATOM     35  O   UNL A   1      34.738  35.195  33.388  1.00  0.00    -0.258 OA
ENDBRANCH  29  33
ENDBRANCH  23  26
ENDBRANCH  17  22
ENDBRANCH  13  16
ENDBRANCH   7  12
ENDBRANCH   4   6
ENDBRANCH   3   4
ENDBRANCH   2   3
ENDBRANCH   1   2
BRANCH   1  36
ATOM     36  O   UNL A   1      34.934  23.119  24.842  1.00  0.00    -0.374 OA
BRANCH  36  37
ATOM     37  C   UNL A   1      36.030  22.839  23.992  1.00  0.00     0.202 C 
BRANCH  37  38
ATOM     38  C   UNL A   1      37.304  22.262  24.639  1.00  0.00     0.261 C 
BRANCH  38  39
ATOM     39  O   UNL A   1      37.838  22.749  25.905  1.00  0.00    -0.460 OA
BRANCH  39  40
ATOM     40  C   UNL A   1      39.109  23.054  26.282  1.00  0.00     0.338 C 
ATOM     41  O   UNL A   1      39.999  22.216  26.342  1.00  0.00    -0.246 OA
BRANCH  40  42
ATOM     42  C   UNL A   1      39.367  24.447  26.644  1.00  0.00     0.060 A 
ATOM     43  C   UNL A   1      40.428  25.147  26.056  1.00  0.00     0.016 A 
ATOM     44  C   UNL A   1      38.717  24.925  27.760  1.00  0.00     0.016 A 
ATOM     45  C   UNL A   1      40.991  26.228  26.742  1.00  0.00     0.010 A 
ATOM     46  C   UNL A   1      39.393  25.869  28.496  1.00  0.00     0.010 A 
ATOM     47  C   UNL A   1      40.553  26.510  28.039  1.00  0.00    -0.014 A 
BRANCH  47  48
ATOM     48  C   UNL A   1      41.326  27.265  29.046  1.00  0.00     0.031 A 
ATOM     49  C   UNL A   1      40.714  28.422  29.746  1.00  0.00     0.074 A 
ATOM     50  C   UNL A   1      42.598  26.944  29.377  1.00  0.00     0.049 A 
ATOM     51  N   UNL A   1      41.334  29.551  29.912  1.00  0.00    -0.248 NA
ATOM     52  C   UNL A   1      39.314  28.490  30.191  1.00  0.00     0.031 C 
ATOM     53  C   UNL A   1      43.360  27.388  30.539  1.00  0.00     0.029 A 
ATOM     54  N   UNL A   1      43.478  26.102  28.704  1.00  0.00    -0.354 N 
ATOM     55  C   UNL A   1      40.530  30.269  30.766  1.00  0.00     0.074 A 
ATOM     56  C   UNL A   1      39.215  29.772  30.537  1.00  0.00     0.031 C 
ATOM     57  C   UNL A   1      44.622  26.934  30.445  1.00  0.00     0.029 A 
ATOM     58  C   UNL A   1      44.794  26.311  29.140  1.00  0.00     0.049 A 
ATOM     59  H   UNL A   1      43.214  25.450  28.016  1.00  0.00     0.167 HD
ATOM     60  C   UNL A   1      41.056  30.927  31.837  1.00  0.00     0.037 A 
ATOM     61  C   UNL A   1      45.793  26.633  28.260  1.00  0.00     0.037 A 
ATOM     62  C   UNL A   1      42.520  30.948  31.775  1.00  0.00     0.049 A 
ATOM     63  C   UNL A   1      46.181  28.096  28.345  1.00  0.00     0.074 A 
ATOM     64  C   UNL A   1      43.513  30.446  32.596  1.00  0.00     0.029 A 
ATOM     65  N   UNL A   1      43.156  31.331  30.593  1.00  0.00    -0.354 N 
ATOM     66  N   UNL A   1      45.643  28.926  29.198  1.00  0.00    -0.248 NA
ATOM     67  C   UNL A   1      47.156  28.770  27.486  1.00  0.00     0.031 C 
ATOM     68  C   UNL A   1      44.732  30.440  31.857  1.00  0.00     0.029 A 
ATOM     69  C   UNL A   1      44.494  30.983  30.606  1.00  0.00     0.049 A 
ATOM     70  H   UNL A   1      42.709  31.789  29.846  1.00  0.00     0.167 HD
ATOM     71  C   UNL A   1      45.989  30.207  28.889  1.00  0.00     0.074 A 
ATOM     72  C   UNL A   1      47.011  30.053  27.871  1.00  0.00     0.031 C 
ATOM     73  C   UNL A   1      45.337  31.271  29.445  1.00  0.00     0.037 A 
BRANCH  60  74
ATOM     74  C   UNL A   1      40.239  31.358  33.059  1.00  0.00     0.058 A 
ATOM     75  C   UNL A   1      39.997  32.728  33.290  1.00  0.00     0.135 A 
ATOM     76  C   UNL A   1      39.700  30.511  34.064  1.00  0.00     0.135 A 
ATOM     77  F   UNL A   1      40.505  33.663  32.474  1.00  0.00    -0.206 F 
ATOM     78  C   UNL A   1      39.241  33.203  34.372  1.00  0.00     0.059 A 
ATOM     79  C   UNL A   1      38.875  30.953  35.100  1.00  0.00     0.059 A 
ATOM     80  F   UNL A   1      40.003  29.213  34.168  1.00  0.00    -0.206 F 
ATOM     81  C   UNL A   1      38.654  32.305  35.255  1.00  0.00     0.060 A 
BRANCH  81  82
ATOM     82  S   UNL A   1      37.626  32.902  36.606  1.00  0.00     0.124 S 
ATOM     83  O   UNL A   1      36.405  33.291  35.908  1.00  0.00    -0.237 OA
ATOM     84  O   UNL A   1      37.524  31.726  37.463  1.00  0.00    -0.237 OA
ATOM     85  O   UNL A   1      38.401  34.007  37.164  1.00  0.00    -0.744 OA
ENDBRANCH  81  82
ENDBRANCH  60  74
BRANCH  61  86
ATOM     86  C   UNL A   1      45.829  25.757  27.051  1.00  0.00     0.058 A 
ATOM     87  C   UNL A   1      46.395  24.475  27.203  1.00  0.00     0.135 A 
ATOM     88  C   UNL A   1      44.932  25.936  25.988  1.00  0.00     0.135 A 
ATOM     89  F   UNL A   1      47.277  24.244  28.190  1.00  0.00    -0.206 F 
ATOM     90  C   UNL A   1      45.949  23.379  26.463  1.00  0.00     0.059 A 
ATOM     91  C   UNL A   1      44.445  24.846  25.258  1.00  0.00     0.059 A 
ATOM     92  F   UNL A   1      44.393  27.142  25.760  1.00  0.00    -0.206 F 
ATOM     93  C   UNL A   1      44.912  23.563  25.550  1.00  0.00     0.060 A 
BRANCH  93  94
ATOM     94  S   UNL A   1      43.975  22.104  25.001  1.00  0.00     0.124 S 
ATOM     95  O   UNL A   1      42.633  22.646  24.843  1.00  0.00    -0.237 OA
ATOM     96  O   UNL A   1      44.664  21.742  23.764  1.00  0.00    -0.237 OA
ATOM     97  O   UNL A   1      44.170  21.166  26.100  1.00  0.00    -0.744 OA
ENDBRANCH  93  94
ENDBRANCH  61  86
BRANCH  73  98
ATOM     98  C   UNL A   1      45.444  32.693  28.951  1.00  0.00     0.058 A 
ATOM     99  C   UNL A   1      44.606  33.251  27.971  1.00  0.00     0.135 A 
ATOM    100  C   UNL A   1      46.337  33.592  29.581  1.00  0.00     0.135 A 
ATOM    101  F   UNL A   1      43.636  32.533  27.387  1.00  0.00    -0.206 F 
ATOM    102  C   UNL A   1      44.709  34.585  27.575  1.00  0.00     0.059 A 
ATOM    103  C   UNL A   1      46.412  34.940  29.246  1.00  0.00     0.059 A 
ATOM    104  F   UNL A   1      47.167  33.186  30.554  1.00  0.00    -0.206 F 
ATOM    105  C   UNL A   1      45.624  35.418  28.210  1.00  0.00     0.060 A 
BRANCH 105 106
ATOM    106  S   UNL A   1      45.778  37.135  27.688  1.00  0.00     0.124 S 
ATOM    107  O   UNL A   1      44.604  37.731  28.318  1.00  0.00    -0.237 OA
ATOM    108  O   UNL A   1      47.065  37.531  28.251  1.00  0.00    -0.237 OA
ATOM    109  O   UNL A   1      45.738  37.048  26.231  1.00  0.00    -0.744 OA
ENDBRANCH 105 106
ENDBRANCH  73  98
ENDBRANCH  47  48
ENDBRANCH  40  42
ENDBRANCH  39  40
ENDBRANCH  38  39
ENDBRANCH  37  38
ENDBRANCH  36  37
ENDBRANCH   1  36
TORSDOF 22
ENDMDL
