MODEL 1
REMARK VINA RESULT:     -10.9      0.000      0.000
REMARK SMILES C[C@@H]1CCCCN1S(=O)(=O)c1ccc(CCC(=O)OCCOCCOC(=O)c2ccc(-c3c4nc(c(-c5c(F)cc(S(=O)(=O)[O-])cc5F)c5ccc([nH]5)c(-c5c(F)cc(S(=O)(=O)[O-])cc5F)c5nc(c(-c6c(F)cc(S(=O)(=O)[O-])cc6F)c6ccc3[nH]6)C=C5)C=C4)cc2)cc1
REMARK SMILES IDX 21 1 20 2 19 3 17 4 18 5 16 6 15 7 14 8 11 9 12 10 95 11
REMARK SMILES IDX 13 12 94 13 8 14 9 15 10 16 7 17 1 18 2 19 3 20 4 21 6 22
REMARK SMILES IDX 5 23 22 24 23 25 24 26 25 27 26 28 27 29 28 30 29 31 93 32
REMARK SMILES IDX 30 33 92 34 31 35 32 36 33 37 86 38 34 39 91 40 85 41 87 42
REMARK SMILES IDX 35 43 90 44 84 45 83 46 36 48 70 49 49 50 69 51 50 52 53 53
REMARK SMILES IDX 68 54 88 55 51 56 52 57 67 59 89 60 54 61 37 62 38 63 47 64
REMARK SMILES IDX 39 65 40 66 46 67 48 68 41 69 42 70 43 71 44 72 45 73 71 74
REMARK SMILES IDX 72 75 81 76 73 77 74 78 80 79 82 80 75 81 76 82 77 83 78 84
REMARK SMILES IDX 79 85 55 86 56 87 65 88 57 89 58 90 64 91 66 92 59 93 60 94
REMARK SMILES IDX 61 95 62 96 63 97
REMARK H PARENT 87 47 53 58
REMARK Flexibility Score: inf
ROOT
ATOM      1  C   UNL A   1      33.309  35.273  29.476  1.00  0.00     0.202 C 
ENDROOT
BRANCH   1   2
ATOM      2  C   UNL A   1      34.018  34.730  28.229  1.00  0.00     0.261 C 
BRANCH   2   3
ATOM      3  O   UNL A   1      33.793  33.313  28.063  1.00  0.00    -0.463 OA
BRANCH   3   4
ATOM      4  C   UNL A   1      34.874  32.515  27.885  1.00  0.00     0.306 C 
ATOM      5  O   UNL A   1      36.029  32.905  27.760  1.00  0.00    -0.252 OA
BRANCH   4   6
ATOM      6  C   UNL A   1      34.490  31.052  27.882  1.00  0.00     0.127 C 
BRANCH   6   7
ATOM      7  C   UNL A   1      33.250  30.733  27.038  1.00  0.00     0.047 C 
BRANCH   7   8
ATOM      8  C   UNL A   1      32.953  29.253  26.952  1.00  0.00    -0.047 A 
ATOM      9  C   UNL A   1      32.266  26.551  26.538  1.00  0.00     0.082 A 
ATOM     10  C   UNL A   1      31.398  27.405  27.217  1.00  0.00     0.022 A 
ATOM     11  C   UNL A   1      33.492  27.042  26.088  1.00  0.00     0.022 A 
ATOM     12  C   UNL A   1      31.753  28.734  27.442  1.00  0.00     0.005 A 
ATOM     13  C   UNL A   1      33.835  28.384  26.302  1.00  0.00     0.005 A 
BRANCH   9  14
ATOM     14  S   UNL A   1      31.653  24.953  26.029  1.00  0.00     0.243 S 
ATOM     15  O   UNL A   1      30.581  25.189  25.089  1.00  0.00    -0.207 OA
ATOM     16  O   UNL A   1      31.401  24.227  27.255  1.00  0.00    -0.207 OA
BRANCH  14  17
ATOM     17  N   UNL A   1      32.942  24.151  25.237  1.00  0.00    -0.195 NA
ATOM     18  C   UNL A   1      31.698  21.971  24.782  1.00  0.00     0.026 C 
ATOM     19  C   UNL A   1      32.661  23.040  24.267  1.00  0.00     0.070 C 
ATOM     20  C   UNL A   1      33.965  22.327  23.840  1.00  0.00     0.020 C 
ATOM     21  C   UNL A   1      35.185  23.223  23.946  1.00  0.00     0.003 C 
ATOM     22  C   UNL A   1      34.072  23.826  26.165  1.00  0.00     0.103 C 
ATOM     23  C   UNL A   1      35.381  23.687  25.384  1.00  0.00     0.017 C 
ENDBRANCH  14  17
ENDBRANCH   9  14
ENDBRANCH   7   8
ENDBRANCH   6   7
ENDBRANCH   4   6
ENDBRANCH   3   4
ENDBRANCH   2   3
ENDBRANCH   1   2
BRANCH   1  24
ATOM     24  O   UNL A   1      33.339  34.379  30.594  1.00  0.00    -0.374 OA
BRANCH  24  25
ATOM     25  C   UNL A   1      34.620  34.165  31.183  1.00  0.00     0.202 C 
BRANCH  25  26
ATOM     26  C   UNL A   1      34.902  32.709  31.566  1.00  0.00     0.261 C 
BRANCH  26  27
ATOM     27  O   UNL A   1      36.172  32.270  31.053  1.00  0.00    -0.460 OA
BRANCH  27  28
ATOM     28  C   UNL A   1      36.890  31.482  31.891  1.00  0.00     0.338 C 
ATOM     29  O   UNL A   1      36.615  31.203  33.045  1.00  0.00    -0.246 OA
BRANCH  28  30
ATOM     30  C   UNL A   1      38.014  30.858  31.159  1.00  0.00     0.060 A 
ATOM     31  C   UNL A   1      39.035  30.278  31.920  1.00  0.00     0.016 A 
ATOM     32  C   UNL A   1      38.095  30.861  29.764  1.00  0.00     0.016 A 
ATOM     33  C   UNL A   1      40.157  29.732  31.292  1.00  0.00     0.010 A 
ATOM     34  C   UNL A   1      39.217  30.300  29.136  1.00  0.00     0.010 A 
ATOM     35  C   UNL A   1      40.271  29.759  29.896  1.00  0.00    -0.014 A 
BRANCH  35  36
ATOM     36  C   UNL A   1      41.552  29.358  29.251  1.00  0.00     0.031 A 
ATOM     37  C   UNL A   1      42.624  30.398  29.051  1.00  0.00     0.074 A 
ATOM     38  C   UNL A   1      41.786  28.083  28.880  1.00  0.00     0.049 A 
ATOM     39  N   UNL A   1      43.812  30.275  28.515  1.00  0.00    -0.248 NA
ATOM     40  C   UNL A   1      42.317  31.759  29.519  1.00  0.00     0.031 C 
ATOM     41  C   UNL A   1      40.846  26.974  29.020  1.00  0.00     0.029 A 
ATOM     42  N   UNL A   1      42.892  27.511  28.296  1.00  0.00    -0.354 N 
ATOM     43  C   UNL A   1      44.392  31.535  28.586  1.00  0.00     0.074 A 
ATOM     44  C   UNL A   1      43.407  32.423  29.166  1.00  0.00     0.031 C 
ATOM     45  C   UNL A   1      41.402  25.858  28.515  1.00  0.00     0.029 A 
ATOM     46  C   UNL A   1      42.736  26.175  28.009  1.00  0.00     0.049 A 
ATOM     47  H   UNL A   1      43.717  28.010  28.100  1.00  0.00     0.167 HD
ATOM     48  C   UNL A   1      45.641  31.919  28.230  1.00  0.00     0.037 A 
ATOM     49  C   UNL A   1      43.568  25.307  27.400  1.00  0.00     0.037 A 
ATOM     50  C   UNL A   1      46.633  31.040  27.672  1.00  0.00     0.049 A 
ATOM     51  C   UNL A   1      44.934  25.768  26.963  1.00  0.00     0.074 A 
ATOM     52  C   UNL A   1      47.936  31.334  27.308  1.00  0.00     0.029 A 
ATOM     53  N   UNL A   1      46.436  29.694  27.400  1.00  0.00    -0.354 N 
ATOM     54  N   UNL A   1      45.479  26.955  27.073  1.00  0.00    -0.248 NA
ATOM     55  C   UNL A   1      45.805  24.764  26.331  1.00  0.00     0.031 C 
ATOM     56  C   UNL A   1      48.516  30.175  26.783  1.00  0.00     0.029 A 
ATOM     57  C   UNL A   1      47.588  29.150  26.857  1.00  0.00     0.049 A 
ATOM     58  H   UNL A   1      45.602  29.201  27.568  1.00  0.00     0.167 HD
ATOM     59  C   UNL A   1      46.768  26.832  26.561  1.00  0.00     0.074 A 
ATOM     60  C   UNL A   1      46.921  25.454  26.141  1.00  0.00     0.031 C 
ATOM     61  C   UNL A   1      47.737  27.773  26.458  1.00  0.00     0.037 A 
BRANCH  48  62
ATOM     62  C   UNL A   1      46.005  33.361  28.440  1.00  0.00     0.058 A 
ATOM     63  C   UNL A   1      46.568  33.806  29.647  1.00  0.00     0.135 A 
ATOM     64  C   UNL A   1      45.809  34.304  27.419  1.00  0.00     0.135 A 
ATOM     65  F   UNL A   1      46.758  32.947  30.661  1.00  0.00    -0.206 F 
ATOM     66  C   UNL A   1      46.898  35.142  29.845  1.00  0.00     0.059 A 
ATOM     67  C   UNL A   1      46.155  35.641  27.586  1.00  0.00     0.059 A 
ATOM     68  F   UNL A   1      45.271  33.931  26.247  1.00  0.00    -0.206 F 
ATOM     69  C   UNL A   1      46.685  36.053  28.809  1.00  0.00     0.060 A 
BRANCH  69  70
ATOM     70  S   UNL A   1      47.115  37.785  29.079  1.00  0.00     0.124 S 
ATOM     71  O   UNL A   1      46.047  38.467  28.354  1.00  0.00    -0.237 OA
ATOM     72  O   UNL A   1      47.064  37.898  30.534  1.00  0.00    -0.237 OA
ATOM     73  O   UNL A   1      48.446  37.900  28.490  1.00  0.00    -0.744 OA
ENDBRANCH  69  70
ENDBRANCH  48  62
BRANCH  49  74
ATOM     74  C   UNL A   1      43.144  23.899  27.171  1.00  0.00     0.058 A 
ATOM     75  C   UNL A   1      42.709  23.470  25.909  1.00  0.00     0.135 A 
ATOM     76  C   UNL A   1      43.137  22.964  28.217  1.00  0.00     0.135 A 
ATOM     77  F   UNL A   1      42.683  24.332  24.881  1.00  0.00    -0.206 F 
ATOM     78  C   UNL A   1      42.259  22.172  25.695  1.00  0.00     0.059 A 
ATOM     79  C   UNL A   1      42.715  21.653  28.024  1.00  0.00     0.059 A 
ATOM     80  F   UNL A   1      43.545  23.326  29.444  1.00  0.00    -0.206 F 
ATOM     81  C   UNL A   1      42.263  21.270  26.760  1.00  0.00     0.060 A 
BRANCH  81  82
ATOM     82  S   UNL A   1      41.693  19.580  26.468  1.00  0.00     0.124 S 
ATOM     83  O   UNL A   1      40.257  19.777  26.314  1.00  0.00    -0.237 OA
ATOM     84  O   UNL A   1      42.420  19.214  25.256  1.00  0.00    -0.237 OA
ATOM     85  O   UNL A   1      42.108  18.872  27.675  1.00  0.00    -0.744 OA
ENDBRANCH  81  82
ENDBRANCH  49  74
BRANCH  61  86
ATOM     86  C   UNL A   1      49.071  27.344  25.911  1.00  0.00     0.058 A 
ATOM     87  C   UNL A   1      49.333  27.327  24.533  1.00  0.00     0.135 A 
ATOM     88  C   UNL A   1      50.118  27.004  26.783  1.00  0.00     0.135 A 
ATOM     89  F   UNL A   1      48.364  27.640  23.657  1.00  0.00    -0.206 F 
ATOM     90  C   UNL A   1      50.582  26.968  24.036  1.00  0.00     0.059 A 
ATOM     91  C   UNL A   1      51.382  26.665  26.309  1.00  0.00     0.059 A 
ATOM     92  F   UNL A   1      49.923  27.015  28.110  1.00  0.00    -0.206 F 
ATOM     93  C   UNL A   1      51.601  26.640  24.933  1.00  0.00     0.060 A 
BRANCH  93  94
ATOM     94  S   UNL A   1      53.231  26.217  24.279  1.00  0.00     0.124 S 
ATOM     95  O   UNL A   1      53.427  24.877  24.825  1.00  0.00    -0.237 OA
ATOM     96  O   UNL A   1      53.020  26.289  22.837  1.00  0.00    -0.237 OA
ATOM     97  O   UNL A   1      54.097  27.254  24.832  1.00  0.00    -0.744 OA
ENDBRANCH  93  94
ENDBRANCH  61  86
ENDBRANCH  35  36
ENDBRANCH  28  30
ENDBRANCH  27  28
ENDBRANCH  26  27
ENDBRANCH  25  26
ENDBRANCH  24  25
ENDBRANCH   1  24
TORSDOF 21
ENDMDL
MODEL 2
REMARK VINA RESULT:     -10.4      6.020     12.320
REMARK SMILES C[C@@H]1CCCCN1S(=O)(=O)c1ccc(CCC(=O)OCCOCCOC(=O)c2ccc(-c3c4nc(c(-c5c(F)cc(S(=O)(=O)[O-])cc5F)c5ccc([nH]5)c(-c5c(F)cc(S(=O)(=O)[O-])cc5F)c5nc(c(-c6c(F)cc(S(=O)(=O)[O-])cc6F)c6ccc3[nH]6)C=C5)C=C4)cc2)cc1
REMARK SMILES IDX 21 1 20 2 19 3 17 4 18 5 16 6 15 7 14 8 11 9 12 10 95 11
REMARK SMILES IDX 13 12 94 13 8 14 9 15 10 16 7 17 1 18 2 19 3 20 4 21 6 22
REMARK SMILES IDX 5 23 22 24 23 25 24 26 25 27 26 28 27 29 28 30 29 31 93 32
REMARK SMILES IDX 30 33 92 34 31 35 32 36 33 37 86 38 34 39 91 40 85 41 87 42
REMARK SMILES IDX 35 43 90 44 84 45 83 46 36 48 70 49 49 50 69 51 50 52 53 53
REMARK SMILES IDX 68 54 88 55 51 56 52 57 67 59 89 60 54 61 37 62 38 63 47 64
REMARK SMILES IDX 39 65 40 66 46 67 48 68 41 69 42 70 43 71 44 72 45 73 71 74
REMARK SMILES IDX 72 75 81 76 73 77 74 78 80 79 82 80 75 81 76 82 77 83 78 84
REMARK SMILES IDX 79 85 55 86 56 87 65 88 57 89 58 90 64 91 66 92 59 93 60 94
REMARK SMILES IDX 61 95 62 96 63 97
REMARK H PARENT 87 47 53 58
REMARK Flexibility Score: inf
ROOT
ATOM      1  C   UNL A   1      41.718  21.027  26.122  1.00  0.00     0.202 C 
ENDROOT
BRANCH   1   2
ATOM      2  C   UNL A   1      40.226  20.821  26.418  1.00  0.00     0.261 C 
BRANCH   2   3
ATOM      3  O   UNL A   1      39.488  22.058  26.312  1.00  0.00    -0.463 OA
BRANCH   3   4
ATOM      4  C   UNL A   1      38.288  22.028  25.681  1.00  0.00     0.306 C 
ATOM      5  O   UNL A   1      37.787  21.041  25.160  1.00  0.00    -0.252 OA
BRANCH   4   6
ATOM      6  C   UNL A   1      37.609  23.379  25.718  1.00  0.00     0.127 C 
BRANCH   6   7
ATOM      7  C   UNL A   1      36.144  23.331  26.166  1.00  0.00     0.047 C 
BRANCH   7   8
ATOM      8  C   UNL A   1      35.197  23.980  25.182  1.00  0.00    -0.047 A 
ATOM      9  C   UNL A   1      33.669  25.305  23.219  1.00  0.00     0.082 A 
ATOM     10  C   UNL A   1      33.969  25.935  24.427  1.00  0.00     0.022 A 
ATOM     11  C   UNL A   1      34.113  24.000  23.003  1.00  0.00     0.022 A 
ATOM     12  C   UNL A   1      34.702  25.265  25.405  1.00  0.00     0.005 A 
ATOM     13  C   UNL A   1      34.865  23.340  23.983  1.00  0.00     0.005 A 
BRANCH   9  14
ATOM     14  S   UNL A   1      32.980  26.292  21.900  1.00  0.00     0.243 S 
ATOM     15  O   UNL A   1      32.601  25.384  20.843  1.00  0.00    -0.207 OA
ATOM     16  O   UNL A   1      33.950  27.338  21.652  1.00  0.00    -0.207 OA
BRANCH  14  17
ATOM     17  N   UNL A   1      31.581  27.057  22.526  1.00  0.00    -0.195 NA
ATOM     18  C   UNL A   1      32.791  28.964  23.711  1.00  0.00     0.026 C 
ATOM     19  C   UNL A   1      31.603  28.521  22.859  1.00  0.00     0.070 C 
ATOM     20  C   UNL A   1      30.314  28.945  23.599  1.00  0.00     0.020 C 
ATOM     21  C   UNL A   1      29.130  28.052  23.275  1.00  0.00     0.003 C 
ATOM     22  C   UNL A   1      30.905  26.241  23.584  1.00  0.00     0.103 C 
ATOM     23  C   UNL A   1      29.424  26.612  23.681  1.00  0.00     0.017 C 
ENDBRANCH  14  17
ENDBRANCH   9  14
ENDBRANCH   7   8
ENDBRANCH   6   7
ENDBRANCH   4   6
ENDBRANCH   3   4
ENDBRANCH   2   3
ENDBRANCH   1   2
BRANCH   1  24
ATOM     24  O   UNL A   1      42.443  21.635  27.196  1.00  0.00    -0.374 OA
BRANCH  24  25
ATOM     25  C   UNL A   1      43.716  22.177  26.856  1.00  0.00     0.202 C 
BRANCH  25  26
ATOM     26  C   UNL A   1      43.655  23.405  25.942  1.00  0.00     0.261 C 
BRANCH  26  27
ATOM     27  O   UNL A   1      43.233  24.574  26.665  1.00  0.00    -0.460 OA
BRANCH  27  28
ATOM     28  C   UNL A   1      42.020  25.065  26.309  1.00  0.00     0.338 C 
ATOM     29  O   UNL A   1      41.327  24.692  25.378  1.00  0.00    -0.246 OA
BRANCH  28  30
ATOM     30  C   UNL A   1      41.556  26.045  27.315  1.00  0.00     0.060 A 
ATOM     31  C   UNL A   1      42.187  27.294  27.337  1.00  0.00     0.016 A 
ATOM     32  C   UNL A   1      40.550  25.752  28.240  1.00  0.00     0.016 A 
ATOM     33  C   UNL A   1      41.842  28.239  28.305  1.00  0.00     0.010 A 
ATOM     34  C   UNL A   1      40.197  26.709  29.203  1.00  0.00     0.010 A 
ATOM     35  C   UNL A   1      40.861  27.948  29.262  1.00  0.00    -0.014 A 
BRANCH  35  36
ATOM     36  C   UNL A   1      40.643  28.879  30.405  1.00  0.00     0.031 A 
ATOM     37  C   UNL A   1      41.509  28.744  31.630  1.00  0.00     0.074 A 
ATOM     38  C   UNL A   1      39.720  29.859  30.350  1.00  0.00     0.049 A 
ATOM     39  N   UNL A   1      41.498  29.441  32.738  1.00  0.00    -0.248 NA
ATOM     40  C   UNL A   1      42.526  27.680  31.604  1.00  0.00     0.031 C 
ATOM     41  C   UNL A   1      38.819  30.112  29.227  1.00  0.00     0.029 A 
ATOM     42  N   UNL A   1      39.379  30.820  31.273  1.00  0.00    -0.354 N 
ATOM     43  C   UNL A   1      42.503  28.907  33.534  1.00  0.00     0.074 A 
ATOM     44  C   UNL A   1      43.069  27.791  32.807  1.00  0.00     0.031 C 
ATOM     45  C   UNL A   1      38.012  31.143  29.534  1.00  0.00     0.029 A 
ATOM     46  C   UNL A   1      38.334  31.621  30.876  1.00  0.00     0.049 A 
ATOM     47  H   UNL A   1      39.840  30.924  32.136  1.00  0.00     0.167 HD
ATOM     48  C   UNL A   1      42.939  29.321  34.747  1.00  0.00     0.037 A 
ATOM     49  C   UNL A   1      37.700  32.618  31.525  1.00  0.00     0.037 A 
ATOM     50  C   UNL A   1      42.396  30.441  35.467  1.00  0.00     0.049 A 
ATOM     51  C   UNL A   1      38.168  33.029  32.898  1.00  0.00     0.074 A 
ATOM     52  C   UNL A   1      42.795  30.952  36.690  1.00  0.00     0.029 A 
ATOM     53  N   UNL A   1      41.340  31.227  35.031  1.00  0.00    -0.354 N 
ATOM     54  N   UNL A   1      39.145  32.536  33.618  1.00  0.00    -0.248 NA
ATOM     55  C   UNL A   1      37.453  34.144  33.538  1.00  0.00     0.031 C 
ATOM     56  C   UNL A   1      41.957  32.025  37.010  1.00  0.00     0.029 A 
ATOM     57  C   UNL A   1      41.063  32.207  35.968  1.00  0.00     0.049 A 
ATOM     58  H   UNL A   1      40.860  31.104  34.181  1.00  0.00     0.167 HD
ATOM     59  C   UNL A   1      39.188  33.304  34.778  1.00  0.00     0.074 A 
ATOM     60  C   UNL A   1      38.138  34.294  34.664  1.00  0.00     0.031 C 
ATOM     61  C   UNL A   1      40.027  33.201  35.837  1.00  0.00     0.037 A 
BRANCH  48  62
ATOM     62  C   UNL A   1      44.070  28.553  35.371  1.00  0.00     0.058 A 
ATOM     63  C   UNL A   1      45.410  28.883  35.113  1.00  0.00     0.135 A 
ATOM     64  C   UNL A   1      43.813  27.491  36.252  1.00  0.00     0.135 A 
ATOM     65  F   UNL A   1      45.709  29.879  34.263  1.00  0.00    -0.206 F 
ATOM     66  C   UNL A   1      46.457  28.169  35.684  1.00  0.00     0.059 A 
ATOM     67  C   UNL A   1      44.845  26.779  36.855  1.00  0.00     0.059 A 
ATOM     68  F   UNL A   1      42.549  27.134  36.530  1.00  0.00    -0.206 F 
ATOM     69  C   UNL A   1      46.164  27.116  36.552  1.00  0.00     0.060 A 
BRANCH  69  70
ATOM     70  S   UNL A   1      47.532  26.194  37.285  1.00  0.00     0.124 S 
ATOM     71  O   UNL A   1      47.650  26.839  38.590  1.00  0.00    -0.237 OA
ATOM     72  O   UNL A   1      47.018  24.827  37.299  1.00  0.00    -0.237 OA
ATOM     73  O   UNL A   1      48.637  26.437  36.363  1.00  0.00    -0.744 OA
ENDBRANCH  69  70
ENDBRANCH  48  62
BRANCH  49  74
ATOM     74  C   UNL A   1      36.553  33.318  30.884  1.00  0.00     0.058 A 
ATOM     75  C   UNL A   1      36.748  34.184  29.799  1.00  0.00     0.135 A 
ATOM     76  C   UNL A   1      35.246  33.157  31.366  1.00  0.00     0.135 A 
ATOM     77  F   UNL A   1      37.983  34.382  29.313  1.00  0.00    -0.206 F 
ATOM     78  C   UNL A   1      35.693  34.885  29.227  1.00  0.00     0.059 A 
ATOM     79  C   UNL A   1      34.168  33.829  30.796  1.00  0.00     0.059 A 
ATOM     80  F   UNL A   1      35.007  32.338  32.403  1.00  0.00    -0.206 F 
ATOM     81  C   UNL A   1      34.405  34.703  29.735  1.00  0.00     0.060 A 
BRANCH  81  82
ATOM     82  S   UNL A   1      33.037  35.605  28.973  1.00  0.00     0.124 S 
ATOM     83  O   UNL A   1      33.741  36.686  28.293  1.00  0.00    -0.237 OA
ATOM     84  O   UNL A   1      32.440  34.590  28.110  1.00  0.00    -0.237 OA
ATOM     85  O   UNL A   1      32.219  36.003  30.115  1.00  0.00    -0.744 OA
ENDBRANCH  81  82
ENDBRANCH  49  74
BRANCH  61  86
ATOM     86  C   UNL A   1      39.884  34.211  36.942  1.00  0.00     0.058 A 
ATOM     87  C   UNL A   1      40.473  35.481  36.863  1.00  0.00     0.135 A 
ATOM     88  C   UNL A   1      39.096  33.921  38.069  1.00  0.00     0.135 A 
ATOM     89  F   UNL A   1      41.239  35.806  35.810  1.00  0.00    -0.206 F 
ATOM     90  C   UNL A   1      40.302  36.425  37.872  1.00  0.00     0.059 A 
ATOM     91  C   UNL A   1      38.892  34.857  39.078  1.00  0.00     0.059 A 
ATOM     92  F   UNL A   1      38.501  32.724  38.188  1.00  0.00    -0.206 F 
ATOM     93  C   UNL A   1      39.508  36.103  38.975  1.00  0.00     0.060 A 
BRANCH  93  94
ATOM     94  S   UNL A   1      39.258  37.350  40.258  1.00  0.00     0.124 S 
ATOM     95  O   UNL A   1      40.628  37.780  40.520  1.00  0.00    -0.237 OA
ATOM     96  O   UNL A   1      38.405  38.326  39.586  1.00  0.00    -0.237 OA
ATOM     97  O   UNL A   1      38.617  36.604  41.335  1.00  0.00    -0.744 OA
ENDBRANCH  93  94
ENDBRANCH  61  86
ENDBRANCH  35  36
ENDBRANCH  28  30
ENDBRANCH  27  28
ENDBRANCH  26  27
ENDBRANCH  25  26
ENDBRANCH  24  25
ENDBRANCH   1  24
TORSDOF 21
ENDMDL
MODEL 3
REMARK VINA RESULT:     -10.4      3.912     11.787
REMARK SMILES C[C@@H]1CCCCN1S(=O)(=O)c1ccc(CCC(=O)OCCOCCOC(=O)c2ccc(-c3c4nc(c(-c5c(F)cc(S(=O)(=O)[O-])cc5F)c5ccc([nH]5)c(-c5c(F)cc(S(=O)(=O)[O-])cc5F)c5nc(c(-c6c(F)cc(S(=O)(=O)[O-])cc6F)c6ccc3[nH]6)C=C5)C=C4)cc2)cc1
REMARK SMILES IDX 21 1 20 2 19 3 17 4 18 5 16 6 15 7 14 8 11 9 12 10 95 11
REMARK SMILES IDX 13 12 94 13 8 14 9 15 10 16 7 17 1 18 2 19 3 20 4 21 6 22
REMARK SMILES IDX 5 23 22 24 23 25 24 26 25 27 26 28 27 29 28 30 29 31 93 32
REMARK SMILES IDX 30 33 92 34 31 35 32 36 33 37 86 38 34 39 91 40 85 41 87 42
REMARK SMILES IDX 35 43 90 44 84 45 83 46 36 48 70 49 49 50 69 51 50 52 53 53
REMARK SMILES IDX 68 54 88 55 51 56 52 57 67 59 89 60 54 61 37 62 38 63 47 64
REMARK SMILES IDX 39 65 40 66 46 67 48 68 41 69 42 70 43 71 44 72 45 73 71 74
REMARK SMILES IDX 72 75 81 76 73 77 74 78 80 79 82 80 75 81 76 82 77 83 78 84
REMARK SMILES IDX 79 85 55 86 56 87 65 88 57 89 58 90 64 91 66 92 59 93 60 94
REMARK SMILES IDX 61 95 62 96 63 97
REMARK H PARENT 87 47 53 58
REMARK Flexibility Score: inf
ROOT
ATOM      1  C   UNL A   1      43.131  18.773  25.636  1.00  0.00     0.202 C 
ENDROOT
BRANCH   1   2
ATOM      2  C   UNL A   1      44.315  19.207  24.762  1.00  0.00     0.261 C 
BRANCH   2   3
ATOM      3  O   UNL A   1      44.491  20.640  24.780  1.00  0.00    -0.463 OA
BRANCH   3   4
ATOM      4  C   UNL A   1      45.741  21.123  24.989  1.00  0.00     0.306 C 
ATOM      5  O   UNL A   1      46.779  20.569  24.652  1.00  0.00    -0.252 OA
BRANCH   4   6
ATOM      6  C   UNL A   1      45.708  22.469  25.678  1.00  0.00     0.127 C 
BRANCH   6   7
ATOM      7  C   UNL A   1      44.408  22.748  26.442  1.00  0.00     0.047 C 
BRANCH   7   8
ATOM      8  C   UNL A   1      44.639  23.328  27.820  1.00  0.00    -0.047 A 
ATOM      9  C   UNL A   1      44.946  24.654  30.288  1.00  0.00     0.082 A 
ATOM     10  C   UNL A   1      45.944  24.726  29.317  1.00  0.00     0.022 A 
ATOM     11  C   UNL A   1      43.803  23.895  30.034  1.00  0.00     0.022 A 
ATOM     12  C   UNL A   1      45.800  24.047  28.108  1.00  0.00     0.005 A 
ATOM     13  C   UNL A   1      43.656  23.230  28.810  1.00  0.00     0.005 A 
BRANCH   9  14
ATOM     14  S   UNL A   1      45.047  25.757  31.688  1.00  0.00     0.243 S 
ATOM     15  O   UNL A   1      44.362  26.975  31.319  1.00  0.00    -0.207 OA
ATOM     16  O   UNL A   1      46.446  25.789  32.055  1.00  0.00    -0.207 OA
BRANCH  14  17
ATOM     17  N   UNL A   1      44.215  25.003  32.981  1.00  0.00    -0.195 NA
ATOM     18  C   UNL A   1      44.471  26.914  34.651  1.00  0.00     0.026 C 
ATOM     19  C   UNL A   1      43.571  25.833  34.054  1.00  0.00     0.070 C 
ATOM     20  C   UNL A   1      43.068  24.949  35.218  1.00  0.00     0.020 C 
ATOM     21  C   UNL A   1      42.752  23.529  34.783  1.00  0.00     0.003 C 
ATOM     22  C   UNL A   1      44.962  23.830  33.537  1.00  0.00     0.103 C 
ATOM     23  C   UNL A   1      43.998  22.857  34.219  1.00  0.00     0.017 C 
ENDBRANCH  14  17
ENDBRANCH   9  14
ENDBRANCH   7   8
ENDBRANCH   6   7
ENDBRANCH   4   6
ENDBRANCH   3   4
ENDBRANCH   2   3
ENDBRANCH   1   2
BRANCH   1  24
ATOM     24  O   UNL A   1      42.482  19.855  26.312  1.00  0.00    -0.374 OA
BRANCH  24  25
ATOM     25  C   UNL A   1      41.139  19.613  26.724  1.00  0.00     0.202 C 
BRANCH  25  26
ATOM     26  C   UNL A   1      40.111  20.572  26.116  1.00  0.00     0.261 C 
BRANCH  26  27
ATOM     27  O   UNL A   1      40.279  21.907  26.623  1.00  0.00    -0.460 OA
BRANCH  27  28
ATOM     28  C   UNL A   1      39.213  22.727  26.451  1.00  0.00     0.338 C 
ATOM     29  O   UNL A   1      38.102  22.408  26.062  1.00  0.00    -0.246 OA
BRANCH  28  30
ATOM     30  C   UNL A   1      39.530  24.083  26.950  1.00  0.00     0.060 A 
ATOM     31  C   UNL A   1      40.134  24.974  26.055  1.00  0.00     0.016 A 
ATOM     32  C   UNL A   1      39.278  24.476  28.267  1.00  0.00     0.016 A 
ATOM     33  C   UNL A   1      40.521  26.246  26.483  1.00  0.00     0.010 A 
ATOM     34  C   UNL A   1      39.656  25.759  28.689  1.00  0.00     0.010 A 
ATOM     35  C   UNL A   1      40.308  26.643  27.809  1.00  0.00    -0.014 A 
BRANCH  35  36
ATOM     36  C   UNL A   1      40.900  27.917  28.304  1.00  0.00     0.031 A 
ATOM     37  C   UNL A   1      42.393  28.105  28.228  1.00  0.00     0.074 A 
ATOM     38  C   UNL A   1      40.128  28.915  28.779  1.00  0.00     0.049 A 
ATOM     39  N   UNL A   1      43.122  29.128  28.597  1.00  0.00    -0.248 NA
ATOM     40  C   UNL A   1      43.169  26.992  27.657  1.00  0.00     0.031 C 
ATOM     41  C   UNL A   1      38.673  28.876  28.903  1.00  0.00     0.029 A 
ATOM     42  N   UNL A   1      40.469  30.158  29.259  1.00  0.00    -0.354 N 
ATOM     43  C   UNL A   1      44.435  28.784  28.301  1.00  0.00     0.074 A 
ATOM     44  C   UNL A   1      44.411  27.437  27.772  1.00  0.00     0.031 C 
ATOM     45  C   UNL A   1      38.245  30.029  29.446  1.00  0.00     0.029 A 
ATOM     46  C   UNL A   1      39.397  30.888  29.714  1.00  0.00     0.049 A 
ATOM     47  H   UNL A   1      41.395  30.493  29.275  1.00  0.00     0.167 HD
ATOM     48  C   UNL A   1      45.559  29.528  28.427  1.00  0.00     0.037 A 
ATOM     49  C   UNL A   1      39.348  32.105  30.292  1.00  0.00     0.037 A 
ATOM     50  C   UNL A   1      45.590  30.875  28.932  1.00  0.00     0.049 A 
ATOM     51  C   UNL A   1      40.618  32.896  30.472  1.00  0.00     0.074 A 
ATOM     52  C   UNL A   1      46.680  31.717  29.068  1.00  0.00     0.029 A 
ATOM     53  N   UNL A   1      44.482  31.578  29.380  1.00  0.00    -0.354 N 
ATOM     54  N   UNL A   1      41.846  32.569  30.150  1.00  0.00    -0.248 NA
ATOM     55  C   UNL A   1      40.492  34.229  31.081  1.00  0.00     0.031 C 
ATOM     56  C   UNL A   1      46.237  32.918  29.632  1.00  0.00     0.029 A 
ATOM     57  C   UNL A   1      44.866  32.837  29.810  1.00  0.00     0.049 A 
ATOM     58  H   UNL A   1      43.561  31.232  29.391  1.00  0.00     0.167 HD
ATOM     59  C   UNL A   1      42.632  33.669  30.481  1.00  0.00     0.074 A 
ATOM     60  C   UNL A   1      41.741  34.670  31.029  1.00  0.00     0.031 C 
ATOM     61  C   UNL A   1      43.969  33.835  30.337  1.00  0.00     0.037 A 
BRANCH  48  62
ATOM     62  C   UNL A   1      46.855  28.896  28.004  1.00  0.00     0.058 A 
ATOM     63  C   UNL A   1      47.642  28.163  28.906  1.00  0.00     0.135 A 
ATOM     64  C   UNL A   1      47.304  29.005  26.679  1.00  0.00     0.135 A 
ATOM     65  F   UNL A   1      47.266  28.045  30.190  1.00  0.00    -0.206 F 
ATOM     66  C   UNL A   1      48.844  27.584  28.516  1.00  0.00     0.059 A 
ATOM     67  C   UNL A   1      48.491  28.412  26.261  1.00  0.00     0.059 A 
ATOM     68  F   UNL A   1      46.589  29.697  25.777  1.00  0.00    -0.206 F 
ATOM     69  C   UNL A   1      49.262  27.717  27.192  1.00  0.00     0.060 A 
BRANCH  69  70
ATOM     70  S   UNL A   1      50.826  26.963  26.699  1.00  0.00     0.124 S 
ATOM     71  O   UNL A   1      50.728  27.014  25.243  1.00  0.00    -0.237 OA
ATOM     72  O   UNL A   1      51.810  27.860  27.299  1.00  0.00    -0.237 OA
ATOM     73  O   UNL A   1      50.759  25.628  27.286  1.00  0.00    -0.744 OA
ENDBRANCH  69  70
ENDBRANCH  48  62
BRANCH  49  74
ATOM     74  C   UNL A   1      38.045  32.670  30.738  1.00  0.00     0.058 A 
ATOM     75  C   UNL A   1      37.297  33.512  29.903  1.00  0.00     0.135 A 
ATOM     76  C   UNL A   1      37.539  32.402  32.019  1.00  0.00     0.135 A 
ATOM     77  F   UNL A   1      37.748  33.810  28.675  1.00  0.00    -0.206 F 
ATOM     78  C   UNL A   1      36.106  34.090  30.329  1.00  0.00     0.059 A 
ATOM     79  C   UNL A   1      36.338  32.948  32.460  1.00  0.00     0.059 A 
ATOM     80  F   UNL A   1      38.218  31.600  32.855  1.00  0.00    -0.206 F 
ATOM     81  C   UNL A   1      35.635  33.803  31.611  1.00  0.00     0.060 A 
BRANCH  81  82
ATOM     82  S   UNL A   1      34.077  34.544  32.148  1.00  0.00     0.124 S 
ATOM     83  O   UNL A   1      34.533  35.807  32.716  1.00  0.00    -0.237 OA
ATOM     84  O   UNL A   1      33.332  34.640  30.896  1.00  0.00    -0.237 OA
ATOM     85  O   UNL A   1      33.555  33.573  33.105  1.00  0.00    -0.744 OA
ENDBRANCH  81  82
ENDBRANCH  49  74
BRANCH  61  86
ATOM     86  C   UNL A   1      44.554  35.163  30.730  1.00  0.00     0.058 A 
ATOM     87  C   UNL A   1      45.150  35.365  31.984  1.00  0.00     0.135 A 
ATOM     88  C   UNL A   1      44.570  36.229  29.816  1.00  0.00     0.135 A 
ATOM     89  F   UNL A   1      45.157  34.379  32.895  1.00  0.00    -0.206 F 
ATOM     90  C   UNL A   1      45.726  36.584  32.326  1.00  0.00     0.059 A 
ATOM     91  C   UNL A   1      45.161  37.450  30.128  1.00  0.00     0.059 A 
ATOM     92  F   UNL A   1      44.022  36.085  28.600  1.00  0.00    -0.206 F 
ATOM     93  C   UNL A   1      45.727  37.621  31.390  1.00  0.00     0.060 A 
BRANCH  93  94
ATOM     94  S   UNL A   1      46.515  39.186  31.829  1.00  0.00     0.124 S 
ATOM     95  O   UNL A   1      47.911  38.783  31.971  1.00  0.00    -0.237 OA
ATOM     96  O   UNL A   1      46.212  40.025  30.673  1.00  0.00    -0.237 OA
ATOM     97  O   UNL A   1      45.842  39.569  33.066  1.00  0.00    -0.744 OA
ENDBRANCH  93  94
ENDBRANCH  61  86
ENDBRANCH  35  36
ENDBRANCH  28  30
ENDBRANCH  27  28
ENDBRANCH  26  27
ENDBRANCH  25  26
ENDBRANCH  24  25
ENDBRANCH   1  24
TORSDOF 21
ENDMDL
