MODEL 1
REMARK VINA RESULT:     -11.0      0.000      0.000
REMARK SMILES C[C@@H](C(=O)OCCOCCOC(=O)c1ccc(-c2c3nc(c(-c4c(F)cc(S(=O)(=O)[O-])cc4F)c4ccc([nH]4)c(-c4c(F)cc(S(=O)(=O)[O-])cc4F)c4nc(c(-c5c(F)cc(S(=O)(=O)[O-])cc5F)c5ccc2[nH]5)C=C4)C=C3)cc1)c1ccc(C[C@@H]2CCC[C@@H]2O)cc1
REMARK SMILES IDX 7 1 6 2 5 3 3 4 4 5 2 6 1 7 80 8 81 9 92 10 82 11 91 12
REMARK SMILES IDX 83 13 84 14 85 15 86 16 89 17 87 18 88 19 90 20 8 22 9 23
REMARK SMILES IDX 10 24 11 25 12 26 13 27 14 28 15 29 79 30 16 31 78 32 17 33
REMARK SMILES IDX 18 34 19 35 72 36 20 37 77 38 71 39 73 40 21 41 76 42 70 43
REMARK SMILES IDX 69 44 22 46 56 47 35 48 55 49 36 50 39 51 54 52 74 53 37 54
REMARK SMILES IDX 38 55 53 57 75 58 40 59 23 60 24 61 33 62 25 63 26 64 32 65
REMARK SMILES IDX 34 66 27 67 28 68 29 69 30 70 31 71 57 72 58 73 67 74 59 75
REMARK SMILES IDX 60 76 66 77 68 78 61 79 62 80 63 81 64 82 65 83 41 84 42 85
REMARK SMILES IDX 51 86 43 87 44 88 50 89 52 90 45 91 46 92 47 93 48 94 49 95
REMARK H PARENT 90 21 73 45 39 56
REMARK Flexibility Score: inf
ROOT
ATOM      1  C   UNL A   1      37.328  22.004  24.661  1.00  0.00     0.202 C 
ENDROOT
BRANCH   1   2
ATOM      2  C   UNL A   1      35.814  22.183  24.513  1.00  0.00     0.261 C 
BRANCH   2   3
ATOM      3  O   UNL A   1      35.138  20.966  24.875  1.00  0.00    -0.463 OA
BRANCH   3   4
ATOM      4  C   UNL A   1      34.221  21.070  25.871  1.00  0.00     0.313 C 
ATOM      5  O   UNL A   1      34.470  21.481  27.000  1.00  0.00    -0.252 OA
BRANCH   4   6
ATOM      6  C   UNL A   1      32.802  20.733  25.396  1.00  0.00     0.126 C 
ATOM      7  C   UNL A   1      32.716  19.640  24.326  1.00  0.00     0.025 C 
BRANCH   6   8
ATOM      8  C   UNL A   1      32.019  21.973  24.972  1.00  0.00    -0.034 A 
ATOM      9  C   UNL A   1      31.962  22.401  23.637  1.00  0.00     0.005 A 
ATOM     10  C   UNL A   1      31.339  22.731  25.934  1.00  0.00     0.005 A 
ATOM     11  C   UNL A   1      31.315  23.585  23.286  1.00  0.00     0.004 A 
ATOM     12  C   UNL A   1      30.715  23.933  25.586  1.00  0.00     0.004 A 
ATOM     13  C   UNL A   1      30.757  24.404  24.267  1.00  0.00    -0.048 A 
BRANCH  13  14
ATOM     14  C   UNL A   1      30.273  25.792  23.927  1.00  0.00     0.041 C 
BRANCH  14  15
ATOM     15  C   UNL A   1      31.344  26.905  23.791  1.00  0.00     0.022 C 
ATOM     16  C   UNL A   1      31.179  28.099  24.743  1.00  0.00     0.007 C 
ATOM     17  C   UNL A   1      31.496  27.589  22.428  1.00  0.00     0.117 C 
ATOM     18  C   UNL A   1      30.567  29.243  23.927  1.00  0.00     0.003 C 
ATOM     19  C   UNL A   1      30.550  28.785  22.473  1.00  0.00     0.032 C 
BRANCH  17  20
ATOM     20  O   UNL A   1      31.268  26.732  21.328  1.00  0.00    -0.393 OA
ATOM     21  H   UNL A   1      30.558  27.096  20.776  1.00  0.00     0.210 HD
ENDBRANCH  17  20
ENDBRANCH  14  15
ENDBRANCH  13  14
ENDBRANCH   6   8
ENDBRANCH   4   6
ENDBRANCH   3   4
ENDBRANCH   2   3
ENDBRANCH   1   2
BRANCH   1  22
ATOM     22  O   UNL A   1      37.859  22.251  25.967  1.00  0.00    -0.374 OA
BRANCH  22  23
ATOM     23  C   UNL A   1      39.230  21.917  26.186  1.00  0.00     0.202 C 
BRANCH  23  24
ATOM     24  C   UNL A   1      40.159  23.039  26.655  1.00  0.00     0.261 C 
BRANCH  24  25
ATOM     25  O   UNL A   1      39.553  24.335  26.517  1.00  0.00    -0.460 OA
BRANCH  25  26
ATOM     26  C   UNL A   1      40.432  25.349  26.353  1.00  0.00     0.338 C 
ATOM     27  O   UNL A   1      40.952  25.711  25.305  1.00  0.00    -0.246 OA
BRANCH  26  28
ATOM     28  C   UNL A   1      40.559  26.119  27.603  1.00  0.00     0.060 A 
ATOM     29  C   UNL A   1      39.539  25.969  28.552  1.00  0.00     0.016 A 
ATOM     30  C   UNL A   1      41.607  27.015  27.822  1.00  0.00     0.016 A 
ATOM     31  C   UNL A   1      39.529  26.760  29.696  1.00  0.00     0.010 A 
ATOM     32  C   UNL A   1      41.592  27.816  28.970  1.00  0.00     0.010 A 
ATOM     33  C   UNL A   1      40.532  27.719  29.890  1.00  0.00    -0.014 A 
BRANCH  33  34
ATOM     34  C   UNL A   1      40.370  28.722  30.968  1.00  0.00     0.031 A 
ATOM     35  C   UNL A   1      41.253  28.626  32.183  1.00  0.00     0.074 A 
ATOM     36  C   UNL A   1      39.487  29.728  30.846  1.00  0.00     0.049 A 
ATOM     37  N   UNL A   1      41.283  29.385  33.248  1.00  0.00    -0.248 NA
ATOM     38  C   UNL A   1      42.234  27.528  32.199  1.00  0.00     0.031 C 
ATOM     39  C   UNL A   1      38.609  29.946  29.696  1.00  0.00     0.029 A 
ATOM     40  N   UNL A   1      39.183  30.757  31.700  1.00  0.00    -0.354 N 
ATOM     41  C   UNL A   1      42.277  28.854  34.062  1.00  0.00     0.074 A 
ATOM     42  C   UNL A   1      42.809  27.693  33.381  1.00  0.00     0.031 C 
ATOM     43  C   UNL A   1      37.858  31.038  29.921  1.00  0.00     0.029 A 
ATOM     44  C   UNL A   1      38.182  31.578  31.240  1.00  0.00     0.049 A 
ATOM     45  H   UNL A   1      39.638  30.894  32.563  1.00  0.00     0.167 HD
ATOM     46  C   UNL A   1      42.712  29.300  35.265  1.00  0.00     0.037 A 
ATOM     47  C   UNL A   1      37.584  32.634  31.827  1.00  0.00     0.037 A 
ATOM     48  C   UNL A   1      42.184  30.460  35.932  1.00  0.00     0.049 A 
ATOM     49  C   UNL A   1      38.045  33.075  33.192  1.00  0.00     0.074 A 
ATOM     50  C   UNL A   1      42.571  31.008  37.142  1.00  0.00     0.029 A 
ATOM     51  N   UNL A   1      41.149  31.247  35.449  1.00  0.00    -0.354 N 
ATOM     52  N   UNL A   1      39.001  32.579  33.941  1.00  0.00    -0.248 NA
ATOM     53  C   UNL A   1      37.349  34.222  33.791  1.00  0.00     0.031 C 
ATOM     54  C   UNL A   1      41.740  32.100  37.413  1.00  0.00     0.029 A 
ATOM     55  C   UNL A   1      40.868  32.263  36.348  1.00  0.00     0.049 A 
ATOM     56  H   UNL A   1      40.683  31.106  34.593  1.00  0.00     0.167 HD
ATOM     57  C   UNL A   1      39.039  33.368  35.085  1.00  0.00     0.074 A 
ATOM     58  C   UNL A   1      38.015  34.381  34.927  1.00  0.00     0.031 C 
ATOM     59  C   UNL A   1      39.850  33.267  36.169  1.00  0.00     0.037 A 
BRANCH  46  60
ATOM     60  C   UNL A   1      43.797  28.516  35.948  1.00  0.00     0.058 A 
ATOM     61  C   UNL A   1      45.154  28.837  35.790  1.00  0.00     0.135 A 
ATOM     62  C   UNL A   1      43.472  27.448  36.800  1.00  0.00     0.135 A 
ATOM     63  F   UNL A   1      45.523  29.835  34.972  1.00  0.00    -0.206 F 
ATOM     64  C   UNL A   1      46.152  28.115  36.438  1.00  0.00     0.059 A 
ATOM     65  C   UNL A   1      44.451  26.728  37.477  1.00  0.00     0.059 A 
ATOM     66  F   UNL A   1      42.189  27.096  36.983  1.00  0.00    -0.206 F 
ATOM     67  C   UNL A   1      45.790  27.061  37.279  1.00  0.00     0.060 A 
BRANCH  67  68
ATOM     68  S   UNL A   1      47.095  26.138  38.119  1.00  0.00     0.124 S 
ATOM     69  O   UNL A   1      47.545  25.240  37.059  1.00  0.00    -0.237 OA
ATOM     70  O   UNL A   1      48.032  27.192  38.495  1.00  0.00    -0.237 OA
ATOM     71  O   UNL A   1      46.398  25.498  39.230  1.00  0.00    -0.744 OA
ENDBRANCH  67  68
ENDBRANCH  46  60
BRANCH  47  72
ATOM     72  C   UNL A   1      36.476  33.342  31.133  1.00  0.00     0.058 A 
ATOM     73  C   UNL A   1      36.722  34.163  30.023  1.00  0.00     0.135 A 
ATOM     74  C   UNL A   1      35.148  33.215  31.571  1.00  0.00     0.135 A 
ATOM     75  F   UNL A   1      37.975  34.326  29.573  1.00  0.00    -0.206 F 
ATOM     76  C   UNL A   1      35.694  34.844  29.379  1.00  0.00     0.059 A 
ATOM     77  C   UNL A   1      34.101  33.866  30.928  1.00  0.00     0.059 A 
ATOM     78  F   UNL A   1      34.859  32.432  32.622  1.00  0.00    -0.206 F 
ATOM     79  C   UNL A   1      34.385  34.687  29.839  1.00  0.00     0.060 A 
BRANCH  79  80
ATOM     80  S   UNL A   1      33.051  35.541  28.970  1.00  0.00     0.124 S 
ATOM     81  O   UNL A   1      33.791  36.537  28.204  1.00  0.00    -0.237 OA
ATOM     82  O   UNL A   1      32.446  34.460  28.198  1.00  0.00    -0.237 OA
ATOM     83  O   UNL A   1      32.225  36.062  30.056  1.00  0.00    -0.744 OA
ENDBRANCH  79  80
ENDBRANCH  47  72
BRANCH  59  84
ATOM     84  C   UNL A   1      39.689  34.297  37.253  1.00  0.00     0.058 A 
ATOM     85  C   UNL A   1      39.011  34.011  38.449  1.00  0.00     0.135 A 
ATOM     86  C   UNL A   1      40.270  35.568  37.116  1.00  0.00     0.135 A 
ATOM     87  F   UNL A   1      38.433  32.812  38.626  1.00  0.00    -0.206 F 
ATOM     88  C   UNL A   1      38.896  34.957  39.461  1.00  0.00     0.059 A 
ATOM     89  C   UNL A   1      40.191  36.520  38.127  1.00  0.00     0.059 A 
ATOM     90  F   UNL A   1      40.941  35.888  35.998  1.00  0.00    -0.206 F 
ATOM     91  C   UNL A   1      39.492  36.209  39.292  1.00  0.00     0.060 A 
BRANCH  91  92
ATOM     92  S   UNL A   1      39.365  37.417  40.628  1.00  0.00     0.124 S 
ATOM     93  O   UNL A   1      38.464  38.406  40.046  1.00  0.00    -0.237 OA
ATOM     94  O   UNL A   1      38.812  36.621  41.719  1.00  0.00    -0.237 OA
ATOM     95  O   UNL A   1      40.743  37.858  40.819  1.00  0.00    -0.744 OA
ENDBRANCH  91  92
ENDBRANCH  59  84
ENDBRANCH  33  34
ENDBRANCH  26  28
ENDBRANCH  25  26
ENDBRANCH  24  25
ENDBRANCH  23  24
ENDBRANCH  22  23
ENDBRANCH   1  22
TORSDOF 21
ENDMDL
MODEL 2
REMARK VINA RESULT:     -10.5      5.330      6.904
REMARK SMILES C[C@@H](C(=O)OCCOCCOC(=O)c1ccc(-c2c3nc(c(-c4c(F)cc(S(=O)(=O)[O-])cc4F)c4ccc([nH]4)c(-c4c(F)cc(S(=O)(=O)[O-])cc4F)c4nc(c(-c5c(F)cc(S(=O)(=O)[O-])cc5F)c5ccc2[nH]5)C=C4)C=C3)cc1)c1ccc(C[C@@H]2CCC[C@@H]2O)cc1
REMARK SMILES IDX 7 1 6 2 5 3 3 4 4 5 2 6 1 7 80 8 81 9 92 10 82 11 91 12
REMARK SMILES IDX 83 13 84 14 85 15 86 16 89 17 87 18 88 19 90 20 8 22 9 23
REMARK SMILES IDX 10 24 11 25 12 26 13 27 14 28 15 29 79 30 16 31 78 32 17 33
REMARK SMILES IDX 18 34 19 35 72 36 20 37 77 38 71 39 73 40 21 41 76 42 70 43
REMARK SMILES IDX 69 44 22 46 56 47 35 48 55 49 36 50 39 51 54 52 74 53 37 54
REMARK SMILES IDX 38 55 53 57 75 58 40 59 23 60 24 61 33 62 25 63 26 64 32 65
REMARK SMILES IDX 34 66 27 67 28 68 29 69 30 70 31 71 57 72 58 73 67 74 59 75
REMARK SMILES IDX 60 76 66 77 68 78 61 79 62 80 63 81 64 82 65 83 41 84 42 85
REMARK SMILES IDX 51 86 43 87 44 88 50 89 52 90 45 91 46 92 47 93 48 94 49 95
REMARK H PARENT 90 21 73 45 39 56
REMARK Flexibility Score: inf
ROOT
ATOM      1  C   UNL A   1      34.869  23.004  25.484  1.00  0.00     0.202 C 
ENDROOT
BRANCH   1   2
ATOM      2  C   UNL A   1      33.624  23.366  26.299  1.00  0.00     0.261 C 
BRANCH   2   3
ATOM      3  O   UNL A   1      32.867  24.380  25.616  1.00  0.00    -0.463 OA
BRANCH   3   4
ATOM      4  C   UNL A   1      31.518  24.314  25.763  1.00  0.00     0.313 C 
ATOM      5  O   UNL A   1      30.932  24.452  26.832  1.00  0.00    -0.252 OA
BRANCH   4   6
ATOM      6  C   UNL A   1      30.792  24.173  24.421  1.00  0.00     0.126 C 
ATOM      7  C   UNL A   1      31.429  23.187  23.436  1.00  0.00     0.025 C 
BRANCH   6   8
ATOM      8  C   UNL A   1      30.534  25.521  23.751  1.00  0.00    -0.034 A 
ATOM      9  C   UNL A   1      31.414  26.065  22.804  1.00  0.00     0.005 A 
ATOM     10  C   UNL A   1      29.394  26.261  24.090  1.00  0.00     0.005 A 
ATOM     11  C   UNL A   1      31.204  27.337  22.272  1.00  0.00     0.004 A 
ATOM     12  C   UNL A   1      29.201  27.548  23.578  1.00  0.00     0.004 A 
ATOM     13  C   UNL A   1      30.142  28.123  22.715  1.00  0.00    -0.048 A 
BRANCH  13  14
ATOM     14  C   UNL A   1      30.048  29.579  22.330  1.00  0.00     0.041 C 
BRANCH  14  15
ATOM     15  C   UNL A   1      28.671  30.272  22.499  1.00  0.00     0.022 C 
ATOM     16  C   UNL A   1      27.911  30.555  21.195  1.00  0.00     0.007 C 
ATOM     17  C   UNL A   1      28.637  31.633  23.203  1.00  0.00     0.117 C 
ATOM     18  C   UNL A   1      28.094  32.045  20.884  1.00  0.00     0.003 C 
ATOM     19  C   UNL A   1      28.792  32.663  22.089  1.00  0.00     0.032 C 
BRANCH  17  20
ATOM     20  O   UNL A   1      29.594  31.768  24.234  1.00  0.00    -0.393 OA
ATOM     21  H   UNL A   1      30.467  31.934  23.844  1.00  0.00     0.210 HD
ENDBRANCH  17  20
ENDBRANCH  14  15
ENDBRANCH  13  14
ENDBRANCH   6   8
ENDBRANCH   4   6
ENDBRANCH   3   4
ENDBRANCH   2   3
ENDBRANCH   1   2
BRANCH   1  22
ATOM     22  O   UNL A   1      35.482  21.751  25.807  1.00  0.00    -0.374 OA
BRANCH  22  23
ATOM     23  C   UNL A   1      36.355  21.182  24.831  1.00  0.00     0.202 C 
BRANCH  23  24
ATOM     24  C   UNL A   1      37.844  21.111  25.179  1.00  0.00     0.261 C 
BRANCH  24  25
ATOM     25  O   UNL A   1      38.230  22.136  26.109  1.00  0.00    -0.460 OA
BRANCH  25  26
ATOM     26  C   UNL A   1      39.546  22.139  26.422  1.00  0.00     0.338 C 
ATOM     27  O   UNL A   1      40.384  21.311  26.092  1.00  0.00    -0.246 OA
BRANCH  26  28
ATOM     28  C   UNL A   1      39.907  23.406  27.083  1.00  0.00     0.060 A 
ATOM     29  C   UNL A   1      39.355  24.581  26.556  1.00  0.00     0.016 A 
ATOM     30  C   UNL A   1      40.811  23.460  28.147  1.00  0.00     0.016 A 
ATOM     31  C   UNL A   1      39.753  25.820  27.049  1.00  0.00     0.010 A 
ATOM     32  C   UNL A   1      41.216  24.706  28.636  1.00  0.00     0.010 A 
ATOM     33  C   UNL A   1      40.719  25.890  28.061  1.00  0.00    -0.014 A 
BRANCH  33  34
ATOM     34  C   UNL A   1      41.319  27.204  28.394  1.00  0.00     0.031 A 
ATOM     35  C   UNL A   1      42.794  27.401  28.174  1.00  0.00     0.074 A 
ATOM     36  C   UNL A   1      40.555  28.217  28.840  1.00  0.00     0.049 A 
ATOM     37  N   UNL A   1      43.532  28.457  28.400  1.00  0.00    -0.248 NA
ATOM     38  C   UNL A   1      43.537  26.255  27.623  1.00  0.00     0.031 C 
ATOM     39  C   UNL A   1      39.109  28.154  29.052  1.00  0.00     0.029 A 
ATOM     40  N   UNL A   1      40.892  29.498  29.195  1.00  0.00    -0.354 N 
ATOM     41  C   UNL A   1      44.824  28.102  28.027  1.00  0.00     0.074 A 
ATOM     42  C   UNL A   1      44.775  26.725  27.585  1.00  0.00     0.031 C 
ATOM     43  C   UNL A   1      38.684  29.344  29.509  1.00  0.00     0.029 A 
ATOM     44  C   UNL A   1      39.829  30.242  29.647  1.00  0.00     0.049 A 
ATOM     45  H   UNL A   1      41.809  29.852  29.132  1.00  0.00     0.167 HD
ATOM     46  C   UNL A   1      45.947  28.859  28.045  1.00  0.00     0.037 A 
ATOM     47  C   UNL A   1      39.791  31.498  30.135  1.00  0.00     0.037 A 
ATOM     48  C   UNL A   1      45.987  30.230  28.480  1.00  0.00     0.049 A 
ATOM     49  C   UNL A   1      41.064  32.300  30.200  1.00  0.00     0.074 A 
ATOM     50  C   UNL A   1      47.069  31.091  28.515  1.00  0.00     0.029 A 
ATOM     51  N   UNL A   1      44.896  30.939  28.961  1.00  0.00    -0.354 N 
ATOM     52  N   UNL A   1      42.274  31.961  29.824  1.00  0.00    -0.248 NA
ATOM     53  C   UNL A   1      40.967  33.658  30.754  1.00  0.00     0.031 C 
ATOM     54  C   UNL A   1      46.642  32.307  29.060  1.00  0.00     0.029 A 
ATOM     55  C   UNL A   1      45.283  32.220  29.318  1.00  0.00     0.049 A 
ATOM     56  H   UNL A   1      43.980  30.585  29.036  1.00  0.00     0.167 HD
ATOM     57  C   UNL A   1      43.076  33.070  30.069  1.00  0.00     0.074 A 
ATOM     58  C   UNL A   1      42.212  34.095  30.619  1.00  0.00     0.031 C 
ATOM     59  C   UNL A   1      44.407  33.229  29.856  1.00  0.00     0.037 A 
BRANCH  46  60
ATOM     60  C   UNL A   1      47.231  28.212  27.605  1.00  0.00     0.058 A 
ATOM     61  C   UNL A   1      47.637  28.213  26.262  1.00  0.00     0.135 A 
ATOM     62  C   UNL A   1      48.083  27.614  28.548  1.00  0.00     0.135 A 
ATOM     63  F   UNL A   1      46.852  28.754  25.318  1.00  0.00    -0.206 F 
ATOM     64  C   UNL A   1      48.835  27.624  25.865  1.00  0.00     0.059 A 
ATOM     65  C   UNL A   1      49.296  27.041  28.177  1.00  0.00     0.059 A 
ATOM     66  F   UNL A   1      47.739  27.581  29.845  1.00  0.00    -0.206 F 
ATOM     67  C   UNL A   1      49.657  27.040  26.830  1.00  0.00     0.060 A 
BRANCH  67  68
ATOM     68  S   UNL A   1      51.210  26.288  26.301  1.00  0.00     0.124 S 
ATOM     69  O   UNL A   1      51.175  25.015  27.016  1.00  0.00    -0.237 OA
ATOM     70  O   UNL A   1      51.042  26.205  24.854  1.00  0.00    -0.237 OA
ATOM     71  O   UNL A   1      52.220  27.237  26.758  1.00  0.00    -0.744 OA
ENDBRANCH  67  68
ENDBRANCH  46  60
BRANCH  47  72
ATOM     72  C   UNL A   1      38.504  32.072  30.610  1.00  0.00     0.058 A 
ATOM     73  C   UNL A   1      38.057  31.867  31.923  1.00  0.00     0.135 A 
ATOM     74  C   UNL A   1      37.692  32.835  29.755  1.00  0.00     0.135 A 
ATOM     75  F   UNL A   1      38.792  31.136  32.775  1.00  0.00    -0.206 F 
ATOM     76  C   UNL A   1      36.846  32.385  32.370  1.00  0.00     0.059 A 
ATOM     77  C   UNL A   1      36.489  33.384  30.186  1.00  0.00     0.059 A 
ATOM     78  F   UNL A   1      38.080  33.069  28.491  1.00  0.00    -0.206 F 
ATOM     79  C   UNL A   1      36.070  33.144  31.493  1.00  0.00     0.060 A 
BRANCH  79  80
ATOM     80  S   UNL A   1      34.520  33.850  32.095  1.00  0.00     0.124 S 
ATOM     81  O   UNL A   1      33.918  34.335  30.859  1.00  0.00    -0.237 OA
ATOM     82  O   UNL A   1      33.874  32.695  32.711  1.00  0.00    -0.237 OA
ATOM     83  O   UNL A   1      34.964  34.881  33.030  1.00  0.00    -0.744 OA
ENDBRANCH  79  80
ENDBRANCH  47  72
BRANCH  59  84
ATOM     84  C   UNL A   1      45.006  34.569  30.184  1.00  0.00     0.058 A 
ATOM     85  C   UNL A   1      45.567  34.839  31.442  1.00  0.00     0.135 A 
ATOM     86  C   UNL A   1      45.070  35.576  29.208  1.00  0.00     0.135 A 
ATOM     87  F   UNL A   1      45.527  33.911  32.412  1.00  0.00    -0.206 F 
ATOM     88  C   UNL A   1      46.151  36.068  31.728  1.00  0.00     0.059 A 
ATOM     89  C   UNL A   1      45.673  36.804  29.462  1.00  0.00     0.059 A 
ATOM     90  F   UNL A   1      44.560  35.365  27.984  1.00  0.00    -0.206 F 
ATOM     91  C   UNL A   1      46.201  37.044  30.730  1.00  0.00     0.060 A 
BRANCH  91  92
ATOM     92  S   UNL A   1      46.992  38.624  31.101  1.00  0.00     0.124 S 
ATOM     93  O   UNL A   1      46.212  39.082  32.246  1.00  0.00    -0.237 OA
ATOM     94  O   UNL A   1      48.367  38.226  31.389  1.00  0.00    -0.237 OA
ATOM     95  O   UNL A   1      46.813  39.391  29.872  1.00  0.00    -0.744 OA
ENDBRANCH  91  92
ENDBRANCH  59  84
ENDBRANCH  33  34
ENDBRANCH  26  28
ENDBRANCH  25  26
ENDBRANCH  24  25
ENDBRANCH  23  24
ENDBRANCH  22  23
ENDBRANCH   1  22
TORSDOF 21
ENDMDL
MODEL 3
REMARK VINA RESULT:     -10.4      1.419      2.302
REMARK SMILES C[C@@H](C(=O)OCCOCCOC(=O)c1ccc(-c2c3nc(c(-c4c(F)cc(S(=O)(=O)[O-])cc4F)c4ccc([nH]4)c(-c4c(F)cc(S(=O)(=O)[O-])cc4F)c4nc(c(-c5c(F)cc(S(=O)(=O)[O-])cc5F)c5ccc2[nH]5)C=C4)C=C3)cc1)c1ccc(C[C@@H]2CCC[C@@H]2O)cc1
REMARK SMILES IDX 7 1 6 2 5 3 3 4 4 5 2 6 1 7 80 8 81 9 92 10 82 11 91 12
REMARK SMILES IDX 83 13 84 14 85 15 86 16 89 17 87 18 88 19 90 20 8 22 9 23
REMARK SMILES IDX 10 24 11 25 12 26 13 27 14 28 15 29 79 30 16 31 78 32 17 33
REMARK SMILES IDX 18 34 19 35 72 36 20 37 77 38 71 39 73 40 21 41 76 42 70 43
REMARK SMILES IDX 69 44 22 46 56 47 35 48 55 49 36 50 39 51 54 52 74 53 37 54
REMARK SMILES IDX 38 55 53 57 75 58 40 59 23 60 24 61 33 62 25 63 26 64 32 65
REMARK SMILES IDX 34 66 27 67 28 68 29 69 30 70 31 71 57 72 58 73 67 74 59 75
REMARK SMILES IDX 60 76 66 77 68 78 61 79 62 80 63 81 64 82 65 83 41 84 42 85
REMARK SMILES IDX 51 86 43 87 44 88 50 89 52 90 45 91 46 92 47 93 48 94 49 95
REMARK H PARENT 90 21 73 45 39 56
REMARK Flexibility Score: inf
ROOT
ATOM      1  C   UNL A   1      40.398  21.603  26.880  1.00  0.00     0.202 C 
ENDROOT
BRANCH   1   2
ATOM      2  C   UNL A   1      39.430  22.324  25.937  1.00  0.00     0.261 C 
BRANCH   2   3
ATOM      3  O   UNL A   1      38.101  21.798  26.101  1.00  0.00    -0.463 OA
BRANCH   3   4
ATOM      4  C   UNL A   1      37.648  21.007  25.094  1.00  0.00     0.313 C 
ATOM      5  O   UNL A   1      38.016  19.853  24.903  1.00  0.00    -0.252 OA
BRANCH   4   6
ATOM      6  C   UNL A   1      36.525  21.672  24.290  1.00  0.00     0.126 C 
ATOM      7  C   UNL A   1      36.968  22.828  23.386  1.00  0.00     0.025 C 
BRANCH   6   8
ATOM      8  C   UNL A   1      35.346  22.089  25.167  1.00  0.00    -0.034 A 
ATOM      9  C   UNL A   1      34.359  21.180  25.574  1.00  0.00     0.005 A 
ATOM     10  C   UNL A   1      35.221  23.423  25.578  1.00  0.00     0.005 A 
ATOM     11  C   UNL A   1      33.245  21.601  26.300  1.00  0.00     0.004 A 
ATOM     12  C   UNL A   1      34.090  23.849  26.281  1.00  0.00     0.004 A 
ATOM     13  C   UNL A   1      33.059  22.952  26.589  1.00  0.00    -0.048 A 
BRANCH  13  14
ATOM     14  C   UNL A   1      31.750  23.445  27.155  1.00  0.00     0.041 C 
BRANCH  14  15
ATOM     15  C   UNL A   1      30.672  23.920  26.147  1.00  0.00     0.022 C 
ATOM     16  C   UNL A   1      30.767  23.304  24.743  1.00  0.00     0.007 C 
ATOM     17  C   UNL A   1      30.588  25.420  25.844  1.00  0.00     0.117 C 
ATOM     18  C   UNL A   1      31.407  24.358  23.833  1.00  0.00     0.003 C 
ATOM     19  C   UNL A   1      31.512  25.640  24.651  1.00  0.00     0.032 C 
BRANCH  17  20
ATOM     20  O   UNL A   1      30.889  26.245  26.950  1.00  0.00    -0.393 OA
ATOM     21  H   UNL A   1      31.629  26.831  26.725  1.00  0.00     0.210 HD
ENDBRANCH  17  20
ENDBRANCH  14  15
ENDBRANCH  13  14
ENDBRANCH   6   8
ENDBRANCH   4   6
ENDBRANCH   3   4
ENDBRANCH   2   3
ENDBRANCH   1   2
BRANCH   1  22
ATOM     22  O   UNL A   1      41.322  22.442  27.582  1.00  0.00    -0.374 OA
BRANCH  22  23
ATOM     23  C   UNL A   1      42.628  22.583  27.022  1.00  0.00     0.202 C 
BRANCH  23  24
ATOM     24  C   UNL A   1      42.753  23.393  25.729  1.00  0.00     0.261 C 
BRANCH  24  25
ATOM     25  O   UNL A   1      43.113  24.761  25.982  1.00  0.00    -0.460 OA
BRANCH  25  26
ATOM     26  C   UNL A   1      42.066  25.616  26.027  1.00  0.00     0.338 C 
ATOM     27  O   UNL A   1      41.158  25.713  25.211  1.00  0.00    -0.246 OA
BRANCH  26  28
ATOM     28  C   UNL A   1      42.043  26.322  27.319  1.00  0.00     0.060 A 
ATOM     29  C   UNL A   1      40.996  26.013  28.198  1.00  0.00     0.016 A 
ATOM     30  C   UNL A   1      42.976  27.309  27.645  1.00  0.00     0.016 A 
ATOM     31  C   UNL A   1      40.841  26.733  29.378  1.00  0.00     0.010 A 
ATOM     32  C   UNL A   1      42.814  28.037  28.829  1.00  0.00     0.010 A 
ATOM     33  C   UNL A   1      41.723  27.779  29.679  1.00  0.00    -0.014 A 
BRANCH  33  34
ATOM     34  C   UNL A   1      41.398  28.697  30.795  1.00  0.00     0.031 A 
ATOM     35  C   UNL A   1      42.228  28.633  32.049  1.00  0.00     0.074 A 
ATOM     36  C   UNL A   1      40.413  29.604  30.676  1.00  0.00     0.049 A 
ATOM     37  N   UNL A   1      42.121  29.331  33.150  1.00  0.00    -0.248 NA
ATOM     38  C   UNL A   1      43.325  27.651  32.063  1.00  0.00     0.031 C 
ATOM     39  C   UNL A   1      39.571  29.786  29.493  1.00  0.00     0.029 A 
ATOM     40  N   UNL A   1      39.954  30.545  31.563  1.00  0.00    -0.354 N 
ATOM     41  C   UNL A   1      43.130  28.870  33.989  1.00  0.00     0.074 A 
ATOM     42  C   UNL A   1      43.821  27.814  33.281  1.00  0.00     0.031 C 
ATOM     43  C   UNL A   1      38.691  30.774  29.732  1.00  0.00     0.029 A 
ATOM     44  C   UNL A   1      38.889  31.273  31.091  1.00  0.00     0.049 A 
ATOM     45  H   UNL A   1      40.350  30.683  32.454  1.00  0.00     0.167 HD
ATOM     46  C   UNL A   1      43.454  29.295  35.233  1.00  0.00     0.037 A 
ATOM     47  C   UNL A   1      38.148  32.222  31.697  1.00  0.00     0.037 A 
ATOM     48  C   UNL A   1      42.767  30.350  35.928  1.00  0.00     0.049 A 
ATOM     49  C   UNL A   1      38.492  32.637  33.104  1.00  0.00     0.074 A 
ATOM     50  C   UNL A   1      43.031  30.870  37.183  1.00  0.00     0.029 A 
ATOM     51  N   UNL A   1      41.673  31.043  35.430  1.00  0.00    -0.354 N 
ATOM     52  N   UNL A   1      39.462  32.209  33.878  1.00  0.00    -0.248 NA
ATOM     53  C   UNL A   1      37.642  33.665  33.722  1.00  0.00     0.031 C 
ATOM     54  C   UNL A   1      42.070  31.847  37.462  1.00  0.00     0.029 A 
ATOM     55  C   UNL A   1      41.236  31.970  36.362  1.00  0.00     0.049 A 
ATOM     56  H   UNL A   1      41.267  30.899  34.545  1.00  0.00     0.167 HD
ATOM     57  C   UNL A   1      39.356  32.934  35.060  1.00  0.00     0.074 A 
ATOM     58  C   UNL A   1      38.232  33.834  34.898  1.00  0.00     0.031 C 
ATOM     59  C   UNL A   1      40.120  32.864  36.179  1.00  0.00     0.037 A 
BRANCH  46  60
ATOM     60  C   UNL A   1      44.588  28.599  35.934  1.00  0.00     0.058 A 
ATOM     61  C   UNL A   1      45.916  29.032  35.802  1.00  0.00     0.135 A 
ATOM     62  C   UNL A   1      44.336  27.504  36.776  1.00  0.00     0.135 A 
ATOM     63  F   UNL A   1      46.215  30.062  34.995  1.00  0.00    -0.206 F 
ATOM     64  C   UNL A   1      46.959  28.391  36.465  1.00  0.00     0.059 A 
ATOM     65  C   UNL A   1      45.359  26.863  37.468  1.00  0.00     0.059 A 
ATOM     66  F   UNL A   1      43.084  27.046  36.933  1.00  0.00    -0.206 F 
ATOM     67  C   UNL A   1      46.670  27.307  37.296  1.00  0.00     0.060 A 
BRANCH  67  68
ATOM     68  S   UNL A   1      48.031  26.491  38.156  1.00  0.00     0.124 S 
ATOM     69  O   UNL A   1      49.167  26.856  37.315  1.00  0.00    -0.237 OA
ATOM     70  O   UNL A   1      47.991  27.119  39.473  1.00  0.00    -0.237 OA
ATOM     71  O   UNL A   1      47.656  25.081  38.126  1.00  0.00    -0.744 OA
ENDBRANCH  67  68
ENDBRANCH  46  60
BRANCH  47  72
ATOM     72  C   UNL A   1      37.001  32.840  30.981  1.00  0.00     0.058 A 
ATOM     73  C   UNL A   1      37.198  33.858  30.037  1.00  0.00     0.135 A 
ATOM     74  C   UNL A   1      35.683  32.427  31.232  1.00  0.00     0.135 A 
ATOM     75  F   UNL A   1      38.438  34.296  29.770  1.00  0.00    -0.206 F 
ATOM     76  C   UNL A   1      36.129  34.455  29.375  1.00  0.00     0.059 A 
ATOM     77  C   UNL A   1      34.600  32.991  30.566  1.00  0.00     0.059 A 
ATOM     78  F   UNL A   1      35.442  31.450  32.120  1.00  0.00    -0.206 F 
ATOM     79  C   UNL A   1      34.833  34.013  29.647  1.00  0.00     0.060 A 
BRANCH  79  80
ATOM     80  S   UNL A   1      33.455  34.763  28.751  1.00  0.00     0.124 S 
ATOM     81  O   UNL A   1      33.110  33.708  27.805  1.00  0.00    -0.237 OA
ATOM     82  O   UNL A   1      32.490  35.006  29.819  1.00  0.00    -0.237 OA
ATOM     83  O   UNL A   1      34.050  35.964  28.170  1.00  0.00    -0.744 OA
ENDBRANCH  79  80
ENDBRANCH  47  72
BRANCH  59  84
ATOM     84  C   UNL A   1      39.793  33.808  37.302  1.00  0.00     0.058 A 
ATOM     85  C   UNL A   1      38.913  33.450  38.335  1.00  0.00     0.135 A 
ATOM     86  C   UNL A   1      40.413  35.067  37.375  1.00  0.00     0.135 A 
ATOM     87  F   UNL A   1      38.290  32.261  38.309  1.00  0.00    -0.206 F 
ATOM     88  C   UNL A   1      38.640  34.315  39.389  1.00  0.00     0.059 A 
ATOM     89  C   UNL A   1      40.176  35.937  38.434  1.00  0.00     0.059 A 
ATOM     90  F   UNL A   1      41.273  35.453  36.419  1.00  0.00    -0.206 F 
ATOM     91  C   UNL A   1      39.280  35.557  39.431  1.00  0.00     0.060 A 
BRANCH  91  92
ATOM     92  S   UNL A   1      38.945  36.658  40.823  1.00  0.00     0.124 S 
ATOM     93  O   UNL A   1      40.287  36.875  41.355  1.00  0.00    -0.237 OA
ATOM     94  O   UNL A   1      38.328  37.809  40.170  1.00  0.00    -0.237 OA
ATOM     95  O   UNL A   1      38.053  35.873  41.670  1.00  0.00    -0.744 OA
ENDBRANCH  91  92
ENDBRANCH  59  84
ENDBRANCH  33  34
ENDBRANCH  26  28
ENDBRANCH  25  26
ENDBRANCH  24  25
ENDBRANCH  23  24
ENDBRANCH  22  23
ENDBRANCH   1  22
TORSDOF 21
ENDMDL
