MODEL 1
REMARK VINA RESULT:     -11.7      0.000      0.000
REMARK SMILES C[C@H]1Oc2ccccc2C=C1/C=C/C(=O)N[C@H](C(=O)OCCOCCOC(=O)c1ccc(-c2c3nc(c(-c4c(F)cc(S(=O)(=O)[O-])cc4F)c4ccc([nH]4)c(-c4c(F)cc(S(=O)(=O)[O-])cc4F)c4nc(c(-c5c(F)cc(S(=O)(=O)[O-])cc5F)c5ccc2[nH]5)C=C4)C=C3)cc1)c1ccccc1
REMARK SMILES IDX 23 1 22 2 21 3 20 4 18 5 19 6 17 7 16 8 14 9 15 10 13 12
REMARK SMILES IDX 12 13 11 14 1 15 2 16 3 17 4 18 10 19 5 20 9 21 6 22 8 23
REMARK SMILES IDX 7 24 95 25 96 26 100 27 97 28 99 29 98 30 24 31 25 32 26 33
REMARK SMILES IDX 27 34 28 35 29 36 30 37 94 38 31 39 93 40 32 41 33 42 34 43
REMARK SMILES IDX 87 44 35 45 92 46 86 47 88 48 36 49 91 50 85 51 84 52 37 54
REMARK SMILES IDX 71 55 50 56 70 57 51 58 54 59 69 60 89 61 52 62 53 63 68 65
REMARK SMILES IDX 90 66 55 67 38 68 39 69 48 70 40 71 41 72 47 73 49 74 42 75
REMARK SMILES IDX 43 76 44 77 45 78 46 79 72 80 73 81 82 82 74 83 75 84 81 85
REMARK SMILES IDX 83 86 76 87 77 88 78 89 79 90 80 91 56 92 57 93 66 94 58 95
REMARK SMILES IDX 59 96 65 97 67 98 60 99 61 100 62 101 63 102 64 103
REMARK H PARENT 16 11 88 53 54 64
REMARK Flexibility Score: inf
ROOT
ATOM      1  O   UNL A   1      34.412  31.322  27.610  1.00  0.00    -0.374 OA
ENDROOT
BRANCH   1   2
ATOM      2  C   UNL A   1      33.229  30.645  27.217  1.00  0.00     0.202 C 
BRANCH   2   3
ATOM      3  C   UNL A   1      33.328  29.463  26.235  1.00  0.00     0.261 C 
BRANCH   3   4
ATOM      4  O   UNL A   1      33.545  28.164  26.836  1.00  0.00    -0.461 OA
BRANCH   4   5
ATOM      5  C   UNL A   1      32.388  27.480  27.049  1.00  0.00     0.333 C 
ATOM      6  O   UNL A   1      31.600  27.821  27.930  1.00  0.00    -0.249 OA
BRANCH   5   7
ATOM      7  C   UNL A   1      32.173  26.215  26.165  1.00  0.00     0.223 C 
BRANCH   7   8
ATOM      8  N   UNL A   1      30.879  25.670  26.602  1.00  0.00    -0.335 N 
ATOM      9  C   UNL A   1      30.347  24.417  26.572  1.00  0.00     0.244 C 
ATOM     10  O   UNL A   1      29.181  24.296  26.957  1.00  0.00    -0.270 OA
ATOM     11  H   UNL A   1      30.278  26.344  26.993  1.00  0.00     0.165 HD
BRANCH   9  12
ATOM     12  C   UNL A   1      31.083  23.155  26.202  1.00  0.00     0.071 C 
ATOM     13  C   UNL A   1      31.885  22.848  25.165  1.00  0.00     0.013 C 
BRANCH  13  14
ATOM     14  C   UNL A   1      32.693  21.649  24.959  1.00  0.00    -0.007 C 
ATOM     15  C   UNL A   1      34.342  21.907  26.911  1.00  0.00     0.058 C 
ATOM     16  C   UNL A   1      34.163  21.727  25.400  1.00  0.00     0.200 C 
ATOM     17  O   UNL A   1      35.007  20.614  25.042  1.00  0.00    -0.485 OA
ATOM     18  C   UNL A   1      34.406  19.455  24.656  1.00  0.00     0.127 A 
ATOM     19  C   UNL A   1      32.199  20.529  24.414  1.00  0.00     0.019 C 
ATOM     20  C   UNL A   1      35.228  18.331  24.581  1.00  0.00     0.047 A 
ATOM     21  C   UNL A   1      33.059  19.364  24.312  1.00  0.00     0.017 A 
ATOM     22  C   UNL A   1      34.705  17.111  24.157  1.00  0.00     0.004 A 
ATOM     23  C   UNL A   1      32.540  18.143  23.872  1.00  0.00     0.012 A 
ATOM     24  C   UNL A   1      33.363  17.019  23.795  1.00  0.00     0.001 A 
ENDBRANCH  13  14
ENDBRANCH   9  12
ENDBRANCH   7   8
BRANCH   7  25
ATOM     25  C   UNL A   1      32.336  26.190  24.630  1.00  0.00    -0.014 A 
ATOM     26  C   UNL A   1      33.545  25.809  24.023  1.00  0.00     0.006 A 
ATOM     27  C   UNL A   1      31.252  26.392  23.744  1.00  0.00     0.006 A 
ATOM     28  C   UNL A   1      33.660  25.700  22.621  1.00  0.00     0.000 A 
ATOM     29  C   UNL A   1      31.374  26.347  22.352  1.00  0.00     0.000 A 
ATOM     30  C   UNL A   1      32.584  25.996  21.785  1.00  0.00     0.000 A 
ENDBRANCH   7  25
ENDBRANCH   5   7
ENDBRANCH   4   5
ENDBRANCH   3   4
ENDBRANCH   2   3
ENDBRANCH   1   2
BRANCH   1  31
ATOM     31  C   UNL A   1      34.315  32.386  28.549  1.00  0.00     0.202 C 
BRANCH  31  32
ATOM     32  C   UNL A   1      35.135  32.352  29.849  1.00  0.00     0.261 C 
BRANCH  32  33
ATOM     33  O   UNL A   1      35.749  31.081  30.126  1.00  0.00    -0.460 OA
BRANCH  33  34
ATOM     34  C   UNL A   1      36.738  31.104  31.055  1.00  0.00     0.338 C 
ATOM     35  O   UNL A   1      36.633  31.413  32.233  1.00  0.00    -0.246 OA
BRANCH  34  36
ATOM     36  C   UNL A   1      37.957  30.490  30.495  1.00  0.00     0.060 A 
ATOM     37  C   UNL A   1      38.129  30.361  29.118  1.00  0.00     0.016 A 
ATOM     38  C   UNL A   1      38.965  30.079  31.380  1.00  0.00     0.016 A 
ATOM     39  C   UNL A   1      39.333  29.849  28.626  1.00  0.00     0.010 A 
ATOM     40  C   UNL A   1      40.162  29.559  30.887  1.00  0.00     0.010 A 
ATOM     41  C   UNL A   1      40.365  29.467  29.504  1.00  0.00    -0.014 A 
BRANCH  41  42
ATOM     42  C   UNL A   1      41.709  29.142  28.966  1.00  0.00     0.031 A 
ATOM     43  C   UNL A   1      42.820  30.147  28.948  1.00  0.00     0.074 A 
ATOM     44  C   UNL A   1      41.909  27.899  28.488  1.00  0.00     0.049 A 
ATOM     45  N   UNL A   1      44.075  29.972  28.619  1.00  0.00    -0.248 NA
ATOM     46  C   UNL A   1      42.485  31.522  29.342  1.00  0.00     0.031 C 
ATOM     47  C   UNL A   1      40.882  26.857  28.414  1.00  0.00     0.029 A 
ATOM     48  N   UNL A   1      43.034  27.291  27.994  1.00  0.00    -0.354 N 
ATOM     49  C   UNL A   1      44.691  31.203  28.798  1.00  0.00     0.074 A 
ATOM     50  C   UNL A   1      43.656  32.133  29.205  1.00  0.00     0.031 C 
ATOM     51  C   UNL A   1      41.436  25.725  27.955  1.00  0.00     0.029 A 
ATOM     52  C   UNL A   1      42.847  25.967  27.673  1.00  0.00     0.049 A 
ATOM     53  H   UNL A   1      43.893  27.757  27.881  1.00  0.00     0.167 HD
ATOM     54  C   UNL A   1      46.002  31.517  28.660  1.00  0.00     0.037 A 
ATOM     55  C   UNL A   1      43.717  25.045  27.217  1.00  0.00     0.037 A 
ATOM     56  C   UNL A   1      47.014  30.587  28.222  1.00  0.00     0.049 A 
ATOM     57  C   UNL A   1      45.155  25.433  27.018  1.00  0.00     0.074 A 
ATOM     58  C   UNL A   1      48.373  30.803  28.067  1.00  0.00     0.029 A 
ATOM     59  N   UNL A   1      46.779  29.267  27.856  1.00  0.00    -0.354 N 
ATOM     60  N   UNL A   1      45.738  26.583  27.265  1.00  0.00    -0.248 NA
ATOM     61  C   UNL A   1      46.055  24.403  26.485  1.00  0.00     0.031 C 
ATOM     62  C   UNL A   1      48.949  29.635  27.558  1.00  0.00     0.029 A 
ATOM     63  C   UNL A   1      47.962  28.669  27.451  1.00  0.00     0.049 A 
ATOM     64  H   UNL A   1      45.901  28.823  27.881  1.00  0.00     0.167 HD
ATOM     65  C   UNL A   1      47.077  26.407  26.938  1.00  0.00     0.074 A 
ATOM     66  C   UNL A   1      47.221  25.036  26.491  1.00  0.00     0.031 C 
ATOM     67  C   UNL A   1      48.094  27.301  27.006  1.00  0.00     0.037 A 
BRANCH  54  68
ATOM     68  C   UNL A   1      46.429  32.921  29.001  1.00  0.00     0.058 A 
ATOM     69  C   UNL A   1      46.446  33.932  28.027  1.00  0.00     0.135 A 
ATOM     70  C   UNL A   1      46.756  33.279  30.319  1.00  0.00     0.135 A 
ATOM     71  F   UNL A   1      46.150  33.645  26.749  1.00  0.00    -0.206 F 
ATOM     72  C   UNL A   1      46.795  35.241  28.341  1.00  0.00     0.059 A 
ATOM     73  C   UNL A   1      47.081  34.589  30.661  1.00  0.00     0.059 A 
ATOM     74  F   UNL A   1      46.751  32.355  31.292  1.00  0.00    -0.206 F 
ATOM     75  C   UNL A   1      47.109  35.560  29.662  1.00  0.00     0.060 A 
BRANCH  75  76
ATOM     76  S   UNL A   1      47.555  37.268  30.048  1.00  0.00     0.124 S 
ATOM     77  O   UNL A   1      46.922  37.445  31.352  1.00  0.00    -0.237 OA
ATOM     78  O   UNL A   1      49.014  37.212  30.055  1.00  0.00    -0.237 OA
ATOM     79  O   UNL A   1      46.963  38.031  28.955  1.00  0.00    -0.744 OA
ENDBRANCH  75  76
ENDBRANCH  54  68
BRANCH  55  80
ATOM     80  C   UNL A   1      43.252  23.655  26.973  1.00  0.00     0.058 A 
ATOM     81  C   UNL A   1      43.032  23.190  25.667  1.00  0.00     0.135 A 
ATOM     82  C   UNL A   1      43.063  22.750  28.030  1.00  0.00     0.135 A 
ATOM     83  F   UNL A   1      43.196  24.018  24.624  1.00  0.00    -0.206 F 
ATOM     84  C   UNL A   1      42.634  21.880  25.418  1.00  0.00     0.059 A 
ATOM     85  C   UNL A   1      42.694  21.427  27.803  1.00  0.00     0.059 A 
ATOM     86  F   UNL A   1      43.279  23.139  29.295  1.00  0.00    -0.206 F 
ATOM     87  C   UNL A   1      42.476  21.005  26.492  1.00  0.00     0.060 A 
BRANCH  87  88
ATOM     88  S   UNL A   1      42.018  19.292  26.147  1.00  0.00     0.124 S 
ATOM     89  O   UNL A   1      42.825  19.004  24.967  1.00  0.00    -0.237 OA
ATOM     90  O   UNL A   1      42.420  18.618  27.377  1.00  0.00    -0.237 OA
ATOM     91  O   UNL A   1      40.577  19.368  25.923  1.00  0.00    -0.744 OA
ENDBRANCH  87  88
ENDBRANCH  55  80
BRANCH  67  92
ATOM     92  C   UNL A   1      49.465  26.833  26.600  1.00  0.00     0.058 A 
ATOM     93  C   UNL A   1      49.954  27.028  25.299  1.00  0.00     0.135 A 
ATOM     94  C   UNL A   1      50.332  26.261  27.547  1.00  0.00     0.135 A 
ATOM     95  F   UNL A   1      49.165  27.560  24.354  1.00  0.00    -0.206 F 
ATOM     96  C   UNL A   1      51.251  26.666  24.949  1.00  0.00     0.059 A 
ATOM     97  C   UNL A   1      51.642  25.919  27.227  1.00  0.00     0.059 A 
ATOM     98  F   UNL A   1      49.917  26.057  28.807  1.00  0.00    -0.206 F 
ATOM     99  C   UNL A   1      52.092  26.122  25.922  1.00  0.00     0.060 A 
BRANCH  99 100
ATOM    100  S   UNL A   1      53.791  25.720  25.466  1.00  0.00     0.124 S 
ATOM    101  O   UNL A   1      54.105  24.650  26.408  1.00  0.00    -0.237 OA
ATOM    102  O   UNL A   1      53.648  25.313  24.071  1.00  0.00    -0.237 OA
ATOM    103  O   UNL A   1      54.509  26.973  25.678  1.00  0.00    -0.744 OA
ENDBRANCH  99 100
ENDBRANCH  67  92
ENDBRANCH  41  42
ENDBRANCH  34  36
ENDBRANCH  33  34
ENDBRANCH  32  33
ENDBRANCH  31  32
ENDBRANCH   1  31
TORSDOF 21
ENDMDL
MODEL 2
REMARK VINA RESULT:     -11.7      1.370      2.605
REMARK SMILES C[C@H]1Oc2ccccc2C=C1/C=C/C(=O)N[C@H](C(=O)OCCOCCOC(=O)c1ccc(-c2c3nc(c(-c4c(F)cc(S(=O)(=O)[O-])cc4F)c4ccc([nH]4)c(-c4c(F)cc(S(=O)(=O)[O-])cc4F)c4nc(c(-c5c(F)cc(S(=O)(=O)[O-])cc5F)c5ccc2[nH]5)C=C4)C=C3)cc1)c1ccccc1
REMARK SMILES IDX 23 1 22 2 21 3 20 4 18 5 19 6 17 7 16 8 14 9 15 10 13 12
REMARK SMILES IDX 12 13 11 14 1 15 2 16 3 17 4 18 10 19 5 20 9 21 6 22 8 23
REMARK SMILES IDX 7 24 95 25 96 26 100 27 97 28 99 29 98 30 24 31 25 32 26 33
REMARK SMILES IDX 27 34 28 35 29 36 30 37 94 38 31 39 93 40 32 41 33 42 34 43
REMARK SMILES IDX 87 44 35 45 92 46 86 47 88 48 36 49 91 50 85 51 84 52 37 54
REMARK SMILES IDX 71 55 50 56 70 57 51 58 54 59 69 60 89 61 52 62 53 63 68 65
REMARK SMILES IDX 90 66 55 67 38 68 39 69 48 70 40 71 41 72 47 73 49 74 42 75
REMARK SMILES IDX 43 76 44 77 45 78 46 79 72 80 73 81 82 82 74 83 75 84 81 85
REMARK SMILES IDX 83 86 76 87 77 88 78 89 79 90 80 91 56 92 57 93 66 94 58 95
REMARK SMILES IDX 59 96 65 97 67 98 60 99 61 100 62 101 63 102 64 103
REMARK H PARENT 16 11 88 53 54 64
REMARK Flexibility Score: inf
ROOT
ATOM      1  O   UNL A   1      35.051  33.487  27.980  1.00  0.00    -0.374 OA
ENDROOT
BRANCH   1   2
ATOM      2  C   UNL A   1      33.890  32.670  27.990  1.00  0.00     0.202 C 
BRANCH   2   3
ATOM      3  C   UNL A   1      33.976  31.233  27.443  1.00  0.00     0.261 C 
BRANCH   3   4
ATOM      4  O   UNL A   1      32.709  30.573  27.212  1.00  0.00    -0.461 OA
BRANCH   4   5
ATOM      5  C   UNL A   1      32.847  29.358  26.615  1.00  0.00     0.333 C 
ATOM      6  O   UNL A   1      33.677  28.543  27.016  1.00  0.00    -0.249 OA
BRANCH   5   7
ATOM      7  C   UNL A   1      31.951  29.109  25.365  1.00  0.00     0.223 C 
BRANCH   7   8
ATOM      8  N   UNL A   1      32.857  29.269  24.217  1.00  0.00    -0.335 N 
ATOM      9  C   UNL A   1      33.833  28.477  23.694  1.00  0.00     0.244 C 
ATOM     10  O   UNL A   1      34.478  28.938  22.748  1.00  0.00    -0.270 OA
ATOM     11  H   UNL A   1      32.735  30.117  23.732  1.00  0.00     0.165 HD
BRANCH   9  12
ATOM     12  C   UNL A   1      34.130  27.057  24.101  1.00  0.00     0.071 C 
ATOM     13  C   UNL A   1      33.483  25.898  23.875  1.00  0.00     0.013 C 
BRANCH  13  14
ATOM     14  C   UNL A   1      33.920  24.535  24.169  1.00  0.00    -0.007 C 
ATOM     15  C   UNL A   1      32.041  23.226  23.006  1.00  0.00     0.058 C 
ATOM     16  C   UNL A   1      32.817  23.474  24.303  1.00  0.00     0.200 C 
ATOM     17  O   UNL A   1      33.226  22.170  24.763  1.00  0.00    -0.485 OA
ATOM     18  C   UNL A   1      34.552  21.864  24.722  1.00  0.00     0.127 A 
ATOM     19  C   UNL A   1      35.210  24.207  24.318  1.00  0.00     0.019 C 
ATOM     20  C   UNL A   1      34.880  20.523  24.911  1.00  0.00     0.047 A 
ATOM     21  C   UNL A   1      35.555  22.815  24.539  1.00  0.00     0.017 A 
ATOM     22  C   UNL A   1      36.217  20.126  24.923  1.00  0.00     0.004 A 
ATOM     23  C   UNL A   1      36.895  22.417  24.567  1.00  0.00     0.012 A 
ATOM     24  C   UNL A   1      37.224  21.075  24.759  1.00  0.00     0.001 A 
ENDBRANCH  13  14
ENDBRANCH   9  12
ENDBRANCH   7   8
BRANCH   7  25
ATOM     25  C   UNL A   1      31.004  27.900  25.203  1.00  0.00    -0.014 A 
ATOM     26  C   UNL A   1      30.247  27.707  24.035  1.00  0.00     0.006 A 
ATOM     27  C   UNL A   1      30.954  26.839  26.138  1.00  0.00     0.006 A 
ATOM     28  C   UNL A   1      29.454  26.554  23.857  1.00  0.00     0.000 A 
ATOM     29  C   UNL A   1      30.124  25.723  25.996  1.00  0.00     0.000 A 
ATOM     30  C   UNL A   1      29.370  25.577  24.848  1.00  0.00     0.000 A 
ENDBRANCH   7  25
ENDBRANCH   5   7
ENDBRANCH   4   5
ENDBRANCH   3   4
ENDBRANCH   2   3
ENDBRANCH   1   2
BRANCH   1  31
ATOM     31  C   UNL A   1      35.553  33.980  29.216  1.00  0.00     0.202 C 
BRANCH  31  32
ATOM     32  C   UNL A   1      35.682  33.046  30.430  1.00  0.00     0.261 C 
BRANCH  32  33
ATOM     33  O   UNL A   1      36.970  32.416  30.556  1.00  0.00    -0.460 OA
BRANCH  33  34
ATOM     34  C   UNL A   1      36.942  31.081  30.796  1.00  0.00     0.338 C 
ATOM     35  O   UNL A   1      36.002  30.432  31.234  1.00  0.00    -0.246 OA
BRANCH  34  36
ATOM     36  C   UNL A   1      38.160  30.454  30.248  1.00  0.00     0.060 A 
ATOM     37  C   UNL A   1      38.383  30.399  28.873  1.00  0.00     0.016 A 
ATOM     38  C   UNL A   1      39.114  29.952  31.146  1.00  0.00     0.016 A 
ATOM     39  C   UNL A   1      39.586  29.870  28.399  1.00  0.00     0.010 A 
ATOM     40  C   UNL A   1      40.311  29.416  30.669  1.00  0.00     0.010 A 
ATOM     41  C   UNL A   1      40.567  29.397  29.292  1.00  0.00    -0.014 A 
BRANCH  41  42
ATOM     42  C   UNL A   1      41.919  29.051  28.788  1.00  0.00     0.031 A 
ATOM     43  C   UNL A   1      43.041  30.045  28.783  1.00  0.00     0.074 A 
ATOM     44  C   UNL A   1      42.117  27.801  28.329  1.00  0.00     0.049 A 
ATOM     45  N   UNL A   1      44.301  29.854  28.484  1.00  0.00    -0.248 NA
ATOM     46  C   UNL A   1      42.711  31.428  29.154  1.00  0.00     0.031 C 
ATOM     47  C   UNL A   1      41.080  26.768  28.245  1.00  0.00     0.029 A 
ATOM     48  N   UNL A   1      43.247  27.176  27.868  1.00  0.00    -0.354 N 
ATOM     49  C   UNL A   1      44.926  31.080  28.663  1.00  0.00     0.074 A 
ATOM     50  C   UNL A   1      43.892  32.025  29.036  1.00  0.00     0.031 C 
ATOM     51  C   UNL A   1      41.633  25.626  27.812  1.00  0.00     0.029 A 
ATOM     52  C   UNL A   1      43.053  25.850  27.559  1.00  0.00     0.049 A 
ATOM     53  H   UNL A   1      44.112  27.632  27.768  1.00  0.00     0.167 HD
ATOM     54  C   UNL A   1      46.243  31.378  28.550  1.00  0.00     0.037 A 
ATOM     55  C   UNL A   1      43.922  24.913  27.133  1.00  0.00     0.037 A 
ATOM     56  C   UNL A   1      47.254  30.433  28.146  1.00  0.00     0.049 A 
ATOM     57  C   UNL A   1      45.369  25.285  26.962  1.00  0.00     0.074 A 
ATOM     58  C   UNL A   1      48.619  30.634  28.019  1.00  0.00     0.029 A 
ATOM     59  N   UNL A   1      47.014  29.111  27.791  1.00  0.00    -0.354 N 
ATOM     60  N   UNL A   1      45.958  26.431  27.208  1.00  0.00    -0.248 NA
ATOM     61  C   UNL A   1      46.270  24.239  26.461  1.00  0.00     0.031 C 
ATOM     62  C   UNL A   1      49.194  29.453  27.537  1.00  0.00     0.029 A 
ATOM     63  C   UNL A   1      48.199  28.496  27.419  1.00  0.00     0.049 A 
ATOM     64  H   UNL A   1      46.131  28.677  27.801  1.00  0.00     0.167 HD
ATOM     65  C   UNL A   1      47.302  26.237  26.913  1.00  0.00     0.074 A 
ATOM     66  C   UNL A   1      47.441  24.860  26.486  1.00  0.00     0.031 C 
ATOM     67  C   UNL A   1      48.326  27.122  26.994  1.00  0.00     0.037 A 
BRANCH  54  68
ATOM     68  C   UNL A   1      46.677  32.782  28.884  1.00  0.00     0.058 A 
ATOM     69  C   UNL A   1      47.074  33.129  30.186  1.00  0.00     0.135 A 
ATOM     70  C   UNL A   1      46.764  33.770  27.890  1.00  0.00     0.135 A 
ATOM     71  F   UNL A   1      47.005  32.227  31.178  1.00  0.00    -0.206 F 
ATOM     72  C   UNL A   1      47.519  34.410  30.495  1.00  0.00     0.059 A 
ATOM     73  C   UNL A   1      47.233  35.051  28.171  1.00  0.00     0.059 A 
ATOM     74  F   UNL A   1      46.402  33.493  26.628  1.00  0.00    -0.206 F 
ATOM     75  C   UNL A   1      47.597  35.364  29.479  1.00  0.00     0.060 A 
BRANCH  75  76
ATOM     76  S   UNL A   1      48.182  37.020  29.902  1.00  0.00     0.124 S 
ATOM     77  O   UNL A   1      48.967  37.361  28.719  1.00  0.00    -0.237 OA
ATOM     78  O   UNL A   1      46.933  37.756  30.067  1.00  0.00    -0.237 OA
ATOM     79  O   UNL A   1      48.952  36.809  31.124  1.00  0.00    -0.744 OA
ENDBRANCH  75  76
ENDBRANCH  54  68
BRANCH  55  80
ATOM     80  C   UNL A   1      43.448  23.525  26.895  1.00  0.00     0.058 A 
ATOM     81  C   UNL A   1      43.252  23.047  25.590  1.00  0.00     0.135 A 
ATOM     82  C   UNL A   1      43.227  22.635  27.958  1.00  0.00     0.135 A 
ATOM     83  F   UNL A   1      43.448  23.861  24.542  1.00  0.00    -0.206 F 
ATOM     84  C   UNL A   1      42.846  21.739  25.347  1.00  0.00     0.059 A 
ATOM     85  C   UNL A   1      42.849  21.314  27.738  1.00  0.00     0.059 A 
ATOM     86  F   UNL A   1      43.420  23.037  29.223  1.00  0.00    -0.206 F 
ATOM     87  C   UNL A   1      42.655  20.878  26.428  1.00  0.00     0.060 A 
BRANCH  87  88
ATOM     88  S   UNL A   1      42.187  19.166  26.093  1.00  0.00     0.124 S 
ATOM     89  O   UNL A   1      42.568  18.508  27.336  1.00  0.00    -0.237 OA
ATOM     90  O   UNL A   1      40.754  19.288  25.846  1.00  0.00    -0.237 OA
ATOM     91  O   UNL A   1      42.991  18.820  24.923  1.00  0.00    -0.744 OA
ENDBRANCH  87  88
ENDBRANCH  55  80
BRANCH  67  92
ATOM     92  C   UNL A   1      49.701  26.635  26.624  1.00  0.00     0.058 A 
ATOM     93  C   UNL A   1      50.558  26.056  27.574  1.00  0.00     0.135 A 
ATOM     94  C   UNL A   1      50.133  26.667  25.287  1.00  0.00     0.135 A 
ATOM     95  F   UNL A   1      50.199  26.009  28.866  1.00  0.00    -0.206 F 
ATOM     96  C   UNL A   1      51.796  25.534  27.213  1.00  0.00     0.059 A 
ATOM     97  C   UNL A   1      51.354  26.124  24.898  1.00  0.00     0.059 A 
ATOM     98  F   UNL A   1      49.351  27.204  24.337  1.00  0.00    -0.206 F 
ATOM     99  C   UNL A   1      52.181  25.561  25.871  1.00  0.00     0.060 A 
BRANCH  99 100
ATOM    100  S   UNL A   1      53.761  24.820  25.412  1.00  0.00     0.124 S 
ATOM    101  O   UNL A   1      53.357  23.465  25.048  1.00  0.00    -0.237 OA
ATOM    102  O   UNL A   1      54.192  25.671  24.307  1.00  0.00    -0.237 OA
ATOM    103  O   UNL A   1      54.557  24.931  26.630  1.00  0.00    -0.744 OA
ENDBRANCH  99 100
ENDBRANCH  67  92
ENDBRANCH  41  42
ENDBRANCH  34  36
ENDBRANCH  33  34
ENDBRANCH  32  33
ENDBRANCH  31  32
ENDBRANCH   1  31
TORSDOF 21
ENDMDL
MODEL 3
REMARK VINA RESULT:     -11.7      3.001      8.890
REMARK SMILES C[C@H]1Oc2ccccc2C=C1/C=C/C(=O)N[C@H](C(=O)OCCOCCOC(=O)c1ccc(-c2c3nc(c(-c4c(F)cc(S(=O)(=O)[O-])cc4F)c4ccc([nH]4)c(-c4c(F)cc(S(=O)(=O)[O-])cc4F)c4nc(c(-c5c(F)cc(S(=O)(=O)[O-])cc5F)c5ccc2[nH]5)C=C4)C=C3)cc1)c1ccccc1
REMARK SMILES IDX 23 1 22 2 21 3 20 4 18 5 19 6 17 7 16 8 14 9 15 10 13 12
REMARK SMILES IDX 12 13 11 14 1 15 2 16 3 17 4 18 10 19 5 20 9 21 6 22 8 23
REMARK SMILES IDX 7 24 95 25 96 26 100 27 97 28 99 29 98 30 24 31 25 32 26 33
REMARK SMILES IDX 27 34 28 35 29 36 30 37 94 38 31 39 93 40 32 41 33 42 34 43
REMARK SMILES IDX 87 44 35 45 92 46 86 47 88 48 36 49 91 50 85 51 84 52 37 54
REMARK SMILES IDX 71 55 50 56 70 57 51 58 54 59 69 60 89 61 52 62 53 63 68 65
REMARK SMILES IDX 90 66 55 67 38 68 39 69 48 70 40 71 41 72 47 73 49 74 42 75
REMARK SMILES IDX 43 76 44 77 45 78 46 79 72 80 73 81 82 82 74 83 75 84 81 85
REMARK SMILES IDX 83 86 76 87 77 88 78 89 79 90 80 91 56 92 57 93 66 94 58 95
REMARK SMILES IDX 59 96 65 97 67 98 60 99 61 100 62 101 63 102 64 103
REMARK H PARENT 16 11 88 53 54 64
REMARK Flexibility Score: inf
ROOT
ATOM      1  O   UNL A   1      35.787  23.873  24.173  1.00  0.00    -0.374 OA
ENDROOT
BRANCH   1   2
ATOM      2  C   UNL A   1      34.658  24.239  23.395  1.00  0.00     0.202 C 
BRANCH   2   3
ATOM      3  C   UNL A   1      34.015  25.623  23.603  1.00  0.00     0.261 C 
BRANCH   3   4
ATOM      4  O   UNL A   1      32.639  25.746  23.173  1.00  0.00    -0.461 OA
BRANCH   4   5
ATOM      5  C   UNL A   1      31.940  26.665  23.894  1.00  0.00     0.333 C 
ATOM      6  O   UNL A   1      32.514  27.467  24.628  1.00  0.00    -0.249 OA
BRANCH   5   7
ATOM      7  C   UNL A   1      30.388  26.579  23.783  1.00  0.00     0.223 C 
BRANCH   7   8
ATOM      8  N   UNL A   1      29.945  26.116  25.107  1.00  0.00    -0.335 N 
ATOM      9  C   UNL A   1      30.068  24.927  25.758  1.00  0.00     0.244 C 
ATOM     10  O   UNL A   1      29.512  24.831  26.855  1.00  0.00    -0.270 OA
ATOM     11  H   UNL A   1      29.464  26.801  25.625  1.00  0.00     0.165 HD
BRANCH   9  12
ATOM     12  C   UNL A   1      30.899  23.755  25.304  1.00  0.00     0.071 C 
ATOM     13  C   UNL A   1      31.983  23.156  25.834  1.00  0.00     0.013 C 
BRANCH  13  14
ATOM     14  C   UNL A   1      32.639  21.919  25.417  1.00  0.00    -0.007 C 
ATOM     15  C   UNL A   1      33.917  21.367  27.575  1.00  0.00     0.058 C 
ATOM     16  C   UNL A   1      33.997  21.610  26.065  1.00  0.00     0.200 C 
ATOM     17  O   UNL A   1      34.729  20.488  25.532  1.00  0.00    -0.485 OA
ATOM     18  C   UNL A   1      34.054  19.595  24.756  1.00  0.00     0.127 A 
ATOM     19  C   UNL A   1      32.102  21.085  24.517  1.00  0.00     0.019 C 
ATOM     20  C   UNL A   1      34.709  18.395  24.487  1.00  0.00     0.047 A 
ATOM     21  C   UNL A   1      32.794  19.845  24.215  1.00  0.00     0.017 A 
ATOM     22  C   UNL A   1      34.109  17.440  23.669  1.00  0.00     0.004 A 
ATOM     23  C   UNL A   1      32.200  18.892  23.382  1.00  0.00     0.012 A 
ATOM     24  C   UNL A   1      32.857  17.692  23.110  1.00  0.00     0.001 A 
ENDBRANCH  13  14
ENDBRANCH   9  12
ENDBRANCH   7   8
BRANCH   7  25
ATOM     25  C   UNL A   1      29.494  27.706  23.223  1.00  0.00    -0.014 A 
ATOM     26  C   UNL A   1      28.117  27.761  23.497  1.00  0.00     0.006 A 
ATOM     27  C   UNL A   1      30.020  28.828  22.540  1.00  0.00     0.006 A 
ATOM     28  C   UNL A   1      27.324  28.842  23.058  1.00  0.00     0.000 A 
ATOM     29  C   UNL A   1      29.230  29.873  22.049  1.00  0.00     0.000 A 
ATOM     30  C   UNL A   1      27.874  29.883  22.311  1.00  0.00     0.000 A 
ENDBRANCH   7  25
ENDBRANCH   5   7
ENDBRANCH   4   5
ENDBRANCH   3   4
ENDBRANCH   2   3
ENDBRANCH   1   2
BRANCH   1  31
ATOM     31  C   UNL A   1      36.636  22.832  23.705  1.00  0.00     0.202 C 
BRANCH  31  32
ATOM     32  C   UNL A   1      37.588  22.113  24.674  1.00  0.00     0.261 C 
BRANCH  32  33
ATOM     33  O   UNL A   1      37.763  22.783  25.936  1.00  0.00    -0.460 OA
BRANCH  33  34
ATOM     34  C   UNL A   1      39.013  22.715  26.460  1.00  0.00     0.338 C 
ATOM     35  O   UNL A   1      39.781  21.765  26.410  1.00  0.00    -0.246 OA
BRANCH  34  36
ATOM     36  C   UNL A   1      39.423  24.050  26.936  1.00  0.00     0.060 A 
ATOM     37  C   UNL A   1      39.304  24.402  28.279  1.00  0.00     0.016 A 
ATOM     38  C   UNL A   1      39.981  24.946  26.012  1.00  0.00     0.016 A 
ATOM     39  C   UNL A   1      39.779  25.646  28.703  1.00  0.00     0.010 A 
ATOM     40  C   UNL A   1      40.446  26.192  26.436  1.00  0.00     0.010 A 
ATOM     41  C   UNL A   1      40.373  26.538  27.790  1.00  0.00    -0.014 A 
BRANCH  41  42
ATOM     42  C   UNL A   1      41.072  27.749  28.291  1.00  0.00     0.031 A 
ATOM     43  C   UNL A   1      42.557  27.910  28.179  1.00  0.00     0.074 A 
ATOM     44  C   UNL A   1      40.324  28.716  28.855  1.00  0.00     0.049 A 
ATOM     45  N   UNL A   1      43.290  28.956  28.463  1.00  0.00    -0.248 NA
ATOM     46  C   UNL A   1      43.321  26.752  27.694  1.00  0.00     0.031 C 
ATOM     47  C   UNL A   1      38.874  28.641  29.056  1.00  0.00     0.029 A 
ATOM     48  N   UNL A   1      40.663  29.952  29.343  1.00  0.00    -0.354 N 
ATOM     49  C   UNL A   1      44.597  28.601  28.161  1.00  0.00     0.074 A 
ATOM     50  C   UNL A   1      44.564  27.217  27.730  1.00  0.00     0.031 C 
ATOM     51  C   UNL A   1      38.442  29.799  29.576  1.00  0.00     0.029 A 
ATOM     52  C   UNL A   1      39.584  30.687  29.774  1.00  0.00     0.049 A 
ATOM     53  H   UNL A   1      41.590  30.281  29.380  1.00  0.00     0.167 HD
ATOM     54  C   UNL A   1      45.712  29.369  28.214  1.00  0.00     0.037 A 
ATOM     55  C   UNL A   1      39.517  31.941  30.261  1.00  0.00     0.037 A 
ATOM     56  C   UNL A   1      45.732  30.735  28.676  1.00  0.00     0.049 A 
ATOM     57  C   UNL A   1      40.778  32.753  30.363  1.00  0.00     0.074 A 
ATOM     58  C   UNL A   1      46.809  31.602  28.752  1.00  0.00     0.029 A 
ATOM     59  N   UNL A   1      44.628  31.430  29.154  1.00  0.00    -0.354 N 
ATOM     60  N   UNL A   1      41.996  32.428  30.001  1.00  0.00    -0.248 NA
ATOM     61  C   UNL A   1      40.657  34.101  30.933  1.00  0.00     0.031 C 
ATOM     62  C   UNL A   1      46.368  32.801  29.324  1.00  0.00     0.029 A 
ATOM     63  C   UNL A   1      45.005  32.704  29.551  1.00  0.00     0.049 A 
ATOM     64  H   UNL A   1      43.714  31.071  29.205  1.00  0.00     0.167 HD
ATOM     65  C   UNL A   1      42.783  33.539  30.279  1.00  0.00     0.074 A 
ATOM     66  C   UNL A   1      41.901  34.550  30.824  1.00  0.00     0.031 C 
ATOM     67  C   UNL A   1      44.117  33.704  30.094  1.00  0.00     0.037 A 
BRANCH  54  68
ATOM     68  C   UNL A   1      47.008  28.760  27.745  1.00  0.00     0.058 A 
ATOM     69  C   UNL A   1      47.376  28.789  26.391  1.00  0.00     0.135 A 
ATOM     70  C   UNL A   1      47.921  28.205  28.657  1.00  0.00     0.135 A 
ATOM     71  F   UNL A   1      46.540  29.301  25.473  1.00  0.00    -0.206 F 
ATOM     72  C   UNL A   1      48.590  28.270  25.954  1.00  0.00     0.059 A 
ATOM     73  C   UNL A   1      49.153  27.705  28.246  1.00  0.00     0.059 A 
ATOM     74  F   UNL A   1      47.623  28.154  29.965  1.00  0.00    -0.206 F 
ATOM     75  C   UNL A   1      49.474  27.732  26.890  1.00  0.00     0.060 A 
BRANCH  75  76
ATOM     76  S   UNL A   1      51.047  27.068  26.301  1.00  0.00     0.124 S 
ATOM     77  O   UNL A   1      52.003  27.918  27.005  1.00  0.00    -0.237 OA
ATOM     78  O   UNL A   1      50.984  25.680  26.750  1.00  0.00    -0.237 OA
ATOM     79  O   UNL A   1      50.981  27.262  24.857  1.00  0.00    -0.744 OA
ENDBRANCH  75  76
ENDBRANCH  54  68
BRANCH  55  80
ATOM     80  C   UNL A   1      38.197  32.514  30.634  1.00  0.00     0.058 A 
ATOM     81  C   UNL A   1      37.706  32.392  31.942  1.00  0.00     0.135 A 
ATOM     82  C   UNL A   1      37.424  33.233  29.708  1.00  0.00     0.135 A 
ATOM     83  F   UNL A   1      38.407  31.712  32.861  1.00  0.00    -0.206 F 
ATOM     84  C   UNL A   1      36.491  32.956  32.319  1.00  0.00     0.059 A 
ATOM     85  C   UNL A   1      36.220  33.830  30.069  1.00  0.00     0.059 A 
ATOM     86  F   UNL A   1      37.859  33.395  28.450  1.00  0.00    -0.206 F 
ATOM     87  C   UNL A   1      35.759  33.680  31.377  1.00  0.00     0.060 A 
BRANCH  87  88
ATOM     88  S   UNL A   1      34.214  34.456  31.898  1.00  0.00     0.124 S 
ATOM     89  O   UNL A   1      34.696  35.691  32.506  1.00  0.00    -0.237 OA
ATOM     90  O   UNL A   1      33.506  34.600  30.631  1.00  0.00    -0.237 OA
ATOM     91  O   UNL A   1      33.642  33.480  32.821  1.00  0.00    -0.744 OA
ENDBRANCH  87  88
ENDBRANCH  55  80
BRANCH  67  92
ATOM     92  C   UNL A   1      44.715  35.032  30.473  1.00  0.00     0.058 A 
ATOM     93  C   UNL A   1      44.741  36.111  29.576  1.00  0.00     0.135 A 
ATOM     94  C   UNL A   1      45.188  35.255  31.778  1.00  0.00     0.135 A 
ATOM     95  F   UNL A   1      44.311  35.950  28.314  1.00  0.00    -0.206 F 
ATOM     96  C   UNL A   1      45.221  37.360  29.955  1.00  0.00     0.059 A 
ATOM     97  C   UNL A   1      45.645  36.503  32.188  1.00  0.00     0.059 A 
ATOM     98  F   UNL A   1      45.181  34.258  32.678  1.00  0.00    -0.206 F 
ATOM     99  C   UNL A   1      45.661  37.551  31.267  1.00  0.00     0.060 A 
BRANCH  99 100
ATOM    100  S   UNL A   1      46.219  39.195  31.758  1.00  0.00     0.124 S 
ATOM    101  O   UNL A   1      47.660  39.091  31.552  1.00  0.00    -0.237 OA
ATOM    102  O   UNL A   1      45.505  40.056  30.820  1.00  0.00    -0.237 OA
ATOM    103  O   UNL A   1      45.790  39.301  33.149  1.00  0.00    -0.744 OA
ENDBRANCH  99 100
ENDBRANCH  67  92
ENDBRANCH  41  42
ENDBRANCH  34  36
ENDBRANCH  33  34
ENDBRANCH  32  33
ENDBRANCH  31  32
ENDBRANCH   1  31
TORSDOF 21
ENDMDL
