MODEL 1
REMARK VINA RESULT:     -10.3      0.000      0.000
REMARK SMILES C[C@@H](C(=O)OCCOCCOC(=O)c1ccc(-c2c3nc(c(-c4c(F)cc(S(=O)(=O)[O-])cc4F)c4ccc([nH]4)c(-c4c(F)cc(S(=O)(=O)[O-])cc4F)c4nc(c(-c5c(F)cc(S(=O)(=O)[O-])cc5F)c5ccc2[nH]5)C=C4)C=C3)cc1)c1ccc(Cc2ccsc2)cc1F
REMARK SMILES IDX 8 1 7 2 6 3 5 4 3 5 4 6 2 7 1 8 80 9 81 10 91 11 82 12 90 13
REMARK SMILES IDX 92 14 83 15 84 16 85 17 86 18 89 19 87 20 88 21 9 22 10 23
REMARK SMILES IDX 11 24 12 25 13 26 14 27 15 28 79 29 16 30 78 31 17 32 18 33
REMARK SMILES IDX 19 34 72 35 20 36 77 37 71 38 73 39 21 40 76 41 70 42 69 43
REMARK SMILES IDX 22 45 56 46 35 47 55 48 36 49 39 50 54 51 74 52 37 53 38 54
REMARK SMILES IDX 53 56 75 57 40 58 23 59 24 60 33 61 25 62 26 63 32 64 34 65
REMARK SMILES IDX 27 66 28 67 29 68 30 69 31 70 57 71 58 72 67 73 59 74 60 75
REMARK SMILES IDX 66 76 68 77 61 78 62 79 63 80 64 81 65 82 41 83 42 84 51 85
REMARK SMILES IDX 43 86 44 87 50 88 52 89 45 90 46 91 47 92 48 93 49 94
REMARK H PARENT 73 44 39 55
REMARK Flexibility Score: inf
ROOT
ATOM      1  O   UNL A   1      38.098  21.002  25.391  1.00  0.00    -0.374 OA
ENDROOT
BRANCH   1   2
ATOM      2  C   UNL A   1      36.836  21.633  25.624  1.00  0.00     0.202 C 
BRANCH   2   3
ATOM      3  C   UNL A   1      35.594  20.793  25.304  1.00  0.00     0.261 C 
BRANCH   3   4
ATOM      4  O   UNL A   1      34.622  21.579  24.595  1.00  0.00    -0.463 OA
BRANCH   4   5
ATOM      5  C   UNL A   1      33.483  21.871  25.279  1.00  0.00     0.313 C 
ATOM      6  O   UNL A   1      32.430  21.253  25.160  1.00  0.00    -0.252 OA
BRANCH   5   7
ATOM      7  C   UNL A   1      33.694  22.969  26.327  1.00  0.00     0.129 C 
ATOM      8  C   UNL A   1      33.017  22.686  27.675  1.00  0.00     0.025 C 
BRANCH   7   9
ATOM      9  C   UNL A   1      33.344  24.362  25.804  1.00  0.00     0.002 A 
ATOM     10  C   UNL A   1      32.111  24.983  26.056  1.00  0.00     0.008 A 
ATOM     11  C   UNL A   1      34.273  25.069  25.032  1.00  0.00     0.127 A 
ATOM     12  C   UNL A   1      31.822  26.251  25.538  1.00  0.00     0.004 A 
ATOM     13  C   UNL A   1      33.986  26.329  24.499  1.00  0.00     0.043 A 
ATOM     14  F   UNL A   1      35.476  24.533  24.785  1.00  0.00    -0.207 F 
ATOM     15  C   UNL A   1      32.746  26.935  24.736  1.00  0.00    -0.041 A 
BRANCH  15  16
ATOM     16  C   UNL A   1      32.414  28.288  24.157  1.00  0.00     0.072 C 
BRANCH  16  17
ATOM     17  C   UNL A   1      32.547  29.298  25.265  1.00  0.00    -0.033 A 
ATOM     18  C   UNL A   1      31.518  30.210  25.689  1.00  0.00     0.015 A 
ATOM     19  C   UNL A   1      33.666  29.439  26.069  1.00  0.00     0.068 A 
ATOM     20  C   UNL A   1      31.904  31.008  26.743  1.00  0.00     0.065 A 
ATOM     21  S   UNL A   1      33.487  30.648  27.266  1.00  0.00    -0.152 S 
ENDBRANCH  16  17
ENDBRANCH  15  16
ENDBRANCH   7   9
ENDBRANCH   5   7
ENDBRANCH   4   5
ENDBRANCH   3   4
ENDBRANCH   2   3
ENDBRANCH   1   2
BRANCH   1  22
ATOM     22  C   UNL A   1      39.262  21.656  25.897  1.00  0.00     0.202 C 
BRANCH  22  23
ATOM     23  C   UNL A   1      39.095  23.083  26.431  1.00  0.00     0.261 C 
BRANCH  23  24
ATOM     24  O   UNL A   1      40.059  23.411  27.446  1.00  0.00    -0.460 OA
BRANCH  24  25
ATOM     25  C   UNL A   1      40.890  24.432  27.125  1.00  0.00     0.338 C 
ATOM     26  O   UNL A   1      41.644  24.490  26.162  1.00  0.00    -0.246 OA
BRANCH  25  27
ATOM     27  C   UNL A   1      40.649  25.590  28.002  1.00  0.00     0.060 A 
ATOM     28  C   UNL A   1      41.693  26.513  28.148  1.00  0.00     0.016 A 
ATOM     29  C   UNL A   1      39.470  25.731  28.737  1.00  0.00     0.016 A 
ATOM     30  C   UNL A   1      41.585  27.551  29.071  1.00  0.00     0.010 A 
ATOM     31  C   UNL A   1      39.366  26.770  29.670  1.00  0.00     0.010 A 
ATOM     32  C   UNL A   1      40.438  27.661  29.868  1.00  0.00    -0.014 A 
BRANCH  32  33
ATOM     33  C   UNL A   1      40.430  28.618  31.002  1.00  0.00     0.031 A 
ATOM     34  C   UNL A   1      39.458  29.765  30.983  1.00  0.00     0.074 A 
ATOM     35  C   UNL A   1      41.249  28.441  32.056  1.00  0.00     0.049 A 
ATOM     36  N   UNL A   1      39.286  30.722  31.858  1.00  0.00    -0.248 NA
ATOM     37  C   UNL A   1      38.555  29.843  29.822  1.00  0.00     0.031 C 
ATOM     38  C   UNL A   1      42.205  27.346  32.206  1.00  0.00     0.029 A 
ATOM     39  N   UNL A   1      41.405  29.184  33.198  1.00  0.00    -0.354 N 
ATOM     40  C   UNL A   1      38.264  31.518  31.354  1.00  0.00     0.074 A 
ATOM     41  C   UNL A   1      37.872  30.949  30.083  1.00  0.00     0.031 C 
ATOM     42  C   UNL A   1      42.859  27.496  33.372  1.00  0.00     0.029 A 
ATOM     43  C   UNL A   1      42.385  28.710  34.036  1.00  0.00     0.049 A 
ATOM     44  H   UNL A   1      40.866  29.983  33.399  1.00  0.00     0.167 HD
ATOM     45  C   UNL A   1      37.697  32.617  31.906  1.00  0.00     0.037 A 
ATOM     46  C   UNL A   1      42.860  29.209  35.194  1.00  0.00     0.037 A 
ATOM     47  C   UNL A   1      38.088  33.179  33.172  1.00  0.00     0.049 A 
ATOM     48  C   UNL A   1      42.256  30.468  35.759  1.00  0.00     0.074 A 
ATOM     49  C   UNL A   1      37.563  34.282  33.824  1.00  0.00     0.029 A 
ATOM     50  N   UNL A   1      39.105  32.685  33.977  1.00  0.00    -0.354 N 
ATOM     51  N   UNL A   1      41.275  31.198  35.281  1.00  0.00    -0.248 NA
ATOM     52  C   UNL A   1      42.819  30.970  37.020  1.00  0.00     0.031 C 
ATOM     53  C   UNL A   1      38.292  34.480  35.002  1.00  0.00     0.029 A 
ATOM     54  C   UNL A   1      39.239  33.474  35.108  1.00  0.00     0.049 A 
ATOM     55  H   UNL A   1      39.650  31.891  33.774  1.00  0.00     0.167 HD
ATOM     56  C   UNL A   1      41.087  32.229  36.197  1.00  0.00     0.074 A 
ATOM     57  C   UNL A   1      42.049  32.022  37.260  1.00  0.00     0.031 C 
ATOM     58  C   UNL A   1      40.197  33.251  36.162  1.00  0.00     0.037 A 
BRANCH  45  59
ATOM     59  C   UNL A   1      36.606  33.301  31.130  1.00  0.00     0.058 A 
ATOM     60  C   UNL A   1      36.886  34.111  30.018  1.00  0.00     0.135 A 
ATOM     61  C   UNL A   1      35.259  33.118  31.485  1.00  0.00     0.135 A 
ATOM     62  F   UNL A   1      38.157  34.334  29.647  1.00  0.00    -0.206 F 
ATOM     63  C   UNL A   1      35.871  34.737  29.299  1.00  0.00     0.059 A 
ATOM     64  C   UNL A   1      34.227  33.713  30.765  1.00  0.00     0.059 A 
ATOM     65  F   UNL A   1      34.936  32.355  32.541  1.00  0.00    -0.206 F 
ATOM     66  C   UNL A   1      34.544  34.532  29.682  1.00  0.00     0.060 A 
BRANCH  66  67
ATOM     67  S   UNL A   1      33.237  35.347  28.740  1.00  0.00     0.124 S 
ATOM     68  O   UNL A   1      32.609  34.210  28.072  1.00  0.00    -0.237 OA
ATOM     69  O   UNL A   1      32.445  35.983  29.787  1.00  0.00    -0.237 OA
ATOM     70  O   UNL A   1      33.966  36.261  27.867  1.00  0.00    -0.744 OA
ENDBRANCH  66  67
ENDBRANCH  45  59
BRANCH  46  71
ATOM     71  C   UNL A   1      43.980  28.524  35.893  1.00  0.00     0.058 A 
ATOM     72  C   UNL A   1      45.314  28.886  35.658  1.00  0.00     0.135 A 
ATOM     73  C   UNL A   1      43.734  27.490  36.810  1.00  0.00     0.135 A 
ATOM     74  F   UNL A   1      45.600  29.860  34.782  1.00  0.00    -0.206 F 
ATOM     75  C   UNL A   1      46.367  28.240  36.298  1.00  0.00     0.059 A 
ATOM     76  C   UNL A   1      44.768  26.845  37.481  1.00  0.00     0.059 A 
ATOM     77  F   UNL A   1      42.474  27.112  37.076  1.00  0.00    -0.206 F 
ATOM     78  C   UNL A   1      46.084  27.221  37.210  1.00  0.00     0.060 A 
BRANCH  78  79
ATOM     79  S   UNL A   1      47.454  26.421  38.073  1.00  0.00     0.124 S 
ATOM     80  O   UNL A   1      46.827  26.046  39.335  1.00  0.00    -0.237 OA
ATOM     81  O   UNL A   1      47.783  25.321  37.171  1.00  0.00    -0.237 OA
ATOM     82  O   UNL A   1      48.459  27.476  38.155  1.00  0.00    -0.744 OA
ENDBRANCH  78  79
ENDBRANCH  46  71
BRANCH  58  83
ATOM     83  C   UNL A   1      40.195  34.211  37.321  1.00  0.00     0.058 A 
ATOM     84  C   UNL A   1      40.988  35.369  37.322  1.00  0.00     0.135 A 
ATOM     85  C   UNL A   1      39.347  33.995  38.419  1.00  0.00     0.135 A 
ATOM     86  F   UNL A   1      41.819  35.619  36.299  1.00  0.00    -0.206 F 
ATOM     87  C   UNL A   1      40.955  36.269  38.382  1.00  0.00     0.059 A 
ATOM     88  C   UNL A   1      39.279  34.896  39.478  1.00  0.00     0.059 A 
ATOM     89  F   UNL A   1      38.559  32.908  38.462  1.00  0.00    -0.206 F 
ATOM     90  C   UNL A   1      40.096  36.024  39.456  1.00  0.00     0.060 A 
BRANCH  90  91
ATOM     91  S   UNL A   1      40.038  37.218  40.810  1.00  0.00     0.124 S 
ATOM     92  O   UNL A   1      41.329  36.995  41.453  1.00  0.00    -0.237 OA
ATOM     93  O   UNL A   1      39.892  38.487  40.103  1.00  0.00    -0.237 OA
ATOM     94  O   UNL A   1      38.871  36.799  41.581  1.00  0.00    -0.744 OA
ENDBRANCH  90  91
ENDBRANCH  58  83
ENDBRANCH  32  33
ENDBRANCH  25  27
ENDBRANCH  24  25
ENDBRANCH  23  24
ENDBRANCH  22  23
ENDBRANCH   1  22
TORSDOF 20
ENDMDL
MODEL 2
REMARK VINA RESULT:     -10.3      1.373      8.487
REMARK SMILES C[C@@H](C(=O)OCCOCCOC(=O)c1ccc(-c2c3nc(c(-c4c(F)cc(S(=O)(=O)[O-])cc4F)c4ccc([nH]4)c(-c4c(F)cc(S(=O)(=O)[O-])cc4F)c4nc(c(-c5c(F)cc(S(=O)(=O)[O-])cc5F)c5ccc2[nH]5)C=C4)C=C3)cc1)c1ccc(Cc2ccsc2)cc1F
REMARK SMILES IDX 8 1 7 2 6 3 5 4 3 5 4 6 2 7 1 8 80 9 81 10 91 11 82 12 90 13
REMARK SMILES IDX 92 14 83 15 84 16 85 17 86 18 89 19 87 20 88 21 9 22 10 23
REMARK SMILES IDX 11 24 12 25 13 26 14 27 15 28 79 29 16 30 78 31 17 32 18 33
REMARK SMILES IDX 19 34 72 35 20 36 77 37 71 38 73 39 21 40 76 41 70 42 69 43
REMARK SMILES IDX 22 45 56 46 35 47 55 48 36 49 39 50 54 51 74 52 37 53 38 54
REMARK SMILES IDX 53 56 75 57 40 58 23 59 24 60 33 61 25 62 26 63 32 64 34 65
REMARK SMILES IDX 27 66 28 67 29 68 30 69 31 70 57 71 58 72 67 73 59 74 60 75
REMARK SMILES IDX 66 76 68 77 61 78 62 79 63 80 64 81 65 82 41 83 42 84 51 85
REMARK SMILES IDX 43 86 44 87 50 88 52 89 45 90 46 91 47 92 48 93 49 94
REMARK H PARENT 73 44 39 55
REMARK Flexibility Score: inf
ROOT
ATOM      1  O   UNL A   1      38.984  21.780  25.496  1.00  0.00    -0.374 OA
ENDROOT
BRANCH   1   2
ATOM      2  C   UNL A   1      37.603  22.047  25.758  1.00  0.00     0.202 C 
BRANCH   2   3
ATOM      3  C   UNL A   1      36.619  21.645  24.653  1.00  0.00     0.261 C 
BRANCH   3   4
ATOM      4  O   UNL A   1      35.339  21.311  25.215  1.00  0.00    -0.463 OA
BRANCH   4   5
ATOM      5  C   UNL A   1      34.894  20.050  24.967  1.00  0.00     0.313 C 
ATOM      6  O   UNL A   1      35.627  19.086  24.771  1.00  0.00    -0.252 OA
BRANCH   5   7
ATOM      7  C   UNL A   1      33.372  19.929  25.100  1.00  0.00     0.129 C 
ATOM      8  C   UNL A   1      32.786  18.664  24.460  1.00  0.00     0.025 C 
BRANCH   7   9
ATOM      9  C   UNL A   1      32.634  21.185  24.638  1.00  0.00     0.002 A 
ATOM     10  C   UNL A   1      32.364  21.457  23.288  1.00  0.00     0.008 A 
ATOM     11  C   UNL A   1      32.205  22.126  25.581  1.00  0.00     0.127 A 
ATOM     12  C   UNL A   1      31.707  22.632  22.906  1.00  0.00     0.004 A 
ATOM     13  C   UNL A   1      31.561  23.309  25.207  1.00  0.00     0.043 A 
ATOM     14  F   UNL A   1      32.413  21.901  26.886  1.00  0.00    -0.207 F 
ATOM     15  C   UNL A   1      31.313  23.585  23.856  1.00  0.00    -0.041 A 
BRANCH  15  16
ATOM     16  C   UNL A   1      30.631  24.863  23.432  1.00  0.00     0.072 C 
BRANCH  16  17
ATOM     17  C   UNL A   1      31.700  25.904  23.244  1.00  0.00    -0.033 A 
ATOM     18  C   UNL A   1      32.411  26.156  22.018  1.00  0.00     0.015 A 
ATOM     19  C   UNL A   1      32.099  26.805  24.217  1.00  0.00     0.068 A 
ATOM     20  C   UNL A   1      33.321  27.185  22.123  1.00  0.00     0.065 A 
ATOM     21  S   UNL A   1      33.307  27.889  23.676  1.00  0.00    -0.152 S 
ENDBRANCH  16  17
ENDBRANCH  15  16
ENDBRANCH   7   9
ENDBRANCH   5   7
ENDBRANCH   4   5
ENDBRANCH   3   4
ENDBRANCH   2   3
ENDBRANCH   1   2
BRANCH   1  22
ATOM     22  C   UNL A   1      39.838  21.582  26.624  1.00  0.00     0.202 C 
BRANCH  22  23
ATOM     23  C   UNL A   1      41.132  22.401  26.682  1.00  0.00     0.261 C 
BRANCH  23  24
ATOM     24  O   UNL A   1      40.904  23.811  26.512  1.00  0.00    -0.460 OA
BRANCH  24  25
ATOM     25  C   UNL A   1      41.944  24.598  26.878  1.00  0.00     0.338 C 
ATOM     26  O   UNL A   1      43.097  24.529  26.470  1.00  0.00    -0.246 OA
BRANCH  25  27
ATOM     27  C   UNL A   1      41.478  25.709  27.726  1.00  0.00     0.060 A 
ATOM     28  C   UNL A   1      42.305  26.836  27.818  1.00  0.00     0.016 A 
ATOM     29  C   UNL A   1      40.310  25.621  28.486  1.00  0.00     0.016 A 
ATOM     30  C   UNL A   1      41.994  27.858  28.712  1.00  0.00     0.010 A 
ATOM     31  C   UNL A   1      40.004  26.646  29.390  1.00  0.00     0.010 A 
ATOM     32  C   UNL A   1      40.865  27.751  29.534  1.00  0.00    -0.014 A 
BRANCH  32  33
ATOM     33  C   UNL A   1      40.675  28.722  30.639  1.00  0.00     0.031 A 
ATOM     34  C   UNL A   1      41.544  28.615  31.862  1.00  0.00     0.074 A 
ATOM     35  C   UNL A   1      39.771  29.714  30.535  1.00  0.00     0.049 A 
ATOM     36  N   UNL A   1      41.542  29.346  32.947  1.00  0.00    -0.248 NA
ATOM     37  C   UNL A   1      42.550  27.541  31.862  1.00  0.00     0.031 C 
ATOM     38  C   UNL A   1      38.900  29.943  29.383  1.00  0.00     0.029 A 
ATOM     39  N   UNL A   1      39.436  30.711  31.415  1.00  0.00    -0.354 N 
ATOM     40  C   UNL A   1      42.540  28.820  33.760  1.00  0.00     0.074 A 
ATOM     41  C   UNL A   1      43.107  27.690  33.056  1.00  0.00     0.031 C 
ATOM     42  C   UNL A   1      38.120  31.010  29.634  1.00  0.00     0.029 A 
ATOM     43  C   UNL A   1      38.418  31.520  30.971  1.00  0.00     0.049 A 
ATOM     44  H   UNL A   1      39.882  30.835  32.283  1.00  0.00     0.167 HD
ATOM     45  C   UNL A   1      42.952  29.246  34.977  1.00  0.00     0.037 A 
ATOM     46  C   UNL A   1      37.786  32.542  31.581  1.00  0.00     0.037 A 
ATOM     47  C   UNL A   1      42.387  30.372  35.673  1.00  0.00     0.049 A 
ATOM     48  C   UNL A   1      38.220  32.960  32.962  1.00  0.00     0.074 A 
ATOM     49  C   UNL A   1      42.747  30.893  36.905  1.00  0.00     0.029 A 
ATOM     50  N   UNL A   1      41.338  31.149  35.202  1.00  0.00    -0.354 N 
ATOM     51  N   UNL A   1      39.180  32.466  33.709  1.00  0.00    -0.248 NA
ATOM     52  C   UNL A   1      37.491  34.075  33.581  1.00  0.00     0.031 C 
ATOM     53  C   UNL A   1      41.887  31.956  37.197  1.00  0.00     0.029 A 
ATOM     54  C   UNL A   1      41.023  32.130  36.128  1.00  0.00     0.049 A 
ATOM     55  H   UNL A   1      40.886  31.022  34.337  1.00  0.00     0.167 HD
ATOM     56  C   UNL A   1      39.185  33.227  34.875  1.00  0.00     0.074 A 
ATOM     57  C   UNL A   1      38.139  34.220  34.728  1.00  0.00     0.031 C 
ATOM     58  C   UNL A   1      39.984  33.116  35.964  1.00  0.00     0.037 A 
BRANCH  45  59
ATOM     59  C   UNL A   1      44.055  28.475  35.647  1.00  0.00     0.058 A 
ATOM     60  C   UNL A   1      45.408  28.774  35.423  1.00  0.00     0.135 A 
ATOM     61  C   UNL A   1      43.754  27.442  36.550  1.00  0.00     0.135 A 
ATOM     62  F   UNL A   1      45.752  29.740  34.556  1.00  0.00    -0.206 F 
ATOM     63  C   UNL A   1      46.425  28.061  36.051  1.00  0.00     0.059 A 
ATOM     64  C   UNL A   1      44.755  26.732  37.209  1.00  0.00     0.059 A 
ATOM     65  F   UNL A   1      42.477  27.112  36.799  1.00  0.00    -0.206 F 
ATOM     66  C   UNL A   1      46.088  27.040  36.942  1.00  0.00     0.060 A 
BRANCH  66  67
ATOM     67  S   UNL A   1      47.417  26.126  37.752  1.00  0.00     0.124 S 
ATOM     68  O   UNL A   1      48.223  25.710  36.607  1.00  0.00    -0.237 OA
ATOM     69  O   UNL A   1      48.016  27.140  38.613  1.00  0.00    -0.237 OA
ATOM     70  O   UNL A   1      46.716  25.051  38.448  1.00  0.00    -0.744 OA
ENDBRANCH  66  67
ENDBRANCH  45  59
BRANCH  46  71
ATOM     71  C   UNL A   1      36.663  33.235  30.896  1.00  0.00     0.058 A 
ATOM     72  C   UNL A   1      35.332  33.026  31.287  1.00  0.00     0.135 A 
ATOM     73  C   UNL A   1      36.901  34.121  29.833  1.00  0.00     0.135 A 
ATOM     74  F   UNL A   1      35.053  32.180  32.289  1.00  0.00    -0.206 F 
ATOM     75  C   UNL A   1      34.275  33.659  30.641  1.00  0.00     0.059 A 
ATOM     76  C   UNL A   1      35.863  34.785  29.188  1.00  0.00     0.059 A 
ATOM     77  F   UNL A   1      38.157  34.362  29.427  1.00  0.00    -0.206 F 
ATOM     78  C   UNL A   1      34.552  34.540  29.593  1.00  0.00     0.060 A 
BRANCH  78  79
ATOM     79  S   UNL A   1      33.178  35.396  28.792  1.00  0.00     0.124 S 
ATOM     80  O   UNL A   1      33.880  36.394  27.994  1.00  0.00    -0.237 OA
ATOM     81  O   UNL A   1      32.536  34.317  28.048  1.00  0.00    -0.237 OA
ATOM     82  O   UNL A   1      32.406  35.915  29.918  1.00  0.00    -0.744 OA
ENDBRANCH  78  79
ENDBRANCH  46  71
BRANCH  58  83
ATOM     83  C   UNL A   1      39.785  34.111  37.076  1.00  0.00     0.058 A 
ATOM     84  C   UNL A   1      38.966  33.831  38.180  1.00  0.00     0.135 A 
ATOM     85  C   UNL A   1      40.469  35.338  37.059  1.00  0.00     0.135 A 
ATOM     86  F   UNL A   1      38.287  32.675  38.241  1.00  0.00    -0.206 F 
ATOM     87  C   UNL A   1      38.814  34.742  39.220  1.00  0.00     0.059 A 
ATOM     88  C   UNL A   1      40.352  36.252  38.102  1.00  0.00     0.059 A 
ATOM     89  F   UNL A   1      41.275  35.650  36.032  1.00  0.00    -0.206 F 
ATOM     90  C   UNL A   1      39.512  35.951  39.173  1.00  0.00     0.060 A 
BRANCH  90  91
ATOM     91  S   UNL A   1      39.334  37.110  40.546  1.00  0.00     0.124 S 
ATOM     92  O   UNL A   1      38.573  38.188  39.922  1.00  0.00    -0.237 OA
ATOM     93  O   UNL A   1      38.613  36.315  41.535  1.00  0.00    -0.237 OA
ATOM     94  O   UNL A   1      40.713  37.436  40.896  1.00  0.00    -0.744 OA
ENDBRANCH  90  91
ENDBRANCH  58  83
ENDBRANCH  32  33
ENDBRANCH  25  27
ENDBRANCH  24  25
ENDBRANCH  23  24
ENDBRANCH  22  23
ENDBRANCH   1  22
TORSDOF 20
ENDMDL
MODEL 3
REMARK VINA RESULT:     -10.2      1.510      2.629
REMARK SMILES C[C@@H](C(=O)OCCOCCOC(=O)c1ccc(-c2c3nc(c(-c4c(F)cc(S(=O)(=O)[O-])cc4F)c4ccc([nH]4)c(-c4c(F)cc(S(=O)(=O)[O-])cc4F)c4nc(c(-c5c(F)cc(S(=O)(=O)[O-])cc5F)c5ccc2[nH]5)C=C4)C=C3)cc1)c1ccc(Cc2ccsc2)cc1F
REMARK SMILES IDX 8 1 7 2 6 3 5 4 3 5 4 6 2 7 1 8 80 9 81 10 91 11 82 12 90 13
REMARK SMILES IDX 92 14 83 15 84 16 85 17 86 18 89 19 87 20 88 21 9 22 10 23
REMARK SMILES IDX 11 24 12 25 13 26 14 27 15 28 79 29 16 30 78 31 17 32 18 33
REMARK SMILES IDX 19 34 72 35 20 36 77 37 71 38 73 39 21 40 76 41 70 42 69 43
REMARK SMILES IDX 22 45 56 46 35 47 55 48 36 49 39 50 54 51 74 52 37 53 38 54
REMARK SMILES IDX 53 56 75 57 40 58 23 59 24 60 33 61 25 62 26 63 32 64 34 65
REMARK SMILES IDX 27 66 28 67 29 68 30 69 31 70 57 71 58 72 67 73 59 74 60 75
REMARK SMILES IDX 66 76 68 77 61 78 62 79 63 80 64 81 65 82 41 83 42 84 51 85
REMARK SMILES IDX 43 86 44 87 50 88 52 89 45 90 46 91 47 92 48 93 49 94
REMARK H PARENT 73 44 39 55
REMARK Flexibility Score: inf
ROOT
ATOM      1  O   UNL A   1      41.170  21.586  26.173  1.00  0.00    -0.374 OA
ENDROOT
BRANCH   1   2
ATOM      2  C   UNL A   1      39.796  21.842  26.476  1.00  0.00     0.202 C 
BRANCH   2   3
ATOM      3  C   UNL A   1      38.767  21.107  25.610  1.00  0.00     0.261 C 
BRANCH   3   4
ATOM      4  O   UNL A   1      37.506  21.795  25.630  1.00  0.00    -0.463 OA
BRANCH   4   5
ATOM      5  C   UNL A   1      36.511  21.232  24.892  1.00  0.00     0.313 C 
ATOM      6  O   UNL A   1      36.065  20.105  25.083  1.00  0.00    -0.252 OA
BRANCH   5   7
ATOM      7  C   UNL A   1      35.904  22.212  23.883  1.00  0.00     0.129 C 
ATOM      8  C   UNL A   1      36.940  23.048  23.120  1.00  0.00     0.025 C 
BRANCH   7   9
ATOM      9  C   UNL A   1      34.813  23.092  24.493  1.00  0.00     0.002 A 
ATOM     10  C   UNL A   1      35.080  24.334  25.087  1.00  0.00     0.008 A 
ATOM     11  C   UNL A   1      33.482  22.660  24.478  1.00  0.00     0.127 A 
ATOM     12  C   UNL A   1      34.054  25.098  25.657  1.00  0.00     0.004 A 
ATOM     13  C   UNL A   1      32.454  23.409  25.057  1.00  0.00     0.043 A 
ATOM     14  F   UNL A   1      33.169  21.493  23.898  1.00  0.00    -0.207 F 
ATOM     15  C   UNL A   1      32.729  24.639  25.668  1.00  0.00    -0.041 A 
BRANCH  15  16
ATOM     16  C   UNL A   1      31.635  25.456  26.310  1.00  0.00     0.072 C 
BRANCH  16  17
ATOM     17  C   UNL A   1      30.865  26.126  25.205  1.00  0.00    -0.033 A 
ATOM     18  C   UNL A   1      29.453  25.978  24.965  1.00  0.00     0.015 A 
ATOM     19  C   UNL A   1      31.406  27.028  24.305  1.00  0.00     0.068 A 
ATOM     20  C   UNL A   1      29.005  26.725  23.899  1.00  0.00     0.065 A 
ATOM     21  S   UNL A   1      30.258  27.645  23.197  1.00  0.00    -0.152 S 
ENDBRANCH  16  17
ENDBRANCH  15  16
ENDBRANCH   7   9
ENDBRANCH   5   7
ENDBRANCH   4   5
ENDBRANCH   3   4
ENDBRANCH   2   3
ENDBRANCH   1   2
BRANCH   1  22
ATOM     22  C   UNL A   1      42.117  22.601  26.511  1.00  0.00     0.202 C 
BRANCH  22  23
ATOM     23  C   UNL A   1      42.702  23.432  25.364  1.00  0.00     0.261 C 
BRANCH  23  24
ATOM     24  O   UNL A   1      43.095  24.751  25.780  1.00  0.00    -0.460 OA
BRANCH  24  25
ATOM     25  C   UNL A   1      42.073  25.632  25.900  1.00  0.00     0.338 C 
ATOM     26  O   UNL A   1      41.130  25.773  25.132  1.00  0.00    -0.246 OA
BRANCH  25  27
ATOM     27  C   UNL A   1      42.129  26.313  27.205  1.00  0.00     0.060 A 
ATOM     28  C   UNL A   1      41.223  25.894  28.188  1.00  0.00     0.016 A 
ATOM     29  C   UNL A   1      42.980  27.395  27.441  1.00  0.00     0.016 A 
ATOM     30  C   UNL A   1      41.125  26.589  29.390  1.00  0.00     0.010 A 
ATOM     31  C   UNL A   1      42.875  28.098  28.647  1.00  0.00     0.010 A 
ATOM     32  C   UNL A   1      41.921  27.721  29.611  1.00  0.00    -0.014 A 
BRANCH  32  33
ATOM     33  C   UNL A   1      41.644  28.586  30.785  1.00  0.00     0.031 A 
ATOM     34  C   UNL A   1      40.491  29.550  30.725  1.00  0.00     0.074 A 
ATOM     35  C   UNL A   1      42.383  28.481  31.905  1.00  0.00     0.049 A 
ATOM     36  N   UNL A   1      40.078  30.405  31.625  1.00  0.00    -0.248 NA
ATOM     37  C   UNL A   1      39.697  29.550  29.485  1.00  0.00     0.031 C 
ATOM     38  C   UNL A   1      43.499  27.557  32.096  1.00  0.00     0.029 A 
ATOM     39  N   UNL A   1      42.303  29.164  33.092  1.00  0.00    -0.354 N 
ATOM     40  C   UNL A   1      38.981  31.048  31.061  1.00  0.00     0.074 A 
ATOM     41  C   UNL A   1      38.810  30.505  29.730  1.00  0.00     0.031 C 
ATOM     42  C   UNL A   1      44.009  27.739  33.327  1.00  0.00     0.029 A 
ATOM     43  C   UNL A   1      43.273  28.809  33.999  1.00  0.00     0.049 A 
ATOM     44  H   UNL A   1      41.617  29.845  33.277  1.00  0.00     0.167 HD
ATOM     45  C   UNL A   1      38.183  31.996  31.606  1.00  0.00     0.037 A 
ATOM     46  C   UNL A   1      43.548  29.305  35.221  1.00  0.00     0.037 A 
ATOM     47  C   UNL A   1      38.355  32.532  32.931  1.00  0.00     0.049 A 
ATOM     48  C   UNL A   1      42.684  30.403  35.785  1.00  0.00     0.074 A 
ATOM     49  C   UNL A   1      37.589  33.484  33.581  1.00  0.00     0.029 A 
ATOM     50  N   UNL A   1      39.366  32.166  33.809  1.00  0.00    -0.354 N 
ATOM     51  N   UNL A   1      41.637  30.986  35.247  1.00  0.00    -0.248 NA
ATOM     52  C   UNL A   1      43.035  30.910  37.119  1.00  0.00     0.031 C 
ATOM     53  C   UNL A   1      38.163  33.726  34.834  1.00  0.00     0.029 A 
ATOM     54  C   UNL A   1      39.258  32.891  34.984  1.00  0.00     0.049 A 
ATOM     55  H   UNL A   1      40.058  31.491  33.622  1.00  0.00     0.167 HD
ATOM     56  C   UNL A   1      41.190  31.908  36.189  1.00  0.00     0.074 A 
ATOM     57  C   UNL A   1      42.075  31.798  37.332  1.00  0.00     0.031 C 
ATOM     58  C   UNL A   1      40.142  32.765  36.116  1.00  0.00     0.037 A 
BRANCH  45  59
ATOM     59  C   UNL A   1      37.063  32.534  30.760  1.00  0.00     0.058 A 
ATOM     60  C   UNL A   1      35.773  31.984  30.806  1.00  0.00     0.135 A 
ATOM     61  C   UNL A   1      37.277  33.634  29.914  1.00  0.00     0.135 A 
ATOM     62  F   UNL A   1      35.518  30.920  31.584  1.00  0.00    -0.206 F 
ATOM     63  C   UNL A   1      34.738  32.491  30.024  1.00  0.00     0.059 A 
ATOM     64  C   UNL A   1      36.251  34.173  29.143  1.00  0.00     0.059 A 
ATOM     65  F   UNL A   1      38.493  34.197  29.830  1.00  0.00    -0.206 F 
ATOM     66  C   UNL A   1      34.988  33.585  29.195  1.00  0.00     0.060 A 
BRANCH  66  67
ATOM     67  S   UNL A   1      33.636  34.234  28.189  1.00  0.00     0.124 S 
ATOM     68  O   UNL A   1      34.358  35.084  27.246  1.00  0.00    -0.237 OA
ATOM     69  O   UNL A   1      33.052  33.021  27.628  1.00  0.00    -0.237 OA
ATOM     70  O   UNL A   1      32.800  34.939  29.156  1.00  0.00    -0.744 OA
ENDBRANCH  66  67
ENDBRANCH  45  59
BRANCH  46  71
ATOM     71  C   UNL A   1      44.702  28.775  35.994  1.00  0.00     0.058 A 
ATOM     72  C   UNL A   1      44.551  27.701  36.884  1.00  0.00     0.135 A 
ATOM     73  C   UNL A   1      45.982  29.335  35.857  1.00  0.00     0.135 A 
ATOM     74  F   UNL A   1      43.345  27.140  37.058  1.00  0.00    -0.206 F 
ATOM     75  C   UNL A   1      45.623  27.209  37.621  1.00  0.00     0.059 A 
ATOM     76  C   UNL A   1      47.076  28.845  36.564  1.00  0.00     0.059 A 
ATOM     77  F   UNL A   1      46.182  30.358  35.012  1.00  0.00    -0.206 F 
ATOM     78  C   UNL A   1      46.883  27.787  37.452  1.00  0.00     0.060 A 
BRANCH  78  79
ATOM     79  S   UNL A   1      48.280  27.111  38.376  1.00  0.00     0.124 S 
ATOM     80  O   UNL A   1      48.515  25.854  37.674  1.00  0.00    -0.237 OA
ATOM     81  O   UNL A   1      49.296  28.144  38.196  1.00  0.00    -0.237 OA
ATOM     82  O   UNL A   1      47.756  26.988  39.733  1.00  0.00    -0.744 OA
ENDBRANCH  78  79
ENDBRANCH  46  71
BRANCH  58  83
ATOM     83  C   UNL A   1      39.868  33.632  37.315  1.00  0.00     0.058 A 
ATOM     84  C   UNL A   1      40.473  34.889  37.471  1.00  0.00     0.135 A 
ATOM     85  C   UNL A   1      38.947  33.221  38.292  1.00  0.00     0.135 A 
ATOM     86  F   UNL A   1      41.364  35.326  36.568  1.00  0.00    -0.206 F 
ATOM     87  C   UNL A   1      40.189  35.700  38.564  1.00  0.00     0.059 A 
ATOM     88  C   UNL A   1      38.628  34.028  39.380  1.00  0.00     0.059 A 
ATOM     89  F   UNL A   1      38.332  32.032  38.185  1.00  0.00    -0.206 F 
ATOM     90  C   UNL A   1      39.263  35.261  39.515  1.00  0.00     0.060 A 
BRANCH  90  91
ATOM     91  S   UNL A   1      38.878  36.338  40.912  1.00  0.00     0.124 S 
ATOM     92  O   UNL A   1      37.813  35.591  41.573  1.00  0.00    -0.237 OA
ATOM     93  O   UNL A   1      40.151  36.394  41.624  1.00  0.00    -0.237 OA
ATOM     94  O   UNL A   1      38.468  37.586  40.275  1.00  0.00    -0.744 OA
ENDBRANCH  90  91
ENDBRANCH  58  83
ENDBRANCH  32  33
ENDBRANCH  25  27
ENDBRANCH  24  25
ENDBRANCH  23  24
ENDBRANCH  22  23
ENDBRANCH   1  22
TORSDOF 20
ENDMDL
