MODEL 1
REMARK VINA RESULT:     -10.5      0.000      0.000
REMARK SMILES Cc1sc(-c2ccco2)nc1C(=O)N[C@@H](C(=O)OCCOCCOC(=O)c1ccc(-c2c3nc(c(-c4c(F)cc(S(=O)(=O)[O-])cc4F)c4ccc([nH]4)c(-c4c(F)cc(S(=O)(=O)[O-])cc4F)c4nc(c(-c5c(F)cc(S(=O)(=O)[O-])cc5F)c5ccc2[nH]5)C=C4)C=C3)cc1)C(C)C
REMARK SMILES IDX 21 1 20 2 19 3 18 4 16 5 17 6 15 7 14 8 12 9 13 10 11 12
REMARK SMILES IDX 1 13 2 14 3 15 4 16 10 17 5 18 6 19 9 20 7 21 8 22 93 23
REMARK SMILES IDX 94 24 95 25 22 26 23 27 24 28 25 29 26 30 27 31 28 32 92 33
REMARK SMILES IDX 29 34 91 35 30 36 31 37 32 38 85 39 33 40 90 41 84 42 86 43
REMARK SMILES IDX 34 44 89 45 83 46 82 47 35 49 69 50 48 51 68 52 49 53 52 54
REMARK SMILES IDX 67 55 87 56 50 57 51 58 66 60 88 61 53 62 36 63 37 64 46 65
REMARK SMILES IDX 38 66 39 67 45 68 47 69 40 70 41 71 42 72 43 73 44 74 70 75
REMARK SMILES IDX 71 76 80 77 72 78 73 79 79 80 81 81 74 82 75 83 76 84 77 85
REMARK SMILES IDX 78 86 54 87 55 88 64 89 56 90 57 91 63 92 65 93 58 94 59 95
REMARK SMILES IDX 60 96 61 97 62 98
REMARK H PARENT 14 11 86 48 52 59
REMARK Flexibility Score: inf
ROOT
ATOM      1  O   UNL A   1      32.834  30.746  27.290  1.00  0.00    -0.374 OA
ENDROOT
BRANCH   1   2
ATOM      2  C   UNL A   1      32.666  29.442  26.744  1.00  0.00     0.202 C 
BRANCH   2   3
ATOM      3  C   UNL A   1      33.544  29.047  25.549  1.00  0.00     0.261 C 
BRANCH   3   4
ATOM      4  O   UNL A   1      33.634  27.632  25.342  1.00  0.00    -0.462 OA
BRANCH   4   5
ATOM      5  C   UNL A   1      32.960  27.140  24.259  1.00  0.00     0.328 C 
ATOM      6  O   UNL A   1      32.651  27.806  23.278  1.00  0.00    -0.250 OA
BRANCH   5   7
ATOM      7  C   UNL A   1      32.625  25.626  24.405  1.00  0.00     0.195 C 
BRANCH   7   8
ATOM      8  N   UNL A   1      32.754  24.975  23.105  1.00  0.00    -0.337 N 
ATOM      9  C   UNL A   1      33.514  23.926  22.656  1.00  0.00     0.271 C 
ATOM     10  O   UNL A   1      33.493  23.783  21.429  1.00  0.00    -0.267 OA
ATOM     11  H   UNL A   1      32.181  25.371  22.410  1.00  0.00     0.164 HD
BRANCH   9  12
ATOM     12  C   UNL A   1      34.214  22.946  23.520  1.00  0.00     0.142 A 
ATOM     13  C   UNL A   1      32.521  21.075  24.431  1.00  0.00     0.059 C 
ATOM     14  C   UNL A   1      33.807  21.774  24.165  1.00  0.00     0.035 A 
ATOM     15  S   UNL A   1      35.175  21.023  24.926  1.00  0.00    -0.115 S 
ATOM     16  C   UNL A   1      36.091  22.428  24.668  1.00  0.00     0.160 A 
ATOM     17  N   UNL A   1      35.533  23.315  23.883  1.00  0.00    -0.227 NA
BRANCH  16  18
ATOM     18  C   UNL A   1      37.334  22.624  25.351  1.00  0.00     0.162 A 
ATOM     19  C   UNL A   1      37.749  23.736  26.068  1.00  0.00     0.053 A 
ATOM     20  O   UNL A   1      38.291  21.646  25.473  1.00  0.00    -0.462 OA
ATOM     21  C   UNL A   1      38.984  23.407  26.675  1.00  0.00     0.043 A 
ATOM     22  C   UNL A   1      39.278  22.130  26.266  1.00  0.00     0.196 A 
ENDBRANCH  16  18
ENDBRANCH   9  12
ENDBRANCH   7   8
BRANCH   7  23
ATOM     23  C   UNL A   1      31.217  25.405  25.020  1.00  0.00     0.017 C 
ATOM     24  C   UNL A   1      30.154  25.317  23.917  1.00  0.00     0.010 C 
ATOM     25  C   UNL A   1      31.156  24.121  25.860  1.00  0.00     0.010 C 
ENDBRANCH   7  23
ENDBRANCH   5   7
ENDBRANCH   4   5
ENDBRANCH   3   4
ENDBRANCH   2   3
ENDBRANCH   1   2
BRANCH   1  26
ATOM     26  C   UNL A   1      34.159  31.263  27.399  1.00  0.00     0.202 C 
BRANCH  26  27
ATOM     27  C   UNL A   1      34.905  31.093  28.726  1.00  0.00     0.261 C 
BRANCH  27  28
ATOM     28  O   UNL A   1      35.750  29.930  28.742  1.00  0.00    -0.460 OA
BRANCH  28  29
ATOM     29  C   UNL A   1      36.499  29.807  29.867  1.00  0.00     0.338 C 
ATOM     30  O   UNL A   1      36.096  29.576  30.994  1.00  0.00    -0.246 OA
BRANCH  29  31
ATOM     31  C   UNL A   1      37.936  29.812  29.541  1.00  0.00     0.060 A 
ATOM     32  C   UNL A   1      38.286  29.751  28.186  1.00  0.00     0.016 A 
ATOM     33  C   UNL A   1      38.916  29.741  30.533  1.00  0.00     0.016 A 
ATOM     34  C   UNL A   1      39.614  29.555  27.817  1.00  0.00     0.010 A 
ATOM     35  C   UNL A   1      40.250  29.534  30.159  1.00  0.00     0.010 A 
ATOM     36  C   UNL A   1      40.597  29.399  28.803  1.00  0.00    -0.014 A 
BRANCH  36  37
ATOM     37  C   UNL A   1      41.952  28.943  28.404  1.00  0.00     0.031 A 
ATOM     38  C   UNL A   1      43.079  29.939  28.374  1.00  0.00     0.074 A 
ATOM     39  C   UNL A   1      42.184  27.649  28.124  1.00  0.00     0.049 A 
ATOM     40  N   UNL A   1      44.336  29.759  28.063  1.00  0.00    -0.248 NA
ATOM     41  C   UNL A   1      42.744  31.324  28.748  1.00  0.00     0.031 C 
ATOM     42  C   UNL A   1      41.181  26.585  28.157  1.00  0.00     0.029 A 
ATOM     43  N   UNL A   1      43.340  27.010  27.754  1.00  0.00    -0.354 N 
ATOM     44  C   UNL A   1      44.943  31.002  28.201  1.00  0.00     0.074 A 
ATOM     45  C   UNL A   1      43.910  31.935  28.599  1.00  0.00     0.031 C 
ATOM     46  C   UNL A   1      41.764  25.425  27.809  1.00  0.00     0.029 A 
ATOM     47  C   UNL A   1      43.174  25.669  27.506  1.00  0.00     0.049 A 
ATOM     48  H   UNL A   1      44.207  27.469  27.673  1.00  0.00     0.167 HD
ATOM     49  C   UNL A   1      46.244  31.334  28.022  1.00  0.00     0.037 A 
ATOM     50  C   UNL A   1      44.053  24.748  27.067  1.00  0.00     0.037 A 
ATOM     51  C   UNL A   1      47.268  30.405  27.622  1.00  0.00     0.049 A 
ATOM     52  C   UNL A   1      45.482  25.152  26.815  1.00  0.00     0.074 A 
ATOM     53  C   UNL A   1      48.618  30.641  27.425  1.00  0.00     0.029 A 
ATOM     54  N   UNL A   1      47.053  29.060  27.352  1.00  0.00    -0.354 N 
ATOM     55  N   UNL A   1      46.047  26.327  26.971  1.00  0.00    -0.248 NA
ATOM     56  C   UNL A   1      46.396  24.107  26.333  1.00  0.00     0.031 C 
ATOM     57  C   UNL A   1      49.212  29.449  26.995  1.00  0.00     0.029 A 
ATOM     58  C   UNL A   1      48.241  28.459  26.969  1.00  0.00     0.049 A 
ATOM     59  H   UNL A   1      46.185  28.603  27.423  1.00  0.00     0.167 HD
ATOM     60  C   UNL A   1      47.384  26.157  26.628  1.00  0.00     0.074 A 
ATOM     61  C   UNL A   1      47.546  24.763  26.266  1.00  0.00     0.031 C 
ATOM     62  C   UNL A   1      48.387  27.070  26.616  1.00  0.00     0.037 A 
BRANCH  49  63
ATOM     63  C   UNL A   1      46.628  32.773  28.234  1.00  0.00     0.058 A 
ATOM     64  C   UNL A   1      47.113  33.231  29.469  1.00  0.00     0.135 A 
ATOM     65  C   UNL A   1      46.535  33.698  27.182  1.00  0.00     0.135 A 
ATOM     66  F   UNL A   1      47.207  32.392  30.513  1.00  0.00    -0.206 F 
ATOM     67  C   UNL A   1      47.469  34.563  29.661  1.00  0.00     0.059 A 
ATOM     68  C   UNL A   1      46.906  35.030  27.345  1.00  0.00     0.059 A 
ATOM     69  F   UNL A   1      46.074  33.312  25.982  1.00  0.00    -0.206 F 
ATOM     70  C   UNL A   1      47.358  35.455  28.593  1.00  0.00     0.060 A 
BRANCH  70  71
ATOM     71  S   UNL A   1      47.823  37.180  28.856  1.00  0.00     0.124 S 
ATOM     72  O   UNL A   1      47.029  37.518  30.033  1.00  0.00    -0.237 OA
ATOM     73  O   UNL A   1      49.264  37.089  29.067  1.00  0.00    -0.237 OA
ATOM     74  O   UNL A   1      47.415  37.835  27.616  1.00  0.00    -0.744 OA
ENDBRANCH  70  71
ENDBRANCH  49  63
BRANCH  50  75
ATOM     75  C   UNL A   1      43.604  23.352  26.824  1.00  0.00     0.058 A 
ATOM     76  C   UNL A   1      43.412  22.866  25.523  1.00  0.00     0.135 A 
ATOM     77  C   UNL A   1      43.365  22.474  27.893  1.00  0.00     0.135 A 
ATOM     78  F   UNL A   1      43.618  23.670  24.469  1.00  0.00    -0.206 F 
ATOM     79  C   UNL A   1      42.991  21.561  25.289  1.00  0.00     0.059 A 
ATOM     80  C   UNL A   1      42.965  21.159  27.683  1.00  0.00     0.059 A 
ATOM     81  F   UNL A   1      43.543  22.889  29.157  1.00  0.00    -0.206 F 
ATOM     82  C   UNL A   1      42.773  20.713  26.377  1.00  0.00     0.060 A 
BRANCH  82  83
ATOM     83  S   UNL A   1      42.282  19.004  26.063  1.00  0.00     0.124 S 
ATOM     84  O   UNL A   1      43.123  18.662  24.922  1.00  0.00    -0.237 OA
ATOM     85  O   UNL A   1      42.619  18.350  27.323  1.00  0.00    -0.237 OA
ATOM     86  O   UNL A   1      40.853  19.112  25.785  1.00  0.00    -0.744 OA
ENDBRANCH  82  83
ENDBRANCH  50  75
BRANCH  62  87
ATOM     87  C   UNL A   1      49.756  26.587  26.225  1.00  0.00     0.058 A 
ATOM     88  C   UNL A   1      50.284  26.820  24.947  1.00  0.00     0.135 A 
ATOM     89  C   UNL A   1      50.571  25.929  27.162  1.00  0.00     0.135 A 
ATOM     90  F   UNL A   1      49.544  27.440  24.014  1.00  0.00    -0.206 F 
ATOM     91  C   UNL A   1      51.563  26.398  24.600  1.00  0.00     0.059 A 
ATOM     92  C   UNL A   1      51.862  25.519  26.845  1.00  0.00     0.059 A 
ATOM     93  F   UNL A   1      50.118  25.691  28.403  1.00  0.00    -0.206 F 
ATOM     94  C   UNL A   1      52.346  25.748  25.558  1.00  0.00     0.060 A 
BRANCH  94  95
ATOM     95  S   UNL A   1      54.016  25.230  25.108  1.00  0.00     0.124 S 
ATOM     96  O   UNL A   1      53.841  23.793  24.931  1.00  0.00    -0.237 OA
ATOM     97  O   UNL A   1      54.264  25.993  23.889  1.00  0.00    -0.237 OA
ATOM     98  O   UNL A   1      54.817  25.629  26.262  1.00  0.00    -0.744 OA
ENDBRANCH  94  95
ENDBRANCH  62  87
ENDBRANCH  36  37
ENDBRANCH  29  31
ENDBRANCH  28  29
ENDBRANCH  27  28
ENDBRANCH  26  27
ENDBRANCH   1  26
TORSDOF 21
ENDMDL
MODEL 2
REMARK VINA RESULT:     -10.3      6.572     12.148
REMARK SMILES Cc1sc(-c2ccco2)nc1C(=O)N[C@@H](C(=O)OCCOCCOC(=O)c1ccc(-c2c3nc(c(-c4c(F)cc(S(=O)(=O)[O-])cc4F)c4ccc([nH]4)c(-c4c(F)cc(S(=O)(=O)[O-])cc4F)c4nc(c(-c5c(F)cc(S(=O)(=O)[O-])cc5F)c5ccc2[nH]5)C=C4)C=C3)cc1)C(C)C
REMARK SMILES IDX 21 1 20 2 19 3 18 4 16 5 17 6 15 7 14 8 12 9 13 10 11 12
REMARK SMILES IDX 1 13 2 14 3 15 4 16 10 17 5 18 6 19 9 20 7 21 8 22 93 23
REMARK SMILES IDX 94 24 95 25 22 26 23 27 24 28 25 29 26 30 27 31 28 32 92 33
REMARK SMILES IDX 29 34 91 35 30 36 31 37 32 38 85 39 33 40 90 41 84 42 86 43
REMARK SMILES IDX 34 44 89 45 83 46 82 47 35 49 69 50 48 51 68 52 49 53 52 54
REMARK SMILES IDX 67 55 87 56 50 57 51 58 66 60 88 61 53 62 36 63 37 64 46 65
REMARK SMILES IDX 38 66 39 67 45 68 47 69 40 70 41 71 42 72 43 73 44 74 70 75
REMARK SMILES IDX 71 76 80 77 72 78 73 79 79 80 81 81 74 82 75 83 76 84 77 85
REMARK SMILES IDX 78 86 54 87 55 88 64 89 56 90 57 91 63 92 65 93 58 94 59 95
REMARK SMILES IDX 60 96 61 97 62 98
REMARK H PARENT 14 11 86 48 52 59
REMARK Flexibility Score: inf
ROOT
ATOM      1  O   UNL A   1      38.025  21.395  25.760  1.00  0.00    -0.374 OA
ENDROOT
BRANCH   1   2
ATOM      2  C   UNL A   1      36.954  21.631  24.851  1.00  0.00     0.202 C 
BRANCH   2   3
ATOM      3  C   UNL A   1      35.651  20.850  25.063  1.00  0.00     0.261 C 
BRANCH   3   4
ATOM      4  O   UNL A   1      34.470  21.647  24.909  1.00  0.00    -0.462 OA
BRANCH   4   5
ATOM      5  C   UNL A   1      34.338  22.697  25.775  1.00  0.00     0.328 C 
ATOM      6  O   UNL A   1      34.812  22.725  26.903  1.00  0.00    -0.250 OA
BRANCH   5   7
ATOM      7  C   UNL A   1      33.510  23.868  25.165  1.00  0.00     0.195 C 
BRANCH   7   8
ATOM      8  N   UNL A   1      32.170  23.863  25.744  1.00  0.00    -0.337 N 
ATOM      9  C   UNL A   1      31.317  24.863  26.136  1.00  0.00     0.271 C 
ATOM     10  O   UNL A   1      30.331  24.461  26.764  1.00  0.00    -0.267 OA
ATOM     11  H   UNL A   1      31.805  22.959  25.882  1.00  0.00     0.164 HD
BRANCH   9  12
ATOM     12  C   UNL A   1      31.446  26.291  25.764  1.00  0.00     0.142 A 
ATOM     13  C   UNL A   1      30.374  26.764  23.351  1.00  0.00     0.059 C 
ATOM     14  C   UNL A   1      31.000  27.042  24.672  1.00  0.00     0.035 A 
ATOM     15  S   UNL A   1      31.389  28.715  24.916  1.00  0.00    -0.115 S 
ATOM     16  C   UNL A   1      32.395  28.293  26.216  1.00  0.00     0.160 A 
ATOM     17  N   UNL A   1      32.296  27.047  26.608  1.00  0.00    -0.227 NA
BRANCH  16  18
ATOM     18  C   UNL A   1      33.331  29.235  26.751  1.00  0.00     0.162 A 
ATOM     19  C   UNL A   1      33.077  30.507  27.241  1.00  0.00     0.053 A 
ATOM     20  O   UNL A   1      34.661  28.950  26.947  1.00  0.00    -0.462 OA
ATOM     21  C   UNL A   1      34.288  30.996  27.786  1.00  0.00     0.043 A 
ATOM     22  C   UNL A   1      35.225  30.016  27.565  1.00  0.00     0.196 A 
ENDBRANCH  16  18
ENDBRANCH   9  12
ENDBRANCH   7   8
BRANCH   7  23
ATOM     23  C   UNL A   1      33.466  23.796  23.616  1.00  0.00     0.017 C 
ATOM     24  C   UNL A   1      32.091  23.312  23.136  1.00  0.00     0.010 C 
ATOM     25  C   UNL A   1      33.754  25.161  22.973  1.00  0.00     0.010 C 
ENDBRANCH   7  23
ENDBRANCH   5   7
ENDBRANCH   4   5
ENDBRANCH   3   4
ENDBRANCH   2   3
ENDBRANCH   1   2
BRANCH   1  26
ATOM     26  C   UNL A   1      38.798  22.513  26.192  1.00  0.00     0.202 C 
BRANCH  26  27
ATOM     27  C   UNL A   1      40.263  22.285  26.580  1.00  0.00     0.261 C 
BRANCH  27  28
ATOM     28  O   UNL A   1      40.706  23.176  27.618  1.00  0.00    -0.460 OA
BRANCH  28  29
ATOM     29  C   UNL A   1      41.403  24.250  27.165  1.00  0.00     0.338 C 
ATOM     30  O   UNL A   1      42.144  24.287  26.198  1.00  0.00    -0.246 OA
BRANCH  29  31
ATOM     31  C   UNL A   1      41.019  25.469  27.898  1.00  0.00     0.060 A 
ATOM     32  C   UNL A   1      42.000  26.458  28.055  1.00  0.00     0.016 A 
ATOM     33  C   UNL A   1      39.782  25.587  28.535  1.00  0.00     0.016 A 
ATOM     34  C   UNL A   1      41.769  27.540  28.899  1.00  0.00     0.010 A 
ATOM     35  C   UNL A   1      39.557  26.671  29.391  1.00  0.00     0.010 A 
ATOM     36  C   UNL A   1      40.564  27.629  29.608  1.00  0.00    -0.014 A 
BRANCH  36  37
ATOM     37  C   UNL A   1      40.433  28.641  30.685  1.00  0.00     0.031 A 
ATOM     38  C   UNL A   1      41.342  28.557  31.882  1.00  0.00     0.074 A 
ATOM     39  C   UNL A   1      39.552  29.651  30.573  1.00  0.00     0.049 A 
ATOM     40  N   UNL A   1      41.404  29.334  32.932  1.00  0.00    -0.248 NA
ATOM     41  C   UNL A   1      42.312  27.449  31.895  1.00  0.00     0.031 C 
ATOM     42  C   UNL A   1      38.648  29.859  29.444  1.00  0.00     0.029 A 
ATOM     43  N   UNL A   1      39.275  30.691  31.424  1.00  0.00    -0.354 N 
ATOM     44  C   UNL A   1      42.415  28.813  33.731  1.00  0.00     0.074 A 
ATOM     45  C   UNL A   1      42.922  27.636  33.057  1.00  0.00     0.031 C 
ATOM     46  C   UNL A   1      37.905  30.954  29.676  1.00  0.00     0.029 A 
ATOM     47  C   UNL A   1      38.265  31.510  30.981  1.00  0.00     0.049 A 
ATOM     48  H   UNL A   1      39.754  30.835  32.271  1.00  0.00     0.167 HD
ATOM     49  C   UNL A   1      42.885  29.277  34.913  1.00  0.00     0.037 A 
ATOM     50  C   UNL A   1      37.685  32.575  31.569  1.00  0.00     0.037 A 
ATOM     51  C   UNL A   1      42.376  30.445  35.582  1.00  0.00     0.049 A 
ATOM     52  C   UNL A   1      38.183  33.038  32.913  1.00  0.00     0.074 A 
ATOM     53  C   UNL A   1      42.793  31.004  36.778  1.00  0.00     0.029 A 
ATOM     54  N   UNL A   1      41.332  31.232  35.115  1.00  0.00    -0.354 N 
ATOM     55  N   UNL A   1      39.155  32.548  33.646  1.00  0.00    -0.248 NA
ATOM     56  C   UNL A   1      37.510  34.201  33.508  1.00  0.00     0.031 C 
ATOM     57  C   UNL A   1      41.973  32.105  37.055  1.00  0.00     0.029 A 
ATOM     58  C   UNL A   1      41.076  32.259  36.010  1.00  0.00     0.049 A 
ATOM     59  H   UNL A   1      40.846  31.082  34.273  1.00  0.00     0.167 HD
ATOM     60  C   UNL A   1      39.224  33.355  34.777  1.00  0.00     0.074 A 
ATOM     61  C   UNL A   1      38.203  34.372  34.625  1.00  0.00     0.031 C 
ATOM     62  C   UNL A   1      40.058  33.265  35.842  1.00  0.00     0.037 A 
BRANCH  49  63
ATOM     63  C   UNL A   1      43.994  28.503  35.571  1.00  0.00     0.058 A 
ATOM     64  C   UNL A   1      45.344  28.768  35.293  1.00  0.00     0.135 A 
ATOM     65  C   UNL A   1      43.702  27.501  36.511  1.00  0.00     0.135 A 
ATOM     66  F   UNL A   1      45.678  29.704  34.390  1.00  0.00    -0.206 F 
ATOM     67  C   UNL A   1      46.366  28.050  35.905  1.00  0.00     0.059 A 
ATOM     68  C   UNL A   1      44.709  26.785  37.152  1.00  0.00     0.059 A 
ATOM     69  F   UNL A   1      42.427  27.206  36.810  1.00  0.00    -0.206 F 
ATOM     70  C   UNL A   1      46.038  27.058  36.832  1.00  0.00     0.060 A 
BRANCH  70  71
ATOM     71  S   UNL A   1      47.375  26.133  37.619  1.00  0.00     0.124 S 
ATOM     72  O   UNL A   1      47.335  24.877  36.876  1.00  0.00    -0.237 OA
ATOM     73  O   UNL A   1      48.535  26.982  37.367  1.00  0.00    -0.237 OA
ATOM     74  O   UNL A   1      46.955  26.049  39.014  1.00  0.00    -0.744 OA
ENDBRANCH  70  71
ENDBRANCH  49  63
BRANCH  50  75
ATOM     75  C   UNL A   1      36.558  33.269  30.894  1.00  0.00     0.058 A 
ATOM     76  C   UNL A   1      35.233  33.084  31.315  1.00  0.00     0.135 A 
ATOM     77  C   UNL A   1      36.786  34.140  29.818  1.00  0.00     0.135 A 
ATOM     78  F   UNL A   1      34.963  32.252  32.333  1.00  0.00    -0.206 F 
ATOM     79  C   UNL A   1      34.173  33.729  30.688  1.00  0.00     0.059 A 
ATOM     80  C   UNL A   1      35.746  34.815  29.190  1.00  0.00     0.059 A 
ATOM     81  F   UNL A   1      38.038  34.359  29.384  1.00  0.00    -0.206 F 
ATOM     82  C   UNL A   1      34.440  34.597  29.627  1.00  0.00     0.060 A 
BRANCH  82  83
ATOM     83  S   UNL A   1      33.065  35.477  28.855  1.00  0.00     0.124 S 
ATOM     84  O   UNL A   1      33.765  36.491  28.075  1.00  0.00    -0.237 OA
ATOM     85  O   UNL A   1      32.413  34.419  28.090  1.00  0.00    -0.237 OA
ATOM     86  O   UNL A   1      32.303  35.973  29.997  1.00  0.00    -0.744 OA
ENDBRANCH  82  83
ENDBRANCH  50  75
BRANCH  62  87
ATOM     87  C   UNL A   1      39.923  34.308  36.917  1.00  0.00     0.058 A 
ATOM     88  C   UNL A   1      39.113  34.106  38.043  1.00  0.00     0.135 A 
ATOM     89  C   UNL A   1      40.657  35.505  36.841  1.00  0.00     0.135 A 
ATOM     90  F   UNL A   1      38.387  32.983  38.161  1.00  0.00    -0.206 F 
ATOM     91  C   UNL A   1      39.015  35.063  39.049  1.00  0.00     0.059 A 
ATOM     92  C   UNL A   1      40.593  36.464  37.847  1.00  0.00     0.059 A 
ATOM     93  F   UNL A   1      41.456  35.742  35.789  1.00  0.00    -0.206 F 
ATOM     94  C   UNL A   1      39.760  36.239  38.942  1.00  0.00     0.060 A 
BRANCH  94  95
ATOM     95  S   UNL A   1      39.650  37.461  40.266  1.00  0.00     0.124 S 
ATOM     96  O   UNL A   1      39.997  36.660  41.435  1.00  0.00    -0.237 OA
ATOM     97  O   UNL A   1      40.641  38.454  39.861  1.00  0.00    -0.237 OA
ATOM     98  O   UNL A   1      38.261  37.909  40.200  1.00  0.00    -0.744 OA
ENDBRANCH  94  95
ENDBRANCH  62  87
ENDBRANCH  36  37
ENDBRANCH  29  31
ENDBRANCH  28  29
ENDBRANCH  27  28
ENDBRANCH  26  27
ENDBRANCH   1  26
TORSDOF 21
ENDMDL
MODEL 3
REMARK VINA RESULT:     -10.1      1.181      2.355
REMARK SMILES Cc1sc(-c2ccco2)nc1C(=O)N[C@@H](C(=O)OCCOCCOC(=O)c1ccc(-c2c3nc(c(-c4c(F)cc(S(=O)(=O)[O-])cc4F)c4ccc([nH]4)c(-c4c(F)cc(S(=O)(=O)[O-])cc4F)c4nc(c(-c5c(F)cc(S(=O)(=O)[O-])cc5F)c5ccc2[nH]5)C=C4)C=C3)cc1)C(C)C
REMARK SMILES IDX 21 1 20 2 19 3 18 4 16 5 17 6 15 7 14 8 12 9 13 10 11 12
REMARK SMILES IDX 1 13 2 14 3 15 4 16 10 17 5 18 6 19 9 20 7 21 8 22 93 23
REMARK SMILES IDX 94 24 95 25 22 26 23 27 24 28 25 29 26 30 27 31 28 32 92 33
REMARK SMILES IDX 29 34 91 35 30 36 31 37 32 38 85 39 33 40 90 41 84 42 86 43
REMARK SMILES IDX 34 44 89 45 83 46 82 47 35 49 69 50 48 51 68 52 49 53 52 54
REMARK SMILES IDX 67 55 87 56 50 57 51 58 66 60 88 61 53 62 36 63 37 64 46 65
REMARK SMILES IDX 38 66 39 67 45 68 47 69 40 70 41 71 42 72 43 73 44 74 70 75
REMARK SMILES IDX 71 76 80 77 72 78 73 79 79 80 81 81 74 82 75 83 76 84 77 85
REMARK SMILES IDX 78 86 54 87 55 88 64 89 56 90 57 91 63 92 65 93 58 94 59 95
REMARK SMILES IDX 60 96 61 97 62 98
REMARK H PARENT 14 11 86 48 52 59
REMARK Flexibility Score: inf
ROOT
ATOM      1  O   UNL A   1      34.359  30.296  27.611  1.00  0.00    -0.374 OA
ENDROOT
BRANCH   1   2
ATOM      2  C   UNL A   1      33.783  29.805  26.405  1.00  0.00     0.202 C 
BRANCH   2   3
ATOM      3  C   UNL A   1      33.089  28.438  26.448  1.00  0.00     0.261 C 
BRANCH   3   4
ATOM      4  O   UNL A   1      33.130  27.730  25.202  1.00  0.00    -0.462 OA
BRANCH   4   5
ATOM      5  C   UNL A   1      33.375  26.388  25.283  1.00  0.00     0.328 C 
ATOM      6  O   UNL A   1      34.420  25.900  25.694  1.00  0.00    -0.250 OA
BRANCH   5   7
ATOM      7  C   UNL A   1      32.168  25.534  24.791  1.00  0.00     0.195 C 
BRANCH   7   8
ATOM      8  N   UNL A   1      32.416  25.091  23.423  1.00  0.00    -0.337 N 
ATOM      9  C   UNL A   1      33.202  24.102  22.888  1.00  0.00     0.271 C 
ATOM     10  O   UNL A   1      33.300  24.154  21.657  1.00  0.00    -0.267 OA
ATOM     11  H   UNL A   1      31.920  25.607  22.747  1.00  0.00     0.164 HD
BRANCH   9  12
ATOM     12  C   UNL A   1      33.800  22.980  23.648  1.00  0.00     0.142 A 
ATOM     13  C   UNL A   1      36.421  23.375  24.060  1.00  0.00     0.059 C 
ATOM     14  C   UNL A   1      35.078  22.743  24.164  1.00  0.00     0.035 A 
ATOM     15  S   UNL A   1      35.075  21.264  25.071  1.00  0.00    -0.115 S 
ATOM     16  C   UNL A   1      33.548  20.877  24.439  1.00  0.00     0.160 A 
ATOM     17  N   UNL A   1      32.960  21.847  23.785  1.00  0.00    -0.227 NA
BRANCH  16  18
ATOM     18  C   UNL A   1      33.025  19.550  24.558  1.00  0.00     0.162 A 
ATOM     19  C   UNL A   1      32.556  18.723  23.549  1.00  0.00     0.053 A 
ATOM     20  O   UNL A   1      33.008  18.847  25.739  1.00  0.00    -0.462 OA
ATOM     21  C   UNL A   1      32.278  17.464  24.132  1.00  0.00     0.043 A 
ATOM     22  C   UNL A   1      32.553  17.599  25.471  1.00  0.00     0.196 A 
ENDBRANCH  16  18
ENDBRANCH   9  12
ENDBRANCH   7   8
BRANCH   7  23
ATOM     23  C   UNL A   1      30.828  26.309  24.909  1.00  0.00     0.017 C 
ATOM     24  C   UNL A   1      30.228  26.564  23.521  1.00  0.00     0.010 C 
ATOM     25  C   UNL A   1      29.798  25.543  25.754  1.00  0.00     0.010 C 
ENDBRANCH   7  23
ENDBRANCH   5   7
ENDBRANCH   4   5
ENDBRANCH   3   4
ENDBRANCH   2   3
ENDBRANCH   1   2
BRANCH   1  26
ATOM     26  C   UNL A   1      34.115  31.655  27.968  1.00  0.00     0.202 C 
BRANCH  26  27
ATOM     27  C   UNL A   1      34.781  32.213  29.230  1.00  0.00     0.261 C 
BRANCH  27  28
ATOM     28  O   UNL A   1      36.206  32.023  29.235  1.00  0.00    -0.460 OA
BRANCH  28  29
ATOM     29  C   UNL A   1      36.657  31.247  30.254  1.00  0.00     0.338 C 
ATOM     30  O   UNL A   1      36.144  31.108  31.351  1.00  0.00    -0.246 OA
BRANCH  29  31
ATOM     31  C   UNL A   1      37.793  30.418  29.815  1.00  0.00     0.060 A 
ATOM     32  C   UNL A   1      38.710  30.017  30.796  1.00  0.00     0.016 A 
ATOM     33  C   UNL A   1      38.034  30.154  28.465  1.00  0.00     0.016 A 
ATOM     34  C   UNL A   1      39.903  29.403  30.424  1.00  0.00     0.010 A 
ATOM     35  C   UNL A   1      39.240  29.546  28.094  1.00  0.00     0.010 A 
ATOM     36  C   UNL A   1      40.195  29.206  29.069  1.00  0.00    -0.014 A 
BRANCH  36  37
ATOM     37  C   UNL A   1      41.565  28.787  28.680  1.00  0.00     0.031 A 
ATOM     38  C   UNL A   1      42.668  29.810  28.673  1.00  0.00     0.074 A 
ATOM     39  C   UNL A   1      41.830  27.502  28.386  1.00  0.00     0.049 A 
ATOM     40  N   UNL A   1      43.932  29.663  28.373  1.00  0.00    -0.248 NA
ATOM     41  C   UNL A   1      42.297  31.182  29.060  1.00  0.00     0.031 C 
ATOM     42  C   UNL A   1      40.852  26.415  28.396  1.00  0.00     0.029 A 
ATOM     43  N   UNL A   1      43.005  26.895  28.021  1.00  0.00    -0.354 N 
ATOM     44  C   UNL A   1      44.509  30.919  28.532  1.00  0.00     0.074 A 
ATOM     45  C   UNL A   1      43.450  31.822  28.930  1.00  0.00     0.031 C 
ATOM     46  C   UNL A   1      41.465  25.274  28.041  1.00  0.00     0.029 A 
ATOM     47  C   UNL A   1      42.872  25.554  27.755  1.00  0.00     0.049 A 
ATOM     48  H   UNL A   1      43.861  27.376  27.955  1.00  0.00     0.167 HD
ATOM     49  C   UNL A   1      45.803  31.283  28.371  1.00  0.00     0.037 A 
ATOM     50  C   UNL A   1      43.778  24.659  27.314  1.00  0.00     0.037 A 
ATOM     51  C   UNL A   1      46.852  30.383  27.971  1.00  0.00     0.049 A 
ATOM     52  C   UNL A   1      45.199  25.100  27.083  1.00  0.00     0.074 A 
ATOM     53  C   UNL A   1      48.198  30.653  27.791  1.00  0.00     0.029 A 
ATOM     54  N   UNL A   1      46.673  29.037  27.683  1.00  0.00    -0.354 N 
ATOM     55  N   UNL A   1      45.734  26.286  27.259  1.00  0.00    -0.248 NA
ATOM     56  C   UNL A   1      46.142  24.082  26.598  1.00  0.00     0.031 C 
ATOM     57  C   UNL A   1      48.825  29.480  27.353  1.00  0.00     0.029 A 
ATOM     58  C   UNL A   1      47.878  28.468  27.305  1.00  0.00     0.049 A 
ATOM     59  H   UNL A   1      45.815  28.558  27.739  1.00  0.00     0.167 HD
ATOM     60  C   UNL A   1      47.079  26.151  26.927  1.00  0.00     0.074 A 
ATOM     61  C   UNL A   1      47.278  24.765  26.551  1.00  0.00     0.031 C 
ATOM     62  C   UNL A   1      48.060  27.087  26.937  1.00  0.00     0.037 A 
BRANCH  49  63
ATOM     63  C   UNL A   1      46.151  32.727  28.605  1.00  0.00     0.058 A 
ATOM     64  C   UNL A   1      46.563  33.191  29.864  1.00  0.00     0.135 A 
ATOM     65  C   UNL A   1      46.096  33.653  27.550  1.00  0.00     0.135 A 
ATOM     66  F   UNL A   1      46.618  32.353  30.910  1.00  0.00    -0.206 F 
ATOM     67  C   UNL A   1      46.886  34.528  30.075  1.00  0.00     0.059 A 
ATOM     68  C   UNL A   1      46.435  34.990  27.733  1.00  0.00     0.059 A 
ATOM     69  F   UNL A   1      45.705  33.261  26.327  1.00  0.00    -0.206 F 
ATOM     70  C   UNL A   1      46.815  35.421  29.004  1.00  0.00     0.060 A 
BRANCH  70  71
ATOM     71  S   UNL A   1      47.236  37.153  29.291  1.00  0.00     0.124 S 
ATOM     72  O   UNL A   1      48.350  37.339  28.366  1.00  0.00    -0.237 OA
ATOM     73  O   UNL A   1      45.998  37.840  28.938  1.00  0.00    -0.237 OA
ATOM     74  O   UNL A   1      47.586  37.188  30.708  1.00  0.00    -0.744 OA
ENDBRANCH  70  71
ENDBRANCH  49  63
BRANCH  50  75
ATOM     75  C   UNL A   1      43.364  23.256  27.051  1.00  0.00     0.058 A 
ATOM     76  C   UNL A   1      43.146  22.796  25.744  1.00  0.00     0.135 A 
ATOM     77  C   UNL A   1      43.186  22.346  28.103  1.00  0.00     0.135 A 
ATOM     78  F   UNL A   1      43.295  23.632  24.705  1.00  0.00    -0.206 F 
ATOM     79  C   UNL A   1      42.758  21.485  25.490  1.00  0.00     0.059 A 
ATOM     80  C   UNL A   1      42.820  21.024  27.873  1.00  0.00     0.059 A 
ATOM     81  F   UNL A   1      43.391  22.735  29.371  1.00  0.00    -0.206 F 
ATOM     82  C   UNL A   1      42.600  20.604  26.562  1.00  0.00     0.060 A 
BRANCH  82  83
ATOM     83  S   UNL A   1      42.153  18.888  26.220  1.00  0.00     0.124 S 
ATOM     84  O   UNL A   1      42.300  18.279  27.537  1.00  0.00    -0.237 OA
ATOM     85  O   UNL A   1      40.786  19.019  25.725  1.00  0.00    -0.237 OA
ATOM     86  O   UNL A   1      43.136  18.480  25.222  1.00  0.00    -0.744 OA
ENDBRANCH  82  83
ENDBRANCH  50  75
BRANCH  62  87
ATOM     87  C   UNL A   1      49.445  26.642  26.555  1.00  0.00     0.058 A 
ATOM     88  C   UNL A   1      50.357  26.170  27.511  1.00  0.00     0.135 A 
ATOM     89  C   UNL A   1      49.843  26.639  25.208  1.00  0.00     0.135 A 
ATOM     90  F   UNL A   1      50.027  26.158  28.812  1.00  0.00    -0.206 F 
ATOM     91  C   UNL A   1      51.627  25.732  27.148  1.00  0.00     0.059 A 
ATOM     92  C   UNL A   1      51.099  26.182  24.821  1.00  0.00     0.059 A 
ATOM     93  F   UNL A   1      49.004  27.070  24.253  1.00  0.00    -0.206 F 
ATOM     94  C   UNL A   1      51.989  25.741  25.799  1.00  0.00     0.060 A 
BRANCH  94  95
ATOM     95  S   UNL A   1      53.627  25.142  25.335  1.00  0.00     0.124 S 
ATOM     96  O   UNL A   1      54.435  25.591  26.463  1.00  0.00    -0.237 OA
ATOM     97  O   UNL A   1      53.419  23.700  25.239  1.00  0.00    -0.237 OA
ATOM     98  O   UNL A   1      53.888  25.815  24.066  1.00  0.00    -0.744 OA
ENDBRANCH  94  95
ENDBRANCH  62  87
ENDBRANCH  36  37
ENDBRANCH  29  31
ENDBRANCH  28  29
ENDBRANCH  27  28
ENDBRANCH  26  27
ENDBRANCH   1  26
TORSDOF 21
ENDMDL
