MODEL 1
REMARK VINA RESULT:     -10.8      0.000      0.000
REMARK SMILES Cc1cc(-c2cc(C(=O)OCCOCCOC(=O)c3ccc(-c4c5nc(c(-c6c(F)cc(S(=O)(=O)[O-])cc6F)c6ccc([nH]6)c(-c6c(F)cc(S(=O)(=O)[O-])cc6F)c6nc(c(-c7c(F)cc(S(=O)(=O)[O-])cc7F)c7ccc4[nH]7)C=C6)C=C5)cc3)c[nH]c2=O)ccc1Cl
REMARK SMILES IDX 14 1 13 2 12 3 11 4 10 5 8 6 9 7 7 8 5 9 6 10 87 11 86 12
REMARK SMILES IDX 88 13 85 14 4 16 1 17 2 18 3 19 91 20 90 21 92 22 89 23
REMARK SMILES IDX 15 24 16 25 17 26 18 27 19 28 20 29 84 30 21 31 83 32 22 33
REMARK SMILES IDX 23 34 24 35 77 36 25 37 82 38 76 39 78 40 26 41 81 42 75 43
REMARK SMILES IDX 74 44 27 46 61 47 40 48 60 49 41 50 44 51 59 52 79 53 42 54
REMARK SMILES IDX 43 55 58 57 80 58 45 59 28 60 29 61 38 62 30 63 31 64 37 65
REMARK SMILES IDX 39 66 32 67 33 68 34 69 35 70 36 71 62 72 63 73 72 74 64 75
REMARK SMILES IDX 65 76 71 77 73 78 66 79 67 80 68 81 69 82 70 83 46 84 47 85
REMARK SMILES IDX 56 86 48 87 49 88 55 89 57 90 50 91 51 92 52 93 53 94 54 95
REMARK H PARENT 86 15 78 45 44 56
REMARK Flexibility Score: inf
ROOT
ATOM      1  C   UNL A   1      34.679  33.454  29.427  1.00  0.00     0.202 C 
ENDROOT
BRANCH   1   2
ATOM      2  O   UNL A   1      33.452  34.164  29.597  1.00  0.00    -0.374 OA
BRANCH   2   3
ATOM      3  C   UNL A   1      33.264  35.326  28.786  1.00  0.00     0.202 C 
BRANCH   3   4
ATOM      4  C   UNL A   1      33.131  36.646  29.554  1.00  0.00     0.261 C 
BRANCH   4   5
ATOM      5  O   UNL A   1      32.403  36.453  30.781  1.00  0.00    -0.460 OA
BRANCH   5   6
ATOM      6  C   UNL A   1      33.050  36.835  31.909  1.00  0.00     0.339 C 
ATOM      7  O   UNL A   1      32.896  37.887  32.512  1.00  0.00    -0.246 OA
BRANCH   6   8
ATOM      8  C   UNL A   1      33.880  35.715  32.425  1.00  0.00     0.077 A 
ATOM      9  C   UNL A   1      36.018  34.560  32.739  1.00  0.00     0.048 A 
ATOM     10  C   UNL A   1      35.311  35.586  32.214  1.00  0.00     0.031 A 
ATOM     11  C   UNL A   1      35.257  33.499  33.504  1.00  0.00     0.255 A 
ATOM     12  N   UNL A   1      33.900  33.690  33.623  1.00  0.00    -0.328 N 
ATOM     13  O   UNL A   1      35.790  32.512  34.003  1.00  0.00    -0.269 OA
ATOM     14  C   UNL A   1      33.226  34.768  33.115  1.00  0.00     0.101 A 
ATOM     15  H   UNL A   1      33.379  33.008  34.104  1.00  0.00     0.169 HD
BRANCH   9  16
ATOM     16  C   UNL A   1      37.492  34.492  32.601  1.00  0.00    -0.012 A 
ATOM     17  C   UNL A   1      40.088  33.862  29.866  1.00  0.00     0.046 C 
ATOM     18  C   UNL A   1      39.493  34.130  31.220  1.00  0.00    -0.032 A 
ATOM     19  C   UNL A   1      38.098  34.274  31.351  1.00  0.00     0.014 A 
ATOM     20  C   UNL A   1      40.288  34.218  32.371  1.00  0.00     0.044 A 
ATOM     21  C   UNL A   1      39.704  34.447  33.616  1.00  0.00     0.021 A 
ATOM     22  Cl  UNL A   1      42.003  34.030  32.303  1.00  0.00    -0.084 Cl
ATOM     23  C   UNL A   1      38.318  34.577  33.732  1.00  0.00     0.010 A 
ENDBRANCH   9  16
ENDBRANCH   6   8
ENDBRANCH   5   6
ENDBRANCH   4   5
ENDBRANCH   3   4
ENDBRANCH   2   3
ENDBRANCH   1   2
BRANCH   1  24
ATOM     24  C   UNL A   1      34.818  32.144  30.212  1.00  0.00     0.261 C 
BRANCH  24  25
ATOM     25  O   UNL A   1      35.886  31.328  29.702  1.00  0.00    -0.460 OA
BRANCH  25  26
ATOM     26  C   UNL A   1      36.598  30.674  30.650  1.00  0.00     0.338 C 
ATOM     27  O   UNL A   1      36.159  30.146  31.663  1.00  0.00    -0.246 OA
BRANCH  26  28
ATOM     28  C   UNL A   1      38.001  30.518  30.222  1.00  0.00     0.060 A 
ATOM     29  C   UNL A   1      38.236  30.375  28.850  1.00  0.00     0.016 A 
ATOM     30  C   UNL A   1      39.059  30.448  31.132  1.00  0.00     0.016 A 
ATOM     31  C   UNL A   1      39.521  30.103  28.386  1.00  0.00     0.010 A 
ATOM     32  C   UNL A   1      40.350  30.174  30.664  1.00  0.00     0.010 A 
ATOM     33  C   UNL A   1      40.580  29.962  29.292  1.00  0.00    -0.014 A 
BRANCH  33  34
ATOM     34  C   UNL A   1      41.890  29.471  28.798  1.00  0.00     0.031 A 
ATOM     35  C   UNL A   1      43.059  30.418  28.742  1.00  0.00     0.074 A 
ATOM     36  C   UNL A   1      42.050  28.179  28.459  1.00  0.00     0.049 A 
ATOM     37  N   UNL A   1      44.299  30.183  28.400  1.00  0.00    -0.248 NA
ATOM     38  C   UNL A   1      42.795  31.814  29.124  1.00  0.00     0.031 C 
ATOM     39  C   UNL A   1      41.000  27.161  28.492  1.00  0.00     0.029 A 
ATOM     40  N   UNL A   1      43.161  27.501  28.027  1.00  0.00    -0.354 N 
ATOM     41  C   UNL A   1      44.964  31.398  28.519  1.00  0.00     0.074 A 
ATOM     42  C   UNL A   1      43.981  32.375  28.937  1.00  0.00     0.031 C 
ATOM     43  C   UNL A   1      41.520  25.985  28.103  1.00  0.00     0.029 A 
ATOM     44  C   UNL A   1      42.932  26.169  27.773  1.00  0.00     0.049 A 
ATOM     45  H   UNL A   1      44.042  27.927  27.910  1.00  0.00     0.167 HD
ATOM     46  C   UNL A   1      46.274  31.673  28.312  1.00  0.00     0.037 A 
ATOM     47  C   UNL A   1      43.765  25.211  27.323  1.00  0.00     0.037 A 
ATOM     48  C   UNL A   1      47.252  30.696  27.903  1.00  0.00     0.049 A 
ATOM     49  C   UNL A   1      45.209  25.551  27.060  1.00  0.00     0.074 A 
ATOM     50  C   UNL A   1      48.610  30.869  27.705  1.00  0.00     0.029 A 
ATOM     51  N   UNL A   1      46.973  29.367  27.620  1.00  0.00    -0.354 N 
ATOM     52  N   UNL A   1      45.831  26.695  27.220  1.00  0.00    -0.248 NA
ATOM     53  C   UNL A   1      46.064  24.466  26.562  1.00  0.00     0.031 C 
ATOM     54  C   UNL A   1      49.145  29.656  27.254  1.00  0.00     0.029 A 
ATOM     55  C   UNL A   1      48.128  28.715  27.219  1.00  0.00     0.049 A 
ATOM     56  H   UNL A   1      46.085  28.948  27.692  1.00  0.00     0.167 HD
ATOM     57  C   UNL A   1      47.156  26.461  26.866  1.00  0.00     0.074 A 
ATOM     58  C   UNL A   1      47.247  25.062  26.499  1.00  0.00     0.031 C 
ATOM     59  C   UNL A   1      48.203  27.324  26.850  1.00  0.00     0.037 A 
BRANCH  46  60
ATOM     60  C   UNL A   1      46.724  33.096  28.500  1.00  0.00     0.058 A 
ATOM     61  C   UNL A   1      47.178  33.572  29.741  1.00  0.00     0.135 A 
ATOM     62  C   UNL A   1      46.726  33.989  27.417  1.00  0.00     0.135 A 
ATOM     63  F   UNL A   1      47.181  32.767  30.815  1.00  0.00    -0.206 F 
ATOM     64  C   UNL A   1      47.591  34.891  29.906  1.00  0.00     0.059 A 
ATOM     65  C   UNL A   1      47.159  35.304  27.553  1.00  0.00     0.059 A 
ATOM     66  F   UNL A   1      46.300  33.585  26.208  1.00  0.00    -0.206 F 
ATOM     67  C   UNL A   1      47.576  35.749  28.807  1.00  0.00     0.060 A 
BRANCH  67  68
ATOM     68  S   UNL A   1      48.114  37.458  29.035  1.00  0.00     0.124 S 
ATOM     69  O   UNL A   1      49.057  37.616  27.933  1.00  0.00    -0.237 OA
ATOM     70  O   UNL A   1      46.863  38.199  28.909  1.00  0.00    -0.237 OA
ATOM     71  O   UNL A   1      48.703  37.454  30.370  1.00  0.00    -0.744 OA
ENDBRANCH  67  68
ENDBRANCH  46  60
BRANCH  47  72
ATOM     72  C   UNL A   1      43.258  23.831  27.101  1.00  0.00     0.058 A 
ATOM     73  C   UNL A   1      42.958  23.368  25.811  1.00  0.00     0.135 A 
ATOM     74  C   UNL A   1      43.063  22.949  28.175  1.00  0.00     0.135 A 
ATOM     75  F   UNL A   1      43.117  24.179  24.754  1.00  0.00    -0.206 F 
ATOM     76  C   UNL A   1      42.471  22.084  25.594  1.00  0.00     0.059 A 
ATOM     77  C   UNL A   1      42.601  21.652  27.980  1.00  0.00     0.059 A 
ATOM     78  F   UNL A   1      43.345  23.341  29.427  1.00  0.00    -0.206 F 
ATOM     79  C   UNL A   1      42.299  21.231  26.686  1.00  0.00     0.060 A 
BRANCH  79  80
ATOM     80  S   UNL A   1      41.722  19.546  26.388  1.00  0.00     0.124 S 
ATOM     81  O   UNL A   1      42.178  18.862  27.593  1.00  0.00    -0.237 OA
ATOM     82  O   UNL A   1      40.280  19.733  26.265  1.00  0.00    -0.237 OA
ATOM     83  O   UNL A   1      42.405  19.173  25.153  1.00  0.00    -0.744 OA
ENDBRANCH  79  80
ENDBRANCH  47  72
BRANCH  59  84
ATOM     84  C   UNL A   1      49.542  26.769  26.443  1.00  0.00     0.058 A 
ATOM     85  C   UNL A   1      50.396  26.149  27.368  1.00  0.00     0.135 A 
ATOM     86  C   UNL A   1      49.970  26.847  25.107  1.00  0.00     0.135 A 
ATOM     87  F   UNL A   1      50.038  26.050  28.658  1.00  0.00    -0.206 F 
ATOM     88  C   UNL A   1      51.646  25.664  26.992  1.00  0.00     0.059 A 
ATOM     89  C   UNL A   1      51.203  26.344  24.704  1.00  0.00     0.059 A 
ATOM     90  F   UNL A   1      49.186  27.417  24.178  1.00  0.00    -0.206 F 
ATOM     91  C   UNL A   1      52.043  25.772  25.659  1.00  0.00     0.060 A 
BRANCH  91  92
ATOM     92  S   UNL A   1      53.667  25.146  25.182  1.00  0.00     0.124 S 
ATOM     93  O   UNL A   1      54.535  25.821  26.142  1.00  0.00    -0.237 OA
ATOM     94  O   UNL A   1      53.517  23.706  25.367  1.00  0.00    -0.237 OA
ATOM     95  O   UNL A   1      53.805  25.582  23.795  1.00  0.00    -0.744 OA
ENDBRANCH  91  92
ENDBRANCH  59  84
ENDBRANCH  33  34
ENDBRANCH  26  28
ENDBRANCH  25  26
ENDBRANCH  24  25
ENDBRANCH   1  24
TORSDOF 18
ENDMDL
MODEL 2
REMARK VINA RESULT:     -10.3      6.988     13.510
REMARK SMILES Cc1cc(-c2cc(C(=O)OCCOCCOC(=O)c3ccc(-c4c5nc(c(-c6c(F)cc(S(=O)(=O)[O-])cc6F)c6ccc([nH]6)c(-c6c(F)cc(S(=O)(=O)[O-])cc6F)c6nc(c(-c7c(F)cc(S(=O)(=O)[O-])cc7F)c7ccc4[nH]7)C=C6)C=C5)cc3)c[nH]c2=O)ccc1Cl
REMARK SMILES IDX 14 1 13 2 12 3 11 4 10 5 8 6 9 7 7 8 5 9 6 10 87 11 86 12
REMARK SMILES IDX 88 13 85 14 4 16 1 17 2 18 3 19 91 20 90 21 92 22 89 23
REMARK SMILES IDX 15 24 16 25 17 26 18 27 19 28 20 29 84 30 21 31 83 32 22 33
REMARK SMILES IDX 23 34 24 35 77 36 25 37 82 38 76 39 78 40 26 41 81 42 75 43
REMARK SMILES IDX 74 44 27 46 61 47 40 48 60 49 41 50 44 51 59 52 79 53 42 54
REMARK SMILES IDX 43 55 58 57 80 58 45 59 28 60 29 61 38 62 30 63 31 64 37 65
REMARK SMILES IDX 39 66 32 67 33 68 34 69 35 70 36 71 62 72 63 73 72 74 64 75
REMARK SMILES IDX 65 76 71 77 73 78 66 79 67 80 68 81 69 82 70 83 46 84 47 85
REMARK SMILES IDX 56 86 48 87 49 88 55 89 57 90 50 91 51 92 52 93 53 94 54 95
REMARK H PARENT 86 15 78 45 44 56
REMARK Flexibility Score: inf
ROOT
ATOM      1  C   UNL A   1      39.354  21.841  26.218  1.00  0.00     0.202 C 
ENDROOT
BRANCH   1   2
ATOM      2  O   UNL A   1      38.026  22.239  25.873  1.00  0.00    -0.374 OA
BRANCH   2   3
ATOM      3  C   UNL A   1      37.413  21.550  24.781  1.00  0.00     0.202 C 
BRANCH   3   4
ATOM      4  C   UNL A   1      36.171  22.229  24.194  1.00  0.00     0.261 C 
BRANCH   4   5
ATOM      5  O   UNL A   1      35.121  22.313  25.176  1.00  0.00    -0.460 OA
BRANCH   5   6
ATOM      6  C   UNL A   1      33.941  21.751  24.817  1.00  0.00     0.339 C 
ATOM      7  O   UNL A   1      33.791  20.687  24.234  1.00  0.00    -0.246 OA
BRANCH   6   8
ATOM      8  C   UNL A   1      32.810  22.538  25.377  1.00  0.00     0.077 A 
ATOM      9  C   UNL A   1      31.707  24.648  25.955  1.00  0.00     0.048 A 
ATOM     10  C   UNL A   1      32.780  23.988  25.465  1.00  0.00     0.031 A 
ATOM     11  C   UNL A   1      30.552  23.824  26.480  1.00  0.00     0.255 A 
ATOM     12  N   UNL A   1      30.686  22.458  26.385  1.00  0.00    -0.328 N 
ATOM     13  O   UNL A   1      29.538  24.314  26.968  1.00  0.00    -0.269 OA
ATOM     14  C   UNL A   1      31.771  21.827  25.840  1.00  0.00     0.101 A 
ATOM     15  H   UNL A   1      29.955  21.898  26.731  1.00  0.00     0.169 HD
BRANCH   9  16
ATOM     16  C   UNL A   1      31.647  26.129  25.948  1.00  0.00    -0.012 A 
ATOM     17  C   UNL A   1      30.393  28.936  23.676  1.00  0.00     0.046 C 
ATOM     18  C   UNL A   1      31.036  28.236  24.841  1.00  0.00    -0.032 A 
ATOM     19  C   UNL A   1      31.030  26.829  24.897  1.00  0.00     0.014 A 
ATOM     20  C   UNL A   1      31.669  28.947  25.870  1.00  0.00     0.044 A 
ATOM     21  C   UNL A   1      32.274  28.268  26.927  1.00  0.00     0.021 A 
ATOM     22  Cl  UNL A   1      31.743  30.672  25.867  1.00  0.00    -0.084 Cl
ATOM     23  C   UNL A   1      32.269  26.871  26.963  1.00  0.00     0.010 A 
ENDBRANCH   9  16
ENDBRANCH   6   8
ENDBRANCH   5   6
ENDBRANCH   4   5
ENDBRANCH   3   4
ENDBRANCH   2   3
ENDBRANCH   1   2
BRANCH   1  24
ATOM     24  C   UNL A   1      40.313  22.965  26.628  1.00  0.00     0.261 C 
BRANCH  24  25
ATOM     25  O   UNL A   1      39.688  24.257  26.540  1.00  0.00    -0.460 OA
BRANCH  25  26
ATOM     26  C   UNL A   1      40.548  25.289  26.373  1.00  0.00     0.338 C 
ATOM     27  O   UNL A   1      41.082  25.638  25.328  1.00  0.00    -0.246 OA
BRANCH  26  28
ATOM     28  C   UNL A   1      40.642  26.085  27.613  1.00  0.00     0.060 A 
ATOM     29  C   UNL A   1      39.620  25.919  28.555  1.00  0.00     0.016 A 
ATOM     30  C   UNL A   1      41.662  27.015  27.830  1.00  0.00     0.016 A 
ATOM     31  C   UNL A   1      39.581  26.724  29.690  1.00  0.00     0.010 A 
ATOM     32  C   UNL A   1      41.620  27.825  28.972  1.00  0.00     0.010 A 
ATOM     33  C   UNL A   1      40.558  27.709  29.888  1.00  0.00    -0.014 A 
BRANCH  33  34
ATOM     34  C   UNL A   1      40.382  28.686  30.990  1.00  0.00     0.031 A 
ATOM     35  C   UNL A   1      41.272  28.600  32.201  1.00  0.00     0.074 A 
ATOM     36  C   UNL A   1      39.478  29.677  30.885  1.00  0.00     0.049 A 
ATOM     37  N   UNL A   1      41.327  29.385  33.246  1.00  0.00    -0.248 NA
ATOM     38  C   UNL A   1      42.229  27.483  32.238  1.00  0.00     0.031 C 
ATOM     39  C   UNL A   1      38.574  29.878  29.753  1.00  0.00     0.029 A 
ATOM     40  N   UNL A   1      39.177  30.705  31.742  1.00  0.00    -0.354 N 
ATOM     41  C   UNL A   1      42.317  28.857  34.067  1.00  0.00     0.074 A 
ATOM     42  C   UNL A   1      42.816  27.667  33.412  1.00  0.00     0.031 C 
ATOM     43  C   UNL A   1      37.823  30.969  29.983  1.00  0.00     0.029 A 
ATOM     44  C   UNL A   1      38.177  31.530  31.285  1.00  0.00     0.049 A 
ATOM     45  H   UNL A   1      39.634  30.840  32.604  1.00  0.00     0.167 HD
ATOM     46  C   UNL A   1      42.776  29.326  35.252  1.00  0.00     0.037 A 
ATOM     47  C   UNL A   1      37.610  32.611  31.854  1.00  0.00     0.037 A 
ATOM     48  C   UNL A   1      42.282  30.516  35.899  1.00  0.00     0.049 A 
ATOM     49  C   UNL A   1      38.110  33.090  33.192  1.00  0.00     0.074 A 
ATOM     50  C   UNL A   1      42.710  31.095  37.081  1.00  0.00     0.029 A 
ATOM     51  N   UNL A   1      41.243  31.303  35.423  1.00  0.00    -0.354 N 
ATOM     52  N   UNL A   1      39.077  32.605  33.934  1.00  0.00    -0.248 NA
ATOM     53  C   UNL A   1      37.446  34.268  33.764  1.00  0.00     0.031 C 
ATOM     54  C   UNL A   1      41.897  32.204  37.345  1.00  0.00     0.029 A 
ATOM     55  C   UNL A   1      40.996  32.345  36.302  1.00  0.00     0.049 A 
ATOM     56  H   UNL A   1      40.753  31.144  34.584  1.00  0.00     0.167 HD
ATOM     57  C   UNL A   1      39.153  33.433  35.050  1.00  0.00     0.074 A 
ATOM     58  C   UNL A   1      38.144  34.459  34.875  1.00  0.00     0.031 C 
ATOM     59  C   UNL A   1      39.984  33.355  36.119  1.00  0.00     0.037 A 
BRANCH  46  60
ATOM     60  C   UNL A   1      43.855  28.536  35.941  1.00  0.00     0.058 A 
ATOM     61  C   UNL A   1      45.216  28.833  35.769  1.00  0.00     0.135 A 
ATOM     62  C   UNL A   1      43.520  27.485  36.809  1.00  0.00     0.135 A 
ATOM     63  F   UNL A   1      45.594  29.817  34.937  1.00  0.00    -0.206 F 
ATOM     64  C   UNL A   1      46.208  28.096  36.409  1.00  0.00     0.059 A 
ATOM     65  C   UNL A   1      44.493  26.751  37.480  1.00  0.00     0.059 A 
ATOM     66  F   UNL A   1      42.232  27.159  37.009  1.00  0.00    -0.206 F 
ATOM     67  C   UNL A   1      45.836  27.056  37.262  1.00  0.00     0.060 A 
BRANCH  67  68
ATOM     68  S   UNL A   1      47.133  26.107  38.086  1.00  0.00     0.124 S 
ATOM     69  O   UNL A   1      46.356  25.323  39.042  1.00  0.00    -0.237 OA
ATOM     70  O   UNL A   1      47.721  25.355  36.981  1.00  0.00    -0.237 OA
ATOM     71  O   UNL A   1      47.991  27.134  38.666  1.00  0.00    -0.744 OA
ENDBRANCH  67  68
ENDBRANCH  46  60
BRANCH  47  72
ATOM     72  C   UNL A   1      36.509  33.326  31.156  1.00  0.00     0.058 A 
ATOM     73  C   UNL A   1      36.756  34.096  30.010  1.00  0.00     0.135 A 
ATOM     74  C   UNL A   1      35.187  33.253  31.622  1.00  0.00     0.135 A 
ATOM     75  F   UNL A   1      38.006  34.206  29.533  1.00  0.00    -0.206 F 
ATOM     76  C   UNL A   1      35.736  34.778  29.356  1.00  0.00     0.059 A 
ATOM     77  C   UNL A   1      34.145  33.906  30.972  1.00  0.00     0.059 A 
ATOM     78  F   UNL A   1      34.897  32.521  32.709  1.00  0.00    -0.206 F 
ATOM     79  C   UNL A   1      34.431  34.674  29.844  1.00  0.00     0.060 A 
BRANCH  79  80
ATOM     80  S   UNL A   1      33.104  35.516  28.956  1.00  0.00     0.124 S 
ATOM     81  O   UNL A   1      32.316  36.064  30.054  1.00  0.00    -0.237 OA
ATOM     82  O   UNL A   1      33.839  36.486  28.151  1.00  0.00    -0.237 OA
ATOM     83  O   UNL A   1      32.471  34.438  28.201  1.00  0.00    -0.744 OA
ENDBRANCH  79  80
ENDBRANCH  47  72
BRANCH  59  84
ATOM     84  C   UNL A   1      39.850  34.423  37.171  1.00  0.00     0.058 A 
ATOM     85  C   UNL A   1      38.993  34.273  38.272  1.00  0.00     0.135 A 
ATOM     86  C   UNL A   1      40.600  35.609  37.082  1.00  0.00     0.135 A 
ATOM     87  F   UNL A   1      38.251  33.162  38.405  1.00  0.00    -0.206 F 
ATOM     88  C   UNL A   1      38.852  35.278  39.225  1.00  0.00     0.059 A 
ATOM     89  C   UNL A   1      40.495  36.614  38.038  1.00  0.00     0.059 A 
ATOM     90  F   UNL A   1      41.446  35.798  36.056  1.00  0.00    -0.206 F 
ATOM     91  C   UNL A   1      39.603  36.447  39.097  1.00  0.00     0.060 A 
BRANCH  91  92
ATOM     92  S   UNL A   1      39.408  37.746  40.334  1.00  0.00     0.124 S 
ATOM     93  O   UNL A   1      40.620  38.532  40.127  1.00  0.00    -0.237 OA
ATOM     94  O   UNL A   1      38.161  38.385  39.927  1.00  0.00    -0.237 OA
ATOM     95  O   UNL A   1      39.345  37.009  41.593  1.00  0.00    -0.744 OA
ENDBRANCH  91  92
ENDBRANCH  59  84
ENDBRANCH  33  34
ENDBRANCH  26  28
ENDBRANCH  25  26
ENDBRANCH  24  25
ENDBRANCH   1  24
TORSDOF 18
ENDMDL
MODEL 3
REMARK VINA RESULT:     -10.2      3.741      5.765
REMARK SMILES Cc1cc(-c2cc(C(=O)OCCOCCOC(=O)c3ccc(-c4c5nc(c(-c6c(F)cc(S(=O)(=O)[O-])cc6F)c6ccc([nH]6)c(-c6c(F)cc(S(=O)(=O)[O-])cc6F)c6nc(c(-c7c(F)cc(S(=O)(=O)[O-])cc7F)c7ccc4[nH]7)C=C6)C=C5)cc3)c[nH]c2=O)ccc1Cl
REMARK SMILES IDX 14 1 13 2 12 3 11 4 10 5 8 6 9 7 7 8 5 9 6 10 87 11 86 12
REMARK SMILES IDX 88 13 85 14 4 16 1 17 2 18 3 19 91 20 90 21 92 22 89 23
REMARK SMILES IDX 15 24 16 25 17 26 18 27 19 28 20 29 84 30 21 31 83 32 22 33
REMARK SMILES IDX 23 34 24 35 77 36 25 37 82 38 76 39 78 40 26 41 81 42 75 43
REMARK SMILES IDX 74 44 27 46 61 47 40 48 60 49 41 50 44 51 59 52 79 53 42 54
REMARK SMILES IDX 43 55 58 57 80 58 45 59 28 60 29 61 38 62 30 63 31 64 37 65
REMARK SMILES IDX 39 66 32 67 33 68 34 69 35 70 36 71 62 72 63 73 72 74 64 75
REMARK SMILES IDX 65 76 71 77 73 78 66 79 67 80 68 81 69 82 70 83 46 84 47 85
REMARK SMILES IDX 56 86 48 87 49 88 55 89 57 90 50 91 51 92 52 93 53 94 54 95
REMARK H PARENT 86 15 78 45 44 56
REMARK Flexibility Score: inf
ROOT
ATOM      1  C   UNL A   1      34.489  32.659  28.909  1.00  0.00     0.202 C 
ENDROOT
BRANCH   1   2
ATOM      2  O   UNL A   1      34.587  31.853  27.734  1.00  0.00    -0.374 OA
BRANCH   2   3
ATOM      3  C   UNL A   1      33.421  31.116  27.362  1.00  0.00     0.202 C 
BRANCH   3   4
ATOM      4  C   UNL A   1      33.605  29.596  27.279  1.00  0.00     0.261 C 
BRANCH   4   5
ATOM      5  O   UNL A   1      33.603  29.155  25.909  1.00  0.00    -0.460 OA
BRANCH   5   6
ATOM      6  C   UNL A   1      32.414  28.698  25.445  1.00  0.00     0.339 C 
ATOM      7  O   UNL A   1      31.624  29.313  24.744  1.00  0.00    -0.246 OA
BRANCH   6   8
ATOM      8  C   UNL A   1      32.258  27.256  25.775  1.00  0.00     0.077 A 
ATOM      9  C   UNL A   1      33.070  24.946  25.859  1.00  0.00     0.048 A 
ATOM     10  C   UNL A   1      33.257  26.237  25.504  1.00  0.00     0.031 A 
ATOM     11  C   UNL A   1      31.746  24.574  26.491  1.00  0.00     0.255 A 
ATOM     12  N   UNL A   1      30.851  25.601  26.677  1.00  0.00    -0.328 N 
ATOM     13  O   UNL A   1      31.458  23.431  26.832  1.00  0.00    -0.269 OA
ATOM     14  C   UNL A   1      31.095  26.906  26.345  1.00  0.00     0.101 A 
ATOM     15  H   UNL A   1      29.977  25.384  27.075  1.00  0.00     0.169 HD
BRANCH   9  16
ATOM     16  C   UNL A   1      34.136  23.935  25.667  1.00  0.00    -0.012 A 
ATOM     17  C   UNL A   1      36.626  22.871  22.968  1.00  0.00     0.046 C 
ATOM     18  C   UNL A   1      35.861  22.890  24.263  1.00  0.00    -0.032 A 
ATOM     19  C   UNL A   1      34.899  23.895  24.488  1.00  0.00     0.014 A 
ATOM     20  C   UNL A   1      36.060  21.917  25.251  1.00  0.00     0.044 A 
ATOM     21  C   UNL A   1      35.320  21.950  26.433  1.00  0.00     0.021 A 
ATOM     22  Cl  UNL A   1      37.201  20.637  25.045  1.00  0.00    -0.084 Cl
ATOM     23  C   UNL A   1      34.362  22.946  26.637  1.00  0.00     0.010 A 
ENDBRANCH   9  16
ENDBRANCH   6   8
ENDBRANCH   5   6
ENDBRANCH   4   5
ENDBRANCH   3   4
ENDBRANCH   2   3
ENDBRANCH   1   2
BRANCH   1  24
ATOM     24  C   UNL A   1      35.277  32.174  30.131  1.00  0.00     0.261 C 
BRANCH  24  25
ATOM     25  O   UNL A   1      35.872  30.885  29.905  1.00  0.00    -0.460 OA
BRANCH  25  26
ATOM     26  C   UNL A   1      36.647  30.435  30.920  1.00  0.00     0.338 C 
ATOM     27  O   UNL A   1      36.267  30.049  32.017  1.00  0.00    -0.246 OA
BRANCH  26  28
ATOM     28  C   UNL A   1      38.047  30.298  30.474  1.00  0.00     0.060 A 
ATOM     29  C   UNL A   1      38.279  30.288  29.094  1.00  0.00     0.016 A 
ATOM     30  C   UNL A   1      39.104  30.121  31.371  1.00  0.00     0.016 A 
ATOM     31  C   UNL A   1      39.558  30.043  28.603  1.00  0.00     0.010 A 
ATOM     32  C   UNL A   1      40.390  29.873  30.875  1.00  0.00     0.010 A 
ATOM     33  C   UNL A   1      40.616  29.794  29.489  1.00  0.00    -0.014 A 
BRANCH  33  34
ATOM     34  C   UNL A   1      41.916  29.333  28.945  1.00  0.00     0.031 A 
ATOM     35  C   UNL A   1      43.070  30.297  28.876  1.00  0.00     0.074 A 
ATOM     36  C   UNL A   1      42.085  28.051  28.573  1.00  0.00     0.049 A 
ATOM     37  N   UNL A   1      44.303  30.088  28.492  1.00  0.00    -0.248 NA
ATOM     38  C   UNL A   1      42.799  31.681  29.296  1.00  0.00     0.031 C 
ATOM     39  C   UNL A   1      41.049  27.018  28.615  1.00  0.00     0.029 A 
ATOM     40  N   UNL A   1      43.191  27.398  28.094  1.00  0.00    -0.354 N 
ATOM     41  C   UNL A   1      44.954  31.309  28.619  1.00  0.00     0.074 A 
ATOM     42  C   UNL A   1      43.971  32.263  29.087  1.00  0.00     0.031 C 
ATOM     43  C   UNL A   1      41.574  25.858  28.185  1.00  0.00     0.029 A 
ATOM     44  C   UNL A   1      42.973  26.070  27.818  1.00  0.00     0.049 A 
ATOM     45  H   UNL A   1      44.062  27.840  27.960  1.00  0.00     0.167 HD
ATOM     46  C   UNL A   1      46.254  31.608  28.379  1.00  0.00     0.037 A 
ATOM     47  C   UNL A   1      43.805  25.134  27.322  1.00  0.00     0.037 A 
ATOM     48  C   UNL A   1      47.232  30.654  27.920  1.00  0.00     0.049 A 
ATOM     49  C   UNL A   1      45.235  25.499  27.024  1.00  0.00     0.074 A 
ATOM     50  C   UNL A   1      48.582  30.850  27.685  1.00  0.00     0.029 A 
ATOM     51  N   UNL A   1      46.963  29.327  27.615  1.00  0.00    -0.354 N 
ATOM     52  N   UNL A   1      45.846  26.649  27.191  1.00  0.00    -0.248 NA
ATOM     53  C   UNL A   1      46.091  24.438  26.477  1.00  0.00     0.031 C 
ATOM     54  C   UNL A   1      49.119  29.655  27.192  1.00  0.00     0.029 A 
ATOM     55  C   UNL A   1      48.114  28.701  27.167  1.00  0.00     0.049 A 
ATOM     56  H   UNL A   1      46.083  28.895  27.704  1.00  0.00     0.167 HD
ATOM     57  C   UNL A   1      47.164  26.441  26.793  1.00  0.00     0.074 A 
ATOM     58  C   UNL A   1      47.263  25.052  26.392  1.00  0.00     0.031 C 
ATOM     59  C   UNL A   1      48.198  27.319  26.764  1.00  0.00     0.037 A 
BRANCH  46  60
ATOM     60  C   UNL A   1      46.689  33.033  28.585  1.00  0.00     0.058 A 
ATOM     61  C   UNL A   1      46.636  33.981  27.551  1.00  0.00     0.135 A 
ATOM     62  C   UNL A   1      47.141  33.462  29.843  1.00  0.00     0.135 A 
ATOM     63  F   UNL A   1      46.230  33.621  26.323  1.00  0.00    -0.206 F 
ATOM     64  C   UNL A   1      47.043  35.297  27.750  1.00  0.00     0.059 A 
ATOM     65  C   UNL A   1      47.528  34.779  30.072  1.00  0.00     0.059 A 
ATOM     66  F   UNL A   1      47.212  32.595  30.867  1.00  0.00    -0.206 F 
ATOM     67  C   UNL A   1      47.489  35.686  29.014  1.00  0.00     0.060 A 
BRANCH  67  68
ATOM     68  S   UNL A   1      48.015  37.396  29.258  1.00  0.00     0.124 S 
ATOM     69  O   UNL A   1      46.733  38.073  29.427  1.00  0.00    -0.237 OA
ATOM     70  O   UNL A   1      48.843  37.300  30.456  1.00  0.00    -0.237 OA
ATOM     71  O   UNL A   1      48.734  37.710  28.028  1.00  0.00    -0.744 OA
ENDBRANCH  67  68
ENDBRANCH  46  60
BRANCH  47  72
ATOM     72  C   UNL A   1      43.311  23.752  27.085  1.00  0.00     0.058 A 
ATOM     73  C   UNL A   1      42.918  23.332  25.805  1.00  0.00     0.135 A 
ATOM     74  C   UNL A   1      43.221  22.824  28.134  1.00  0.00     0.135 A 
ATOM     75  F   UNL A   1      42.975  24.187  24.772  1.00  0.00    -0.206 F 
ATOM     76  C   UNL A   1      42.442  22.046  25.574  1.00  0.00     0.059 A 
ATOM     77  C   UNL A   1      42.771  21.524  27.924  1.00  0.00     0.059 A 
ATOM     78  F   UNL A   1      43.594  23.173  29.374  1.00  0.00    -0.206 F 
ATOM     79  C   UNL A   1      42.375  21.147  26.641  1.00  0.00     0.060 A 
BRANCH  79  80
ATOM     80  S   UNL A   1      41.812  19.462  26.322  1.00  0.00     0.124 S 
ATOM     81  O   UNL A   1      42.242  18.773  27.533  1.00  0.00    -0.237 OA
ATOM     82  O   UNL A   1      40.372  19.644  26.167  1.00  0.00    -0.237 OA
ATOM     83  O   UNL A   1      42.524  19.098  25.101  1.00  0.00    -0.744 OA
ENDBRANCH  79  80
ENDBRANCH  47  72
BRANCH  59  84
ATOM     84  C   UNL A   1      49.531  26.792  26.307  1.00  0.00     0.058 A 
ATOM     85  C   UNL A   1      50.406  26.132  27.184  1.00  0.00     0.135 A 
ATOM     86  C   UNL A   1      49.934  26.939  24.968  1.00  0.00     0.135 A 
ATOM     87  F   UNL A   1      50.072  25.968  28.474  1.00  0.00    -0.206 F 
ATOM     88  C   UNL A   1      51.650  25.674  26.761  1.00  0.00     0.059 A 
ATOM     89  C   UNL A   1      51.161  26.463  24.518  1.00  0.00     0.059 A 
ATOM     90  F   UNL A   1      49.130  27.549  24.083  1.00  0.00    -0.206 F 
ATOM     91  C   UNL A   1      52.021  25.849  25.428  1.00  0.00     0.060 A 
BRANCH  91  92
ATOM     92  S   UNL A   1      53.640  25.257  24.891  1.00  0.00     0.124 S 
ATOM     93  O   UNL A   1      53.751  25.866  23.569  1.00  0.00    -0.237 OA
ATOM     94  O   UNL A   1      54.528  25.796  25.915  1.00  0.00    -0.237 OA
ATOM     95  O   UNL A   1      53.490  23.804  24.902  1.00  0.00    -0.744 OA
ENDBRANCH  91  92
ENDBRANCH  59  84
ENDBRANCH  33  34
ENDBRANCH  26  28
ENDBRANCH  25  26
ENDBRANCH  24  25
ENDBRANCH   1  24
TORSDOF 18
ENDMDL
