MODEL 1
REMARK VINA RESULT:     -12.5      0.000      0.000
REMARK SMILES COc1ccc2c(c1)c(CC(=O)OCCOCCOC(=O)c1ccc(-c3c4nc(c(-c5c(F)cc(S(=O)(=O)[O-])cc5F)c5ccc([nH]5)c(-c5c(F)cc(S(=O)(=O)[O-])cc5F)c5nc(c(-c6c(F)cc(S(=O)(=O)[O-])cc6F)c6ccc3[nH]6)C=C5)C=C4)cc1)c(C)n2C(=O)c1ccc(Cl)cc1
REMARK SMILES IDX 16 1 15 2 14 3 13 4 11 5 12 6 10 7 9 8 3 9 4 10 8 11 5 12
REMARK SMILES IDX 7 13 6 14 90 15 88 16 89 17 2 18 1 19 91 20 92 21 93 22
REMARK SMILES IDX 94 23 99 24 95 25 98 26 96 27 97 28 17 29 18 30 19 31 20 32
REMARK SMILES IDX 21 33 22 34 23 35 87 36 24 37 86 38 25 39 26 40 27 41 80 42
REMARK SMILES IDX 28 43 85 44 79 45 81 46 29 47 84 48 78 49 77 50 30 52 64 53
REMARK SMILES IDX 43 54 63 55 44 56 47 57 62 58 82 59 45 60 46 61 61 63 83 64
REMARK SMILES IDX 48 65 31 66 32 67 41 68 33 69 34 70 40 71 42 72 35 73 36 74
REMARK SMILES IDX 37 75 38 76 39 77 65 78 66 79 75 80 67 81 68 82 74 83 76 84
REMARK SMILES IDX 69 85 70 86 71 87 72 88 73 89 49 90 50 91 59 92 51 93 52 94
REMARK SMILES IDX 58 95 60 96 53 97 54 98 55 99 56 100 57 101
REMARK H PARENT 81 51 47 62
REMARK Flexibility Score: inf
ROOT
ATOM      1  O   UNL A   1      40.569  19.773  26.250  1.00  0.00    -0.374 OA
ENDROOT
BRANCH   1   2
ATOM      2  C   UNL A   1      40.160  21.113  26.488  1.00  0.00     0.202 C 
BRANCH   2   3
ATOM      3  C   UNL A   1      38.952  21.726  25.760  1.00  0.00     0.261 C 
BRANCH   3   4
ATOM      4  O   UNL A   1      38.379  22.886  26.389  1.00  0.00    -0.463 OA
BRANCH   4   5
ATOM      5  C   UNL A   1      37.228  23.318  25.810  1.00  0.00     0.310 C 
ATOM      6  O   UNL A   1      37.178  23.931  24.745  1.00  0.00    -0.252 OA
BRANCH   5   7
ATOM      7  C   UNL A   1      35.959  23.016  26.572  1.00  0.00     0.160 C 
BRANCH   7   8
ATOM      8  C   UNL A   1      34.732  22.541  25.831  1.00  0.00    -0.008 A 
ATOM      9  C   UNL A   1      31.617  24.736  26.256  1.00  0.00     0.119 A 
ATOM     10  C   UNL A   1      30.779  23.959  25.480  1.00  0.00     0.048 A 
ATOM     11  C   UNL A   1      32.918  24.287  26.505  1.00  0.00     0.057 A 
ATOM     12  C   UNL A   1      31.232  22.752  24.934  1.00  0.00     0.031 A 
ATOM     13  C   UNL A   1      33.435  23.130  25.870  1.00  0.00     0.008 A 
ATOM     14  C   UNL A   1      32.576  22.347  25.092  1.00  0.00     0.057 A 
ATOM     15  N   UNL A   1      33.298  21.220  24.643  1.00  0.00    -0.280 N 
ATOM     16  C   UNL A   1      34.624  21.370  25.086  1.00  0.00     0.028 A 
ATOM     17  C   UNL A   1      35.746  20.410  24.827  1.00  0.00     0.065 C 
BRANCH   9  18
ATOM     18  O   UNL A   1      31.335  25.976  26.758  1.00  0.00    -0.497 OA
ATOM     19  C   UNL A   1      31.348  27.076  25.859  1.00  0.00     0.278 C 
ENDBRANCH   9  18
BRANCH  15  20
ATOM     20  C   UNL A   1      32.757  20.107  23.929  1.00  0.00     0.262 C 
ATOM     21  O   UNL A   1      32.160  20.293  22.871  1.00  0.00    -0.268 OA
BRANCH  20  22
ATOM     22  C   UNL A   1      32.912  18.691  24.302  1.00  0.00     0.040 A 
ATOM     23  C   UNL A   1      33.344  17.745  23.365  1.00  0.00     0.015 A 
ATOM     24  C   UNL A   1      32.604  18.312  25.614  1.00  0.00     0.015 A 
ATOM     25  C   UNL A   1      33.376  16.396  23.725  1.00  0.00     0.021 A 
ATOM     26  C   UNL A   1      32.650  16.964  25.970  1.00  0.00     0.021 A 
ATOM     27  C   UNL A   1      33.015  16.010  25.019  1.00  0.00     0.041 A 
ATOM     28  Cl  UNL A   1      32.996  14.342  25.440  1.00  0.00    -0.084 Cl
ENDBRANCH  20  22
ENDBRANCH  15  20
ENDBRANCH   7   8
ENDBRANCH   5   7
ENDBRANCH   4   5
ENDBRANCH   3   4
ENDBRANCH   2   3
ENDBRANCH   1   2
BRANCH   1  29
ATOM     29  C   UNL A   1      41.832  19.373  26.769  1.00  0.00     0.202 C 
BRANCH  29  30
ATOM     30  C   UNL A   1      43.042  19.244  25.826  1.00  0.00     0.261 C 
BRANCH  30  31
ATOM     31  O   UNL A   1      43.232  20.396  25.007  1.00  0.00    -0.460 OA
BRANCH  31  32
ATOM     32  C   UNL A   1      44.523  20.809  24.928  1.00  0.00     0.338 C 
ATOM     33  O   UNL A   1      45.436  20.299  24.295  1.00  0.00    -0.246 OA
BRANCH  32  34
ATOM     34  C   UNL A   1      44.473  22.201  25.386  1.00  0.00     0.060 A 
ATOM     35  C   UNL A   1      45.224  22.587  26.501  1.00  0.00     0.016 A 
ATOM     36  C   UNL A   1      43.374  22.949  24.936  1.00  0.00     0.016 A 
ATOM     37  C   UNL A   1      44.797  23.685  27.232  1.00  0.00     0.010 A 
ATOM     38  C   UNL A   1      42.937  24.027  25.688  1.00  0.00     0.010 A 
ATOM     39  C   UNL A   1      43.626  24.367  26.855  1.00  0.00    -0.014 A 
BRANCH  39  40
ATOM     40  C   UNL A   1      43.319  25.612  27.555  1.00  0.00     0.031 A 
ATOM     41  C   UNL A   1      44.373  26.626  27.288  1.00  0.00     0.074 A 
ATOM     42  C   UNL A   1      42.182  25.903  28.219  1.00  0.00     0.049 A 
ATOM     43  N   UNL A   1      45.237  27.113  28.114  1.00  0.00    -0.248 NA
ATOM     44  C   UNL A   1      44.630  26.972  25.876  1.00  0.00     0.031 C 
ATOM     45  C   UNL A   1      40.955  25.108  28.278  1.00  0.00     0.029 A 
ATOM     46  N   UNL A   1      41.837  27.036  28.904  1.00  0.00    -0.354 N 
ATOM     47  C   UNL A   1      45.985  28.016  27.361  1.00  0.00     0.074 A 
ATOM     48  C   UNL A   1      45.731  27.714  25.980  1.00  0.00     0.031 C 
ATOM     49  C   UNL A   1      39.943  25.871  28.751  1.00  0.00     0.029 A 
ATOM     50  C   UNL A   1      40.469  27.167  29.138  1.00  0.00     0.049 A 
ATOM     51  H   UNL A   1      42.496  27.701  29.205  1.00  0.00     0.167 HD
ATOM     52  C   UNL A   1      46.496  29.142  27.925  1.00  0.00     0.037 A 
ATOM     53  C   UNL A   1      39.817  28.285  29.549  1.00  0.00     0.037 A 
ATOM     54  C   UNL A   1      46.471  29.064  29.359  1.00  0.00     0.049 A 
ATOM     55  C   UNL A   1      40.813  29.154  30.223  1.00  0.00     0.074 A 
ATOM     56  C   UNL A   1      47.197  28.433  30.344  1.00  0.00     0.029 A 
ATOM     57  N   UNL A   1      45.274  29.439  29.909  1.00  0.00    -0.354 N 
ATOM     58  N   UNL A   1      41.420  28.832  31.331  1.00  0.00    -0.248 NA
ATOM     59  C   UNL A   1      41.402  30.271  29.492  1.00  0.00     0.031 C 
ATOM     60  C   UNL A   1      46.320  28.295  31.461  1.00  0.00     0.029 A 
ATOM     61  C   UNL A   1      45.094  28.874  31.143  1.00  0.00     0.049 A 
ATOM     62  H   UNL A   1      44.626  30.037  29.473  1.00  0.00     0.167 HD
ATOM     63  C   UNL A   1      42.673  29.397  31.211  1.00  0.00     0.074 A 
ATOM     64  C   UNL A   1      42.545  30.406  30.168  1.00  0.00     0.031 C 
ATOM     65  C   UNL A   1      43.772  28.775  31.727  1.00  0.00     0.037 A 
BRANCH  52  66
ATOM     66  C   UNL A   1      46.551  30.474  27.209  1.00  0.00     0.058 A 
ATOM     67  C   UNL A   1      47.763  31.188  27.159  1.00  0.00     0.135 A 
ATOM     68  C   UNL A   1      45.402  31.199  26.816  1.00  0.00     0.135 A 
ATOM     69  F   UNL A   1      48.911  30.612  27.552  1.00  0.00    -0.206 F 
ATOM     70  C   UNL A   1      47.824  32.529  26.766  1.00  0.00     0.059 A 
ATOM     71  C   UNL A   1      45.448  32.512  26.364  1.00  0.00     0.059 A 
ATOM     72  F   UNL A   1      44.165  30.705  26.946  1.00  0.00    -0.206 F 
ATOM     73  C   UNL A   1      46.659  33.180  26.370  1.00  0.00     0.060 A 
BRANCH  73  74
ATOM     74  S   UNL A   1      46.721  34.920  25.910  1.00  0.00     0.124 S 
ATOM     75  O   UNL A   1      45.386  35.128  25.365  1.00  0.00    -0.237 OA
ATOM     76  O   UNL A   1      46.997  35.560  27.192  1.00  0.00    -0.237 OA
ATOM     77  O   UNL A   1      47.815  34.973  24.943  1.00  0.00    -0.744 OA
ENDBRANCH  73  74
ENDBRANCH  52  66
BRANCH  53  78
ATOM     78  C   UNL A   1      38.503  28.818  29.083  1.00  0.00     0.058 A 
ATOM     79  C   UNL A   1      37.451  29.031  29.998  1.00  0.00     0.135 A 
ATOM     80  C   UNL A   1      38.361  29.437  27.827  1.00  0.00     0.135 A 
ATOM     81  F   UNL A   1      37.493  28.474  31.217  1.00  0.00    -0.206 F 
ATOM     82  C   UNL A   1      36.383  29.892  29.722  1.00  0.00     0.059 A 
ATOM     83  C   UNL A   1      37.299  30.289  27.524  1.00  0.00     0.059 A 
ATOM     84  F   UNL A   1      39.306  29.318  26.883  1.00  0.00    -0.206 F 
ATOM     85  C   UNL A   1      36.336  30.546  28.493  1.00  0.00     0.060 A 
BRANCH  85  86
ATOM     86  S   UNL A   1      35.103  31.842  28.223  1.00  0.00     0.124 S 
ATOM     87  O   UNL A   1      34.172  31.188  27.311  1.00  0.00    -0.237 OA
ATOM     88  O   UNL A   1      34.610  32.080  29.575  1.00  0.00    -0.237 OA
ATOM     89  O   UNL A   1      35.881  32.934  27.645  1.00  0.00    -0.744 OA
ENDBRANCH  85  86
ENDBRANCH  53  78
BRANCH  65  90
ATOM     90  C   UNL A   1      43.560  27.840  32.880  1.00  0.00     0.058 A 
ATOM     91  C   UNL A   1      43.716  26.444  32.834  1.00  0.00     0.135 A 
ATOM     92  C   UNL A   1      43.222  28.408  34.118  1.00  0.00     0.135 A 
ATOM     93  F   UNL A   1      44.123  25.832  31.712  1.00  0.00    -0.206 F 
ATOM     94  C   UNL A   1      43.490  25.646  33.958  1.00  0.00     0.059 A 
ATOM     95  C   UNL A   1      43.027  27.637  35.257  1.00  0.00     0.059 A 
ATOM     96  F   UNL A   1      43.103  29.742  34.237  1.00  0.00    -0.206 F 
ATOM     97  C   UNL A   1      43.143  26.254  35.166  1.00  0.00     0.060 A 
BRANCH  97  98
ATOM     98  S   UNL A   1      42.881  25.228  36.628  1.00  0.00     0.124 S 
ATOM     99  O   UNL A   1      43.696  24.055  36.331  1.00  0.00    -0.237 OA
ATOM    100  O   UNL A   1      43.369  26.087  37.704  1.00  0.00    -0.237 OA
ATOM    101  O   UNL A   1      41.438  24.999  36.631  1.00  0.00    -0.744 OA
ENDBRANCH  97  98
ENDBRANCH  65  90
ENDBRANCH  39  40
ENDBRANCH  32  34
ENDBRANCH  31  32
ENDBRANCH  30  31
ENDBRANCH  29  30
ENDBRANCH   1  29
TORSDOF 21
ENDMDL
MODEL 2
REMARK VINA RESULT:     -11.5      2.423      4.352
REMARK SMILES COc1ccc2c(c1)c(CC(=O)OCCOCCOC(=O)c1ccc(-c3c4nc(c(-c5c(F)cc(S(=O)(=O)[O-])cc5F)c5ccc([nH]5)c(-c5c(F)cc(S(=O)(=O)[O-])cc5F)c5nc(c(-c6c(F)cc(S(=O)(=O)[O-])cc6F)c6ccc3[nH]6)C=C5)C=C4)cc1)c(C)n2C(=O)c1ccc(Cl)cc1
REMARK SMILES IDX 16 1 15 2 14 3 13 4 11 5 12 6 10 7 9 8 3 9 4 10 8 11 5 12
REMARK SMILES IDX 7 13 6 14 90 15 88 16 89 17 2 18 1 19 91 20 92 21 93 22
REMARK SMILES IDX 94 23 99 24 95 25 98 26 96 27 97 28 17 29 18 30 19 31 20 32
REMARK SMILES IDX 21 33 22 34 23 35 87 36 24 37 86 38 25 39 26 40 27 41 80 42
REMARK SMILES IDX 28 43 85 44 79 45 81 46 29 47 84 48 78 49 77 50 30 52 64 53
REMARK SMILES IDX 43 54 63 55 44 56 47 57 62 58 82 59 45 60 46 61 61 63 83 64
REMARK SMILES IDX 48 65 31 66 32 67 41 68 33 69 34 70 40 71 42 72 35 73 36 74
REMARK SMILES IDX 37 75 38 76 39 77 65 78 66 79 75 80 67 81 68 82 74 83 76 84
REMARK SMILES IDX 69 85 70 86 71 87 72 88 73 89 49 90 50 91 59 92 51 93 52 94
REMARK SMILES IDX 58 95 60 96 53 97 54 98 55 99 56 100 57 101
REMARK H PARENT 81 51 47 62
REMARK Flexibility Score: inf
ROOT
ATOM      1  O   UNL A   1      39.691  22.059  26.958  1.00  0.00    -0.374 OA
ENDROOT
BRANCH   1   2
ATOM      2  C   UNL A   1      38.746  22.844  26.243  1.00  0.00     0.202 C 
BRANCH   2   3
ATOM      3  C   UNL A   1      37.475  22.222  25.641  1.00  0.00     0.261 C 
BRANCH   3   4
ATOM      4  O   UNL A   1      36.467  23.160  25.227  1.00  0.00    -0.463 OA
BRANCH   4   5
ATOM      5  C   UNL A   1      36.241  23.176  23.887  1.00  0.00     0.310 C 
ATOM      6  O   UNL A   1      36.795  22.427  23.084  1.00  0.00    -0.252 OA
BRANCH   5   7
ATOM      7  C   UNL A   1      35.252  24.210  23.403  1.00  0.00     0.160 C 
BRANCH   7   8
ATOM      8  C   UNL A   1      33.981  24.458  24.180  1.00  0.00    -0.008 A 
ATOM      9  C   UNL A   1      31.989  21.312  25.094  1.00  0.00     0.119 A 
ATOM     10  C   UNL A   1      30.955  21.969  25.733  1.00  0.00     0.048 A 
ATOM     11  C   UNL A   1      32.985  22.067  24.465  1.00  0.00     0.057 A 
ATOM     12  C   UNL A   1      30.916  23.369  25.767  1.00  0.00     0.031 A 
ATOM     13  C   UNL A   1      33.030  23.478  24.585  1.00  0.00     0.008 A 
ATOM     14  C   UNL A   1      31.975  24.134  25.228  1.00  0.00     0.057 A 
ATOM     15  N   UNL A   1      32.208  25.523  25.145  1.00  0.00    -0.280 N 
ATOM     16  C   UNL A   1      33.456  25.700  24.521  1.00  0.00     0.028 A 
ATOM     17  C   UNL A   1      34.112  27.018  24.236  1.00  0.00     0.065 C 
BRANCH   9  18
ATOM     18  O   UNL A   1      32.199  19.962  25.078  1.00  0.00    -0.497 OA
ATOM     19  C   UNL A   1      33.454  19.489  24.606  1.00  0.00     0.278 C 
ENDBRANCH   9  18
BRANCH  15  20
ATOM     20  C   UNL A   1      31.308  26.552  25.560  1.00  0.00     0.262 C 
ATOM     21  O   UNL A   1      31.154  26.782  26.758  1.00  0.00    -0.268 OA
BRANCH  20  22
ATOM     22  C   UNL A   1      30.571  27.460  24.666  1.00  0.00     0.040 A 
ATOM     23  C   UNL A   1      30.970  28.792  24.507  1.00  0.00     0.015 A 
ATOM     24  C   UNL A   1      29.452  26.961  23.988  1.00  0.00     0.015 A 
ATOM     25  C   UNL A   1      30.183  29.651  23.735  1.00  0.00     0.021 A 
ATOM     26  C   UNL A   1      28.678  27.821  23.208  1.00  0.00     0.021 A 
ATOM     27  C   UNL A   1      29.035  29.166  23.102  1.00  0.00     0.041 A 
ATOM     28  Cl  UNL A   1      28.036  30.241  22.203  1.00  0.00    -0.084 Cl
ENDBRANCH  20  22
ENDBRANCH  15  20
ENDBRANCH   7   8
ENDBRANCH   5   7
ENDBRANCH   4   5
ENDBRANCH   3   4
ENDBRANCH   2   3
ENDBRANCH   1   2
BRANCH   1  29
ATOM     29  C   UNL A   1      40.078  20.817  26.383  1.00  0.00     0.202 C 
BRANCH  29  30
ATOM     30  C   UNL A   1      41.570  20.458  26.270  1.00  0.00     0.261 C 
BRANCH  30  31
ATOM     31  O   UNL A   1      42.288  21.334  25.403  1.00  0.00    -0.460 OA
BRANCH  31  32
ATOM     32  C   UNL A   1      43.360  21.929  25.987  1.00  0.00     0.338 C 
ATOM     33  O   UNL A   1      44.538  21.823  25.677  1.00  0.00    -0.246 OA
BRANCH  32  34
ATOM     34  C   UNL A   1      42.772  23.036  26.749  1.00  0.00     0.060 A 
ATOM     35  C   UNL A   1      42.153  24.090  26.067  1.00  0.00     0.016 A 
ATOM     36  C   UNL A   1      43.226  23.171  28.071  1.00  0.00     0.016 A 
ATOM     37  C   UNL A   1      42.084  25.325  26.692  1.00  0.00     0.010 A 
ATOM     38  C   UNL A   1      43.178  24.416  28.677  1.00  0.00     0.010 A 
ATOM     39  C   UNL A   1      42.644  25.496  27.972  1.00  0.00    -0.014 A 
BRANCH  39  40
ATOM     40  C   UNL A   1      42.392  26.766  28.650  1.00  0.00     0.031 A 
ATOM     41  C   UNL A   1      43.522  27.704  28.422  1.00  0.00     0.074 A 
ATOM     42  C   UNL A   1      41.249  27.139  29.262  1.00  0.00     0.049 A 
ATOM     43  N   UNL A   1      44.381  28.140  29.281  1.00  0.00    -0.248 NA
ATOM     44  C   UNL A   1      43.862  28.019  27.021  1.00  0.00     0.031 C 
ATOM     45  C   UNL A   1      39.970  26.428  29.273  1.00  0.00     0.029 A 
ATOM     46  N   UNL A   1      40.952  28.299  29.923  1.00  0.00    -0.354 N 
ATOM     47  C   UNL A   1      45.219  28.984  28.556  1.00  0.00     0.074 A 
ATOM     48  C   UNL A   1      45.005  28.687  27.166  1.00  0.00     0.031 C 
ATOM     49  C   UNL A   1      38.992  27.262  29.696  1.00  0.00     0.029 A 
ATOM     50  C   UNL A   1      39.588  28.524  30.097  1.00  0.00     0.049 A 
ATOM     51  H   UNL A   1      41.642  28.921  30.248  1.00  0.00     0.167 HD
ATOM     52  C   UNL A   1      45.780  30.079  29.133  1.00  0.00     0.037 A 
ATOM     53  C   UNL A   1      38.995  29.686  30.472  1.00  0.00     0.037 A 
ATOM     54  C   UNL A   1      45.688  30.016  30.566  1.00  0.00     0.049 A 
ATOM     55  C   UNL A   1      40.017  30.493  31.182  1.00  0.00     0.074 A 
ATOM     56  C   UNL A   1      46.327  29.348  31.585  1.00  0.00     0.029 A 
ATOM     57  N   UNL A   1      44.497  30.476  31.061  1.00  0.00    -0.354 N 
ATOM     58  N   UNL A   1      40.554  30.142  32.318  1.00  0.00    -0.248 NA
ATOM     59  C   UNL A   1      40.712  31.562  30.470  1.00  0.00     0.031 C 
ATOM     60  C   UNL A   1      45.396  29.280  32.664  1.00  0.00     0.029 A 
ATOM     61  C   UNL A   1      44.227  29.937  32.290  1.00  0.00     0.049 A 
ATOM     62  H   UNL A   1      43.910  31.112  30.592  1.00  0.00     0.167 HD
ATOM     63  C   UNL A   1      41.846  30.621  32.249  1.00  0.00     0.074 A 
ATOM     64  C   UNL A   1      41.831  31.626  31.194  1.00  0.00     0.031 C 
ATOM     65  C   UNL A   1      42.877  29.932  32.816  1.00  0.00     0.037 A 
BRANCH  52  66
ATOM     66  C   UNL A   1      45.955  31.397  28.412  1.00  0.00     0.058 A 
ATOM     67  C   UNL A   1      44.831  32.056  27.881  1.00  0.00     0.135 A 
ATOM     68  C   UNL A   1      47.209  31.895  27.984  1.00  0.00     0.135 A 
ATOM     69  F   UNL A   1      43.590  31.640  28.185  1.00  0.00    -0.206 F 
ATOM     70  C   UNL A   1      44.944  33.117  26.977  1.00  0.00     0.059 A 
ATOM     71  C   UNL A   1      47.345  32.986  27.135  1.00  0.00     0.059 A 
ATOM     72  F   UNL A   1      48.361  31.285  28.287  1.00  0.00    -0.206 F 
ATOM     73  C   UNL A   1      46.208  33.573  26.611  1.00  0.00     0.060 A 
BRANCH  73  74
ATOM     74  S   UNL A   1      46.362  34.905  25.410  1.00  0.00     0.124 S 
ATOM     75  O   UNL A   1      45.358  34.529  24.423  1.00  0.00    -0.237 OA
ATOM     76  O   UNL A   1      46.056  36.078  26.221  1.00  0.00    -0.237 OA
ATOM     77  O   UNL A   1      47.751  34.801  24.970  1.00  0.00    -0.744 OA
ENDBRANCH  73  74
ENDBRANCH  52  66
BRANCH  53  78
ATOM     78  C   UNL A   1      37.741  30.302  29.946  1.00  0.00     0.058 A 
ATOM     79  C   UNL A   1      36.768  30.813  30.829  1.00  0.00     0.135 A 
ATOM     80  C   UNL A   1      37.624  30.703  28.601  1.00  0.00     0.135 A 
ATOM     81  F   UNL A   1      36.794  30.479  32.128  1.00  0.00    -0.206 F 
ATOM     82  C   UNL A   1      35.809  31.748  30.426  1.00  0.00     0.059 A 
ATOM     83  C   UNL A   1      36.667  31.624  28.173  1.00  0.00     0.059 A 
ATOM     84  F   UNL A   1      38.501  30.293  27.674  1.00  0.00    -0.206 F 
ATOM     85  C   UNL A   1      35.791  32.176  29.099  1.00  0.00     0.060 A 
BRANCH  85  86
ATOM     86  S   UNL A   1      34.724  33.558  28.627  1.00  0.00     0.124 S 
ATOM     87  O   UNL A   1      33.446  32.892  28.405  1.00  0.00    -0.237 OA
ATOM     88  O   UNL A   1      34.800  34.418  29.803  1.00  0.00    -0.237 OA
ATOM     89  O   UNL A   1      35.369  34.088  27.429  1.00  0.00    -0.744 OA
ENDBRANCH  85  86
ENDBRANCH  53  78
BRANCH  65  90
ATOM     90  C   UNL A   1      42.554  29.025  33.966  1.00  0.00     0.058 A 
ATOM     91  C   UNL A   1      42.204  29.446  35.260  1.00  0.00     0.135 A 
ATOM     92  C   UNL A   1      42.558  27.644  33.718  1.00  0.00     0.135 A 
ATOM     93  F   UNL A   1      42.092  30.750  35.555  1.00  0.00    -0.206 F 
ATOM     94  C   UNL A   1      41.925  28.529  36.276  1.00  0.00     0.059 A 
ATOM     95  C   UNL A   1      42.249  26.715  34.705  1.00  0.00     0.059 A 
ATOM     96  F   UNL A   1      42.840  27.180  32.489  1.00  0.00    -0.206 F 
ATOM     97  C   UNL A   1      41.953  27.164  35.988  1.00  0.00     0.060 A 
BRANCH  97  98
ATOM     98  S   UNL A   1      41.561  25.977  37.291  1.00  0.00     0.124 S 
ATOM     99  O   UNL A   1      42.704  26.115  38.186  1.00  0.00    -0.237 OA
ATOM    100  O   UNL A   1      40.288  26.481  37.800  1.00  0.00    -0.237 OA
ATOM    101  O   UNL A   1      41.478  24.704  36.580  1.00  0.00    -0.744 OA
ENDBRANCH  97  98
ENDBRANCH  65  90
ENDBRANCH  39  40
ENDBRANCH  32  34
ENDBRANCH  31  32
ENDBRANCH  30  31
ENDBRANCH  29  30
ENDBRANCH   1  29
TORSDOF 21
ENDMDL
MODEL 3
REMARK VINA RESULT:     -11.3      2.037      3.470
REMARK SMILES COc1ccc2c(c1)c(CC(=O)OCCOCCOC(=O)c1ccc(-c3c4nc(c(-c5c(F)cc(S(=O)(=O)[O-])cc5F)c5ccc([nH]5)c(-c5c(F)cc(S(=O)(=O)[O-])cc5F)c5nc(c(-c6c(F)cc(S(=O)(=O)[O-])cc6F)c6ccc3[nH]6)C=C5)C=C4)cc1)c(C)n2C(=O)c1ccc(Cl)cc1
REMARK SMILES IDX 16 1 15 2 14 3 13 4 11 5 12 6 10 7 9 8 3 9 4 10 8 11 5 12
REMARK SMILES IDX 7 13 6 14 90 15 88 16 89 17 2 18 1 19 91 20 92 21 93 22
REMARK SMILES IDX 94 23 99 24 95 25 98 26 96 27 97 28 17 29 18 30 19 31 20 32
REMARK SMILES IDX 21 33 22 34 23 35 87 36 24 37 86 38 25 39 26 40 27 41 80 42
REMARK SMILES IDX 28 43 85 44 79 45 81 46 29 47 84 48 78 49 77 50 30 52 64 53
REMARK SMILES IDX 43 54 63 55 44 56 47 57 62 58 82 59 45 60 46 61 61 63 83 64
REMARK SMILES IDX 48 65 31 66 32 67 41 68 33 69 34 70 40 71 42 72 35 73 36 74
REMARK SMILES IDX 37 75 38 76 39 77 65 78 66 79 75 80 67 81 68 82 74 83 76 84
REMARK SMILES IDX 69 85 70 86 71 87 72 88 73 89 49 90 50 91 59 92 51 93 52 94
REMARK SMILES IDX 58 95 60 96 53 97 54 98 55 99 56 100 57 101
REMARK H PARENT 81 51 47 62
REMARK Flexibility Score: inf
ROOT
ATOM      1  O   UNL A   1      41.840  19.807  27.182  1.00  0.00    -0.374 OA
ENDROOT
BRANCH   1   2
ATOM      2  C   UNL A   1      40.677  20.623  27.140  1.00  0.00     0.202 C 
BRANCH   2   3
ATOM      3  C   UNL A   1      39.746  20.633  25.917  1.00  0.00     0.261 C 
BRANCH   3   4
ATOM      4  O   UNL A   1      38.340  20.580  26.215  1.00  0.00    -0.463 OA
BRANCH   4   5
ATOM      5  C   UNL A   1      37.601  21.521  25.570  1.00  0.00     0.310 C 
ATOM      6  O   UNL A   1      38.029  22.234  24.664  1.00  0.00    -0.252 OA
BRANCH   5   7
ATOM      7  C   UNL A   1      36.175  21.673  26.046  1.00  0.00     0.160 C 
BRANCH   7   8
ATOM      8  C   UNL A   1      35.056  21.798  25.039  1.00  0.00    -0.008 A 
ATOM      9  C   UNL A   1      33.139  18.556  24.318  1.00  0.00     0.119 A 
ATOM     10  C   UNL A   1      32.281  19.095  23.379  1.00  0.00     0.048 A 
ATOM     11  C   UNL A   1      34.154  19.360  24.847  1.00  0.00     0.057 A 
ATOM     12  C   UNL A   1      32.413  20.431  22.979  1.00  0.00     0.031 A 
ATOM     13  C   UNL A   1      34.236  20.742  24.546  1.00  0.00     0.008 A 
ATOM     14  C   UNL A   1      33.367  21.276  23.589  1.00  0.00     0.057 A 
ATOM     15  N   UNL A   1      33.698  22.636  23.407  1.00  0.00    -0.280 N 
ATOM     16  C   UNL A   1      34.719  22.943  24.324  1.00  0.00     0.028 A 
ATOM     17  C   UNL A   1      35.371  24.283  24.490  1.00  0.00     0.065 C 
BRANCH   9  18
ATOM     18  O   UNL A   1      33.054  17.308  24.868  1.00  0.00    -0.497 OA
ATOM     19  C   UNL A   1      34.242  16.531  24.943  1.00  0.00     0.278 C 
ENDBRANCH   9  18
BRANCH  15  20
ATOM     20  C   UNL A   1      33.140  23.512  22.426  1.00  0.00     0.262 C 
ATOM     21  O   UNL A   1      33.407  23.347  21.237  1.00  0.00    -0.268 OA
BRANCH  20  22
ATOM     22  C   UNL A   1      32.174  24.591  22.689  1.00  0.00     0.040 A 
ATOM     23  C   UNL A   1      32.495  25.926  22.416  1.00  0.00     0.015 A 
ATOM     24  C   UNL A   1      30.928  24.250  23.230  1.00  0.00     0.015 A 
ATOM     25  C   UNL A   1      31.595  26.931  22.778  1.00  0.00     0.021 A 
ATOM     26  C   UNL A   1      30.029  25.259  23.578  1.00  0.00     0.021 A 
ATOM     27  C   UNL A   1      30.375  26.595  23.370  1.00  0.00     0.041 A 
ATOM     28  Cl  UNL A   1      29.296  27.838  23.871  1.00  0.00    -0.084 Cl
ENDBRANCH  20  22
ENDBRANCH  15  20
ENDBRANCH   7   8
ENDBRANCH   5   7
ENDBRANCH   4   5
ENDBRANCH   3   4
ENDBRANCH   2   3
ENDBRANCH   1   2
BRANCH   1  29
ATOM     29  C   UNL A   1      42.300  19.260  25.952  1.00  0.00     0.202 C 
BRANCH  29  30
ATOM     30  C   UNL A   1      43.648  19.716  25.366  1.00  0.00     0.261 C 
BRANCH  30  31
ATOM     31  O   UNL A   1      43.585  21.012  24.773  1.00  0.00    -0.460 OA
BRANCH  31  32
ATOM     32  C   UNL A   1      44.569  21.854  25.181  1.00  0.00     0.338 C 
ATOM     33  O   UNL A   1      45.686  21.989  24.705  1.00  0.00    -0.246 OA
BRANCH  32  34
ATOM     34  C   UNL A   1      43.862  22.845  25.999  1.00  0.00     0.060 A 
ATOM     35  C   UNL A   1      43.068  23.813  25.375  1.00  0.00     0.016 A 
ATOM     36  C   UNL A   1      44.349  23.012  27.305  1.00  0.00     0.016 A 
ATOM     37  C   UNL A   1      42.848  25.010  26.039  1.00  0.00     0.010 A 
ATOM     38  C   UNL A   1      44.149  24.222  27.951  1.00  0.00     0.010 A 
ATOM     39  C   UNL A   1      43.434  25.230  27.300  1.00  0.00    -0.014 A 
BRANCH  39  40
ATOM     40  C   UNL A   1      43.032  26.434  28.025  1.00  0.00     0.031 A 
ATOM     41  C   UNL A   1      44.036  27.512  27.831  1.00  0.00     0.074 A 
ATOM     42  C   UNL A   1      41.856  26.640  28.652  1.00  0.00     0.049 A 
ATOM     43  N   UNL A   1      44.841  28.018  28.704  1.00  0.00    -0.248 NA
ATOM     44  C   UNL A   1      44.327  27.917  26.442  1.00  0.00     0.031 C 
ATOM     45  C   UNL A   1      40.674  25.778  28.638  1.00  0.00     0.029 A 
ATOM     46  N   UNL A   1      41.423  27.730  29.357  1.00  0.00    -0.354 N 
ATOM     47  C   UNL A   1      45.564  28.984  28.010  1.00  0.00     0.074 A 
ATOM     48  C   UNL A   1      45.380  28.715  26.611  1.00  0.00     0.031 C 
ATOM     49  C   UNL A   1      39.604  26.468  29.094  1.00  0.00     0.029 A 
ATOM     50  C   UNL A   1      40.042  27.778  29.541  1.00  0.00     0.049 A 
ATOM     51  H   UNL A   1      42.032  28.419  29.704  1.00  0.00     0.167 HD
ATOM     52  C   UNL A   1      45.990  30.118  28.627  1.00  0.00     0.037 A 
ATOM     53  C   UNL A   1      39.313  28.844  29.960  1.00  0.00     0.037 A 
ATOM     54  C   UNL A   1      45.915  29.992  30.056  1.00  0.00     0.049 A 
ATOM     55  C   UNL A   1      40.232  29.744  30.699  1.00  0.00     0.074 A 
ATOM     56  C   UNL A   1      46.638  29.370  31.049  1.00  0.00     0.029 A 
ATOM     57  N   UNL A   1      44.679  30.283  30.570  1.00  0.00    -0.354 N 
ATOM     58  N   UNL A   1      40.815  29.420  31.820  1.00  0.00    -0.248 NA
ATOM     59  C   UNL A   1      40.786  30.915  30.025  1.00  0.00     0.031 C 
ATOM     60  C   UNL A   1      45.728  29.148  32.127  1.00  0.00     0.029 A 
ATOM     61  C   UNL A   1      44.485  29.669  31.778  1.00  0.00     0.049 A 
ATOM     62  H   UNL A   1      44.016  30.859  30.127  1.00  0.00     0.167 HD
ATOM     63  C   UNL A   1      42.038  30.056  31.767  1.00  0.00     0.074 A 
ATOM     64  C   UNL A   1      41.893  31.090  30.750  1.00  0.00     0.031 C 
ATOM     65  C   UNL A   1      43.149  29.479  32.306  1.00  0.00     0.037 A 
BRANCH  52  66
ATOM     66  C   UNL A   1      45.997  31.474  27.956  1.00  0.00     0.058 A 
ATOM     67  C   UNL A   1      47.167  32.257  27.979  1.00  0.00     0.135 A 
ATOM     68  C   UNL A   1      44.826  32.145  27.535  1.00  0.00     0.135 A 
ATOM     69  F   UNL A   1      48.329  31.734  28.403  1.00  0.00    -0.206 F 
ATOM     70  C   UNL A   1      47.166  33.611  27.630  1.00  0.00     0.059 A 
ATOM     71  C   UNL A   1      44.814  33.473  27.125  1.00  0.00     0.059 A 
ATOM     72  F   UNL A   1      43.615  31.577  27.597  1.00  0.00    -0.206 F 
ATOM     73  C   UNL A   1      45.983  34.208  27.204  1.00  0.00     0.060 A 
BRANCH  73  74
ATOM     74  S   UNL A   1      45.964  35.962  26.800  1.00  0.00     0.124 S 
ATOM     75  O   UNL A   1      44.563  36.169  26.453  1.00  0.00    -0.237 OA
ATOM     76  O   UNL A   1      46.410  36.564  28.052  1.00  0.00    -0.237 OA
ATOM     77  O   UNL A   1      46.911  36.063  25.693  1.00  0.00    -0.744 OA
ENDBRANCH  73  74
ENDBRANCH  52  66
BRANCH  53  78
ATOM     78  C   UNL A   1      37.990  29.320  29.459  1.00  0.00     0.058 A 
ATOM     79  C   UNL A   1      36.951  29.629  30.361  1.00  0.00     0.135 A 
ATOM     80  C   UNL A   1      37.826  29.797  28.144  1.00  0.00     0.135 A 
ATOM     81  F   UNL A   1      37.014  29.209  31.633  1.00  0.00    -0.206 F 
ATOM     82  C   UNL A   1      35.875  30.451  30.010  1.00  0.00     0.059 A 
ATOM     83  C   UNL A   1      36.755  30.608  27.767  1.00  0.00     0.059 A 
ATOM     84  F   UNL A   1      38.757  29.578  27.204  1.00  0.00    -0.206 F 
ATOM     85  C   UNL A   1      35.807  30.967  28.716  1.00  0.00     0.060 A 
BRANCH  85  86
ATOM     86  S   UNL A   1      34.563  32.222  28.326  1.00  0.00     0.124 S 
ATOM     87  O   UNL A   1      33.571  31.446  27.591  1.00  0.00    -0.237 OA
ATOM     88  O   UNL A   1      34.162  32.676  29.653  1.00  0.00    -0.237 OA
ATOM     89  O   UNL A   1      35.306  33.198  27.534  1.00  0.00    -0.744 OA
ENDBRANCH  85  86
ENDBRANCH  53  78
BRANCH  65  90
ATOM     90  C   UNL A   1      42.947  28.497  33.421  1.00  0.00     0.058 A 
ATOM     91  C   UNL A   1      43.067  27.101  33.306  1.00  0.00     0.135 A 
ATOM     92  C   UNL A   1      42.657  29.015  34.692  1.00  0.00     0.135 A 
ATOM     93  F   UNL A   1      43.427  26.533  32.146  1.00  0.00    -0.206 F 
ATOM     94  C   UNL A   1      42.852  26.258  34.399  1.00  0.00     0.059 A 
ATOM     95  C   UNL A   1      42.474  28.196  35.800  1.00  0.00     0.059 A 
ATOM     96  F   UNL A   1      42.574  30.343  34.876  1.00  0.00    -0.206 F 
ATOM     97  C   UNL A   1      42.554  26.816  35.643  1.00  0.00     0.060 A 
BRANCH  97  98
ATOM     98  S   UNL A   1      42.308  25.730  37.063  1.00  0.00     0.124 S 
ATOM     99  O   UNL A   1      42.815  26.542  38.163  1.00  0.00    -0.237 OA
ATOM    100  O   UNL A   1      40.864  25.513  37.045  1.00  0.00    -0.237 OA
ATOM    101  O   UNL A   1      43.110  24.553  36.737  1.00  0.00    -0.744 OA
ENDBRANCH  97  98
ENDBRANCH  65  90
ENDBRANCH  39  40
ENDBRANCH  32  34
ENDBRANCH  31  32
ENDBRANCH  30  31
ENDBRANCH  29  30
ENDBRANCH   1  29
TORSDOF 21
ENDMDL
