MODEL 1
REMARK VINA RESULT:     -12.5      0.000      0.000
REMARK SMILES Cc1c(CC(=O)OCCOCCOC(=O)c2ccc(-c3c4nc(c(-c5c(F)cc(S(=O)(=O)[O-])cc5F)c5ccc([nH]5)c(-c5c(F)cc(S(=O)(=O)[O-])cc5F)c5nc(c(-c6c(F)cc(S(=O)(=O)[O-])cc6F)c6ccc3[nH]6)C=C5)C=C4)cc2)cc(-c2ccccc2)cc1-c1ccccc1
REMARK SMILES IDX 11 1 10 2 9 3 8 4 7 5 5 6 6 7 4 8 3 9 1 10 2 11 91 12 82 13
REMARK SMILES IDX 90 14 83 15 92 16 93 17 97 18 94 19 96 20 95 21 84 22 85 23
REMARK SMILES IDX 89 24 86 25 88 26 87 27 12 28 13 29 14 30 15 31 16 32 17 33
REMARK SMILES IDX 81 34 18 35 80 36 19 37 20 38 21 39 74 40 22 41 79 42 73 43
REMARK SMILES IDX 75 44 23 45 78 46 72 47 71 48 24 50 58 51 37 52 57 53 38 54
REMARK SMILES IDX 41 55 56 56 76 57 39 58 40 59 55 61 77 62 42 63 25 64 26 65
REMARK SMILES IDX 35 66 27 67 28 68 34 69 36 70 29 71 30 72 31 73 32 74 33 75
REMARK SMILES IDX 59 76 60 77 69 78 61 79 62 80 68 81 70 82 63 83 64 84 65 85
REMARK SMILES IDX 66 86 67 87 43 88 44 89 53 90 45 91 46 92 52 93 54 94 47 95
REMARK SMILES IDX 48 96 49 97 50 98 51 99
REMARK H PARENT 75 49 41 60
REMARK Flexibility Score: inf
ROOT
ATOM      1  C   UNL A   1      33.002  29.560  25.930  1.00  0.00     0.202 C 
ENDROOT
BRANCH   1   2
ATOM      2  O   UNL A   1      32.341  29.585  24.675  1.00  0.00    -0.374 OA
BRANCH   2   3
ATOM      3  C   UNL A   1      32.223  28.372  23.940  1.00  0.00     0.202 C 
BRANCH   3   4
ATOM      4  C   UNL A   1      33.442  27.721  23.286  1.00  0.00     0.261 C 
BRANCH   4   5
ATOM      5  O   UNL A   1      33.908  26.543  23.947  1.00  0.00    -0.463 OA
BRANCH   5   6
ATOM      6  C   UNL A   1      33.694  25.351  23.350  1.00  0.00     0.310 C 
ATOM      7  O   UNL A   1      34.043  25.069  22.208  1.00  0.00    -0.252 OA
BRANCH   6   8
ATOM      8  C   UNL A   1      33.080  24.330  24.283  1.00  0.00     0.158 C 
BRANCH   8   9
ATOM      9  C   UNL A   1      33.932  23.154  24.753  1.00  0.00    -0.033 A 
ATOM     10  C   UNL A   1      31.956  21.564  24.663  1.00  0.00     0.045 C 
ATOM     11  C   UNL A   1      33.434  21.829  24.837  1.00  0.00    -0.039 A 
ATOM     12  C   UNL A   1      34.333  20.755  25.073  1.00  0.00    -0.015 A 
ATOM     13  C   UNL A   1      35.295  23.381  25.027  1.00  0.00     0.013 A 
ATOM     14  C   UNL A   1      35.669  21.044  25.413  1.00  0.00     0.017 A 
ATOM     15  C   UNL A   1      36.158  22.349  25.418  1.00  0.00    -0.017 A 
BRANCH  12  16
ATOM     16  C   UNL A   1      33.974  19.339  24.849  1.00  0.00    -0.018 A 
ATOM     17  C   UNL A   1      32.712  18.824  25.178  1.00  0.00     0.009 A 
ATOM     18  C   UNL A   1      34.953  18.445  24.375  1.00  0.00     0.009 A 
ATOM     19  C   UNL A   1      32.439  17.460  25.033  1.00  0.00     0.001 A 
ATOM     20  C   UNL A   1      34.679  17.084  24.225  1.00  0.00     0.001 A 
ATOM     21  C   UNL A   1      33.422  16.592  24.559  1.00  0.00     0.000 A 
ENDBRANCH  12  16
BRANCH  15  22
ATOM     22  C   UNL A   1      37.539  22.633  25.816  1.00  0.00    -0.018 A 
ATOM     23  C   UNL A   1      38.502  21.612  25.804  1.00  0.00     0.009 A 
ATOM     24  C   UNL A   1      37.928  23.909  26.246  1.00  0.00     0.009 A 
ATOM     25  C   UNL A   1      39.791  21.832  26.291  1.00  0.00     0.001 A 
ATOM     26  C   UNL A   1      39.230  24.141  26.699  1.00  0.00     0.001 A 
ATOM     27  C   UNL A   1      40.154  23.098  26.743  1.00  0.00     0.000 A 
ENDBRANCH  15  22
ENDBRANCH   8   9
ENDBRANCH   6   8
ENDBRANCH   5   6
ENDBRANCH   4   5
ENDBRANCH   3   4
ENDBRANCH   2   3
ENDBRANCH   1   2
BRANCH   1  28
ATOM     28  C   UNL A   1      33.171  30.879  26.695  1.00  0.00     0.261 C 
BRANCH  28  29
ATOM     29  O   UNL A   1      33.791  30.732  27.968  1.00  0.00    -0.460 OA
BRANCH  29  30
ATOM     30  C   UNL A   1      35.062  31.202  28.110  1.00  0.00     0.338 C 
ATOM     31  O   UNL A   1      35.489  32.333  27.981  1.00  0.00    -0.246 OA
BRANCH  30  32
ATOM     32  C   UNL A   1      35.771  30.066  28.724  1.00  0.00     0.060 A 
ATOM     33  C   UNL A   1      36.149  30.173  30.062  1.00  0.00     0.016 A 
ATOM     34  C   UNL A   1      36.526  29.319  27.823  1.00  0.00     0.016 A 
ATOM     35  C   UNL A   1      37.451  29.829  30.403  1.00  0.00     0.010 A 
ATOM     36  C   UNL A   1      37.834  29.028  28.161  1.00  0.00     0.010 A 
ATOM     37  C   UNL A   1      38.341  29.490  29.380  1.00  0.00    -0.014 A 
BRANCH  37  38
ATOM     38  C   UNL A   1      39.763  29.879  29.446  1.00  0.00     0.031 A 
ATOM     39  C   UNL A   1      40.746  29.070  28.719  1.00  0.00     0.074 A 
ATOM     40  C   UNL A   1      40.205  30.991  30.079  1.00  0.00     0.049 A 
ATOM     41  N   UNL A   1      41.401  28.079  29.222  1.00  0.00    -0.248 NA
ATOM     42  C   UNL A   1      41.002  29.327  27.299  1.00  0.00     0.031 C 
ATOM     43  C   UNL A   1      41.592  31.425  30.232  1.00  0.00     0.029 A 
ATOM     44  N   UNL A   1      39.493  31.923  30.831  1.00  0.00    -0.354 N 
ATOM     45  C   UNL A   1      42.340  27.758  28.264  1.00  0.00     0.074 A 
ATOM     46  C   UNL A   1      41.899  28.378  27.026  1.00  0.00     0.031 C 
ATOM     47  C   UNL A   1      41.651  32.280  31.271  1.00  0.00     0.029 A 
ATOM     48  C   UNL A   1      40.317  32.405  31.845  1.00  0.00     0.049 A 
ATOM     49  H   UNL A   1      38.560  32.195  30.672  1.00  0.00     0.167 HD
ATOM     50  C   UNL A   1      43.644  27.504  28.574  1.00  0.00     0.037 A 
ATOM     51  C   UNL A   1      39.986  32.238  33.159  1.00  0.00     0.037 A 
ATOM     52  C   UNL A   1      43.978  28.109  29.862  1.00  0.00     0.049 A 
ATOM     53  C   UNL A   1      40.804  31.112  33.765  1.00  0.00     0.074 A 
ATOM     54  C   UNL A   1      44.628  29.300  30.152  1.00  0.00     0.029 A 
ATOM     55  N   UNL A   1      43.348  27.715  31.039  1.00  0.00    -0.354 N 
ATOM     56  N   UNL A   1      41.590  30.338  33.063  1.00  0.00    -0.248 NA
ATOM     57  C   UNL A   1      40.826  30.767  35.184  1.00  0.00     0.031 C 
ATOM     58  C   UNL A   1      44.343  29.648  31.494  1.00  0.00     0.029 A 
ATOM     59  C   UNL A   1      43.537  28.661  32.034  1.00  0.00     0.049 A 
ATOM     60  H   UNL A   1      42.838  26.880  31.149  1.00  0.00     0.167 HD
ATOM     61  C   UNL A   1      42.184  29.408  33.871  1.00  0.00     0.074 A 
ATOM     62  C   UNL A   1      41.688  29.732  35.198  1.00  0.00     0.031 C 
ATOM     63  C   UNL A   1      43.030  28.450  33.384  1.00  0.00     0.037 A 
BRANCH  50  64
ATOM     64  C   UNL A   1      44.640  27.145  27.487  1.00  0.00     0.058 A 
ATOM     65  C   UNL A   1      44.774  25.843  26.974  1.00  0.00     0.135 A 
ATOM     66  C   UNL A   1      45.477  28.116  26.884  1.00  0.00     0.135 A 
ATOM     67  F   UNL A   1      43.975  24.846  27.376  1.00  0.00    -0.206 F 
ATOM     68  C   UNL A   1      45.731  25.506  26.012  1.00  0.00     0.059 A 
ATOM     69  C   UNL A   1      46.466  27.799  25.950  1.00  0.00     0.059 A 
ATOM     70  F   UNL A   1      45.358  29.417  27.197  1.00  0.00    -0.206 F 
ATOM     71  C   UNL A   1      46.588  26.486  25.519  1.00  0.00     0.060 A 
BRANCH  71  72
ATOM     72  S   UNL A   1      47.839  26.023  24.306  1.00  0.00     0.124 S 
ATOM     73  O   UNL A   1      47.667  27.044  23.277  1.00  0.00    -0.237 OA
ATOM     74  O   UNL A   1      49.066  26.111  25.090  1.00  0.00    -0.237 OA
ATOM     75  O   UNL A   1      47.446  24.673  23.908  1.00  0.00    -0.744 OA
ENDBRANCH  71  72
ENDBRANCH  50  64
BRANCH  51  76
ATOM     76  C   UNL A   1      38.580  32.644  33.464  1.00  0.00     0.058 A 
ATOM     77  C   UNL A   1      38.259  33.999  33.231  1.00  0.00     0.135 A 
ATOM     78  C   UNL A   1      37.503  31.756  33.567  1.00  0.00     0.135 A 
ATOM     79  F   UNL A   1      39.239  34.915  33.214  1.00  0.00    -0.206 F 
ATOM     80  C   UNL A   1      36.973  34.420  32.910  1.00  0.00     0.059 A 
ATOM     81  C   UNL A   1      36.193  32.161  33.270  1.00  0.00     0.059 A 
ATOM     82  F   UNL A   1      37.721  30.459  33.823  1.00  0.00    -0.206 F 
ATOM     83  C   UNL A   1      35.951  33.480  32.878  1.00  0.00     0.060 A 
BRANCH  83  84
ATOM     84  S   UNL A   1      34.356  33.967  32.168  1.00  0.00     0.124 S 
ATOM     85  O   UNL A   1      33.420  33.499  33.184  1.00  0.00    -0.237 OA
ATOM     86  O   UNL A   1      34.492  35.417  32.058  1.00  0.00    -0.237 OA
ATOM     87  O   UNL A   1      34.335  33.249  30.898  1.00  0.00    -0.744 OA
ENDBRANCH  83  84
ENDBRANCH  51  76
BRANCH  63  88
ATOM     88  C   UNL A   1      43.559  27.274  34.167  1.00  0.00     0.058 A 
ATOM     89  C   UNL A   1      42.743  26.259  34.690  1.00  0.00     0.135 A 
ATOM     90  C   UNL A   1      44.955  27.063  34.281  1.00  0.00     0.135 A 
ATOM     91  F   UNL A   1      41.410  26.299  34.553  1.00  0.00    -0.206 F 
ATOM     92  C   UNL A   1      43.270  25.142  35.339  1.00  0.00     0.059 A 
ATOM     93  C   UNL A   1      45.503  25.927  34.869  1.00  0.00     0.059 A 
ATOM     94  F   UNL A   1      45.840  27.955  33.810  1.00  0.00    -0.206 F 
ATOM     95  C   UNL A   1      44.652  24.985  35.423  1.00  0.00     0.060 A 
BRANCH  95  96
ATOM     96  S   UNL A   1      45.336  23.524  36.222  1.00  0.00     0.124 S 
ATOM     97  O   UNL A   1      44.499  22.469  35.660  1.00  0.00    -0.237 OA
ATOM     98  O   UNL A   1      46.726  23.532  35.773  1.00  0.00    -0.237 OA
ATOM     99  O   UNL A   1      45.143  23.797  37.642  1.00  0.00    -0.744 OA
ENDBRANCH  95  96
ENDBRANCH  63  88
ENDBRANCH  37  38
ENDBRANCH  30  32
ENDBRANCH  29  30
ENDBRANCH  28  29
ENDBRANCH   1  28
TORSDOF 20
ENDMDL
MODEL 2
REMARK VINA RESULT:     -12.0      3.857     10.369
REMARK SMILES Cc1c(CC(=O)OCCOCCOC(=O)c2ccc(-c3c4nc(c(-c5c(F)cc(S(=O)(=O)[O-])cc5F)c5ccc([nH]5)c(-c5c(F)cc(S(=O)(=O)[O-])cc5F)c5nc(c(-c6c(F)cc(S(=O)(=O)[O-])cc6F)c6ccc3[nH]6)C=C5)C=C4)cc2)cc(-c2ccccc2)cc1-c1ccccc1
REMARK SMILES IDX 11 1 10 2 9 3 8 4 7 5 5 6 6 7 4 8 3 9 1 10 2 11 91 12 82 13
REMARK SMILES IDX 90 14 83 15 92 16 93 17 97 18 94 19 96 20 95 21 84 22 85 23
REMARK SMILES IDX 89 24 86 25 88 26 87 27 12 28 13 29 14 30 15 31 16 32 17 33
REMARK SMILES IDX 81 34 18 35 80 36 19 37 20 38 21 39 74 40 22 41 79 42 73 43
REMARK SMILES IDX 75 44 23 45 78 46 72 47 71 48 24 50 58 51 37 52 57 53 38 54
REMARK SMILES IDX 41 55 56 56 76 57 39 58 40 59 55 61 77 62 42 63 25 64 26 65
REMARK SMILES IDX 35 66 27 67 28 68 34 69 36 70 29 71 30 72 31 73 32 74 33 75
REMARK SMILES IDX 59 76 60 77 69 78 61 79 62 80 68 81 70 82 63 83 64 84 65 85
REMARK SMILES IDX 66 86 67 87 43 88 44 89 53 90 45 91 46 92 52 93 54 94 47 95
REMARK SMILES IDX 48 96 49 97 50 98 51 99
REMARK H PARENT 75 49 41 60
REMARK Flexibility Score: inf
ROOT
ATOM      1  C   UNL A   1      36.765  22.931  25.150  1.00  0.00     0.202 C 
ENDROOT
BRANCH   1   2
ATOM      2  O   UNL A   1      35.438  22.433  25.208  1.00  0.00    -0.374 OA
BRANCH   2   3
ATOM      3  C   UNL A   1      34.889  22.093  26.476  1.00  0.00     0.202 C 
BRANCH   3   4
ATOM      4  C   UNL A   1      33.378  22.080  26.707  1.00  0.00     0.261 C 
BRANCH   4   5
ATOM      5  O   UNL A   1      32.783  23.377  26.793  1.00  0.00    -0.463 OA
BRANCH   5   6
ATOM      6  C   UNL A   1      31.846  23.710  25.880  1.00  0.00     0.310 C 
ATOM      7  O   UNL A   1      31.637  23.097  24.838  1.00  0.00    -0.252 OA
BRANCH   6   8
ATOM      8  C   UNL A   1      30.974  24.862  26.328  1.00  0.00     0.158 C 
BRANCH   8   9
ATOM      9  C   UNL A   1      31.231  26.251  25.751  1.00  0.00    -0.033 A 
ATOM     10  C   UNL A   1      29.712  25.813  23.767  1.00  0.00     0.045 C 
ATOM     11  C   UNL A   1      30.563  26.742  24.601  1.00  0.00    -0.039 A 
ATOM     12  C   UNL A   1      30.688  28.112  24.247  1.00  0.00    -0.015 A 
ATOM     13  C   UNL A   1      32.102  27.114  26.445  1.00  0.00     0.013 A 
ATOM     14  C   UNL A   1      31.627  28.910  24.929  1.00  0.00     0.017 A 
ATOM     15  C   UNL A   1      32.357  28.421  26.011  1.00  0.00    -0.017 A 
BRANCH  12  16
ATOM     16  C   UNL A   1      29.787  28.783  23.288  1.00  0.00    -0.018 A 
ATOM     17  C   UNL A   1      30.252  29.714  22.348  1.00  0.00     0.009 A 
ATOM     18  C   UNL A   1      28.399  28.558  23.369  1.00  0.00     0.009 A 
ATOM     19  C   UNL A   1      29.356  30.393  21.515  1.00  0.00     0.001 A 
ATOM     20  C   UNL A   1      27.506  29.232  22.534  1.00  0.00     0.001 A 
ATOM     21  C   UNL A   1      27.986  30.153  21.610  1.00  0.00     0.000 A 
ENDBRANCH  12  16
BRANCH  15  22
ATOM     22  C   UNL A   1      33.360  29.254  26.680  1.00  0.00    -0.018 A 
ATOM     23  C   UNL A   1      34.600  28.710  27.047  1.00  0.00     0.009 A 
ATOM     24  C   UNL A   1      33.103  30.595  26.997  1.00  0.00     0.009 A 
ATOM     25  C   UNL A   1      35.521  29.451  27.789  1.00  0.00     0.001 A 
ATOM     26  C   UNL A   1      34.040  31.351  27.706  1.00  0.00     0.001 A 
ATOM     27  C   UNL A   1      35.238  30.773  28.123  1.00  0.00     0.000 A 
ENDBRANCH  15  22
ENDBRANCH   8   9
ENDBRANCH   6   8
ENDBRANCH   5   6
ENDBRANCH   4   5
ENDBRANCH   3   4
ENDBRANCH   2   3
ENDBRANCH   1   2
BRANCH   1  28
ATOM     28  C   UNL A   1      37.884  22.113  25.807  1.00  0.00     0.261 C 
BRANCH  28  29
ATOM     29  O   UNL A   1      39.173  22.708  25.699  1.00  0.00    -0.460 OA
BRANCH  29  30
ATOM     30  C   UNL A   1      39.761  23.154  26.845  1.00  0.00     0.338 C 
ATOM     31  O   UNL A   1      40.399  22.540  27.677  1.00  0.00    -0.246 OA
BRANCH  30  32
ATOM     32  C   UNL A   1      39.676  24.619  26.714  1.00  0.00     0.060 A 
ATOM     33  C   UNL A   1      40.787  25.299  26.215  1.00  0.00     0.016 A 
ATOM     34  C   UNL A   1      38.823  25.218  27.637  1.00  0.00     0.016 A 
ATOM     35  C   UNL A   1      41.226  26.424  26.900  1.00  0.00     0.010 A 
ATOM     36  C   UNL A   1      39.297  26.309  28.342  1.00  0.00     0.010 A 
ATOM     37  C   UNL A   1      40.599  26.760  28.103  1.00  0.00    -0.014 A 
BRANCH  37  38
ATOM     38  C   UNL A   1      41.366  27.319  29.233  1.00  0.00     0.031 A 
ATOM     39  C   UNL A   1      40.686  28.223  30.164  1.00  0.00     0.074 A 
ATOM     40  C   UNL A   1      42.649  26.981  29.506  1.00  0.00     0.049 A 
ATOM     41  N   UNL A   1      40.661  29.509  30.058  1.00  0.00    -0.248 NA
ATOM     42  C   UNL A   1      39.915  27.678  31.285  1.00  0.00     0.031 C 
ATOM     43  C   UNL A   1      43.494  27.517  30.570  1.00  0.00     0.029 A 
ATOM     44  N   UNL A   1      43.515  26.152  28.796  1.00  0.00    -0.354 N 
ATOM     45  C   UNL A   1      40.098  29.946  31.239  1.00  0.00     0.074 A 
ATOM     46  C   UNL A   1      39.442  28.797  31.838  1.00  0.00     0.031 C 
ATOM     47  C   UNL A   1      44.780  27.292  30.238  1.00  0.00     0.029 A 
ATOM     48  C   UNL A   1      44.814  26.633  28.938  1.00  0.00     0.049 A 
ATOM     49  H   UNL A   1      43.251  25.357  28.278  1.00  0.00     0.167 HD
ATOM     50  C   UNL A   1      40.607  30.997  31.946  1.00  0.00     0.037 A 
ATOM     51  C   UNL A   1      45.539  27.031  27.852  1.00  0.00     0.037 A 
ATOM     52  C   UNL A   1      42.011  31.202  31.595  1.00  0.00     0.049 A 
ATOM     53  C   UNL A   1      45.561  28.546  27.765  1.00  0.00     0.074 A 
ATOM     54  C   UNL A   1      43.167  30.805  32.251  1.00  0.00     0.029 A 
ATOM     55  N   UNL A   1      42.398  31.545  30.303  1.00  0.00    -0.354 N 
ATOM     56  N   UNL A   1      44.852  29.320  28.545  1.00  0.00    -0.248 NA
ATOM     57  C   UNL A   1      46.372  29.316  26.826  1.00  0.00     0.031 C 
ATOM     58  C   UNL A   1      44.242  30.861  31.333  1.00  0.00     0.029 A 
ATOM     59  C   UNL A   1      43.752  31.312  30.121  1.00  0.00     0.049 A 
ATOM     60  H   UNL A   1      41.793  31.904  29.614  1.00  0.00     0.167 HD
ATOM     61  C   UNL A   1      45.063  30.634  28.227  1.00  0.00     0.074 A 
ATOM     62  C   UNL A   1      46.042  30.580  27.155  1.00  0.00     0.031 C 
ATOM     63  C   UNL A   1      44.416  31.654  28.869  1.00  0.00     0.037 A 
BRANCH  50  64
ATOM     64  C   UNL A   1      39.948  31.450  33.235  1.00  0.00     0.058 A 
ATOM     65  C   UNL A   1      40.218  30.857  34.481  1.00  0.00     0.135 A 
ATOM     66  C   UNL A   1      39.042  32.540  33.274  1.00  0.00     0.135 A 
ATOM     67  F   UNL A   1      41.131  29.886  34.611  1.00  0.00    -0.206 F 
ATOM     68  C   UNL A   1      39.566  31.242  35.657  1.00  0.00     0.059 A 
ATOM     69  C   UNL A   1      38.350  32.918  34.426  1.00  0.00     0.059 A 
ATOM     70  F   UNL A   1      38.796  33.269  32.172  1.00  0.00    -0.206 F 
ATOM     71  C   UNL A   1      38.618  32.260  35.618  1.00  0.00     0.060 A 
BRANCH  71  72
ATOM     72  S   UNL A   1      37.763  32.717  37.138  1.00  0.00     0.124 S 
ATOM     73  O   UNL A   1      38.732  33.594  37.788  1.00  0.00    -0.237 OA
ATOM     74  O   UNL A   1      36.561  33.366  36.625  1.00  0.00    -0.237 OA
ATOM     75  O   UNL A   1      37.546  31.435  37.806  1.00  0.00    -0.744 OA
ENDBRANCH  71  72
ENDBRANCH  50  64
BRANCH  51  76
ATOM     76  C   UNL A   1      45.529  26.028  26.743  1.00  0.00     0.058 A 
ATOM     77  C   UNL A   1      46.132  24.784  27.024  1.00  0.00     0.135 A 
ATOM     78  C   UNL A   1      44.659  26.068  25.647  1.00  0.00     0.135 A 
ATOM     79  F   UNL A   1      47.046  24.699  28.002  1.00  0.00    -0.206 F 
ATOM     80  C   UNL A   1      45.744  23.604  26.396  1.00  0.00     0.059 A 
ATOM     81  C   UNL A   1      44.269  24.896  24.983  1.00  0.00     0.059 A 
ATOM     82  F   UNL A   1      44.074  27.220  25.292  1.00  0.00    -0.206 F 
ATOM     83  C   UNL A   1      44.767  23.662  25.410  1.00  0.00     0.060 A 
BRANCH  83  84
ATOM     84  S   UNL A   1      44.050  22.107  24.818  1.00  0.00     0.124 S 
ATOM     85  O   UNL A   1      44.456  22.104  23.417  1.00  0.00    -0.237 OA
ATOM     86  O   UNL A   1      44.707  21.116  25.665  1.00  0.00    -0.237 OA
ATOM     87  O   UNL A   1      42.625  22.291  25.072  1.00  0.00    -0.744 OA
ENDBRANCH  83  84
ENDBRANCH  51  76
BRANCH  63  88
ATOM     88  C   UNL A   1      44.436  33.102  28.446  1.00  0.00     0.058 A 
ATOM     89  C   UNL A   1      44.055  33.543  27.170  1.00  0.00     0.135 A 
ATOM     90  C   UNL A   1      44.705  34.118  29.395  1.00  0.00     0.135 A 
ATOM     91  F   UNL A   1      43.680  32.677  26.218  1.00  0.00    -0.206 F 
ATOM     92  C   UNL A   1      44.006  34.897  26.836  1.00  0.00     0.059 A 
ATOM     93  C   UNL A   1      44.603  35.474  29.102  1.00  0.00     0.059 A 
ATOM     94  F   UNL A   1      45.068  33.825  30.654  1.00  0.00    -0.206 F 
ATOM     95  C   UNL A   1      44.282  35.855  27.809  1.00  0.00     0.060 A 
BRANCH  95  96
ATOM     96  S   UNL A   1      44.178  37.604  27.393  1.00  0.00     0.124 S 
ATOM     97  O   UNL A   1      45.347  37.766  26.533  1.00  0.00    -0.237 OA
ATOM     98  O   UNL A   1      42.885  37.700  26.721  1.00  0.00    -0.237 OA
ATOM     99  O   UNL A   1      44.251  38.262  28.692  1.00  0.00    -0.744 OA
ENDBRANCH  95  96
ENDBRANCH  63  88
ENDBRANCH  37  38
ENDBRANCH  30  32
ENDBRANCH  29  30
ENDBRANCH  28  29
ENDBRANCH   1  28
TORSDOF 20
ENDMDL
MODEL 3
REMARK VINA RESULT:     -12.0      2.778      5.240
REMARK SMILES Cc1c(CC(=O)OCCOCCOC(=O)c2ccc(-c3c4nc(c(-c5c(F)cc(S(=O)(=O)[O-])cc5F)c5ccc([nH]5)c(-c5c(F)cc(S(=O)(=O)[O-])cc5F)c5nc(c(-c6c(F)cc(S(=O)(=O)[O-])cc6F)c6ccc3[nH]6)C=C5)C=C4)cc2)cc(-c2ccccc2)cc1-c1ccccc1
REMARK SMILES IDX 11 1 10 2 9 3 8 4 7 5 5 6 6 7 4 8 3 9 1 10 2 11 91 12 82 13
REMARK SMILES IDX 90 14 83 15 92 16 93 17 97 18 94 19 96 20 95 21 84 22 85 23
REMARK SMILES IDX 89 24 86 25 88 26 87 27 12 28 13 29 14 30 15 31 16 32 17 33
REMARK SMILES IDX 81 34 18 35 80 36 19 37 20 38 21 39 74 40 22 41 79 42 73 43
REMARK SMILES IDX 75 44 23 45 78 46 72 47 71 48 24 50 58 51 37 52 57 53 38 54
REMARK SMILES IDX 41 55 56 56 76 57 39 58 40 59 55 61 77 62 42 63 25 64 26 65
REMARK SMILES IDX 35 66 27 67 28 68 34 69 36 70 29 71 30 72 31 73 32 74 33 75
REMARK SMILES IDX 59 76 60 77 69 78 61 79 62 80 68 81 70 82 63 83 64 84 65 85
REMARK SMILES IDX 66 86 67 87 43 88 44 89 53 90 45 91 46 92 52 93 54 94 47 95
REMARK SMILES IDX 48 96 49 97 50 98 51 99
REMARK H PARENT 75 49 41 60
REMARK Flexibility Score: inf
ROOT
ATOM      1  C   UNL A   1      42.375  23.295  28.452  1.00  0.00     0.202 C 
ENDROOT
BRANCH   1   2
ATOM      2  O   UNL A   1      42.369  22.020  27.831  1.00  0.00    -0.374 OA
BRANCH   2   3
ATOM      3  C   UNL A   1      41.126  21.349  27.656  1.00  0.00     0.202 C 
BRANCH   3   4
ATOM      4  C   UNL A   1      40.473  21.240  26.279  1.00  0.00     0.261 C 
BRANCH   4   5
ATOM      5  O   UNL A   1      39.137  21.743  26.217  1.00  0.00    -0.463 OA
BRANCH   5   6
ATOM      6  C   UNL A   1      38.296  21.207  25.307  1.00  0.00     0.310 C 
ATOM      7  O   UNL A   1      38.296  20.030  24.962  1.00  0.00    -0.252 OA
BRANCH   6   8
ATOM      8  C   UNL A   1      37.247  22.188  24.829  1.00  0.00     0.158 C 
BRANCH   8   9
ATOM      9  C   UNL A   1      35.775  21.803  24.935  1.00  0.00    -0.033 A 
ATOM     10  C   UNL A   1      35.069  24.216  25.276  1.00  0.00     0.045 C 
ATOM     11  C   UNL A   1      34.735  22.761  25.044  1.00  0.00    -0.039 A 
ATOM     12  C   UNL A   1      33.381  22.346  24.920  1.00  0.00    -0.015 A 
ATOM     13  C   UNL A   1      35.428  20.441  24.827  1.00  0.00     0.013 A 
ATOM     14  C   UNL A   1      33.090  20.969  24.888  1.00  0.00     0.017 A 
ATOM     15  C   UNL A   1      34.097  20.006  24.865  1.00  0.00    -0.017 A 
BRANCH  12  16
ATOM     16  C   UNL A   1      32.268  23.289  24.687  1.00  0.00    -0.018 A 
ATOM     17  C   UNL A   1      31.899  23.711  23.402  1.00  0.00     0.009 A 
ATOM     18  C   UNL A   1      31.604  23.860  25.789  1.00  0.00     0.009 A 
ATOM     19  C   UNL A   1      30.897  24.672  23.228  1.00  0.00     0.001 A 
ATOM     20  C   UNL A   1      30.601  24.815  25.616  1.00  0.00     0.001 A 
ATOM     21  C   UNL A   1      30.250  25.223  24.333  1.00  0.00     0.000 A 
ENDBRANCH  12  16
BRANCH  15  22
ATOM     22  C   UNL A   1      33.772  18.577  24.876  1.00  0.00    -0.018 A 
ATOM     23  C   UNL A   1      34.605  17.659  24.220  1.00  0.00     0.009 A 
ATOM     24  C   UNL A   1      32.618  18.095  25.507  1.00  0.00     0.009 A 
ATOM     25  C   UNL A   1      34.253  16.312  24.117  1.00  0.00     0.001 A 
ATOM     26  C   UNL A   1      32.282  16.740  25.437  1.00  0.00     0.001 A 
ATOM     27  C   UNL A   1      33.086  15.854  24.723  1.00  0.00     0.000 A 
ENDBRANCH  15  22
ENDBRANCH   8   9
ENDBRANCH   6   8
ENDBRANCH   5   6
ENDBRANCH   4   5
ENDBRANCH   3   4
ENDBRANCH   2   3
ENDBRANCH   1   2
BRANCH   1  28
ATOM     28  C   UNL A   1      41.625  24.446  27.770  1.00  0.00     0.261 C 
BRANCH  28  29
ATOM     29  O   UNL A   1      40.295  24.629  28.245  1.00  0.00    -0.460 OA
BRANCH  29  30
ATOM     30  C   UNL A   1      39.412  25.262  27.423  1.00  0.00     0.338 C 
ATOM     31  O   UNL A   1      38.679  24.801  26.570  1.00  0.00    -0.246 OA
BRANCH  30  32
ATOM     32  C   UNL A   1      39.347  26.622  27.988  1.00  0.00     0.060 A 
ATOM     33  C   UNL A   1      39.967  27.654  27.284  1.00  0.00     0.016 A 
ATOM     34  C   UNL A   1      39.261  26.651  29.377  1.00  0.00     0.016 A 
ATOM     35  C   UNL A   1      40.792  28.521  27.989  1.00  0.00     0.010 A 
ATOM     36  C   UNL A   1      40.124  27.486  30.062  1.00  0.00     0.010 A 
ATOM     37  C   UNL A   1      41.040  28.258  29.338  1.00  0.00    -0.014 A 
BRANCH  37  38
ATOM     38  C   UNL A   1      42.364  28.518  29.937  1.00  0.00     0.031 A 
ATOM     39  C   UNL A   1      43.546  27.913  29.317  1.00  0.00     0.074 A 
ATOM     40  C   UNL A   1      42.558  29.352  30.986  1.00  0.00     0.049 A 
ATOM     41  N   UNL A   1      44.054  26.776  29.654  1.00  0.00    -0.248 NA
ATOM     42  C   UNL A   1      44.205  28.578  28.190  1.00  0.00     0.031 C 
ATOM     43  C   UNL A   1      43.820  29.630  31.668  1.00  0.00     0.029 A 
ATOM     44  N   UNL A   1      41.623  30.049  31.748  1.00  0.00    -0.354 N 
ATOM     45  C   UNL A   1      45.247  26.709  28.964  1.00  0.00     0.074 A 
ATOM     46  C   UNL A   1      45.174  27.706  27.909  1.00  0.00     0.031 C 
ATOM     47  C   UNL A   1      43.538  30.118  32.891  1.00  0.00     0.029 A 
ATOM     48  C   UNL A   1      42.089  30.143  33.056  1.00  0.00     0.049 A 
ATOM     49  H   UNL A   1      40.770  30.414  31.414  1.00  0.00     0.167 HD
ATOM     50  C   UNL A   1      46.407  26.290  29.548  1.00  0.00     0.037 A 
ATOM     51  C   UNL A   1      41.387  29.601  34.093  1.00  0.00     0.037 A 
ATOM     52  C   UNL A   1      46.320  26.447  30.999  1.00  0.00     0.049 A 
ATOM     53  C   UNL A   1      42.025  28.294  34.529  1.00  0.00     0.074 A 
ATOM     54  C   UNL A   1      46.813  27.448  31.824  1.00  0.00     0.029 A 
ATOM     55  N   UNL A   1      45.382  25.750  31.754  1.00  0.00    -0.354 N 
ATOM     56  N   UNL A   1      43.011  27.726  33.884  1.00  0.00    -0.248 NA
ATOM     57  C   UNL A   1      41.635  27.528  35.710  1.00  0.00     0.031 C 
ATOM     58  C   UNL A   1      46.129  27.383  33.061  1.00  0.00     0.029 A 
ATOM     59  C   UNL A   1      45.233  26.330  33.004  1.00  0.00     0.049 A 
ATOM     60  H   UNL A   1      44.891  24.956  31.443  1.00  0.00     0.167 HD
ATOM     61  C   UNL A   1      43.368  26.558  34.499  1.00  0.00     0.074 A 
ATOM     62  C   UNL A   1      42.489  26.488  35.653  1.00  0.00     0.031 C 
ATOM     63  C   UNL A   1      44.353  25.745  34.009  1.00  0.00     0.037 A 
BRANCH  50  64
ATOM     64  C   UNL A   1      47.694  26.222  28.747  1.00  0.00     0.058 A 
ATOM     65  C   UNL A   1      48.697  27.203  28.827  1.00  0.00     0.135 A 
ATOM     66  C   UNL A   1      47.988  25.132  27.890  1.00  0.00     0.135 A 
ATOM     67  F   UNL A   1      48.600  28.236  29.675  1.00  0.00    -0.206 F 
ATOM     68  C   UNL A   1      49.855  27.163  28.045  1.00  0.00     0.059 A 
ATOM     69  C   UNL A   1      49.118  25.088  27.071  1.00  0.00     0.059 A 
ATOM     70  F   UNL A   1      47.168  24.070  27.820  1.00  0.00    -0.206 F 
ATOM     71  C   UNL A   1      50.050  26.113  27.153  1.00  0.00     0.060 A 
BRANCH  71  72
ATOM     72  S   UNL A   1      51.533  26.100  26.128  1.00  0.00     0.124 S 
ATOM     73  O   UNL A   1      52.299  27.214  26.676  1.00  0.00    -0.237 OA
ATOM     74  O   UNL A   1      52.069  24.769  26.391  1.00  0.00    -0.237 OA
ATOM     75  O   UNL A   1      51.015  26.311  24.778  1.00  0.00    -0.744 OA
ENDBRANCH  71  72
ENDBRANCH  50  64
BRANCH  51  76
ATOM     76  C   UNL A   1      39.941  29.980  34.083  1.00  0.00     0.058 A 
ATOM     77  C   UNL A   1      39.638  31.288  34.519  1.00  0.00     0.135 A 
ATOM     78  C   UNL A   1      38.957  29.327  33.333  1.00  0.00     0.135 A 
ATOM     79  F   UNL A   1      40.500  31.933  35.319  1.00  0.00    -0.206 F 
ATOM     80  C   UNL A   1      38.523  31.988  34.068  1.00  0.00     0.059 A 
ATOM     81  C   UNL A   1      37.812  30.004  32.885  1.00  0.00     0.059 A 
ATOM     82  F   UNL A   1      39.152  28.070  32.912  1.00  0.00    -0.206 F 
ATOM     83  C   UNL A   1      37.640  31.354  33.203  1.00  0.00     0.060 A 
BRANCH  83  84
ATOM     84  S   UNL A   1      36.371  32.355  32.384  1.00  0.00     0.124 S 
ATOM     85  O   UNL A   1      35.752  31.382  31.492  1.00  0.00    -0.237 OA
ATOM     86  O   UNL A   1      35.546  32.795  33.506  1.00  0.00    -0.237 OA
ATOM     87  O   UNL A   1      37.154  33.406  31.742  1.00  0.00    -0.744 OA
ENDBRANCH  83  84
ENDBRANCH  51  76
BRANCH  63  88
ATOM     88  C   UNL A   1      44.664  24.355  34.504  1.00  0.00     0.058 A 
ATOM     89  C   UNL A   1      44.237  23.187  33.856  1.00  0.00     0.135 A 
ATOM     90  C   UNL A   1      45.553  24.167  35.592  1.00  0.00     0.135 A 
ATOM     91  F   UNL A   1      43.475  23.241  32.754  1.00  0.00    -0.206 F 
ATOM     92  C   UNL A   1      44.610  21.915  34.294  1.00  0.00     0.059 A 
ATOM     93  C   UNL A   1      45.987  22.913  36.006  1.00  0.00     0.059 A 
ATOM     94  F   UNL A   1      46.042  25.207  36.285  1.00  0.00    -0.206 F 
ATOM     95  C   UNL A   1      45.486  21.789  35.369  1.00  0.00     0.060 A 
BRANCH  95  96
ATOM     96  S   UNL A   1      46.004  20.151  35.910  1.00  0.00     0.124 S 
ATOM     97  O   UNL A   1      45.111  19.295  35.135  1.00  0.00    -0.237 OA
ATOM     98  O   UNL A   1      47.411  20.112  35.519  1.00  0.00    -0.237 OA
ATOM     99  O   UNL A   1      45.762  20.181  37.348  1.00  0.00    -0.744 OA
ENDBRANCH  95  96
ENDBRANCH  63  88
ENDBRANCH  37  38
ENDBRANCH  30  32
ENDBRANCH  29  30
ENDBRANCH  28  29
ENDBRANCH   1  28
TORSDOF 20
ENDMDL
