MODEL 1
REMARK VINA RESULT:      -8.9      0.000      0.000
REMARK SMILES CC[C@@H]1CC[C@H]([C@@H](C)C(=O)OCCOCCOC(=O)c2ccc(-c3c4nc(c(-c5c(F)cc(S(=O)(=O)[O-])cc5F)c5ccc([nH]5)c(-c5c(F)cc(S(=O)(=O)[O-])cc5F)c5nc(c(-c6c(F)cc(S(=O)(=O)[O-])cc6F)c6ccc3[nH]6)C=C5)C=C4)cc2)C1
REMARK SMILES IDX 15 1 14 2 13 3 12 4 11 5 9 6 10 7 7 8 8 9 6 10 3 11 4 12
REMARK SMILES IDX 86 13 5 14 2 15 1 16 16 17 17 18 18 19 19 20 20 21 21 22
REMARK SMILES IDX 85 23 22 24 84 25 23 26 24 27 25 28 78 29 26 30 83 31 77 32
REMARK SMILES IDX 79 33 27 34 82 35 76 36 75 37 28 39 62 40 41 41 61 42 42 43
REMARK SMILES IDX 45 44 60 45 80 46 43 47 44 48 59 50 81 51 46 52 29 53 30 54
REMARK SMILES IDX 39 55 31 56 32 57 38 58 40 59 33 60 34 61 35 62 36 63 37 64
REMARK SMILES IDX 63 65 64 66 73 67 65 68 66 69 72 70 74 71 67 72 68 73 69 74
REMARK SMILES IDX 70 75 71 76 47 77 48 78 57 79 49 80 50 81 56 82 58 83 51 84
REMARK SMILES IDX 52 85 53 86 54 87 55 88
REMARK H PARENT 79 38 45 49
REMARK Flexibility Score: inf
ROOT
ATOM      1  C   UNL A   1      34.428  34.507  29.522  1.00  0.00     0.202 C 
ENDROOT
BRANCH   1   2
ATOM      2  O   UNL A   1      33.661  34.340  30.714  1.00  0.00    -0.374 OA
BRANCH   2   3
ATOM      3  C   UNL A   1      34.328  34.574  31.951  1.00  0.00     0.202 C 
BRANCH   3   4
ATOM      4  C   UNL A   1      34.062  33.568  33.077  1.00  0.00     0.261 C 
BRANCH   4   5
ATOM      5  O   UNL A   1      35.061  32.541  33.226  1.00  0.00    -0.463 OA
BRANCH   5   6
ATOM      6  C   UNL A   1      36.137  32.894  33.979  1.00  0.00     0.309 C 
ATOM      7  O   UNL A   1      36.076  33.353  35.115  1.00  0.00    -0.252 OA
BRANCH   6   8
ATOM      8  C   UNL A   1      37.457  32.794  33.232  1.00  0.00     0.099 C 
ATOM      9  C   UNL A   1      38.475  32.220  34.224  1.00  0.00     0.020 C 
BRANCH   8  10
ATOM     10  C   UNL A   1      37.978  34.073  32.543  1.00  0.00     0.003 C 
ATOM     11  C   UNL A   1      39.121  34.941  30.585  1.00  0.00    -0.011 C 
ATOM     12  C   UNL A   1      40.201  34.554  31.585  1.00  0.00     0.004 C 
ATOM     13  C   UNL A   1      37.958  34.039  31.005  1.00  0.00     0.008 C 
ATOM     14  C   UNL A   1      39.455  34.361  32.900  1.00  0.00     0.005 C 
BRANCH  11  15
ATOM     15  C   UNL A   1      39.600  34.767  29.142  1.00  0.00     0.000 C 
ATOM     16  C   UNL A   1      41.022  35.255  28.917  1.00  0.00     0.004 C 
ENDBRANCH  11  15
ENDBRANCH   8  10
ENDBRANCH   6   8
ENDBRANCH   5   6
ENDBRANCH   4   5
ENDBRANCH   3   4
ENDBRANCH   2   3
ENDBRANCH   1   2
BRANCH   1  17
ATOM     17  C   UNL A   1      34.412  33.313  28.564  1.00  0.00     0.261 C 
BRANCH  17  18
ATOM     18  O   UNL A   1      34.677  32.085  29.268  1.00  0.00    -0.460 OA
BRANCH  18  19
ATOM     19  C   UNL A   1      34.582  30.983  28.493  1.00  0.00     0.338 C 
ATOM     20  O   UNL A   1      33.663  30.698  27.733  1.00  0.00    -0.246 OA
BRANCH  19  21
ATOM     21  C   UNL A   1      35.843  30.228  28.526  1.00  0.00     0.060 A 
ATOM     22  C   UNL A   1      36.250  29.703  29.759  1.00  0.00     0.016 A 
ATOM     23  C   UNL A   1      36.676  30.148  27.408  1.00  0.00     0.016 A 
ATOM     24  C   UNL A   1      37.524  29.154  29.895  1.00  0.00     0.010 A 
ATOM     25  C   UNL A   1      37.957  29.598  27.549  1.00  0.00     0.010 A 
ATOM     26  C   UNL A   1      38.404  29.142  28.803  1.00  0.00    -0.014 A 
BRANCH  26  27
ATOM     27  C   UNL A   1      39.832  28.801  29.030  1.00  0.00     0.031 A 
ATOM     28  C   UNL A   1      40.733  29.810  29.690  1.00  0.00     0.074 A 
ATOM     29  C   UNL A   1      40.313  27.586  28.704  1.00  0.00     0.049 A 
ATOM     30  N   UNL A   1      41.994  29.705  30.022  1.00  0.00    -0.248 NA
ATOM     31  C   UNL A   1      40.130  31.111  30.022  1.00  0.00     0.031 C 
ATOM     32  C   UNL A   1      39.540  26.513  28.083  1.00  0.00     0.029 A 
ATOM     33  N   UNL A   1      41.569  27.055  28.856  1.00  0.00    -0.354 N 
ATOM     34  C   UNL A   1      42.337  30.921  30.602  1.00  0.00     0.074 A 
ATOM     35  C   UNL A   1      41.159  31.761  30.546  1.00  0.00     0.031 C 
ATOM     36  C   UNL A   1      40.342  25.449  27.902  1.00  0.00     0.029 A 
ATOM     37  C   UNL A   1      41.686  25.773  28.377  1.00  0.00     0.049 A 
ATOM     38  H   UNL A   1      42.315  27.547  29.269  1.00  0.00     0.167 HD
ATOM     39  C   UNL A   1      43.520  31.303  31.141  1.00  0.00     0.037 A 
ATOM     40  C   UNL A   1      42.757  24.957  28.319  1.00  0.00     0.037 A 
ATOM     41  C   UNL A   1      44.692  30.470  31.198  1.00  0.00     0.049 A 
ATOM     42  C   UNL A   1      44.076  25.415  28.880  1.00  0.00     0.074 A 
ATOM     43  C   UNL A   1      45.927  30.758  31.754  1.00  0.00     0.029 A 
ATOM     44  N   UNL A   1      44.780  29.189  30.672  1.00  0.00    -0.354 N 
ATOM     45  N   UNL A   1      44.373  26.554  29.460  1.00  0.00    -0.248 NA
ATOM     46  C   UNL A   1      45.204  24.477  28.786  1.00  0.00     0.031 C 
ATOM     47  C   UNL A   1      46.775  29.667  31.525  1.00  0.00     0.029 A 
ATOM     48  C   UNL A   1      46.055  28.684  30.864  1.00  0.00     0.049 A 
ATOM     49  H   UNL A   1      44.044  28.711  30.227  1.00  0.00     0.167 HD
ATOM     50  C   UNL A   1      45.716  26.463  29.814  1.00  0.00     0.074 A 
ATOM     51  C   UNL A   1      46.170  25.154  29.393  1.00  0.00     0.031 C 
ATOM     52  C   UNL A   1      46.499  27.380  30.435  1.00  0.00     0.037 A 
BRANCH  39  53
ATOM     53  C   UNL A   1      43.605  32.699  31.691  1.00  0.00     0.058 A 
ATOM     54  C   UNL A   1      43.343  32.977  33.042  1.00  0.00     0.135 A 
ATOM     55  C   UNL A   1      43.960  33.772  30.857  1.00  0.00     0.135 A 
ATOM     56  F   UNL A   1      42.986  31.990  33.878  1.00  0.00    -0.206 F 
ATOM     57  C   UNL A   1      43.394  34.276  33.540  1.00  0.00     0.059 A 
ATOM     58  C   UNL A   1      44.039  35.075  31.338  1.00  0.00     0.059 A 
ATOM     59  F   UNL A   1      44.221  33.560  29.558  1.00  0.00    -0.206 F 
ATOM     60  C   UNL A   1      43.735  35.320  32.677  1.00  0.00     0.060 A 
BRANCH  60  61
ATOM     61  S   UNL A   1      43.774  37.004  33.326  1.00  0.00     0.124 S 
ATOM     62  O   UNL A   1      45.022  36.994  34.082  1.00  0.00    -0.237 OA
ATOM     63  O   UNL A   1      43.776  37.811  32.110  1.00  0.00    -0.237 OA
ATOM     64  O   UNL A   1      42.556  37.087  34.126  1.00  0.00    -0.744 OA
ENDBRANCH  60  61
ENDBRANCH  39  53
BRANCH  40  65
ATOM     65  C   UNL A   1      42.619  23.614  27.697  1.00  0.00     0.058 A 
ATOM     66  C   UNL A   1      42.707  23.443  26.309  1.00  0.00     0.135 A 
ATOM     67  C   UNL A   1      42.433  22.470  28.489  1.00  0.00     0.135 A 
ATOM     68  F   UNL A   1      42.871  24.509  25.510  1.00  0.00    -0.206 F 
ATOM     69  C   UNL A   1      42.620  22.184  25.725  1.00  0.00     0.059 A 
ATOM     70  C   UNL A   1      42.364  21.198  27.930  1.00  0.00     0.059 A 
ATOM     71  F   UNL A   1      42.351  22.583  29.824  1.00  0.00    -0.206 F 
ATOM     72  C   UNL A   1      42.457  21.066  26.545  1.00  0.00     0.060 A 
BRANCH  72  73
ATOM     73  S   UNL A   1      42.434  19.426  25.787  1.00  0.00     0.124 S 
ATOM     74  O   UNL A   1      41.046  19.321  25.354  1.00  0.00    -0.237 OA
ATOM     75  O   UNL A   1      43.427  19.565  24.725  1.00  0.00    -0.237 OA
ATOM     76  O   UNL A   1      42.824  18.546  26.885  1.00  0.00    -0.744 OA
ENDBRANCH  72  73
ENDBRANCH  40  65
BRANCH  52  77
ATOM     77  C   UNL A   1      47.928  27.002  30.711  1.00  0.00     0.058 A 
ATOM     78  C   UNL A   1      48.948  27.264  29.783  1.00  0.00     0.135 A 
ATOM     79  C   UNL A   1      48.288  26.421  31.937  1.00  0.00     0.135 A 
ATOM     80  F   UNL A   1      48.656  27.813  28.595  1.00  0.00    -0.206 F 
ATOM     81  C   UNL A   1      50.276  26.946  30.056  1.00  0.00     0.059 A 
ATOM     82  C   UNL A   1      49.612  26.115  32.239  1.00  0.00     0.059 A 
ATOM     83  F   UNL A   1      47.351  26.159  32.862  1.00  0.00    -0.206 F 
ATOM     84  C   UNL A   1      50.598  26.372  31.287  1.00  0.00     0.060 A 
BRANCH  84  85
ATOM     85  S   UNL A   1      52.328  25.995  31.644  1.00  0.00     0.124 S 
ATOM     86  O   UNL A   1      52.964  26.298  30.367  1.00  0.00    -0.237 OA
ATOM     87  O   UNL A   1      52.631  26.914  32.737  1.00  0.00    -0.237 OA
ATOM     88  O   UNL A   1      52.298  24.583  32.013  1.00  0.00    -0.744 OA
ENDBRANCH  84  85
ENDBRANCH  52  77
ENDBRANCH  26  27
ENDBRANCH  19  21
ENDBRANCH  18  19
ENDBRANCH  17  18
ENDBRANCH   1  17
TORSDOF 19
ENDMDL
MODEL 2
REMARK VINA RESULT:      -8.8      2.404      3.068
REMARK SMILES CC[C@@H]1CC[C@H]([C@@H](C)C(=O)OCCOCCOC(=O)c2ccc(-c3c4nc(c(-c5c(F)cc(S(=O)(=O)[O-])cc5F)c5ccc([nH]5)c(-c5c(F)cc(S(=O)(=O)[O-])cc5F)c5nc(c(-c6c(F)cc(S(=O)(=O)[O-])cc6F)c6ccc3[nH]6)C=C5)C=C4)cc2)C1
REMARK SMILES IDX 15 1 14 2 13 3 12 4 11 5 9 6 10 7 7 8 8 9 6 10 3 11 4 12
REMARK SMILES IDX 86 13 5 14 2 15 1 16 16 17 17 18 18 19 19 20 20 21 21 22
REMARK SMILES IDX 85 23 22 24 84 25 23 26 24 27 25 28 78 29 26 30 83 31 77 32
REMARK SMILES IDX 79 33 27 34 82 35 76 36 75 37 28 39 62 40 41 41 61 42 42 43
REMARK SMILES IDX 45 44 60 45 80 46 43 47 44 48 59 50 81 51 46 52 29 53 30 54
REMARK SMILES IDX 39 55 31 56 32 57 38 58 40 59 33 60 34 61 35 62 36 63 37 64
REMARK SMILES IDX 63 65 64 66 73 67 65 68 66 69 72 70 74 71 67 72 68 73 69 74
REMARK SMILES IDX 70 75 71 76 47 77 48 78 57 79 49 80 50 81 56 82 58 83 51 84
REMARK SMILES IDX 52 85 53 86 54 87 55 88
REMARK H PARENT 79 38 45 49
REMARK Flexibility Score: inf
ROOT
ATOM      1  C   UNL A   1      34.043  34.716  28.926  1.00  0.00     0.202 C 
ENDROOT
BRANCH   1   2
ATOM      2  O   UNL A   1      33.164  34.684  30.051  1.00  0.00    -0.374 OA
BRANCH   2   3
ATOM      3  C   UNL A   1      33.356  35.683  31.049  1.00  0.00     0.202 C 
BRANCH   3   4
ATOM      4  C   UNL A   1      33.137  35.252  32.504  1.00  0.00     0.261 C 
BRANCH   4   5
ATOM      5  O   UNL A   1      33.272  33.838  32.748  1.00  0.00    -0.463 OA
BRANCH   5   6
ATOM      6  C   UNL A   1      34.471  33.460  33.267  1.00  0.00     0.309 C 
ATOM      7  O   UNL A   1      34.792  33.575  34.445  1.00  0.00    -0.252 OA
BRANCH   6   8
ATOM      8  C   UNL A   1      35.461  32.985  32.215  1.00  0.00     0.099 C 
ATOM      9  C   UNL A   1      36.220  31.805  32.834  1.00  0.00     0.020 C 
BRANCH   8  10
ATOM     10  C   UNL A   1      36.419  34.039  31.620  1.00  0.00     0.003 C 
ATOM     11  C   UNL A   1      38.585  34.381  30.578  1.00  0.00    -0.011 C 
ATOM     12  C   UNL A   1      38.810  34.437  32.082  1.00  0.00     0.004 C 
ATOM     13  C   UNL A   1      37.315  33.533  30.476  1.00  0.00     0.008 C 
ATOM     14  C   UNL A   1      37.414  34.578  32.675  1.00  0.00     0.005 C 
BRANCH  11  15
ATOM     15  C   UNL A   1      39.807  33.825  29.844  1.00  0.00     0.000 C 
ATOM     16  C   UNL A   1      40.999  34.768  29.861  1.00  0.00     0.004 C 
ENDBRANCH  11  15
ENDBRANCH   8  10
ENDBRANCH   6   8
ENDBRANCH   5   6
ENDBRANCH   4   5
ENDBRANCH   3   4
ENDBRANCH   2   3
ENDBRANCH   1   2
BRANCH   1  17
ATOM     17  C   UNL A   1      34.057  33.443  28.075  1.00  0.00     0.261 C 
BRANCH  17  18
ATOM     18  O   UNL A   1      34.572  32.328  28.825  1.00  0.00    -0.460 OA
BRANCH  18  19
ATOM     19  C   UNL A   1      34.597  31.171  28.128  1.00  0.00     0.338 C 
ATOM     20  O   UNL A   1      33.801  30.816  27.266  1.00  0.00    -0.246 OA
BRANCH  19  21
ATOM     21  C   UNL A   1      35.844  30.440  28.402  1.00  0.00     0.060 A 
ATOM     22  C   UNL A   1      35.887  29.642  29.551  1.00  0.00     0.016 A 
ATOM     23  C   UNL A   1      36.989  30.635  27.627  1.00  0.00     0.016 A 
ATOM     24  C   UNL A   1      37.096  29.089  29.969  1.00  0.00     0.010 A 
ATOM     25  C   UNL A   1      38.203  30.079  28.051  1.00  0.00     0.010 A 
ATOM     26  C   UNL A   1      38.272  29.343  29.248  1.00  0.00    -0.014 A 
BRANCH  26  27
ATOM     27  C   UNL A   1      39.580  28.971  29.845  1.00  0.00     0.031 A 
ATOM     28  C   UNL A   1      40.050  29.681  31.087  1.00  0.00     0.074 A 
ATOM     29  C   UNL A   1      40.320  27.974  29.323  1.00  0.00     0.049 A 
ATOM     30  N   UNL A   1      41.133  29.486  31.795  1.00  0.00    -0.248 NA
ATOM     31  C   UNL A   1      39.182  30.753  31.599  1.00  0.00     0.031 C 
ATOM     32  C   UNL A   1      39.966  27.193  28.140  1.00  0.00     0.029 A 
ATOM     33  N   UNL A   1      41.521  27.450  29.729  1.00  0.00    -0.354 N 
ATOM     34  C   UNL A   1      41.078  30.407  32.835  1.00  0.00     0.074 A 
ATOM     35  C   UNL A   1      39.871  31.183  32.646  1.00  0.00     0.031 C 
ATOM     36  C   UNL A   1      40.935  26.289  27.912  1.00  0.00     0.029 A 
ATOM     37  C   UNL A   1      41.983  26.441  28.920  1.00  0.00     0.049 A 
ATOM     38  H   UNL A   1      42.007  27.769  30.524  1.00  0.00     0.167 HD
ATOM     39  C   UNL A   1      41.946  30.584  33.860  1.00  0.00     0.037 A 
ATOM     40  C   UNL A   1      43.124  25.726  28.979  1.00  0.00     0.037 A 
ATOM     41  C   UNL A   1      43.146  29.814  34.050  1.00  0.00     0.049 A 
ATOM     42  C   UNL A   1      44.100  25.969  30.098  1.00  0.00     0.074 A 
ATOM     43  C   UNL A   1      44.072  29.900  35.077  1.00  0.00     0.029 A 
ATOM     44  N   UNL A   1      43.595  28.822  33.190  1.00  0.00    -0.354 N 
ATOM     45  N   UNL A   1      44.014  26.818  31.096  1.00  0.00    -0.248 NA
ATOM     46  C   UNL A   1      45.324  25.157  30.106  1.00  0.00     0.031 C 
ATOM     47  C   UNL A   1      45.102  28.989  34.814  1.00  0.00     0.029 A 
ATOM     48  C   UNL A   1      44.797  28.308  33.646  1.00  0.00     0.049 A 
ATOM     49  H   UNL A   1      43.128  28.528  32.376  1.00  0.00     0.167 HD
ATOM     50  C   UNL A   1      45.163  26.629  31.858  1.00  0.00     0.074 A 
ATOM     51  C   UNL A   1      45.923  25.579  31.211  1.00  0.00     0.031 C 
ATOM     52  C   UNL A   1      45.550  27.266  32.991  1.00  0.00     0.037 A 
BRANCH  39  53
ATOM     53  C   UNL A   1      41.633  31.678  34.843  1.00  0.00     0.058 A 
ATOM     54  C   UNL A   1      42.085  32.993  34.652  1.00  0.00     0.135 A 
ATOM     55  C   UNL A   1      40.866  31.407  35.988  1.00  0.00     0.135 A 
ATOM     56  F   UNL A   1      42.834  33.301  33.582  1.00  0.00    -0.206 F 
ATOM     57  C   UNL A   1      41.819  33.995  35.581  1.00  0.00     0.059 A 
ATOM     58  C   UNL A   1      40.569  32.398  36.918  1.00  0.00     0.059 A 
ATOM     59  F   UNL A   1      40.410  30.166  36.217  1.00  0.00    -0.206 F 
ATOM     60  C   UNL A   1      41.066  33.686  36.715  1.00  0.00     0.060 A 
BRANCH  60  61
ATOM     61  S   UNL A   1      40.748  34.986  37.926  1.00  0.00     0.124 S 
ATOM     62  O   UNL A   1      40.368  34.203  39.098  1.00  0.00    -0.237 OA
ATOM     63  O   UNL A   1      42.039  35.663  38.009  1.00  0.00    -0.237 OA
ATOM     64  O   UNL A   1      39.676  35.763  37.315  1.00  0.00    -0.744 OA
ENDBRANCH  60  61
ENDBRANCH  39  53
BRANCH  40  65
ATOM     65  C   UNL A   1      43.403  24.708  27.933  1.00  0.00     0.058 A 
ATOM     66  C   UNL A   1      44.182  25.014  26.809  1.00  0.00     0.135 A 
ATOM     67  C   UNL A   1      42.923  23.395  28.061  1.00  0.00     0.135 A 
ATOM     68  F   UNL A   1      44.652  26.260  26.637  1.00  0.00    -0.206 F 
ATOM     69  C   UNL A   1      44.481  24.055  25.848  1.00  0.00     0.059 A 
ATOM     70  C   UNL A   1      43.226  22.412  27.124  1.00  0.00     0.059 A 
ATOM     71  F   UNL A   1      42.180  23.052  29.124  1.00  0.00    -0.206 F 
ATOM     72  C   UNL A   1      44.005  22.753  26.020  1.00  0.00     0.060 A 
BRANCH  72  73
ATOM     73  S   UNL A   1      44.472  21.490  24.815  1.00  0.00     0.124 S 
ATOM     74  O   UNL A   1      43.498  20.442  25.094  1.00  0.00    -0.237 OA
ATOM     75  O   UNL A   1      44.304  22.197  23.549  1.00  0.00    -0.237 OA
ATOM     76  O   UNL A   1      45.853  21.182  25.172  1.00  0.00    -0.744 OA
ENDBRANCH  72  73
ENDBRANCH  40  65
BRANCH  52  77
ATOM     77  C   UNL A   1      46.849  26.841  33.618  1.00  0.00     0.058 A 
ATOM     78  C   UNL A   1      48.061  27.468  33.291  1.00  0.00     0.135 A 
ATOM     79  C   UNL A   1      46.873  25.833  34.596  1.00  0.00     0.135 A 
ATOM     80  F   UNL A   1      48.092  28.433  32.359  1.00  0.00    -0.206 F 
ATOM     81  C   UNL A   1      49.257  27.098  33.900  1.00  0.00     0.059 A 
ATOM     82  C   UNL A   1      48.054  25.462  35.232  1.00  0.00     0.059 A 
ATOM     83  F   UNL A   1      45.740  25.209  34.951  1.00  0.00    -0.206 F 
ATOM     84  C   UNL A   1      49.243  26.094  34.869  1.00  0.00     0.060 A 
BRANCH  84  85
ATOM     85  S   UNL A   1      50.795  25.645  35.678  1.00  0.00     0.124 S 
ATOM     86  O   UNL A   1      50.412  25.679  37.086  1.00  0.00    -0.237 OA
ATOM     87  O   UNL A   1      51.067  24.321  35.127  1.00  0.00    -0.237 OA
ATOM     88  O   UNL A   1      51.715  26.695  35.252  1.00  0.00    -0.744 OA
ENDBRANCH  84  85
ENDBRANCH  52  77
ENDBRANCH  26  27
ENDBRANCH  19  21
ENDBRANCH  18  19
ENDBRANCH  17  18
ENDBRANCH   1  17
TORSDOF 19
ENDMDL
MODEL 3
REMARK VINA RESULT:      -8.6      4.705     11.928
REMARK SMILES CC[C@@H]1CC[C@H]([C@@H](C)C(=O)OCCOCCOC(=O)c2ccc(-c3c4nc(c(-c5c(F)cc(S(=O)(=O)[O-])cc5F)c5ccc([nH]5)c(-c5c(F)cc(S(=O)(=O)[O-])cc5F)c5nc(c(-c6c(F)cc(S(=O)(=O)[O-])cc6F)c6ccc3[nH]6)C=C5)C=C4)cc2)C1
REMARK SMILES IDX 15 1 14 2 13 3 12 4 11 5 9 6 10 7 7 8 8 9 6 10 3 11 4 12
REMARK SMILES IDX 86 13 5 14 2 15 1 16 16 17 17 18 18 19 19 20 20 21 21 22
REMARK SMILES IDX 85 23 22 24 84 25 23 26 24 27 25 28 78 29 26 30 83 31 77 32
REMARK SMILES IDX 79 33 27 34 82 35 76 36 75 37 28 39 62 40 41 41 61 42 42 43
REMARK SMILES IDX 45 44 60 45 80 46 43 47 44 48 59 50 81 51 46 52 29 53 30 54
REMARK SMILES IDX 39 55 31 56 32 57 38 58 40 59 33 60 34 61 35 62 36 63 37 64
REMARK SMILES IDX 63 65 64 66 73 67 65 68 66 69 72 70 74 71 67 72 68 73 69 74
REMARK SMILES IDX 70 75 71 76 47 77 48 78 57 79 49 80 50 81 56 82 58 83 51 84
REMARK SMILES IDX 52 85 53 86 54 87 55 88
REMARK H PARENT 79 38 45 49
REMARK Flexibility Score: inf
ROOT
ATOM      1  C   UNL A   1      42.327  22.566  26.255  1.00  0.00     0.202 C 
ENDROOT
BRANCH   1   2
ATOM      2  O   UNL A   1      41.747  21.361  25.754  1.00  0.00    -0.374 OA
BRANCH   2   3
ATOM      3  C   UNL A   1      40.548  20.912  26.380  1.00  0.00     0.202 C 
BRANCH   3   4
ATOM      4  C   UNL A   1      39.345  21.861  26.323  1.00  0.00     0.261 C 
BRANCH   4   5
ATOM      5  O   UNL A   1      38.581  21.804  25.103  1.00  0.00    -0.463 OA
BRANCH   5   6
ATOM      6  C   UNL A   1      37.498  20.981  25.144  1.00  0.00     0.309 C 
ATOM      7  O   UNL A   1      37.514  19.789  24.860  1.00  0.00    -0.252 OA
BRANCH   6   8
ATOM      8  C   UNL A   1      36.200  21.708  25.456  1.00  0.00     0.099 C 
ATOM      9  C   UNL A   1      35.068  20.826  24.915  1.00  0.00     0.020 C 
BRANCH   8  10
ATOM     10  C   UNL A   1      36.074  23.169  24.976  1.00  0.00     0.003 C 
ATOM     11  C   UNL A   1      34.557  25.049  24.732  1.00  0.00    -0.011 C 
ATOM     12  C   UNL A   1      34.404  24.199  23.479  1.00  0.00     0.004 C 
ATOM     13  C   UNL A   1      35.059  24.025  25.754  1.00  0.00     0.008 C 
ATOM     14  C   UNL A   1      35.601  23.256  23.506  1.00  0.00     0.005 C 
BRANCH  11  15
ATOM     15  C   UNL A   1      33.250  25.756  25.098  1.00  0.00     0.000 C 
ATOM     16  C   UNL A   1      33.426  26.840  26.148  1.00  0.00     0.004 C 
ENDBRANCH  11  15
ENDBRANCH   8  10
ENDBRANCH   6   8
ENDBRANCH   5   6
ENDBRANCH   4   5
ENDBRANCH   3   4
ENDBRANCH   2   3
ENDBRANCH   1   2
BRANCH   1  17
ATOM     17  C   UNL A   1      42.895  23.506  25.189  1.00  0.00     0.261 C 
BRANCH  17  18
ATOM     18  O   UNL A   1      43.285  24.765  25.768  1.00  0.00    -0.460 OA
BRANCH  18  19
ATOM     19  C   UNL A   1      42.276  25.659  25.851  1.00  0.00     0.338 C 
ATOM     20  O   UNL A   1      41.393  25.848  25.022  1.00  0.00    -0.246 OA
BRANCH  19  21
ATOM     21  C   UNL A   1      42.251  26.275  27.186  1.00  0.00     0.060 A 
ATOM     22  C   UNL A   1      41.203  25.919  28.043  1.00  0.00     0.016 A 
ATOM     23  C   UNL A   1      43.154  27.278  27.545  1.00  0.00     0.016 A 
ATOM     24  C   UNL A   1      41.013  26.614  29.236  1.00  0.00     0.010 A 
ATOM     25  C   UNL A   1      42.959  27.976  28.744  1.00  0.00     0.010 A 
ATOM     26  C   UNL A   1      41.861  27.679  29.572  1.00  0.00    -0.014 A 
BRANCH  26  27
ATOM     27  C   UNL A   1      41.491  28.569  30.702  1.00  0.00     0.031 A 
ATOM     28  C   UNL A   1      42.290  28.510  31.977  1.00  0.00     0.074 A 
ATOM     29  C   UNL A   1      40.490  29.461  30.580  1.00  0.00     0.049 A 
ATOM     30  N   UNL A   1      42.168  29.224  33.066  1.00  0.00    -0.248 NA
ATOM     31  C   UNL A   1      43.372  27.514  32.028  1.00  0.00     0.031 C 
ATOM     32  C   UNL A   1      39.657  29.635  29.392  1.00  0.00     0.029 A 
ATOM     33  N   UNL A   1      40.011  30.389  31.470  1.00  0.00    -0.354 N 
ATOM     34  C   UNL A   1      43.155  28.767  33.932  1.00  0.00     0.074 A 
ATOM     35  C   UNL A   1      43.845  27.691  33.253  1.00  0.00     0.031 C 
ATOM     36  C   UNL A   1      38.762  30.611  29.629  1.00  0.00     0.029 A 
ATOM     37  C   UNL A   1      38.949  31.116  30.989  1.00  0.00     0.049 A 
ATOM     38  H   UNL A   1      40.391  30.521  32.368  1.00  0.00     0.167 HD
ATOM     39  C   UNL A   1      43.467  29.208  35.175  1.00  0.00     0.037 A 
ATOM     40  C   UNL A   1      38.204  32.072  31.579  1.00  0.00     0.037 A 
ATOM     41  C   UNL A   1      42.783  30.278  35.852  1.00  0.00     0.049 A 
ATOM     42  C   UNL A   1      38.535  32.517  32.979  1.00  0.00     0.074 A 
ATOM     43  C   UNL A   1      43.047  30.816  37.100  1.00  0.00     0.029 A 
ATOM     44  N   UNL A   1      41.690  30.966  35.344  1.00  0.00    -0.354 N 
ATOM     45  N   UNL A   1      39.497  32.101  33.769  1.00  0.00    -0.248 NA
ATOM     46  C   UNL A   1      37.687  33.563  33.565  1.00  0.00     0.031 C 
ATOM     47  C   UNL A   1      42.088  31.801  37.364  1.00  0.00     0.029 A 
ATOM     48  C   UNL A   1      41.251  31.905  36.263  1.00  0.00     0.049 A 
ATOM     49  H   UNL A   1      41.287  30.810  34.460  1.00  0.00     0.167 HD
ATOM     50  C   UNL A   1      39.378  32.846  34.939  1.00  0.00     0.074 A 
ATOM     51  C   UNL A   1      38.259  33.745  34.748  1.00  0.00     0.031 C 
ATOM     52  C   UNL A   1      40.131  32.791  36.066  1.00  0.00     0.037 A 
BRANCH  39  53
ATOM     53  C   UNL A   1      44.589  28.509  35.891  1.00  0.00     0.058 A 
ATOM     54  C   UNL A   1      44.352  27.430  36.758  1.00  0.00     0.135 A 
ATOM     55  C   UNL A   1      45.918  28.920  35.702  1.00  0.00     0.135 A 
ATOM     56  F   UNL A   1      43.098  27.008  36.984  1.00  0.00    -0.206 F 
ATOM     57  C   UNL A   1      45.391  26.806  37.442  1.00  0.00     0.059 A 
ATOM     58  C   UNL A   1      46.974  28.296  36.359  1.00  0.00     0.059 A 
ATOM     59  F   UNL A   1      46.198  29.946  34.884  1.00  0.00    -0.206 F 
ATOM     60  C   UNL A   1      46.699  27.252  37.241  1.00  0.00     0.060 A 
BRANCH  60  61
ATOM     61  S   UNL A   1      48.037  26.453  38.152  1.00  0.00     0.124 S 
ATOM     62  O   UNL A   1      47.832  25.053  37.799  1.00  0.00    -0.237 OA
ATOM     63  O   UNL A   1      49.225  27.082  37.584  1.00  0.00    -0.237 OA
ATOM     64  O   UNL A   1      47.754  26.798  39.541  1.00  0.00    -0.744 OA
ENDBRANCH  60  61
ENDBRANCH  39  53
BRANCH  40  65
ATOM     65  C   UNL A   1      37.065  32.672  30.838  1.00  0.00     0.058 A 
ATOM     66  C   UNL A   1      35.744  32.275  31.090  1.00  0.00     0.135 A 
ATOM     67  C   UNL A   1      37.276  33.684  29.889  1.00  0.00     0.135 A 
ATOM     68  F   UNL A   1      35.494  31.302  31.980  1.00  0.00    -0.206 F 
ATOM     69  C   UNL A   1      34.671  32.863  30.430  1.00  0.00     0.059 A 
ATOM     70  C   UNL A   1      36.218  34.301  29.231  1.00  0.00     0.059 A 
ATOM     71  F   UNL A   1      38.523  34.103  29.620  1.00  0.00    -0.206 F 
ATOM     72  C   UNL A   1      34.918  33.882  29.508  1.00  0.00     0.060 A 
BRANCH  72  73
ATOM     73  S   UNL A   1      33.513  34.702  28.720  1.00  0.00     0.124 S 
ATOM     74  O   UNL A   1      32.664  34.999  29.867  1.00  0.00    -0.237 OA
ATOM     75  O   UNL A   1      34.148  35.851  28.080  1.00  0.00    -0.237 OA
ATOM     76  O   UNL A   1      33.006  33.686  27.803  1.00  0.00    -0.744 OA
ENDBRANCH  72  73
ENDBRANCH  40  65
BRANCH  52  77
ATOM     77  C   UNL A   1      39.782  33.738  37.181  1.00  0.00     0.058 A 
ATOM     78  C   UNL A   1      38.891  33.371  38.202  1.00  0.00     0.135 A 
ATOM     79  C   UNL A   1      40.386  35.003  37.259  1.00  0.00     0.135 A 
ATOM     80  F   UNL A   1      38.284  32.175  38.171  1.00  0.00    -0.206 F 
ATOM     81  C   UNL A   1      38.598  34.235  39.254  1.00  0.00     0.059 A 
ATOM     82  C   UNL A   1      40.123  35.873  38.313  1.00  0.00     0.059 A 
ATOM     83  F   UNL A   1      41.252  35.397  36.313  1.00  0.00    -0.206 F 
ATOM     84  C   UNL A   1      39.219  35.483  39.300  1.00  0.00     0.060 A 
BRANCH  84  85
ATOM     85  S   UNL A   1      38.858  36.583  40.688  1.00  0.00     0.124 S 
ATOM     86  O   UNL A   1      40.179  36.744  41.285  1.00  0.00    -0.237 OA
ATOM     87  O   UNL A   1      38.316  37.763  40.022  1.00  0.00    -0.237 OA
ATOM     88  O   UNL A   1      37.897  35.823  41.481  1.00  0.00    -0.744 OA
ENDBRANCH  84  85
ENDBRANCH  52  77
ENDBRANCH  26  27
ENDBRANCH  19  21
ENDBRANCH  18  19
ENDBRANCH  17  18
ENDBRANCH   1  17
TORSDOF 19
ENDMDL
