MODEL 1
REMARK VINA RESULT:     -10.1      0.000      0.000
REMARK SMILES Cc1cc(C)c2c(OCCCC(=O)OCCOCCOC(=O)c3ccc(-c4c5nc(c(-c6c(F)cc(S(=O)(=O)[O-])cc6F)c6ccc([nH]6)c(-c6c(F)cc(S(=O)(=O)[O-])cc6F)c6nc(c(-c7c(F)cc(S(=O)(=O)[O-])cc7F)c7ccc4[nH]7)C=C6)C=C5)cc3)nsc2n1
REMARK SMILES IDX 16 1 15 2 14 3 12 4 13 5 11 6 10 7 9 8 8 9 7 10 1 11 2 12
REMARK SMILES IDX 3 13 92 14 4 15 91 16 5 17 6 18 90 19 89 20 17 21 18 22
REMARK SMILES IDX 19 23 20 24 21 25 22 26 23 27 24 28 88 29 25 30 87 31 26 32
REMARK SMILES IDX 27 33 28 34 81 35 29 36 86 37 80 38 82 39 30 40 85 41 79 42
REMARK SMILES IDX 78 43 31 45 65 46 44 47 64 48 45 49 48 50 63 51 83 52 46 53
REMARK SMILES IDX 47 54 62 56 84 57 49 58 32 59 33 60 42 61 34 62 35 63 41 64
REMARK SMILES IDX 43 65 36 66 37 67 38 68 39 69 40 70 66 71 67 72 76 73 68 74
REMARK SMILES IDX 69 75 75 76 77 77 70 78 71 79 72 80 73 81 74 82 50 83 51 84
REMARK SMILES IDX 60 85 52 86 53 87 59 88 61 89 54 90 55 91 56 92 57 93 58 94
REMARK H PARENT 82 44 48 55
REMARK Flexibility Score: inf
ROOT
ATOM      1  C   UNL A   1      43.007  18.758  25.729  1.00  0.00     0.202 C 
ENDROOT
BRANCH   1   2
ATOM      2  C   UNL A   1      44.336  18.870  24.993  1.00  0.00     0.261 C 
BRANCH   2   3
ATOM      3  O   UNL A   1      44.580  20.175  24.394  1.00  0.00    -0.463 OA
BRANCH   3   4
ATOM      4  C   UNL A   1      45.881  20.566  24.417  1.00  0.00     0.305 C 
ATOM      5  O   UNL A   1      46.822  19.774  24.394  1.00  0.00    -0.252 OA
BRANCH   4   6
ATOM      6  C   UNL A   1      46.150  22.055  24.583  1.00  0.00     0.126 C 
BRANCH   6   7
ATOM      7  C   UNL A   1      45.193  23.142  24.096  1.00  0.00     0.053 C 
BRANCH   7   8
ATOM      8  C   UNL A   1      43.844  23.401  24.795  1.00  0.00     0.232 C 
BRANCH   8   9
ATOM      9  O   UNL A   1      43.477  24.717  25.186  1.00  0.00    -0.477 OA
BRANCH   9  10
ATOM     10  C   UNL A   1      44.436  25.565  25.623  1.00  0.00     0.235 A 
ATOM     11  C   UNL A   1      49.611  25.045  27.453  1.00  0.00     0.067 C 
ATOM     12  C   UNL A   1      48.141  25.327  27.343  1.00  0.00     0.039 A 
ATOM     13  C   UNL A   1      47.233  24.477  27.962  1.00  0.00     0.027 A 
ATOM     14  N   UNL A   1      47.772  26.366  26.579  1.00  0.00    -0.240 NA
ATOM     15  C   UNL A   1      45.871  24.488  27.605  1.00  0.00    -0.034 A 
ATOM     16  C   UNL A   1      46.470  26.355  26.243  1.00  0.00     0.147 A 
ATOM     17  C   UNL A   1      44.957  23.510  28.293  1.00  0.00     0.045 C 
ATOM     18  C   UNL A   1      45.509  25.397  26.577  1.00  0.00     0.078 A 
ATOM     19  S   UNL A   1      45.778  27.555  25.256  1.00  0.00    -0.012 S 
ATOM     20  N   UNL A   1      44.373  26.728  24.974  1.00  0.00    -0.153 NA
ENDBRANCH   9  10
ENDBRANCH   8   9
ENDBRANCH   7   8
ENDBRANCH   6   7
ENDBRANCH   4   6
ENDBRANCH   3   4
ENDBRANCH   2   3
ENDBRANCH   1   2
BRANCH   1  21
ATOM     21  O   UNL A   1      42.484  19.979  26.245  1.00  0.00    -0.374 OA
BRANCH  21  22
ATOM     22  C   UNL A   1      41.099  20.031  26.563  1.00  0.00     0.202 C 
BRANCH  22  23
ATOM     23  C   UNL A   1      40.589  21.319  27.197  1.00  0.00     0.261 C 
BRANCH  23  24
ATOM     24  O   UNL A   1      40.301  22.343  26.252  1.00  0.00    -0.460 OA
BRANCH  24  25
ATOM     25  C   UNL A   1      39.719  23.430  26.820  1.00  0.00     0.338 C 
ATOM     26  O   UNL A   1      38.543  23.568  27.098  1.00  0.00    -0.246 OA
BRANCH  25  27
ATOM     27  C   UNL A   1      40.697  24.524  26.892  1.00  0.00     0.060 A 
ATOM     28  C   UNL A   1      41.383  24.598  28.104  1.00  0.00     0.016 A 
ATOM     29  C   UNL A   1      40.573  25.625  26.032  1.00  0.00     0.016 A 
ATOM     30  C   UNL A   1      41.642  25.848  28.605  1.00  0.00     0.010 A 
ATOM     31  C   UNL A   1      40.849  26.877  26.531  1.00  0.00     0.010 A 
ATOM     32  C   UNL A   1      41.255  26.969  27.857  1.00  0.00    -0.014 A 
BRANCH  32  33
ATOM     33  C   UNL A   1      41.214  28.221  28.578  1.00  0.00     0.031 A 
ATOM     34  C   UNL A   1      42.334  29.129  28.274  1.00  0.00     0.074 A 
ATOM     35  C   UNL A   1      40.270  28.512  29.490  1.00  0.00     0.049 A 
ATOM     36  N   UNL A   1      43.337  29.432  29.027  1.00  0.00    -0.248 NA
ATOM     37  C   UNL A   1      42.420  29.631  26.900  1.00  0.00     0.031 C 
ATOM     38  C   UNL A   1      38.986  27.855  29.742  1.00  0.00     0.029 A 
ATOM     39  N   UNL A   1      40.265  29.552  30.363  1.00  0.00    -0.354 N 
ATOM     40  C   UNL A   1      44.103  30.320  28.284  1.00  0.00     0.074 A 
ATOM     41  C   UNL A   1      43.580  30.285  26.942  1.00  0.00     0.031 C 
ATOM     42  C   UNL A   1      38.241  28.643  30.553  1.00  0.00     0.029 A 
ATOM     43  C   UNL A   1      39.048  29.774  30.983  1.00  0.00     0.049 A 
ATOM     44  H   UNL A   1      41.061  30.104  30.539  1.00  0.00     0.167 HD
ATOM     45  C   UNL A   1      44.991  31.166  28.870  1.00  0.00     0.037 A 
ATOM     46  C   UNL A   1      38.726  30.859  31.727  1.00  0.00     0.037 A 
ATOM     47  C   UNL A   1      45.349  30.734  30.196  1.00  0.00     0.049 A 
ATOM     48  C   UNL A   1      40.001  31.462  32.207  1.00  0.00     0.074 A 
ATOM     49  C   UNL A   1      45.967  29.610  30.711  1.00  0.00     0.029 A 
ATOM     50  N   UNL A   1      44.756  31.354  31.272  1.00  0.00    -0.354 N 
ATOM     51  N   UNL A   1      40.798  30.891  33.071  1.00  0.00    -0.248 NA
ATOM     52  C   UNL A   1      40.616  32.504  31.396  1.00  0.00     0.031 C 
ATOM     53  C   UNL A   1      45.321  29.364  31.958  1.00  0.00     0.029 A 
ATOM     54  C   UNL A   1      44.367  30.365  32.142  1.00  0.00     0.049 A 
ATOM     55  H   UNL A   1      44.633  32.323  31.394  1.00  0.00     0.167 HD
ATOM     56  C   UNL A   1      42.081  31.208  32.647  1.00  0.00     0.074 A 
ATOM     57  C   UNL A   1      41.904  32.277  31.668  1.00  0.00     0.031 C 
ATOM     58  C   UNL A   1      43.148  30.399  32.924  1.00  0.00     0.037 A 
BRANCH  45  59
ATOM     59  C   UNL A   1      45.294  32.542  28.339  1.00  0.00     0.058 A 
ATOM     60  C   UNL A   1      46.621  32.896  28.029  1.00  0.00     0.135 A 
ATOM     61  C   UNL A   1      44.367  33.610  28.373  1.00  0.00     0.135 A 
ATOM     62  F   UNL A   1      47.584  31.962  27.978  1.00  0.00    -0.206 F 
ATOM     63  C   UNL A   1      47.010  34.223  27.841  1.00  0.00     0.059 A 
ATOM     64  C   UNL A   1      44.722  34.928  28.127  1.00  0.00     0.059 A 
ATOM     65  F   UNL A   1      43.093  33.442  28.749  1.00  0.00    -0.206 F 
ATOM     66  C   UNL A   1      46.055  35.232  27.914  1.00  0.00     0.060 A 
BRANCH  66  67
ATOM     67  S   UNL A   1      46.574  36.954  27.834  1.00  0.00     0.124 S 
ATOM     68  O   UNL A   1      47.997  36.810  27.549  1.00  0.00    -0.237 OA
ATOM     69  O   UNL A   1      45.750  37.470  26.746  1.00  0.00    -0.237 OA
ATOM     70  O   UNL A   1      46.245  37.465  29.161  1.00  0.00    -0.744 OA
ENDBRANCH  66  67
ENDBRANCH  45  59
BRANCH  46  71
ATOM     71  C   UNL A   1      37.428  31.578  31.734  1.00  0.00     0.058 A 
ATOM     72  C   UNL A   1      36.733  31.824  32.929  1.00  0.00     0.135 A 
ATOM     73  C   UNL A   1      36.967  32.267  30.592  1.00  0.00     0.135 A 
ATOM     74  F   UNL A   1      37.125  31.237  34.070  1.00  0.00    -0.206 F 
ATOM     75  C   UNL A   1      35.664  32.723  32.996  1.00  0.00     0.059 A 
ATOM     76  C   UNL A   1      35.898  33.158  30.631  1.00  0.00     0.059 A 
ATOM     77  F   UNL A   1      37.604  32.165  29.415  1.00  0.00    -0.206 F 
ATOM     78  C   UNL A   1      35.264  33.399  31.842  1.00  0.00     0.060 A 
BRANCH  78  79
ATOM     79  S   UNL A   1      33.983  34.669  31.951  1.00  0.00     0.124 S 
ATOM     80  O   UNL A   1      34.729  35.804  32.485  1.00  0.00    -0.237 OA
ATOM     81  O   UNL A   1      33.549  34.786  30.564  1.00  0.00    -0.237 OA
ATOM     82  O   UNL A   1      33.002  34.085  32.862  1.00  0.00    -0.744 OA
ENDBRANCH  78  79
ENDBRANCH  46  71
BRANCH  58  83
ATOM     83  C   UNL A   1      42.952  29.284  33.920  1.00  0.00     0.058 A 
ATOM     84  C   UNL A   1      43.147  29.434  35.305  1.00  0.00     0.135 A 
ATOM     85  C   UNL A   1      42.387  28.075  33.484  1.00  0.00     0.135 A 
ATOM     86  F   UNL A   1      43.581  30.596  35.816  1.00  0.00    -0.206 F 
ATOM     87  C   UNL A   1      42.830  28.420  36.210  1.00  0.00     0.059 A 
ATOM     88  C   UNL A   1      42.035  27.060  34.372  1.00  0.00     0.059 A 
ATOM     89  F   UNL A   1      42.113  27.893  32.181  1.00  0.00    -0.206 F 
ATOM     90  C   UNL A   1      42.269  27.235  35.734  1.00  0.00     0.060 A 
BRANCH  90  91
ATOM     91  S   UNL A   1      41.767  25.967  36.919  1.00  0.00     0.124 S 
ATOM     92  O   UNL A   1      40.646  26.606  37.599  1.00  0.00    -0.237 OA
ATOM     93  O   UNL A   1      41.426  24.841  36.054  1.00  0.00    -0.237 OA
ATOM     94  O   UNL A   1      42.963  25.770  37.736  1.00  0.00    -0.744 OA
ENDBRANCH  90  91
ENDBRANCH  58  83
ENDBRANCH  32  33
ENDBRANCH  25  27
ENDBRANCH  24  25
ENDBRANCH  23  24
ENDBRANCH  22  23
ENDBRANCH  21  22
ENDBRANCH   1  21
TORSDOF 21
ENDMDL
MODEL 2
REMARK VINA RESULT:      -9.9      4.026      6.403
REMARK SMILES Cc1cc(C)c2c(OCCCC(=O)OCCOCCOC(=O)c3ccc(-c4c5nc(c(-c6c(F)cc(S(=O)(=O)[O-])cc6F)c6ccc([nH]6)c(-c6c(F)cc(S(=O)(=O)[O-])cc6F)c6nc(c(-c7c(F)cc(S(=O)(=O)[O-])cc7F)c7ccc4[nH]7)C=C6)C=C5)cc3)nsc2n1
REMARK SMILES IDX 16 1 15 2 14 3 12 4 13 5 11 6 10 7 9 8 8 9 7 10 1 11 2 12
REMARK SMILES IDX 3 13 92 14 4 15 91 16 5 17 6 18 90 19 89 20 17 21 18 22
REMARK SMILES IDX 19 23 20 24 21 25 22 26 23 27 24 28 88 29 25 30 87 31 26 32
REMARK SMILES IDX 27 33 28 34 81 35 29 36 86 37 80 38 82 39 30 40 85 41 79 42
REMARK SMILES IDX 78 43 31 45 65 46 44 47 64 48 45 49 48 50 63 51 83 52 46 53
REMARK SMILES IDX 47 54 62 56 84 57 49 58 32 59 33 60 42 61 34 62 35 63 41 64
REMARK SMILES IDX 43 65 36 66 37 67 38 68 39 69 40 70 66 71 67 72 76 73 68 74
REMARK SMILES IDX 69 75 75 76 77 77 70 78 71 79 72 80 73 81 74 82 50 83 51 84
REMARK SMILES IDX 60 85 52 86 53 87 59 88 61 89 54 90 55 91 56 92 57 93 58 94
REMARK H PARENT 82 44 48 55
REMARK Flexibility Score: inf
ROOT
ATOM      1  C   UNL A   1      39.683  21.884  26.665  1.00  0.00     0.202 C 
ENDROOT
BRANCH   1   2
ATOM      2  C   UNL A   1      38.528  22.471  25.864  1.00  0.00     0.261 C 
BRANCH   2   3
ATOM      3  O   UNL A   1      38.007  21.588  24.830  1.00  0.00    -0.463 OA
BRANCH   3   4
ATOM      4  C   UNL A   1      36.764  21.914  24.390  1.00  0.00     0.305 C 
ATOM      5  O   UNL A   1      36.563  22.589  23.382  1.00  0.00    -0.252 OA
BRANCH   4   6
ATOM      6  C   UNL A   1      35.591  21.496  25.265  1.00  0.00     0.126 C 
BRANCH   6   7
ATOM      7  C   UNL A   1      34.598  22.487  25.872  1.00  0.00     0.053 C 
BRANCH   7   8
ATOM      8  C   UNL A   1      33.527  23.184  25.012  1.00  0.00     0.232 C 
BRANCH   8   9
ATOM      9  O   UNL A   1      33.780  24.461  24.443  1.00  0.00    -0.477 OA
BRANCH   9  10
ATOM     10  C   UNL A   1      32.970  24.917  23.461  1.00  0.00     0.235 A 
ATOM     11  C   UNL A   1      29.212  28.926  23.007  1.00  0.00     0.067 C 
ATOM     12  C   UNL A   1      29.901  27.594  23.061  1.00  0.00     0.039 A 
ATOM     13  C   UNL A   1      29.727  26.777  24.171  1.00  0.00     0.027 A 
ATOM     14  N   UNL A   1      30.721  27.288  22.044  1.00  0.00    -0.240 NA
ATOM     15  C   UNL A   1      30.605  25.707  24.428  1.00  0.00    -0.034 A 
ATOM     16  C   UNL A   1      31.557  26.269  22.311  1.00  0.00     0.147 A 
ATOM     17  C   UNL A   1      30.374  24.891  25.671  1.00  0.00     0.045 C 
ATOM     18  C   UNL A   1      31.667  25.543  23.500  1.00  0.00     0.078 A 
ATOM     19  S   UNL A   1      32.708  25.721  21.186  1.00  0.00    -0.012 S 
ATOM     20  N   UNL A   1      33.557  24.805  22.270  1.00  0.00    -0.153 NA
ENDBRANCH   9  10
ENDBRANCH   8   9
ENDBRANCH   7   8
ENDBRANCH   6   7
ENDBRANCH   4   6
ENDBRANCH   3   4
ENDBRANCH   2   3
ENDBRANCH   1   2
BRANCH   1  21
ATOM     21  O   UNL A   1      40.597  21.078  25.927  1.00  0.00    -0.374 OA
BRANCH  21  22
ATOM     22  C   UNL A   1      41.919  20.932  26.434  1.00  0.00     0.202 C 
BRANCH  22  23
ATOM     23  C   UNL A   1      43.002  21.778  25.776  1.00  0.00     0.261 C 
BRANCH  23  24
ATOM     24  O   UNL A   1      43.287  22.982  26.478  1.00  0.00    -0.460 OA
BRANCH  24  25
ATOM     25  C   UNL A   1      42.932  24.090  25.779  1.00  0.00     0.338 C 
ATOM     26  O   UNL A   1      43.519  24.576  24.830  1.00  0.00    -0.246 OA
BRANCH  25  27
ATOM     27  C   UNL A   1      41.807  24.752  26.454  1.00  0.00     0.060 A 
ATOM     28  C   UNL A   1      41.226  25.785  25.718  1.00  0.00     0.016 A 
ATOM     29  C   UNL A   1      41.683  24.664  27.848  1.00  0.00     0.016 A 
ATOM     30  C   UNL A   1      40.822  26.899  26.408  1.00  0.00     0.010 A 
ATOM     31  C   UNL A   1      41.262  25.778  28.538  1.00  0.00     0.010 A 
ATOM     32  C   UNL A   1      40.965  26.919  27.802  1.00  0.00    -0.014 A 
BRANCH  32  33
ATOM     33  C   UNL A   1      40.874  28.220  28.424  1.00  0.00     0.031 A 
ATOM     34  C   UNL A   1      42.032  29.095  28.167  1.00  0.00     0.074 A 
ATOM     35  C   UNL A   1      39.852  28.584  29.218  1.00  0.00     0.049 A 
ATOM     36  N   UNL A   1      42.962  29.444  28.989  1.00  0.00    -0.248 NA
ATOM     37  C   UNL A   1      42.257  29.495  26.775  1.00  0.00     0.031 C 
ATOM     38  C   UNL A   1      38.540  27.957  29.391  1.00  0.00     0.029 A 
ATOM     39  N   UNL A   1      39.778  29.685  30.009  1.00  0.00    -0.354 N 
ATOM     40  C   UNL A   1      43.809  30.269  28.262  1.00  0.00     0.074 A 
ATOM     41  C   UNL A   1      43.417  30.141  26.881  1.00  0.00     0.031 C 
ATOM     42  C   UNL A   1      37.732  28.808  30.068  1.00  0.00     0.029 A 
ATOM     43  C   UNL A   1      38.512  29.960  30.492  1.00  0.00     0.049 A 
ATOM     44  H   UNL A   1      40.562  30.241  30.222  1.00  0.00     0.167 HD
ATOM     45  C   UNL A   1      44.650  31.148  28.869  1.00  0.00     0.037 A 
ATOM     46  C   UNL A   1      38.136  31.099  31.122  1.00  0.00     0.037 A 
ATOM     47  C   UNL A   1      44.872  30.811  30.251  1.00  0.00     0.049 A 
ATOM     48  C   UNL A   1      39.367  31.725  31.679  1.00  0.00     0.074 A 
ATOM     49  C   UNL A   1      45.421  29.722  30.902  1.00  0.00     0.029 A 
ATOM     50  N   UNL A   1      44.188  31.511  31.217  1.00  0.00    -0.354 N 
ATOM     51  N   UNL A   1      40.070  31.212  32.654  1.00  0.00    -0.248 NA
ATOM     52  C   UNL A   1      40.073  32.701  30.858  1.00  0.00     0.031 C 
ATOM     53  C   UNL A   1      44.655  29.571  32.095  1.00  0.00     0.029 A 
ATOM     54  C   UNL A   1      43.703  30.591  32.115  1.00  0.00     0.049 A 
ATOM     55  H   UNL A   1      44.068  32.487  31.258  1.00  0.00     0.167 HD
ATOM     56  C   UNL A   1      41.392  31.487  32.335  1.00  0.00     0.074 A 
ATOM     57  C   UNL A   1      41.326  32.483  31.270  1.00  0.00     0.031 C 
ATOM     58  C   UNL A   1      42.416  30.692  32.771  1.00  0.00     0.037 A 
BRANCH  45  59
ATOM     59  C   UNL A   1      45.022  32.480  28.273  1.00  0.00     0.058 A 
ATOM     60  C   UNL A   1      46.359  32.736  27.913  1.00  0.00     0.135 A 
ATOM     61  C   UNL A   1      44.166  33.605  28.287  1.00  0.00     0.135 A 
ATOM     62  F   UNL A   1      47.260  31.740  27.875  1.00  0.00    -0.206 F 
ATOM     63  C   UNL A   1      46.826  34.026  27.659  1.00  0.00     0.059 A 
ATOM     64  C   UNL A   1      44.595  34.887  27.977  1.00  0.00     0.059 A 
ATOM     65  F   UNL A   1      42.895  33.534  28.704  1.00  0.00    -0.206 F 
ATOM     66  C   UNL A   1      45.938  35.096  27.716  1.00  0.00     0.060 A 
BRANCH  66  67
ATOM     67  S   UNL A   1      46.562  36.777  27.550  1.00  0.00     0.124 S 
ATOM     68  O   UNL A   1      45.357  37.556  27.813  1.00  0.00    -0.237 OA
ATOM     69  O   UNL A   1      47.594  36.821  28.579  1.00  0.00    -0.237 OA
ATOM     70  O   UNL A   1      47.051  36.818  26.175  1.00  0.00    -0.744 OA
ENDBRANCH  66  67
ENDBRANCH  45  59
BRANCH  46  71
ATOM     71  C   UNL A   1      36.854  31.827  30.952  1.00  0.00     0.058 A 
ATOM     72  C   UNL A   1      36.055  32.171  32.054  1.00  0.00     0.135 A 
ATOM     73  C   UNL A   1      36.512  32.430  29.723  1.00  0.00     0.135 A 
ATOM     74  F   UNL A   1      36.330  31.671  33.269  1.00  0.00    -0.206 F 
ATOM     75  C   UNL A   1      34.998  33.081  31.952  1.00  0.00     0.059 A 
ATOM     76  C   UNL A   1      35.458  33.330  29.593  1.00  0.00     0.059 A 
ATOM     77  F   UNL A   1      37.254  32.231  28.622  1.00  0.00    -0.206 F 
ATOM     78  C   UNL A   1      34.718  33.668  30.717  1.00  0.00     0.060 A 
BRANCH  78  79
ATOM     79  S   UNL A   1      33.452  34.954  30.609  1.00  0.00     0.124 S 
ATOM     80  O   UNL A   1      34.255  36.147  30.359  1.00  0.00    -0.237 OA
ATOM     81  O   UNL A   1      32.637  34.487  29.493  1.00  0.00    -0.237 OA
ATOM     82  O   UNL A   1      32.802  34.903  31.916  1.00  0.00    -0.744 OA
ENDBRANCH  78  79
ENDBRANCH  46  71
BRANCH  58  83
ATOM     83  C   UNL A   1      42.108  29.653  33.820  1.00  0.00     0.058 A 
ATOM     84  C   UNL A   1      41.597  28.376  33.525  1.00  0.00     0.135 A 
ATOM     85  C   UNL A   1      42.501  29.891  35.147  1.00  0.00     0.135 A 
ATOM     86  F   UNL A   1      41.299  28.031  32.264  1.00  0.00    -0.206 F 
ATOM     87  C   UNL A   1      41.449  27.395  34.507  1.00  0.00     0.059 A 
ATOM     88  C   UNL A   1      42.390  28.917  36.137  1.00  0.00     0.059 A 
ATOM     89  F   UNL A   1      43.059  31.067  35.482  1.00  0.00    -0.206 F 
ATOM     90  C   UNL A   1      41.853  27.672  35.812  1.00  0.00     0.060 A 
BRANCH  90  91
ATOM     91  S   UNL A   1      41.753  26.366  37.055  1.00  0.00     0.124 S 
ATOM     92  O   UNL A   1      40.453  26.621  37.666  1.00  0.00    -0.237 OA
ATOM     93  O   UNL A   1      41.847  25.152  36.249  1.00  0.00    -0.237 OA
ATOM     94  O   UNL A   1      42.908  26.621  37.913  1.00  0.00    -0.744 OA
ENDBRANCH  90  91
ENDBRANCH  58  83
ENDBRANCH  32  33
ENDBRANCH  25  27
ENDBRANCH  24  25
ENDBRANCH  23  24
ENDBRANCH  22  23
ENDBRANCH  21  22
ENDBRANCH   1  21
TORSDOF 21
ENDMDL
MODEL 3
REMARK VINA RESULT:      -9.8      3.958     11.330
REMARK SMILES Cc1cc(C)c2c(OCCCC(=O)OCCOCCOC(=O)c3ccc(-c4c5nc(c(-c6c(F)cc(S(=O)(=O)[O-])cc6F)c6ccc([nH]6)c(-c6c(F)cc(S(=O)(=O)[O-])cc6F)c6nc(c(-c7c(F)cc(S(=O)(=O)[O-])cc7F)c7ccc4[nH]7)C=C6)C=C5)cc3)nsc2n1
REMARK SMILES IDX 16 1 15 2 14 3 12 4 13 5 11 6 10 7 9 8 8 9 7 10 1 11 2 12
REMARK SMILES IDX 3 13 92 14 4 15 91 16 5 17 6 18 90 19 89 20 17 21 18 22
REMARK SMILES IDX 19 23 20 24 21 25 22 26 23 27 24 28 88 29 25 30 87 31 26 32
REMARK SMILES IDX 27 33 28 34 81 35 29 36 86 37 80 38 82 39 30 40 85 41 79 42
REMARK SMILES IDX 78 43 31 45 65 46 44 47 64 48 45 49 48 50 63 51 83 52 46 53
REMARK SMILES IDX 47 54 62 56 84 57 49 58 32 59 33 60 42 61 34 62 35 63 41 64
REMARK SMILES IDX 43 65 36 66 37 67 38 68 39 69 40 70 66 71 67 72 76 73 68 74
REMARK SMILES IDX 69 75 75 76 77 77 70 78 71 79 72 80 73 81 74 82 50 83 51 84
REMARK SMILES IDX 60 85 52 86 53 87 59 88 61 89 54 90 55 91 56 92 57 93 58 94
REMARK H PARENT 82 44 48 55
REMARK Flexibility Score: inf
ROOT
ATOM      1  C   UNL A   1      34.580  32.151  27.795  1.00  0.00     0.202 C 
ENDROOT
BRANCH   1   2
ATOM      2  C   UNL A   1      33.918  30.828  27.435  1.00  0.00     0.261 C 
BRANCH   2   3
ATOM      3  O   UNL A   1      32.486  30.923  27.188  1.00  0.00    -0.463 OA
BRANCH   3   4
ATOM      4  C   UNL A   1      31.960  29.857  26.531  1.00  0.00     0.305 C 
ATOM      5  O   UNL A   1      31.451  29.940  25.413  1.00  0.00    -0.252 OA
BRANCH   4   6
ATOM      6  C   UNL A   1      31.922  28.534  27.281  1.00  0.00     0.126 C 
BRANCH   6   7
ATOM      7  C   UNL A   1      32.277  27.192  26.642  1.00  0.00     0.053 C 
BRANCH   7   8
ATOM      8  C   UNL A   1      31.278  26.437  25.744  1.00  0.00     0.232 C 
BRANCH   8   9
ATOM      9  O   UNL A   1      30.873  25.115  26.074  1.00  0.00    -0.477 OA
BRANCH   9  10
ATOM     10  C   UNL A   1      31.818  24.174  26.299  1.00  0.00     0.235 A 
ATOM     11  C   UNL A   1      37.280  23.842  25.625  1.00  0.00     0.067 C 
ATOM     12  C   UNL A   1      35.798  23.626  25.526  1.00  0.00     0.039 A 
ATOM     13  C   UNL A   1      35.114  24.075  24.402  1.00  0.00     0.027 A 
ATOM     14  N   UNL A   1      35.189  23.062  26.580  1.00  0.00    -0.240 NA
ATOM     15  C   UNL A   1      33.714  24.214  24.414  1.00  0.00    -0.034 A 
ATOM     16  C   UNL A   1      33.853  23.212  26.577  1.00  0.00     0.147 A 
ATOM     17  C   UNL A   1      33.049  24.743  23.171  1.00  0.00     0.045 C 
ATOM     18  C   UNL A   1      33.071  23.889  25.637  1.00  0.00     0.078 A 
ATOM     19  S   UNL A   1      32.870  22.607  27.825  1.00  0.00    -0.012 S 
ATOM     20  N   UNL A   1      31.519  23.451  27.378  1.00  0.00    -0.153 NA
ENDBRANCH   9  10
ENDBRANCH   8   9
ENDBRANCH   7   8
ENDBRANCH   6   7
ENDBRANCH   4   6
ENDBRANCH   3   4
ENDBRANCH   2   3
ENDBRANCH   1   2
BRANCH   1  21
ATOM     21  O   UNL A   1      33.776  33.059  28.543  1.00  0.00    -0.374 OA
BRANCH  21  22
ATOM     22  C   UNL A   1      34.435  34.036  29.339  1.00  0.00     0.202 C 
BRANCH  22  23
ATOM     23  C   UNL A   1      34.587  33.723  30.822  1.00  0.00     0.261 C 
BRANCH  23  24
ATOM     24  O   UNL A   1      34.480  32.336  31.124  1.00  0.00    -0.460 OA
BRANCH  24  25
ATOM     25  C   UNL A   1      35.622  31.829  31.655  1.00  0.00     0.338 C 
ATOM     26  O   UNL A   1      36.000  31.929  32.807  1.00  0.00    -0.246 OA
BRANCH  25  27
ATOM     27  C   UNL A   1      36.457  31.278  30.579  1.00  0.00     0.060 A 
ATOM     28  C   UNL A   1      36.422  29.887  30.483  1.00  0.00     0.016 A 
ATOM     29  C   UNL A   1      37.516  32.039  30.062  1.00  0.00     0.016 A 
ATOM     30  C   UNL A   1      37.597  29.247  30.182  1.00  0.00     0.010 A 
ATOM     31  C   UNL A   1      38.690  31.393  29.746  1.00  0.00     0.010 A 
ATOM     32  C   UNL A   1      38.743  30.018  29.940  1.00  0.00    -0.014 A 
BRANCH  32  33
ATOM     33  C   UNL A   1      40.001  29.308  29.994  1.00  0.00     0.031 A 
ATOM     34  C   UNL A   1      40.531  29.123  31.356  1.00  0.00     0.074 A 
ATOM     35  C   UNL A   1      40.661  28.901  28.896  1.00  0.00     0.049 A 
ATOM     36  N   UNL A   1      41.541  29.712  31.901  1.00  0.00    -0.248 NA
ATOM     37  C   UNL A   1      39.734  28.295  32.266  1.00  0.00     0.031 C 
ATOM     38  C   UNL A   1      40.188  28.789  27.514  1.00  0.00     0.029 A 
ATOM     39  N   UNL A   1      41.931  28.425  28.831  1.00  0.00    -0.354 N 
ATOM     40  C   UNL A   1      41.625  29.190  33.185  1.00  0.00     0.074 A 
ATOM     41  C   UNL A   1      40.409  28.448  33.404  1.00  0.00     0.031 C 
ATOM     42  C   UNL A   1      41.091  28.078  26.798  1.00  0.00     0.029 A 
ATOM     43  C   UNL A   1      42.255  27.817  27.631  1.00  0.00     0.049 A 
ATOM     44  H   UNL A   1      42.568  28.505  29.576  1.00  0.00     0.167 HD
ATOM     45  C   UNL A   1      42.774  29.246  33.909  1.00  0.00     0.037 A 
ATOM     46  C   UNL A   1      43.370  27.088  27.390  1.00  0.00     0.037 A 
ATOM     47  C   UNL A   1      43.679  30.245  33.402  1.00  0.00     0.049 A 
ATOM     48  C   UNL A   1      44.395  27.500  28.390  1.00  0.00     0.074 A 
ATOM     49  C   UNL A   1      43.617  31.618  33.258  1.00  0.00     0.029 A 
ATOM     50  N   UNL A   1      44.736  29.840  32.621  1.00  0.00    -0.354 N 
ATOM     51  N   UNL A   1      44.959  28.678  28.413  1.00  0.00    -0.248 NA
ATOM     52  C   UNL A   1      44.472  26.755  29.639  1.00  0.00     0.031 C 
ATOM     53  C   UNL A   1      44.318  31.901  32.049  1.00  0.00     0.029 A 
ATOM     54  C   UNL A   1      44.789  30.690  31.543  1.00  0.00     0.049 A 
ATOM     55  H   UNL A   1      45.340  29.084  32.800  1.00  0.00     0.167 HD
ATOM     56  C   UNL A   1      45.107  28.986  29.758  1.00  0.00     0.074 A 
ATOM     57  C   UNL A   1      44.875  27.728  30.462  1.00  0.00     0.031 C 
ATOM     58  C   UNL A   1      45.138  30.280  30.198  1.00  0.00     0.037 A 
BRANCH  45  59
ATOM     59  C   UNL A   1      43.186  28.178  34.888  1.00  0.00     0.058 A 
ATOM     60  C   UNL A   1      43.427  28.518  36.233  1.00  0.00     0.135 A 
ATOM     61  C   UNL A   1      43.606  26.886  34.498  1.00  0.00     0.135 A 
ATOM     62  F   UNL A   1      43.076  29.724  36.707  1.00  0.00    -0.206 F 
ATOM     63  C   UNL A   1      44.104  27.664  37.104  1.00  0.00     0.059 A 
ATOM     64  C   UNL A   1      44.224  25.997  35.365  1.00  0.00     0.059 A 
ATOM     65  F   UNL A   1      43.532  26.459  33.231  1.00  0.00    -0.206 F 
ATOM     66  C   UNL A   1      44.517  26.414  36.652  1.00  0.00     0.060 A 
BRANCH  66  67
ATOM     67  S   UNL A   1      45.529  25.375  37.717  1.00  0.00     0.124 S 
ATOM     68  O   UNL A   1      45.695  24.189  36.884  1.00  0.00    -0.237 OA
ATOM     69  O   UNL A   1      46.718  26.199  37.906  1.00  0.00    -0.237 OA
ATOM     70  O   UNL A   1      44.697  25.200  38.904  1.00  0.00    -0.744 OA
ENDBRANCH  66  67
ENDBRANCH  45  59
BRANCH  46  71
ATOM     71  C   UNL A   1      43.460  25.838  26.595  1.00  0.00     0.058 A 
ATOM     72  C   UNL A   1      44.314  25.736  25.485  1.00  0.00     0.135 A 
ATOM     73  C   UNL A   1      42.902  24.630  27.065  1.00  0.00     0.135 A 
ATOM     74  F   UNL A   1      44.916  26.830  24.993  1.00  0.00    -0.206 F 
ATOM     75  C   UNL A   1      44.620  24.505  24.893  1.00  0.00     0.059 A 
ATOM     76  C   UNL A   1      43.182  23.396  26.486  1.00  0.00     0.059 A 
ATOM     77  F   UNL A   1      42.133  24.602  28.165  1.00  0.00    -0.206 F 
ATOM     78  C   UNL A   1      44.060  23.338  25.413  1.00  0.00     0.060 A 
BRANCH  78  79
ATOM     79  S   UNL A   1      44.567  21.735  24.749  1.00  0.00     0.124 S 
ATOM     80  O   UNL A   1      44.577  21.994  23.312  1.00  0.00    -0.237 OA
ATOM     81  O   UNL A   1      45.871  21.544  25.372  1.00  0.00    -0.237 OA
ATOM     82  O   UNL A   1      43.518  20.829  25.211  1.00  0.00    -0.744 OA
ENDBRANCH  78  79
ENDBRANCH  46  71
BRANCH  58  83
ATOM     83  C   UNL A   1      45.267  31.376  29.170  1.00  0.00     0.058 A 
ATOM     84  C   UNL A   1      46.501  31.834  28.672  1.00  0.00     0.135 A 
ATOM     85  C   UNL A   1      44.107  31.860  28.544  1.00  0.00     0.135 A 
ATOM     86  F   UNL A   1      47.656  31.341  29.140  1.00  0.00    -0.206 F 
ATOM     87  C   UNL A   1      46.578  32.755  27.627  1.00  0.00     0.059 A 
ATOM     88  C   UNL A   1      44.162  32.758  27.479  1.00  0.00     0.059 A 
ATOM     89  F   UNL A   1      42.900  31.412  28.927  1.00  0.00    -0.206 F 
ATOM     90  C   UNL A   1      45.402  33.209  27.031  1.00  0.00     0.060 A 
BRANCH  90  91
ATOM     91  S   UNL A   1      45.512  34.324  25.614  1.00  0.00     0.124 S 
ATOM     92  O   UNL A   1      44.701  33.635  24.617  1.00  0.00    -0.237 OA
ATOM     93  O   UNL A   1      44.951  35.565  26.141  1.00  0.00    -0.237 OA
ATOM     94  O   UNL A   1      46.944  34.373  25.328  1.00  0.00    -0.744 OA
ENDBRANCH  90  91
ENDBRANCH  58  83
ENDBRANCH  32  33
ENDBRANCH  25  27
ENDBRANCH  24  25
ENDBRANCH  23  24
ENDBRANCH  22  23
ENDBRANCH  21  22
ENDBRANCH   1  21
TORSDOF 21
ENDMDL
