MODEL 1
REMARK VINA RESULT:      -9.8      0.000      0.000
REMARK SMILES CCCC[N@H+](CC)[C@H]1CCC[C@]([NH3+])(C(=O)OCCOCCOC(=O)c2ccc(-c3c4nc(c(-c5c(F)cc(S(=O)(=O)[O-])cc5F)c5ccc([nH]5)c(-c5c(F)cc(S(=O)(=O)[O-])cc5F)c5nc(c(-c6c(F)cc(S(=O)(=O)[O-])cc6F)c6ccc3[nH]6)C=C5)C=C4)cc2)C1
REMARK SMILES IDX 18 1 17 2 16 3 14 4 15 5 12 6 8 7 9 8 91 9 10 10 11 11 5 12
REMARK SMILES IDX 4 14 3 15 2 16 1 17 6 18 7 19 13 20 19 24 20 25 21 26 22 27
REMARK SMILES IDX 23 28 24 29 25 30 26 31 90 32 27 33 89 34 28 35 29 36 30 37
REMARK SMILES IDX 83 38 31 39 88 40 82 41 84 42 32 43 87 44 81 45 80 46 33 48
REMARK SMILES IDX 67 49 46 50 66 51 47 52 50 53 65 54 85 55 48 56 49 57 64 59
REMARK SMILES IDX 86 60 51 61 34 62 35 63 44 64 36 65 37 66 43 67 45 68 38 69
REMARK SMILES IDX 39 70 40 71 41 72 42 73 68 74 69 75 78 76 70 77 71 78 77 79
REMARK SMILES IDX 79 80 72 81 73 82 74 83 75 84 76 85 52 86 53 87 62 88 54 89
REMARK SMILES IDX 55 90 61 91 63 92 56 93 57 94 58 95 59 96 60 97
REMARK H PARENT 5 13 13 21 13 22 13 23 84 47 50 58
REMARK Flexibility Score: inf
ROOT
ATOM      1  C   UNL A   1      37.600  22.395  25.734  1.00  0.00     0.202 C 
ENDROOT
BRANCH   1   2
ATOM      2  C   UNL A   1      36.135  22.039  26.027  1.00  0.00     0.261 C 
BRANCH   2   3
ATOM      3  O   UNL A   1      35.158  22.563  25.098  1.00  0.00    -0.459 OA
BRANCH   3   4
ATOM      4  C   UNL A   1      34.210  21.665  24.713  1.00  0.00     0.368 C 
ATOM      5  O   UNL A   1      34.441  20.474  24.505  1.00  0.00    -0.245 OA
BRANCH   4   6
ATOM      6  C   UNL A   1      32.802  22.272  24.418  1.00  0.00     0.198 C 
ATOM      7  C   UNL A   1      32.591  24.728  25.391  1.00  0.00     0.190 C 
ATOM      8  C   UNL A   1      31.710  24.151  26.516  1.00  0.00     0.065 C 
ATOM      9  C   UNL A   1      32.679  23.788  24.150  1.00  0.00     0.145 C 
ATOM     10  C   UNL A   1      31.966  22.677  26.794  1.00  0.00     0.013 C 
ATOM     11  C   UNL A   1      31.827  21.839  25.531  1.00  0.00     0.081 C 
BRANCH   7  12
ATOM     12  N   UNL A   1      32.261  26.140  25.032  1.00  0.00    -0.333 N 
ATOM     13  H   UNL A   1      32.692  26.135  24.109  1.00  0.00     0.348 HD
BRANCH  12  14
ATOM     14  C   UNL A   1      32.921  27.203  25.818  1.00  0.00     0.262 C 
BRANCH  14  15
ATOM     15  C   UNL A   1      32.172  27.711  27.055  1.00  0.00     0.061 C 
BRANCH  15  16
ATOM     16  C   UNL A   1      32.099  29.229  27.166  1.00  0.00     0.002 C 
ATOM     17  C   UNL A   1      32.643  29.983  25.962  1.00  0.00     0.004 C 
ENDBRANCH  15  16
ENDBRANCH  14  15
ENDBRANCH  12  14
BRANCH  12  18
ATOM     18  C   UNL A   1      30.838  26.478  24.824  1.00  0.00     0.258 C 
ATOM     19  C   UNL A   1      30.527  27.611  23.848  1.00  0.00     0.071 C 
ENDBRANCH  12  18
ENDBRANCH   7  12
BRANCH   6  20
ATOM     20  N   UNL A   1      32.342  21.578  23.169  1.00  0.00    -0.343 N 
ATOM     21  H   UNL A   1      33.128  21.090  22.742  1.00  0.00     0.345 HD
ATOM     22  H   UNL A   1      31.972  22.266  22.514  1.00  0.00     0.345 HD
ATOM     23  H   UNL A   1      31.611  20.905  23.404  1.00  0.00     0.345 HD
ENDBRANCH   6  20
ENDBRANCH   4   6
ENDBRANCH   3   4
ENDBRANCH   2   3
ENDBRANCH   1   2
BRANCH   1  24
ATOM     24  O   UNL A   1      38.516  21.331  25.491  1.00  0.00    -0.374 OA
BRANCH  24  25
ATOM     25  C   UNL A   1      39.762  21.368  26.175  1.00  0.00     0.202 C 
BRANCH  25  26
ATOM     26  C   UNL A   1      39.972  22.478  27.207  1.00  0.00     0.261 C 
BRANCH  26  27
ATOM     27  O   UNL A   1      40.549  23.662  26.629  1.00  0.00    -0.460 OA
BRANCH  27  28
ATOM     28  C   UNL A   1      41.576  24.179  27.344  1.00  0.00     0.338 C 
ATOM     29  O   UNL A   1      42.727  23.755  27.372  1.00  0.00    -0.246 OA
BRANCH  28  30
ATOM     30  C   UNL A   1      41.210  25.445  28.010  1.00  0.00     0.060 A 
ATOM     31  C   UNL A   1      42.241  26.367  28.231  1.00  0.00     0.016 A 
ATOM     32  C   UNL A   1      39.936  25.682  28.530  1.00  0.00     0.016 A 
ATOM     33  C   UNL A   1      42.029  27.467  29.055  1.00  0.00     0.010 A 
ATOM     34  C   UNL A   1      39.729  26.767  29.380  1.00  0.00     0.010 A 
ATOM     35  C   UNL A   1      40.789  27.631  29.683  1.00  0.00    -0.014 A 
BRANCH  35  36
ATOM     36  C   UNL A   1      40.635  28.630  30.758  1.00  0.00     0.031 A 
ATOM     37  C   UNL A   1      41.458  28.492  32.007  1.00  0.00     0.074 A 
ATOM     38  C   UNL A   1      39.742  29.622  30.621  1.00  0.00     0.049 A 
ATOM     39  N   UNL A   1      41.492  29.261  33.064  1.00  0.00    -0.248 NA
ATOM     40  C   UNL A   1      42.357  27.327  32.078  1.00  0.00     0.031 C 
ATOM     41  C   UNL A   1      38.881  29.822  29.456  1.00  0.00     0.029 A 
ATOM     42  N   UNL A   1      39.394  30.630  31.480  1.00  0.00    -0.354 N 
ATOM     43  C   UNL A   1      42.424  28.685  33.919  1.00  0.00     0.074 A 
ATOM     44  C   UNL A   1      42.904  27.481  33.276  1.00  0.00     0.031 C 
ATOM     45  C   UNL A   1      38.081  30.876  29.685  1.00  0.00     0.029 A 
ATOM     46  C   UNL A   1      38.370  31.414  31.012  1.00  0.00     0.049 A 
ATOM     47  H   UNL A   1      39.837  30.778  32.347  1.00  0.00     0.167 HD
ATOM     48  C   UNL A   1      42.842  29.128  35.128  1.00  0.00     0.037 A 
ATOM     49  C   UNL A   1      37.734  32.446  31.599  1.00  0.00     0.037 A 
ATOM     50  C   UNL A   1      42.327  30.313  35.765  1.00  0.00     0.049 A 
ATOM     51  C   UNL A   1      38.196  32.913  32.951  1.00  0.00     0.074 A 
ATOM     52  C   UNL A   1      42.702  30.881  36.969  1.00  0.00     0.029 A 
ATOM     53  N   UNL A   1      41.304  31.101  35.253  1.00  0.00    -0.354 N 
ATOM     54  N   UNL A   1      39.138  32.413  33.716  1.00  0.00    -0.248 NA
ATOM     55  C   UNL A   1      37.528  34.094  33.511  1.00  0.00     0.031 C 
ATOM     56  C   UNL A   1      41.877  31.986  37.205  1.00  0.00     0.029 A 
ATOM     57  C   UNL A   1      41.019  32.137  36.126  1.00  0.00     0.049 A 
ATOM     58  H   UNL A   1      40.849  30.946  34.393  1.00  0.00     0.167 HD
ATOM     59  C   UNL A   1      39.199  33.235  34.834  1.00  0.00     0.074 A 
ATOM     60  C   UNL A   1      38.195  34.264  34.645  1.00  0.00     0.031 C 
ATOM     61  C   UNL A   1      40.017  33.153  35.913  1.00  0.00     0.037 A 
BRANCH  48  62
ATOM     62  C   UNL A   1      43.892  28.319  35.841  1.00  0.00     0.058 A 
ATOM     63  C   UNL A   1      45.263  28.542  35.626  1.00  0.00     0.135 A 
ATOM     64  C   UNL A   1      43.528  27.319  36.756  1.00  0.00     0.135 A 
ATOM     65  F   UNL A   1      45.667  29.477  34.754  1.00  0.00    -0.206 F 
ATOM     66  C   UNL A   1      46.234  27.776  36.265  1.00  0.00     0.059 A 
ATOM     67  C   UNL A   1      44.483  26.556  37.424  1.00  0.00     0.059 A 
ATOM     68  F   UNL A   1      42.233  27.064  37.000  1.00  0.00    -0.206 F 
ATOM     69  C   UNL A   1      45.833  26.781  37.158  1.00  0.00     0.060 A 
BRANCH  69  70
ATOM     70  S   UNL A   1      47.102  25.780  37.965  1.00  0.00     0.124 S 
ATOM     71  O   UNL A   1      46.606  24.429  37.720  1.00  0.00    -0.237 OA
ATOM     72  O   UNL A   1      48.309  26.152  37.234  1.00  0.00    -0.237 OA
ATOM     73  O   UNL A   1      47.052  26.224  39.354  1.00  0.00    -0.744 OA
ENDBRANCH  69  70
ENDBRANCH  48  62
BRANCH  49  74
ATOM     74  C   UNL A   1      36.621  33.110  30.878  1.00  0.00     0.058 A 
ATOM     75  C   UNL A   1      35.286  32.843  31.208  1.00  0.00     0.135 A 
ATOM     76  C   UNL A   1      36.874  34.087  29.903  1.00  0.00     0.135 A 
ATOM     77  F   UNL A   1      34.996  31.915  32.133  1.00  0.00    -0.206 F 
ATOM     78  C   UNL A   1      34.237  33.526  30.601  1.00  0.00     0.059 A 
ATOM     79  C   UNL A   1      35.844  34.797  29.296  1.00  0.00     0.059 A 
ATOM     80  F   UNL A   1      38.139  34.391  29.568  1.00  0.00    -0.206 F 
ATOM     81  C   UNL A   1      34.527  34.509  29.653  1.00  0.00     0.060 A 
BRANCH  81  82
ATOM     82  S   UNL A   1      33.163  35.457  28.945  1.00  0.00     0.124 S 
ATOM     83  O   UNL A   1      33.875  36.440  28.136  1.00  0.00    -0.237 OA
ATOM     84  O   UNL A   1      32.429  34.434  28.207  1.00  0.00    -0.237 OA
ATOM     85  O   UNL A   1      32.475  35.984  30.119  1.00  0.00    -0.744 OA
ENDBRANCH  81  82
ENDBRANCH  49  74
BRANCH  61  86
ATOM     86  C   UNL A   1      39.887  34.222  36.959  1.00  0.00     0.058 A 
ATOM     87  C   UNL A   1      40.499  35.476  36.813  1.00  0.00     0.135 A 
ATOM     88  C   UNL A   1      39.082  34.009  38.091  1.00  0.00     0.135 A 
ATOM     89  F   UNL A   1      41.284  35.725  35.753  1.00  0.00    -0.206 F 
ATOM     90  C   UNL A   1      40.328  36.480  37.761  1.00  0.00     0.059 A 
ATOM     91  C   UNL A   1      38.879  35.008  39.038  1.00  0.00     0.059 A 
ATOM     92  F   UNL A   1      38.468  32.830  38.271  1.00  0.00    -0.206 F 
ATOM     93  C   UNL A   1      39.513  36.237  38.869  1.00  0.00     0.060 A 
BRANCH  93  94
ATOM     94  S   UNL A   1      39.259  37.563  40.066  1.00  0.00     0.124 S 
ATOM     95  O   UNL A   1      40.587  38.166  40.123  1.00  0.00    -0.237 OA
ATOM     96  O   UNL A   1      38.224  38.370  39.428  1.00  0.00    -0.237 OA
ATOM     97  O   UNL A   1      38.838  36.855  41.272  1.00  0.00    -0.744 OA
ENDBRANCH  93  94
ENDBRANCH  61  86
ENDBRANCH  35  36
ENDBRANCH  28  30
ENDBRANCH  27  28
ENDBRANCH  26  27
ENDBRANCH  25  26
ENDBRANCH  24  25
ENDBRANCH   1  24
TORSDOF 23
ENDMDL
MODEL 2
REMARK VINA RESULT:      -9.3      6.352     10.941
REMARK SMILES CCCC[N@H+](CC)[C@H]1CCC[C@]([NH3+])(C(=O)OCCOCCOC(=O)c2ccc(-c3c4nc(c(-c5c(F)cc(S(=O)(=O)[O-])cc5F)c5ccc([nH]5)c(-c5c(F)cc(S(=O)(=O)[O-])cc5F)c5nc(c(-c6c(F)cc(S(=O)(=O)[O-])cc6F)c6ccc3[nH]6)C=C5)C=C4)cc2)C1
REMARK SMILES IDX 18 1 17 2 16 3 14 4 15 5 12 6 8 7 9 8 91 9 10 10 11 11 5 12
REMARK SMILES IDX 4 14 3 15 2 16 1 17 6 18 7 19 13 20 19 24 20 25 21 26 22 27
REMARK SMILES IDX 23 28 24 29 25 30 26 31 90 32 27 33 89 34 28 35 29 36 30 37
REMARK SMILES IDX 83 38 31 39 88 40 82 41 84 42 32 43 87 44 81 45 80 46 33 48
REMARK SMILES IDX 67 49 46 50 66 51 47 52 50 53 65 54 85 55 48 56 49 57 64 59
REMARK SMILES IDX 86 60 51 61 34 62 35 63 44 64 36 65 37 66 43 67 45 68 38 69
REMARK SMILES IDX 39 70 40 71 41 72 42 73 68 74 69 75 78 76 70 77 71 78 77 79
REMARK SMILES IDX 79 80 72 81 73 82 74 83 75 84 76 85 52 86 53 87 62 88 54 89
REMARK SMILES IDX 55 90 61 91 63 92 56 93 57 94 58 95 59 96 60 97
REMARK H PARENT 5 13 13 21 13 22 13 23 84 47 50 58
REMARK Flexibility Score: inf
ROOT
ATOM      1  C   UNL A   1      36.660  23.031  24.467  1.00  0.00     0.202 C 
ENDROOT
BRANCH   1   2
ATOM      2  C   UNL A   1      35.618  23.575  23.478  1.00  0.00     0.261 C 
BRANCH   2   3
ATOM      3  O   UNL A   1      34.238  23.492  23.901  1.00  0.00    -0.459 OA
BRANCH   3   4
ATOM      4  C   UNL A   1      33.348  24.041  23.031  1.00  0.00     0.368 C 
ATOM      5  O   UNL A   1      33.646  24.428  21.900  1.00  0.00    -0.245 OA
BRANCH   4   6
ATOM      6  C   UNL A   1      31.916  24.279  23.607  1.00  0.00     0.198 C 
ATOM      7  C   UNL A   1      31.653  26.746  24.536  1.00  0.00     0.190 C 
ATOM      8  C   UNL A   1      31.737  26.163  25.961  1.00  0.00     0.065 C 
ATOM      9  C   UNL A   1      31.274  25.676  23.467  1.00  0.00     0.145 C 
ATOM     10  C   UNL A   1      32.479  24.837  26.031  1.00  0.00     0.013 C 
ATOM     11  C   UNL A   1      31.883  23.813  25.076  1.00  0.00     0.081 C 
BRANCH   7  12
ATOM     12  N   UNL A   1      30.823  27.985  24.442  1.00  0.00    -0.333 N 
ATOM     13  H   UNL A   1      30.285  27.836  25.295  1.00  0.00     0.348 HD
BRANCH  12  14
ATOM     14  C   UNL A   1      29.859  28.062  23.325  1.00  0.00     0.262 C 
BRANCH  14  15
ATOM     15  C   UNL A   1      29.530  29.461  22.793  1.00  0.00     0.061 C 
BRANCH  15  16
ATOM     16  C   UNL A   1      28.121  29.942  23.120  1.00  0.00     0.002 C 
ATOM     17  C   UNL A   1      27.657  31.149  22.319  1.00  0.00     0.004 C 
ENDBRANCH  15  16
ENDBRANCH  14  15
ENDBRANCH  12  14
BRANCH  12  18
ATOM     18  C   UNL A   1      31.509  29.283  24.605  1.00  0.00     0.258 C 
ATOM     19  C   UNL A   1      31.845  29.719  26.029  1.00  0.00     0.071 C 
ENDBRANCH  12  18
ENDBRANCH   7  12
BRANCH   6  20
ATOM     20  N   UNL A   1      31.037  23.327  22.848  1.00  0.00    -0.343 N 
ATOM     21  H   UNL A   1      31.264  22.369  23.115  1.00  0.00     0.345 HD
ATOM     22  H   UNL A   1      31.190  23.446  21.847  1.00  0.00     0.345 HD
ATOM     23  H   UNL A   1      30.059  23.518  23.068  1.00  0.00     0.345 HD
ENDBRANCH   6  20
ENDBRANCH   4   6
ENDBRANCH   3   4
ENDBRANCH   2   3
ENDBRANCH   1   2
BRANCH   1  24
ATOM     24  O   UNL A   1      37.170  21.719  24.253  1.00  0.00    -0.374 OA
BRANCH  24  25
ATOM     25  C   UNL A   1      37.722  21.038  25.374  1.00  0.00     0.202 C 
BRANCH  25  26
ATOM     26  C   UNL A   1      39.019  21.588  25.970  1.00  0.00     0.261 C 
BRANCH  26  27
ATOM     27  O   UNL A   1      39.687  20.629  26.808  1.00  0.00    -0.460 OA
BRANCH  27  28
ATOM     28  C   UNL A   1      40.902  20.248  26.347  1.00  0.00     0.338 C 
ATOM     29  O   UNL A   1      41.162  19.197  25.769  1.00  0.00    -0.246 OA
BRANCH  28  30
ATOM     30  C   UNL A   1      41.909  21.319  26.478  1.00  0.00     0.060 A 
ATOM     31  C   UNL A   1      42.271  21.694  27.778  1.00  0.00     0.016 A 
ATOM     32  C   UNL A   1      42.392  22.037  25.383  1.00  0.00     0.016 A 
ATOM     33  C   UNL A   1      43.026  22.844  27.988  1.00  0.00     0.010 A 
ATOM     34  C   UNL A   1      43.124  23.205  25.591  1.00  0.00     0.010 A 
ATOM     35  C   UNL A   1      43.397  23.636  26.896  1.00  0.00    -0.014 A 
BRANCH  35  36
ATOM     36  C   UNL A   1      43.958  24.982  27.120  1.00  0.00     0.031 A 
ATOM     37  C   UNL A   1      43.048  26.086  27.577  1.00  0.00     0.074 A 
ATOM     38  C   UNL A   1      45.259  25.209  26.880  1.00  0.00     0.049 A 
ATOM     39  N   UNL A   1      43.332  27.333  27.848  1.00  0.00    -0.248 NA
ATOM     40  C   UNL A   1      41.626  25.741  27.744  1.00  0.00     0.031 C 
ATOM     41  C   UNL A   1      46.214  24.206  26.411  1.00  0.00     0.029 A 
ATOM     42  N   UNL A   1      45.993  26.361  26.974  1.00  0.00    -0.354 N 
ATOM     43  C   UNL A   1      42.132  27.919  28.231  1.00  0.00     0.074 A 
ATOM     44  C   UNL A   1      41.108  26.902  28.120  1.00  0.00     0.031 C 
ATOM     45  C   UNL A   1      47.407  24.795  26.230  1.00  0.00     0.029 A 
ATOM     46  C   UNL A   1      47.293  26.213  26.564  1.00  0.00     0.049 A 
ATOM     47  H   UNL A   1      45.623  27.212  27.305  1.00  0.00     0.167 HD
ATOM     48  C   UNL A   1      41.910  29.190  28.643  1.00  0.00     0.037 A 
ATOM     49  C   UNL A   1      48.277  27.127  26.462  1.00  0.00     0.037 A 
ATOM     50  C   UNL A   1      42.938  30.195  28.714  1.00  0.00     0.049 A 
ATOM     51  C   UNL A   1      48.009  28.538  26.903  1.00  0.00     0.074 A 
ATOM     52  C   UNL A   1      42.840  31.504  29.153  1.00  0.00     0.029 A 
ATOM     53  N   UNL A   1      44.255  30.006  28.313  1.00  0.00    -0.354 N 
ATOM     54  N   UNL A   1      46.890  29.063  27.346  1.00  0.00    -0.248 NA
ATOM     55  C   UNL A   1      49.137  29.477  26.853  1.00  0.00     0.031 C 
ATOM     56  C   UNL A   1      44.085  32.117  28.977  1.00  0.00     0.029 A 
ATOM     57  C   UNL A   1      44.973  31.179  28.473  1.00  0.00     0.049 A 
ATOM     58  H   UNL A   1      44.623  29.161  27.968  1.00  0.00     0.167 HD
ATOM     59  C   UNL A   1      47.185  30.384  27.657  1.00  0.00     0.074 A 
ATOM     60  C   UNL A   1      48.589  30.578  27.349  1.00  0.00     0.031 C 
ATOM     61  C   UNL A   1      46.373  31.346  28.162  1.00  0.00     0.037 A 
BRANCH  48  62
ATOM     62  C   UNL A   1      40.504  29.560  29.029  1.00  0.00     0.058 A 
ATOM     63  C   UNL A   1      39.489  29.697  28.066  1.00  0.00     0.135 A 
ATOM     64  C   UNL A   1      40.160  29.772  30.373  1.00  0.00     0.135 A 
ATOM     65  F   UNL A   1      39.764  29.518  26.765  1.00  0.00    -0.206 F 
ATOM     66  C   UNL A   1      38.194  30.065  28.420  1.00  0.00     0.059 A 
ATOM     67  C   UNL A   1      38.866  30.118  30.752  1.00  0.00     0.059 A 
ATOM     68  F   UNL A   1      41.089  29.655  31.335  1.00  0.00    -0.206 F 
ATOM     69  C   UNL A   1      37.894  30.280  29.765  1.00  0.00     0.060 A 
BRANCH  69  70
ATOM     70  S   UNL A   1      36.216  30.778  30.209  1.00  0.00     0.124 S 
ATOM     71  O   UNL A   1      35.948  29.910  31.352  1.00  0.00    -0.237 OA
ATOM     72  O   UNL A   1      36.378  32.196  30.516  1.00  0.00    -0.237 OA
ATOM     73  O   UNL A   1      35.445  30.485  29.005  1.00  0.00    -0.744 OA
ENDBRANCH  69  70
ENDBRANCH  48  62
BRANCH  49  74
ATOM     74  C   UNL A   1      49.603  26.704  25.949  1.00  0.00     0.058 A 
ATOM     75  C   UNL A   1      49.964  26.920  24.613  1.00  0.00     0.135 A 
ATOM     76  C   UNL A   1      50.566  26.151  26.809  1.00  0.00     0.135 A 
ATOM     77  F   UNL A   1      49.076  27.444  23.755  1.00  0.00    -0.206 F 
ATOM     78  C   UNL A   1      51.237  26.610  24.145  1.00  0.00     0.059 A 
ATOM     79  C   UNL A   1      51.850  25.850  26.370  1.00  0.00     0.059 A 
ATOM     80  F   UNL A   1      50.272  25.944  28.103  1.00  0.00    -0.206 F 
ATOM     81  C   UNL A   1      52.177  26.084  25.034  1.00  0.00     0.060 A 
BRANCH  81  82
ATOM     82  S   UNL A   1      53.854  25.778  24.439  1.00  0.00     0.124 S 
ATOM     83  O   UNL A   1      54.608  26.814  25.135  1.00  0.00    -0.237 OA
ATOM     84  O   UNL A   1      54.091  24.408  24.884  1.00  0.00    -0.237 OA
ATOM     85  O   UNL A   1      53.733  25.946  22.994  1.00  0.00    -0.744 OA
ENDBRANCH  81  82
ENDBRANCH  49  74
BRANCH  61  86
ATOM     86  C   UNL A   1      46.985  32.687  28.447  1.00  0.00     0.058 A 
ATOM     87  C   UNL A   1      47.606  32.970  29.673  1.00  0.00     0.135 A 
ATOM     88  C   UNL A   1      47.012  33.677  27.451  1.00  0.00     0.135 A 
ATOM     89  F   UNL A   1      47.601  32.059  30.659  1.00  0.00    -0.206 F 
ATOM     90  C   UNL A   1      48.220  34.196  29.908  1.00  0.00     0.059 A 
ATOM     91  C   UNL A   1      47.641  34.901  27.657  1.00  0.00     0.059 A 
ATOM     92  F   UNL A   1      46.440  33.451  26.257  1.00  0.00    -0.206 F 
ATOM     93  C   UNL A   1      48.235  35.154  28.892  1.00  0.00     0.060 A 
BRANCH  93  94
ATOM     94  S   UNL A   1      49.077  36.722  29.191  1.00  0.00     0.124 S 
ATOM     95  O   UNL A   1      48.439  37.591  28.208  1.00  0.00    -0.237 OA
ATOM     96  O   UNL A   1      48.747  36.995  30.586  1.00  0.00    -0.237 OA
ATOM     97  O   UNL A   1      50.480  36.407  28.937  1.00  0.00    -0.744 OA
ENDBRANCH  93  94
ENDBRANCH  61  86
ENDBRANCH  35  36
ENDBRANCH  28  30
ENDBRANCH  27  28
ENDBRANCH  26  27
ENDBRANCH  25  26
ENDBRANCH  24  25
ENDBRANCH   1  24
TORSDOF 23
ENDMDL
MODEL 3
REMARK VINA RESULT:      -9.3      6.245      8.509
REMARK SMILES CCCC[N@H+](CC)[C@H]1CCC[C@]([NH3+])(C(=O)OCCOCCOC(=O)c2ccc(-c3c4nc(c(-c5c(F)cc(S(=O)(=O)[O-])cc5F)c5ccc([nH]5)c(-c5c(F)cc(S(=O)(=O)[O-])cc5F)c5nc(c(-c6c(F)cc(S(=O)(=O)[O-])cc6F)c6ccc3[nH]6)C=C5)C=C4)cc2)C1
REMARK SMILES IDX 18 1 17 2 16 3 14 4 15 5 12 6 8 7 9 8 91 9 10 10 11 11 5 12
REMARK SMILES IDX 4 14 3 15 2 16 1 17 6 18 7 19 13 20 19 24 20 25 21 26 22 27
REMARK SMILES IDX 23 28 24 29 25 30 26 31 90 32 27 33 89 34 28 35 29 36 30 37
REMARK SMILES IDX 83 38 31 39 88 40 82 41 84 42 32 43 87 44 81 45 80 46 33 48
REMARK SMILES IDX 67 49 46 50 66 51 47 52 50 53 65 54 85 55 48 56 49 57 64 59
REMARK SMILES IDX 86 60 51 61 34 62 35 63 44 64 36 65 37 66 43 67 45 68 38 69
REMARK SMILES IDX 39 70 40 71 41 72 42 73 68 74 69 75 78 76 70 77 71 78 77 79
REMARK SMILES IDX 79 80 72 81 73 82 74 83 75 84 76 85 52 86 53 87 62 88 54 89
REMARK SMILES IDX 55 90 61 91 63 92 56 93 57 94 58 95 59 96 60 97
REMARK H PARENT 5 13 13 21 13 22 13 23 84 47 50 58
REMARK Flexibility Score: inf
ROOT
ATOM      1  C   UNL A   1      36.562  21.399  25.296  1.00  0.00     0.202 C 
ENDROOT
BRANCH   1   2
ATOM      2  C   UNL A   1      35.927  22.206  24.153  1.00  0.00     0.261 C 
BRANCH   2   3
ATOM      3  O   UNL A   1      34.803  23.041  24.515  1.00  0.00    -0.459 OA
BRANCH   3   4
ATOM      4  C   UNL A   1      33.594  22.562  24.116  1.00  0.00     0.368 C 
ATOM      5  O   UNL A   1      33.319  21.363  24.056  1.00  0.00    -0.245 OA
BRANCH   4   6
ATOM      6  C   UNL A   1      32.589  23.641  23.601  1.00  0.00     0.198 C 
ATOM      7  C   UNL A   1      32.461  25.702  25.262  1.00  0.00     0.190 C 
ATOM      8  C   UNL A   1      31.093  25.172  25.733  1.00  0.00     0.065 C 
ATOM      9  C   UNL A   1      32.885  25.132  23.874  1.00  0.00     0.145 C 
ATOM     10  C   UNL A   1      30.920  23.674  25.529  1.00  0.00     0.013 C 
ATOM     11  C   UNL A   1      31.171  23.275  24.082  1.00  0.00     0.081 C 
BRANCH   7  12
ATOM     12  N   UNL A   1      32.592  27.188  25.347  1.00  0.00    -0.333 N 
ATOM     13  H   UNL A   1      31.906  27.328  26.088  1.00  0.00     0.348 HD
BRANCH  12  14
ATOM     14  C   UNL A   1      32.137  27.969  24.177  1.00  0.00     0.262 C 
BRANCH  14  15
ATOM     15  C   UNL A   1      30.731  28.572  24.255  1.00  0.00     0.061 C 
BRANCH  15  16
ATOM     16  C   UNL A   1      29.779  28.088  23.167  1.00  0.00     0.002 C 
ATOM     17  C   UNL A   1      28.792  27.020  23.612  1.00  0.00     0.004 C 
ENDBRANCH  15  16
ENDBRANCH  14  15
ENDBRANCH  12  14
BRANCH  12  18
ATOM     18  C   UNL A   1      33.867  27.736  25.852  1.00  0.00     0.258 C 
ATOM     19  C   UNL A   1      33.804  28.599  27.110  1.00  0.00     0.071 C 
ENDBRANCH  12  18
ENDBRANCH   7  12
BRANCH   6  20
ATOM     20  N   UNL A   1      32.579  23.473  22.110  1.00  0.00    -0.343 N 
ATOM     21  H   UNL A   1      33.196  22.703  21.850  1.00  0.00     0.345 HD
ATOM     22  H   UNL A   1      32.904  24.333  21.668  1.00  0.00     0.345 HD
ATOM     23  H   UNL A   1      31.629  23.267  21.798  1.00  0.00     0.345 HD
ENDBRANCH   6  20
ENDBRANCH   4   6
ENDBRANCH   3   4
ENDBRANCH   2   3
ENDBRANCH   1   2
BRANCH   1  24
ATOM     24  O   UNL A   1      37.954  21.106  25.221  1.00  0.00    -0.374 OA
BRANCH  24  25
ATOM     25  C   UNL A   1      38.855  22.046  25.795  1.00  0.00     0.202 C 
BRANCH  25  26
ATOM     26  C   UNL A   1      39.947  21.508  26.720  1.00  0.00     0.261 C 
BRANCH  26  27
ATOM     27  O   UNL A   1      40.198  20.106  26.514  1.00  0.00    -0.460 OA
BRANCH  27  28
ATOM     28  C   UNL A   1      41.484  19.819  26.201  1.00  0.00     0.338 C 
ATOM     29  O   UNL A   1      41.894  18.769  25.716  1.00  0.00    -0.246 OA
BRANCH  28  30
ATOM     30  C   UNL A   1      42.373  20.985  26.366  1.00  0.00     0.060 A 
ATOM     31  C   UNL A   1      42.658  21.385  27.678  1.00  0.00     0.016 A 
ATOM     32  C   UNL A   1      42.812  21.756  25.288  1.00  0.00     0.016 A 
ATOM     33  C   UNL A   1      43.286  22.603  27.915  1.00  0.00     0.010 A 
ATOM     34  C   UNL A   1      43.416  22.991  25.524  1.00  0.00     0.010 A 
ATOM     35  C   UNL A   1      43.607  23.437  26.838  1.00  0.00    -0.014 A 
BRANCH  35  36
ATOM     36  C   UNL A   1      44.022  24.831  27.084  1.00  0.00     0.031 A 
ATOM     37  C   UNL A   1      45.466  25.205  26.910  1.00  0.00     0.074 A 
ATOM     38  C   UNL A   1      43.115  25.733  27.492  1.00  0.00     0.049 A 
ATOM     39  N   UNL A   1      46.042  26.369  27.058  1.00  0.00    -0.248 NA
ATOM     40  C   UNL A   1      46.386  24.121  26.526  1.00  0.00     0.031 C 
ATOM     41  C   UNL A   1      41.697  25.456  27.712  1.00  0.00     0.029 A 
ATOM     42  N   UNL A   1      43.260  27.055  27.817  1.00  0.00    -0.354 N 
ATOM     43  C   UNL A   1      47.387  26.164  26.772  1.00  0.00     0.074 A 
ATOM     44  C   UNL A   1      47.548  24.756  26.478  1.00  0.00     0.031 C 
ATOM     45  C   UNL A   1      41.103  26.573  28.165  1.00  0.00     0.029 A 
ATOM     46  C   UNL A   1      42.103  27.633  28.271  1.00  0.00     0.049 A 
ATOM     47  H   UNL A   1      44.112  27.542  27.731  1.00  0.00     0.167 HD
ATOM     48  C   UNL A   1      48.390  27.073  26.750  1.00  0.00     0.037 A 
ATOM     49  C   UNL A   1      41.881  28.879  28.731  1.00  0.00     0.037 A 
ATOM     50  C   UNL A   1      48.212  28.464  27.077  1.00  0.00     0.049 A 
ATOM     51  C   UNL A   1      43.011  29.871  28.720  1.00  0.00     0.074 A 
ATOM     52  C   UNL A   1      49.146  29.485  27.051  1.00  0.00     0.029 A 
ATOM     53  N   UNL A   1      47.019  29.025  27.511  1.00  0.00    -0.354 N 
ATOM     54  N   UNL A   1      44.261  29.689  28.365  1.00  0.00    -0.248 NA
ATOM     55  C   UNL A   1      42.699  31.240  29.151  1.00  0.00     0.031 C 
ATOM     56  C   UNL A   1      48.528  30.653  27.512  1.00  0.00     0.029 A 
ATOM     57  C   UNL A   1      47.196  30.372  27.779  1.00  0.00     0.049 A 
ATOM     58  H   UNL A   1      46.170  28.537  27.613  1.00  0.00     0.167 HD
ATOM     59  C   UNL A   1      44.880  30.926  28.499  1.00  0.00     0.074 A 
ATOM     60  C   UNL A   1      43.864  31.848  28.970  1.00  0.00     0.031 C 
ATOM     61  C   UNL A   1      46.167  31.271  28.244  1.00  0.00     0.037 A 
BRANCH  48  62
ATOM     62  C   UNL A   1      49.763  26.584  26.377  1.00  0.00     0.058 A 
ATOM     63  C   UNL A   1      50.577  25.905  27.300  1.00  0.00     0.135 A 
ATOM     64  C   UNL A   1      50.271  26.785  25.084  1.00  0.00     0.135 A 
ATOM     65  F   UNL A   1      50.148  25.696  28.554  1.00  0.00    -0.206 F 
ATOM     66  C   UNL A   1      51.858  25.476  26.964  1.00  0.00     0.059 A 
ATOM     67  C   UNL A   1      51.540  26.343  24.719  1.00  0.00     0.059 A 
ATOM     68  F   UNL A   1      49.536  27.428  24.162  1.00  0.00    -0.206 F 
ATOM     69  C   UNL A   1      52.333  25.706  25.672  1.00  0.00     0.060 A 
BRANCH  69  70
ATOM     70  S   UNL A   1      54.004  25.162  25.255  1.00  0.00     0.124 S 
ATOM     71  O   UNL A   1      53.927  23.734  25.547  1.00  0.00    -0.237 OA
ATOM     72  O   UNL A   1      54.106  25.514  23.842  1.00  0.00    -0.237 OA
ATOM     73  O   UNL A   1      54.849  25.942  26.153  1.00  0.00    -0.744 OA
ENDBRANCH  69  70
ENDBRANCH  48  62
BRANCH  49  74
ATOM     74  C   UNL A   1      40.522  29.244  29.200  1.00  0.00     0.058 A 
ATOM     75  C   UNL A   1      40.246  29.396  30.565  1.00  0.00     0.135 A 
ATOM     76  C   UNL A   1      39.496  29.529  28.286  1.00  0.00     0.135 A 
ATOM     77  F   UNL A   1      41.197  29.133  31.475  1.00  0.00    -0.206 F 
ATOM     78  C   UNL A   1      39.000  29.825  31.011  1.00  0.00     0.059 A 
ATOM     79  C   UNL A   1      38.248  29.977  28.706  1.00  0.00     0.059 A 
ATOM     80  F   UNL A   1      39.719  29.416  26.967  1.00  0.00    -0.206 F 
ATOM     81  C   UNL A   1      38.010  30.123  30.072  1.00  0.00     0.060 A 
BRANCH  81  82
ATOM     82  S   UNL A   1      36.431  30.773  30.658  1.00  0.00     0.124 S 
ATOM     83  O   UNL A   1      36.069  29.795  31.678  1.00  0.00    -0.237 OA
ATOM     84  O   UNL A   1      36.806  32.096  31.145  1.00  0.00    -0.237 OA
ATOM     85  O   UNL A   1      35.601  30.770  29.457  1.00  0.00    -0.744 OA
ENDBRANCH  81  82
ENDBRANCH  49  74
BRANCH  61  86
ATOM     86  C   UNL A   1      46.546  32.711  28.435  1.00  0.00     0.058 A 
ATOM     87  C   UNL A   1      47.090  33.177  29.642  1.00  0.00     0.135 A 
ATOM     88  C   UNL A   1      46.426  33.621  27.371  1.00  0.00     0.135 A 
ATOM     89  F   UNL A   1      47.218  32.348  30.690  1.00  0.00    -0.206 F 
ATOM     90  C   UNL A   1      47.490  34.501  29.792  1.00  0.00     0.059 A 
ATOM     91  C   UNL A   1      46.842  34.942  27.493  1.00  0.00     0.059 A 
ATOM     92  F   UNL A   1      45.920  33.221  26.194  1.00  0.00    -0.206 F 
ATOM     93  C   UNL A   1      47.366  35.375  28.710  1.00  0.00     0.060 A 
BRANCH  93  94
ATOM     94  S   UNL A   1      47.933  37.078  28.902  1.00  0.00     0.124 S 
ATOM     95  O   UNL A   1      48.134  37.160  30.344  1.00  0.00    -0.237 OA
ATOM     96  O   UNL A   1      49.146  37.098  28.090  1.00  0.00    -0.237 OA
ATOM     97  O   UNL A   1      46.822  37.866  28.375  1.00  0.00    -0.744 OA
ENDBRANCH  93  94
ENDBRANCH  61  86
ENDBRANCH  35  36
ENDBRANCH  28  30
ENDBRANCH  27  28
ENDBRANCH  26  27
ENDBRANCH  25  26
ENDBRANCH  24  25
ENDBRANCH   1  24
TORSDOF 23
ENDMDL
