MODEL 1
REMARK VINA RESULT:     -11.0      0.000      0.000
REMARK SMILES O=C(Cc1cncnc1N1CCC2(CC1)OCCC[C@@H]2O)OCCOCCOC(=O)c1ccc(-c2c3nc(c(-c4c(F)cc(S(=O)(=O)[O-])cc4F)c4ccc([nH]4)c(-c4c(F)cc(S(=O)(=O)[O-])cc4F)c4nc(c(-c5c(F)cc(S(=O)(=O)[O-])cc5F)c5ccc2[nH]5)C=C4)C=C3)cc1
REMARK SMILES IDX 25 1 24 2 23 3 22 4 2 5 1 6 3 7 4 8 5 9 9 10 6 11 8 12 7 13
REMARK SMILES IDX 10 14 11 15 15 16 12 17 14 18 13 19 16 20 20 21 17 22 19 23
REMARK SMILES IDX 18 24 21 25 26 27 27 28 28 29 29 30 30 31 31 32 32 33 96 34
REMARK SMILES IDX 33 35 95 36 34 37 35 38 36 39 89 40 37 41 94 42 88 43 90 44
REMARK SMILES IDX 38 45 93 46 87 47 86 48 39 50 73 51 52 52 72 53 53 54 56 55
REMARK SMILES IDX 71 56 91 57 54 58 55 59 70 61 92 62 57 63 40 64 41 65 50 66
REMARK SMILES IDX 42 67 43 68 49 69 51 70 44 71 45 72 46 73 47 74 48 75 74 76
REMARK SMILES IDX 75 77 84 78 76 79 77 80 83 81 85 82 78 83 79 84 80 85 81 86
REMARK SMILES IDX 82 87 58 88 59 89 68 90 60 91 61 92 67 93 69 94 62 95 63 96
REMARK SMILES IDX 64 97 65 98 66 99
REMARK H PARENT 21 26 90 49 56 60
REMARK Flexibility Score: inf
ROOT
ATOM      1  O   UNL A   1      40.679  21.966  26.291  1.00  0.00    -0.374 OA
ENDROOT
BRANCH   1   2
ATOM      2  C   UNL A   1      39.760  22.773  27.008  1.00  0.00     0.202 C 
BRANCH   2   3
ATOM      3  C   UNL A   1      38.689  23.570  26.253  1.00  0.00     0.261 C 
BRANCH   3   4
ATOM      4  O   UNL A   1      37.491  22.853  25.927  1.00  0.00    -0.463 OA
BRANCH   4   5
ATOM      5  C   UNL A   1      36.419  23.352  25.270  1.00  0.00     0.310 C 
ATOM      6  O   UNL A   1      35.865  24.367  25.700  1.00  0.00    -0.252 OA
BRANCH   5   7
ATOM      7  C   UNL A   1      35.835  22.598  24.108  1.00  0.00     0.163 C 
BRANCH   7   8
ATOM      8  C   UNL A   1      34.598  21.784  24.344  1.00  0.00     0.024 A 
ATOM      9  C   UNL A   1      34.723  20.509  24.868  1.00  0.00     0.121 A 
ATOM     10  C   UNL A   1      33.296  22.224  24.121  1.00  0.00     0.135 A 
ATOM     11  N   UNL A   1      33.687  19.699  25.122  1.00  0.00    -0.244 NA
ATOM     12  N   UNL A   1      32.234  21.437  24.358  1.00  0.00    -0.219 NA
ATOM     13  C   UNL A   1      32.482  20.211  24.839  1.00  0.00     0.224 A 
BRANCH  10  14
ATOM     14  N   UNL A   1      33.083  23.517  23.675  1.00  0.00    -0.356 N 
ATOM     15  C   UNL A   1      32.187  24.316  24.497  1.00  0.00     0.121 C 
ATOM     16  C   UNL A   1      32.853  23.721  22.245  1.00  0.00     0.121 C 
ATOM     17  C   UNL A   1      32.614  25.768  24.332  1.00  0.00     0.060 C 
ATOM     18  C   UNL A   1      33.263  25.156  21.904  1.00  0.00     0.060 C 
ATOM     19  C   UNL A   1      32.662  26.230  22.851  1.00  0.00     0.097 C 
ATOM     20  O   UNL A   1      31.324  26.462  22.357  1.00  0.00    -0.372 OA
ATOM     21  C   UNL A   1      33.531  27.526  22.754  1.00  0.00     0.146 C 
ATOM     22  C   UNL A   1      30.639  27.595  22.880  1.00  0.00     0.161 C 
ATOM     23  C   UNL A   1      32.826  28.721  23.387  1.00  0.00     0.037 C 
ATOM     24  C   UNL A   1      31.440  28.884  22.777  1.00  0.00     0.031 C 
BRANCH  21  25
ATOM     25  O   UNL A   1      33.822  27.861  21.392  1.00  0.00    -0.390 OA
ATOM     26  H   UNL A   1      33.003  27.840  20.873  1.00  0.00     0.211 HD
ENDBRANCH  21  25
ENDBRANCH  10  14
ENDBRANCH   7   8
ENDBRANCH   5   7
ENDBRANCH   4   5
ENDBRANCH   3   4
ENDBRANCH   2   3
ENDBRANCH   1   2
BRANCH   1  27
ATOM     27  C   UNL A   1      41.910  22.504  25.824  1.00  0.00     0.202 C 
BRANCH  27  28
ATOM     28  C   UNL A   1      42.647  23.629  26.561  1.00  0.00     0.261 C 
BRANCH  28  29
ATOM     29  O   UNL A   1      42.847  24.844  25.829  1.00  0.00    -0.460 OA
BRANCH  29  30
ATOM     30  C   UNL A   1      41.905  25.785  26.084  1.00  0.00     0.338 C 
ATOM     31  O   UNL A   1      41.018  26.151  25.333  1.00  0.00    -0.246 OA
BRANCH  30  32
ATOM     32  C   UNL A   1      42.004  26.276  27.467  1.00  0.00     0.060 A 
ATOM     33  C   UNL A   1      40.968  25.935  28.344  1.00  0.00     0.016 A 
ATOM     34  C   UNL A   1      42.971  27.215  27.832  1.00  0.00     0.016 A 
ATOM     35  C   UNL A   1      40.843  26.601  29.558  1.00  0.00     0.010 A 
ATOM     36  C   UNL A   1      42.841  27.887  29.051  1.00  0.00     0.010 A 
ATOM     37  C   UNL A   1      41.741  27.625  29.887  1.00  0.00    -0.014 A 
BRANCH  37  38
ATOM     38  C   UNL A   1      41.387  28.549  30.991  1.00  0.00     0.031 A 
ATOM     39  C   UNL A   1      42.225  28.533  32.244  1.00  0.00     0.074 A 
ATOM     40  C   UNL A   1      40.388  29.437  30.850  1.00  0.00     0.049 A 
ATOM     41  N   UNL A   1      42.141  29.287  33.309  1.00  0.00    -0.248 NA
ATOM     42  C   UNL A   1      43.304  27.532  32.301  1.00  0.00     0.031 C 
ATOM     43  C   UNL A   1      39.536  29.567  29.669  1.00  0.00     0.029 A 
ATOM     44  N   UNL A   1      39.931  30.406  31.705  1.00  0.00    -0.354 N 
ATOM     45  C   UNL A   1      43.147  28.850  34.163  1.00  0.00     0.074 A 
ATOM     46  C   UNL A   1      43.812  27.746  33.506  1.00  0.00     0.031 C 
ATOM     47  C   UNL A   1      38.659  30.565  29.873  1.00  0.00     0.029 A 
ATOM     48  C   UNL A   1      38.878  31.130  31.203  1.00  0.00     0.049 A 
ATOM     49  H   UNL A   1      40.320  30.567  32.595  1.00  0.00     0.167 HD
ATOM     50  C   UNL A   1      43.494  29.330  35.381  1.00  0.00     0.037 A 
ATOM     51  C   UNL A   1      38.172  32.134  31.758  1.00  0.00     0.037 A 
ATOM     52  C   UNL A   1      42.833  30.435  36.026  1.00  0.00     0.049 A 
ATOM     53  C   UNL A   1      38.551  32.629  33.129  1.00  0.00     0.074 A 
ATOM     54  C   UNL A   1      43.120  31.017  37.249  1.00  0.00     0.029 A 
ATOM     55  N   UNL A   1      41.750  31.122  35.499  1.00  0.00    -0.354 N 
ATOM     56  N   UNL A   1      39.522  32.224  33.914  1.00  0.00    -0.248 NA
ATOM     57  C   UNL A   1      37.743  33.720  33.688  1.00  0.00     0.031 C 
ATOM     58  C   UNL A   1      42.184  32.032  37.478  1.00  0.00     0.029 A 
ATOM     59  C   UNL A   1      41.342  32.110  36.379  1.00  0.00     0.049 A 
ATOM     60  H   UNL A   1      41.333  30.936  34.627  1.00  0.00     0.167 HD
ATOM     61  C   UNL A   1      39.461  33.032  35.044  1.00  0.00     0.074 A 
ATOM     62  C   UNL A   1      38.360  33.951  34.839  1.00  0.00     0.031 C 
ATOM     63  C   UNL A   1      40.246  33.019  36.150  1.00  0.00     0.037 A 
BRANCH  50  64
ATOM     64  C   UNL A   1      44.618  28.642  36.104  1.00  0.00     0.058 A 
ATOM     65  C   UNL A   1      44.388  27.564  36.975  1.00  0.00     0.135 A 
ATOM     66  C   UNL A   1      45.944  29.061  35.918  1.00  0.00     0.135 A 
ATOM     67  F   UNL A   1      43.138  27.134  37.204  1.00  0.00    -0.206 F 
ATOM     68  C   UNL A   1      45.432  26.947  37.660  1.00  0.00     0.059 A 
ATOM     69  C   UNL A   1      47.006  28.445  36.574  1.00  0.00     0.059 A 
ATOM     70  F   UNL A   1      46.219  30.088  35.100  1.00  0.00    -0.206 F 
ATOM     71  C   UNL A   1      46.737  27.398  37.456  1.00  0.00     0.060 A 
BRANCH  71  72
ATOM     72  S   UNL A   1      48.082  26.599  38.357  1.00  0.00     0.124 S 
ATOM     73  O   UNL A   1      47.603  25.223  38.435  1.00  0.00    -0.237 OA
ATOM     74  O   UNL A   1      49.226  26.820  37.477  1.00  0.00    -0.237 OA
ATOM     75  O   UNL A   1      48.121  27.323  39.624  1.00  0.00    -0.744 OA
ENDBRANCH  71  72
ENDBRANCH  50  64
BRANCH  51  76
ATOM     76  C   UNL A   1      37.045  32.751  31.009  1.00  0.00     0.058 A 
ATOM     77  C   UNL A   1      37.275  33.739  30.042  1.00  0.00     0.135 A 
ATOM     78  C   UNL A   1      35.719  32.356  31.240  1.00  0.00     0.135 A 
ATOM     79  F   UNL A   1      38.526  34.156  29.792  1.00  0.00    -0.206 F 
ATOM     80  C   UNL A   1      36.228  34.324  29.336  1.00  0.00     0.059 A 
ATOM     81  C   UNL A   1      34.658  32.909  30.532  1.00  0.00     0.059 A 
ATOM     82  F   UNL A   1      35.448  31.405  32.149  1.00  0.00    -0.206 F 
ATOM     83  C   UNL A   1      34.921  33.900  29.587  1.00  0.00     0.060 A 
BRANCH  83  84
ATOM     84  S   UNL A   1      33.574  34.627  28.628  1.00  0.00     0.124 S 
ATOM     85  O   UNL A   1      33.201  33.517  27.759  1.00  0.00    -0.237 OA
ATOM     86  O   UNL A   1      32.611  34.978  29.667  1.00  0.00    -0.237 OA
ATOM     87  O   UNL A   1      34.211  35.762  27.965  1.00  0.00    -0.744 OA
ENDBRANCH  83  84
ENDBRANCH  51  76
BRANCH  63  88
ATOM     88  C   UNL A   1      39.965  34.053  37.205  1.00  0.00     0.058 A 
ATOM     89  C   UNL A   1      39.103  33.794  38.281  1.00  0.00     0.135 A 
ATOM     90  C   UNL A   1      40.596  35.306  37.153  1.00  0.00     0.135 A 
ATOM     91  F   UNL A   1      38.473  32.612  38.373  1.00  0.00    -0.206 F 
ATOM     92  C   UNL A   1      38.851  34.756  39.255  1.00  0.00     0.059 A 
ATOM     93  C   UNL A   1      40.378  36.274  38.129  1.00  0.00     0.059 A 
ATOM     94  F   UNL A   1      41.440  35.598  36.151  1.00  0.00    -0.206 F 
ATOM     95  C   UNL A   1      39.491  35.993  39.168  1.00  0.00     0.060 A 
BRANCH  95  96
ATOM     96  S   UNL A   1      39.170  37.230  40.444  1.00  0.00     0.124 S 
ATOM     97  O   UNL A   1      38.576  36.415  41.499  1.00  0.00    -0.237 OA
ATOM     98  O   UNL A   1      40.505  37.751  40.722  1.00  0.00    -0.237 OA
ATOM     99  O   UNL A   1      38.264  38.167  39.788  1.00  0.00    -0.744 OA
ENDBRANCH  95  96
ENDBRANCH  63  88
ENDBRANCH  37  38
ENDBRANCH  30  32
ENDBRANCH  29  30
ENDBRANCH  28  29
ENDBRANCH  27  28
ENDBRANCH   1  27
TORSDOF 20
ENDMDL
MODEL 2
REMARK VINA RESULT:     -11.0      6.319     11.676
REMARK SMILES O=C(Cc1cncnc1N1CCC2(CC1)OCCC[C@@H]2O)OCCOCCOC(=O)c1ccc(-c2c3nc(c(-c4c(F)cc(S(=O)(=O)[O-])cc4F)c4ccc([nH]4)c(-c4c(F)cc(S(=O)(=O)[O-])cc4F)c4nc(c(-c5c(F)cc(S(=O)(=O)[O-])cc5F)c5ccc2[nH]5)C=C4)C=C3)cc1
REMARK SMILES IDX 25 1 24 2 23 3 22 4 2 5 1 6 3 7 4 8 5 9 9 10 6 11 8 12 7 13
REMARK SMILES IDX 10 14 11 15 15 16 12 17 14 18 13 19 16 20 20 21 17 22 19 23
REMARK SMILES IDX 18 24 21 25 26 27 27 28 28 29 29 30 30 31 31 32 32 33 96 34
REMARK SMILES IDX 33 35 95 36 34 37 35 38 36 39 89 40 37 41 94 42 88 43 90 44
REMARK SMILES IDX 38 45 93 46 87 47 86 48 39 50 73 51 52 52 72 53 53 54 56 55
REMARK SMILES IDX 71 56 91 57 54 58 55 59 70 61 92 62 57 63 40 64 41 65 50 66
REMARK SMILES IDX 42 67 43 68 49 69 51 70 44 71 45 72 46 73 47 74 48 75 74 76
REMARK SMILES IDX 75 77 84 78 76 79 77 80 83 81 85 82 78 83 79 84 80 85 81 86
REMARK SMILES IDX 82 87 58 88 59 89 68 90 60 91 61 92 67 93 69 94 62 95 63 96
REMARK SMILES IDX 64 97 65 98 66 99
REMARK H PARENT 21 26 90 49 56 60
REMARK Flexibility Score: inf
ROOT
ATOM      1  O   UNL A   1      33.777  32.083  28.019  1.00  0.00    -0.374 OA
ENDROOT
BRANCH   1   2
ATOM      2  C   UNL A   1      33.928  30.862  27.314  1.00  0.00     0.202 C 
BRANCH   2   3
ATOM      3  C   UNL A   1      32.691  30.099  26.827  1.00  0.00     0.261 C 
BRANCH   3   4
ATOM      4  O   UNL A   1      32.458  28.828  27.447  1.00  0.00    -0.463 OA
BRANCH   4   5
ATOM      5  C   UNL A   1      32.417  27.631  26.819  1.00  0.00     0.310 C 
ATOM      6  O   UNL A   1      33.427  27.217  26.242  1.00  0.00    -0.252 OA
BRANCH   5   7
ATOM      7  C   UNL A   1      31.118  26.882  26.715  1.00  0.00     0.163 C 
BRANCH   7   8
ATOM      8  C   UNL A   1      31.004  25.808  25.674  1.00  0.00     0.024 A 
ATOM      9  C   UNL A   1      31.279  24.499  26.026  1.00  0.00     0.121 A 
ATOM     10  C   UNL A   1      30.589  26.010  24.359  1.00  0.00     0.135 A 
ATOM     11  N   UNL A   1      31.205  23.464  25.179  1.00  0.00    -0.244 NA
ATOM     12  N   UNL A   1      30.508  24.997  23.481  1.00  0.00    -0.219 NA
ATOM     13  C   UNL A   1      30.827  23.776  23.932  1.00  0.00     0.224 A 
BRANCH  10  14
ATOM     14  N   UNL A   1      30.216  27.279  23.952  1.00  0.00    -0.356 N 
ATOM     15  C   UNL A   1      29.005  27.341  23.147  1.00  0.00     0.121 C 
ATOM     16  C   UNL A   1      31.260  28.174  23.453  1.00  0.00     0.121 C 
ATOM     17  C   UNL A   1      28.375  28.702  23.401  1.00  0.00     0.060 C 
ATOM     18  C   UNL A   1      30.782  29.613  23.661  1.00  0.00     0.060 C 
ATOM     19  C   UNL A   1      29.344  29.887  23.142  1.00  0.00     0.097 C 
ATOM     20  O   UNL A   1      29.492  30.108  21.721  1.00  0.00    -0.372 OA
ATOM     21  C   UNL A   1      28.787  31.161  23.856  1.00  0.00     0.146 C 
ATOM     22  C   UNL A   1      28.363  30.643  21.039  1.00  0.00     0.161 C 
ATOM     23  C   UNL A   1      27.531  31.685  23.167  1.00  0.00     0.037 C 
ATOM     24  C   UNL A   1      27.809  31.904  21.686  1.00  0.00     0.031 C 
BRANCH  21  25
ATOM     25  O   UNL A   1      29.754  32.219  23.867  1.00  0.00    -0.390 OA
ATOM     26  H   UNL A   1      29.717  32.698  23.025  1.00  0.00     0.211 HD
ENDBRANCH  21  25
ENDBRANCH  10  14
ENDBRANCH   7   8
ENDBRANCH   5   7
ENDBRANCH   4   5
ENDBRANCH   3   4
ENDBRANCH   2   3
ENDBRANCH   1   2
BRANCH   1  27
ATOM     27  C   UNL A   1      34.904  32.748  28.576  1.00  0.00     0.202 C 
BRANCH  27  28
ATOM     28  C   UNL A   1      35.266  32.647  30.063  1.00  0.00     0.261 C 
BRANCH  28  29
ATOM     29  O   UNL A   1      36.614  32.270  30.364  1.00  0.00    -0.460 OA
BRANCH  29  30
ATOM     30  C   UNL A   1      36.708  31.087  31.018  1.00  0.00     0.338 C 
ATOM     31  O   UNL A   1      36.031  30.718  31.962  1.00  0.00    -0.246 OA
BRANCH  30  32
ATOM     32  C   UNL A   1      37.692  30.201  30.377  1.00  0.00     0.060 A 
ATOM     33  C   UNL A   1      38.585  29.522  31.213  1.00  0.00     0.016 A 
ATOM     34  C   UNL A   1      37.868  30.202  28.991  1.00  0.00     0.016 A 
ATOM     35  C   UNL A   1      39.713  28.916  30.672  1.00  0.00     0.010 A 
ATOM     36  C   UNL A   1      39.006  29.595  28.449  1.00  0.00     0.010 A 
ATOM     37  C   UNL A   1      39.962  29.006  29.296  1.00  0.00    -0.014 A 
BRANCH  37  38
ATOM     38  C   UNL A   1      41.319  28.677  28.798  1.00  0.00     0.031 A 
ATOM     39  C   UNL A   1      42.374  29.754  28.809  1.00  0.00     0.074 A 
ATOM     40  C   UNL A   1      41.625  27.426  28.416  1.00  0.00     0.049 A 
ATOM     41  N   UNL A   1      43.637  29.682  28.479  1.00  0.00    -0.248 NA
ATOM     42  C   UNL A   1      41.945  31.091  29.255  1.00  0.00     0.031 C 
ATOM     43  C   UNL A   1      40.695  26.298  28.399  1.00  0.00     0.029 A 
ATOM     44  N   UNL A   1      42.811  26.893  27.980  1.00  0.00    -0.354 N 
ATOM     45  C   UNL A   1      44.151  30.960  28.670  1.00  0.00     0.074 A 
ATOM     46  C   UNL A   1      43.059  31.795  29.118  1.00  0.00     0.031 C 
ATOM     47  C   UNL A   1      41.349  25.202  27.977  1.00  0.00     0.029 A 
ATOM     48  C   UNL A   1      42.735  25.556  27.679  1.00  0.00     0.049 A 
ATOM     49  H   UNL A   1      43.638  27.420  27.891  1.00  0.00     0.167 HD
ATOM     50  C   UNL A   1      45.422  31.397  28.497  1.00  0.00     0.037 A 
ATOM     51  C   UNL A   1      43.681  24.716  27.214  1.00  0.00     0.037 A 
ATOM     52  C   UNL A   1      46.507  30.558  28.060  1.00  0.00     0.049 A 
ATOM     53  C   UNL A   1      45.078  25.232  26.995  1.00  0.00     0.074 A 
ATOM     54  C   UNL A   1      47.837  30.894  27.875  1.00  0.00     0.029 A 
ATOM     55  N   UNL A   1      46.384  29.215  27.734  1.00  0.00    -0.354 N 
ATOM     56  N   UNL A   1      45.557  26.436  27.205  1.00  0.00    -0.248 NA
ATOM     57  C   UNL A   1      46.066  24.274  26.480  1.00  0.00     0.031 C 
ATOM     58  C   UNL A   1      48.510  29.762  27.400  1.00  0.00     0.029 A 
ATOM     59  C   UNL A   1      47.608  28.712  27.330  1.00  0.00     0.049 A 
ATOM     60  H   UNL A   1      45.549  28.697  27.784  1.00  0.00     0.167 HD
ATOM     61  C   UNL A   1      46.908  26.371  26.879  1.00  0.00     0.074 A 
ATOM     62  C   UNL A   1      47.170  25.009  26.462  1.00  0.00     0.031 C 
ATOM     63  C   UNL A   1      47.848  27.348  26.925  1.00  0.00     0.037 A 
BRANCH  50  64
ATOM     64  C   UNL A   1      45.696  32.852  28.754  1.00  0.00     0.058 A 
ATOM     65  C   UNL A   1      46.034  33.328  30.032  1.00  0.00     0.135 A 
ATOM     66  C   UNL A   1      45.627  33.784  27.707  1.00  0.00     0.135 A 
ATOM     67  F   UNL A   1      46.097  32.484  31.073  1.00  0.00    -0.206 F 
ATOM     68  C   UNL A   1      46.264  34.681  30.267  1.00  0.00     0.059 A 
ATOM     69  C   UNL A   1      45.876  35.138  27.914  1.00  0.00     0.059 A 
ATOM     70  F   UNL A   1      45.306  33.384  26.467  1.00  0.00    -0.206 F 
ATOM     71  C   UNL A   1      46.177  35.579  29.202  1.00  0.00     0.060 A 
BRANCH  71  72
ATOM     72  S   UNL A   1      46.466  37.333  29.519  1.00  0.00     0.124 S 
ATOM     73  O   UNL A   1      45.749  37.523  30.776  1.00  0.00    -0.237 OA
ATOM     74  O   UNL A   1      47.922  37.402  29.606  1.00  0.00    -0.237 OA
ATOM     75  O   UNL A   1      45.879  37.990  28.356  1.00  0.00    -0.744 OA
ENDBRANCH  71  72
ENDBRANCH  50  64
BRANCH  51  76
ATOM     76  C   UNL A   1      43.340  23.295  26.942  1.00  0.00     0.058 A 
ATOM     77  C   UNL A   1      43.260  22.809  25.628  1.00  0.00     0.135 A 
ATOM     78  C   UNL A   1      43.098  22.393  27.989  1.00  0.00     0.135 A 
ATOM     79  F   UNL A   1      43.475  23.636  24.593  1.00  0.00    -0.206 F 
ATOM     80  C   UNL A   1      42.941  21.482  25.361  1.00  0.00     0.059 A 
ATOM     81  C   UNL A   1      42.800  21.056  27.748  1.00  0.00     0.059 A 
ATOM     82  F   UNL A   1      43.173  22.807  29.264  1.00  0.00    -0.206 F 
ATOM     83  C   UNL A   1      42.715  20.611  26.429  1.00  0.00     0.060 A 
BRANCH  83  84
ATOM     84  S   UNL A   1      42.354  18.878  26.074  1.00  0.00     0.124 S 
ATOM     85  O   UNL A   1      42.673  18.244  27.348  1.00  0.00    -0.237 OA
ATOM     86  O   UNL A   1      40.939  18.924  25.720  1.00  0.00    -0.237 OA
ATOM     87  O   UNL A   1      43.259  18.568  24.970  1.00  0.00    -0.744 OA
ENDBRANCH  83  84
ENDBRANCH  51  76
BRANCH  63  88
ATOM     88  C   UNL A   1      49.253  26.968  26.550  1.00  0.00     0.058 A 
ATOM     89  C   UNL A   1      50.160  26.470  27.497  1.00  0.00     0.135 A 
ATOM     90  C   UNL A   1      49.682  27.072  25.217  1.00  0.00     0.135 A 
ATOM     91  F   UNL A   1      49.799  26.355  28.785  1.00  0.00    -0.206 F 
ATOM     92  C   UNL A   1      51.458  26.116  27.141  1.00  0.00     0.059 A 
ATOM     93  C   UNL A   1      50.968  26.701  24.834  1.00  0.00     0.059 A 
ATOM     94  F   UNL A   1      48.847  27.530  24.271  1.00  0.00    -0.206 F 
ATOM     95  C   UNL A   1      51.853  26.238  25.807  1.00  0.00     0.060 A 
BRANCH  95  96
ATOM     96  S   UNL A   1      53.534  25.763  25.351  1.00  0.00     0.124 S 
ATOM     97  O   UNL A   1      54.254  27.019  25.537  1.00  0.00    -0.237 OA
ATOM     98  O   UNL A   1      53.837  24.709  26.314  1.00  0.00    -0.237 OA
ATOM     99  O   UNL A   1      53.395  25.316  23.968  1.00  0.00    -0.744 OA
ENDBRANCH  95  96
ENDBRANCH  63  88
ENDBRANCH  37  38
ENDBRANCH  30  32
ENDBRANCH  29  30
ENDBRANCH  28  29
ENDBRANCH  27  28
ENDBRANCH   1  27
TORSDOF 20
ENDMDL
MODEL 3
REMARK VINA RESULT:     -11.0      6.133      8.378
REMARK SMILES O=C(Cc1cncnc1N1CCC2(CC1)OCCC[C@@H]2O)OCCOCCOC(=O)c1ccc(-c2c3nc(c(-c4c(F)cc(S(=O)(=O)[O-])cc4F)c4ccc([nH]4)c(-c4c(F)cc(S(=O)(=O)[O-])cc4F)c4nc(c(-c5c(F)cc(S(=O)(=O)[O-])cc5F)c5ccc2[nH]5)C=C4)C=C3)cc1
REMARK SMILES IDX 25 1 24 2 23 3 22 4 2 5 1 6 3 7 4 8 5 9 9 10 6 11 8 12 7 13
REMARK SMILES IDX 10 14 11 15 15 16 12 17 14 18 13 19 16 20 20 21 17 22 19 23
REMARK SMILES IDX 18 24 21 25 26 27 27 28 28 29 29 30 30 31 31 32 32 33 96 34
REMARK SMILES IDX 33 35 95 36 34 37 35 38 36 39 89 40 37 41 94 42 88 43 90 44
REMARK SMILES IDX 38 45 93 46 87 47 86 48 39 50 73 51 52 52 72 53 53 54 56 55
REMARK SMILES IDX 71 56 91 57 54 58 55 59 70 61 92 62 57 63 40 64 41 65 50 66
REMARK SMILES IDX 42 67 43 68 49 69 51 70 44 71 45 72 46 73 47 74 48 75 74 76
REMARK SMILES IDX 75 77 84 78 76 79 77 80 83 81 85 82 78 83 79 84 80 85 81 86
REMARK SMILES IDX 82 87 58 88 59 89 68 90 60 91 61 92 67 93 69 94 62 95 63 96
REMARK SMILES IDX 64 97 65 98 66 99
REMARK H PARENT 21 26 90 49 56 60
REMARK Flexibility Score: inf
ROOT
ATOM      1  O   UNL A   1      37.223  21.077  25.641  1.00  0.00    -0.374 OA
ENDROOT
BRANCH   1   2
ATOM      2  C   UNL A   1      36.216  22.002  26.015  1.00  0.00     0.202 C 
BRANCH   2   3
ATOM      3  C   UNL A   1      36.456  23.507  25.846  1.00  0.00     0.261 C 
BRANCH   3   4
ATOM      4  O   UNL A   1      35.844  24.112  24.700  1.00  0.00    -0.463 OA
BRANCH   4   5
ATOM      5  C   UNL A   1      35.624  23.514  23.507  1.00  0.00     0.310 C 
ATOM      6  O   UNL A   1      36.582  23.264  22.770  1.00  0.00    -0.252 OA
BRANCH   5   7
ATOM      7  C   UNL A   1      34.217  23.282  23.032  1.00  0.00     0.163 C 
BRANCH   7   8
ATOM      8  C   UNL A   1      33.310  22.449  23.889  1.00  0.00     0.024 A 
ATOM      9  C   UNL A   1      33.417  21.071  23.838  1.00  0.00     0.121 A 
ATOM     10  C   UNL A   1      32.375  22.953  24.790  1.00  0.00     0.135 A 
ATOM     11  N   UNL A   1      32.663  20.233  24.561  1.00  0.00    -0.244 NA
ATOM     12  N   UNL A   1      31.598  22.144  25.528  1.00  0.00    -0.219 NA
ATOM     13  C   UNL A   1      31.774  20.824  25.371  1.00  0.00     0.224 A 
BRANCH  10  14
ATOM     14  N   UNL A   1      32.265  24.322  24.960  1.00  0.00    -0.356 N 
ATOM     15  C   UNL A   1      32.871  24.847  26.174  1.00  0.00     0.121 C 
ATOM     16  C   UNL A   1      30.976  24.948  24.668  1.00  0.00     0.121 C 
ATOM     17  C   UNL A   1      33.297  26.277  25.873  1.00  0.00     0.060 C 
ATOM     18  C   UNL A   1      31.236  26.415  24.316  1.00  0.00     0.060 C 
ATOM     19  C   UNL A   1      32.141  27.162  25.333  1.00  0.00     0.097 C 
ATOM     20  O   UNL A   1      31.260  27.545  26.412  1.00  0.00    -0.372 OA
ATOM     21  C   UNL A   1      32.753  28.418  24.631  1.00  0.00     0.146 C 
ATOM     22  C   UNL A   1      31.777  28.475  27.357  1.00  0.00     0.161 C 
ATOM     23  C   UNL A   1      33.376  29.375  25.642  1.00  0.00     0.037 C 
ATOM     24  C   UNL A   1      32.354  29.728  26.715  1.00  0.00     0.031 C 
BRANCH  21  25
ATOM     25  O   UNL A   1      31.759  29.143  23.897  1.00  0.00    -0.390 OA
ATOM     26  H   UNL A   1      31.034  28.545  23.659  1.00  0.00     0.211 HD
ENDBRANCH  21  25
ENDBRANCH  10  14
ENDBRANCH   7   8
ENDBRANCH   5   7
ENDBRANCH   4   5
ENDBRANCH   3   4
ENDBRANCH   2   3
ENDBRANCH   1   2
BRANCH   1  27
ATOM     27  C   UNL A   1      38.551  21.513  25.376  1.00  0.00     0.202 C 
BRANCH  27  28
ATOM     28  C   UNL A   1      39.642  21.526  26.455  1.00  0.00     0.261 C 
BRANCH  28  29
ATOM     29  O   UNL A   1      40.106  20.249  26.905  1.00  0.00    -0.460 OA
BRANCH  29  30
ATOM     30  C   UNL A   1      41.304  19.898  26.378  1.00  0.00     0.338 C 
ATOM     31  O   UNL A   1      41.557  18.886  25.747  1.00  0.00    -0.246 OA
BRANCH  30  32
ATOM     32  C   UNL A   1      42.301  20.963  26.565  1.00  0.00     0.060 A 
ATOM     33  C   UNL A   1      42.548  21.388  27.876  1.00  0.00     0.016 A 
ATOM     34  C   UNL A   1      42.819  21.667  25.476  1.00  0.00     0.016 A 
ATOM     35  C   UNL A   1      43.239  22.573  28.099  1.00  0.00     0.010 A 
ATOM     36  C   UNL A   1      43.511  22.862  25.702  1.00  0.00     0.010 A 
ATOM     37  C   UNL A   1      43.666  23.348  27.013  1.00  0.00    -0.014 A 
BRANCH  37  38
ATOM     38  C   UNL A   1      44.071  24.752  27.259  1.00  0.00     0.031 A 
ATOM     39  C   UNL A   1      45.508  25.142  27.027  1.00  0.00     0.074 A 
ATOM     40  C   UNL A   1      43.160  25.678  27.609  1.00  0.00     0.049 A 
ATOM     41  N   UNL A   1      46.075  26.317  27.120  1.00  0.00    -0.248 NA
ATOM     42  C   UNL A   1      46.428  24.061  26.635  1.00  0.00     0.031 C 
ATOM     43  C   UNL A   1      41.737  25.421  27.826  1.00  0.00     0.029 A 
ATOM     44  N   UNL A   1      43.300  27.023  27.832  1.00  0.00    -0.354 N 
ATOM     45  C   UNL A   1      47.414  26.117  26.805  1.00  0.00     0.074 A 
ATOM     46  C   UNL A   1      47.583  24.704  26.546  1.00  0.00     0.031 C 
ATOM     47  C   UNL A   1      41.131  26.577  28.148  1.00  0.00     0.029 A 
ATOM     48  C   UNL A   1      42.126  27.648  28.175  1.00  0.00     0.049 A 
ATOM     49  H   UNL A   1      44.159  27.496  27.754  1.00  0.00     0.167 HD
ATOM     50  C   UNL A   1      48.413  27.029  26.730  1.00  0.00     0.037 A 
ATOM     51  C   UNL A   1      41.886  28.938  28.478  1.00  0.00     0.037 A 
ATOM     52  C   UNL A   1      48.237  28.436  26.980  1.00  0.00     0.049 A 
ATOM     53  C   UNL A   1      43.018  29.929  28.423  1.00  0.00     0.074 A 
ATOM     54  C   UNL A   1      49.176  29.450  26.908  1.00  0.00     0.029 A 
ATOM     55  N   UNL A   1      47.038  29.025  27.356  1.00  0.00    -0.354 N 
ATOM     56  N   UNL A   1      44.275  29.731  28.098  1.00  0.00    -0.248 NA
ATOM     57  C   UNL A   1      42.701  31.320  28.770  1.00  0.00     0.031 C 
ATOM     58  C   UNL A   1      48.554  30.647  27.278  1.00  0.00     0.029 A 
ATOM     59  C   UNL A   1      47.217  30.385  27.539  1.00  0.00     0.049 A 
ATOM     60  H   UNL A   1      46.187  28.546  27.474  1.00  0.00     0.167 HD
ATOM     61  C   UNL A   1      44.888  30.976  28.170  1.00  0.00     0.074 A 
ATOM     62  C   UNL A   1      43.865  31.922  28.566  1.00  0.00     0.031 C 
ATOM     63  C   UNL A   1      46.181  31.310  27.927  1.00  0.00     0.037 A 
BRANCH  50  64
ATOM     64  C   UNL A   1      49.788  26.525  26.390  1.00  0.00     0.058 A 
ATOM     65  C   UNL A   1      50.271  26.521  25.071  1.00  0.00     0.135 A 
ATOM     66  C   UNL A   1      50.639  26.048  27.399  1.00  0.00     0.135 A 
ATOM     67  F   UNL A   1      49.493  26.949  24.065  1.00  0.00    -0.206 F 
ATOM     68  C   UNL A   1      51.537  26.031  24.761  1.00  0.00     0.059 A 
ATOM     69  C   UNL A   1      51.917  25.575  27.116  1.00  0.00     0.059 A 
ATOM     70  F   UNL A   1      50.227  26.027  28.676  1.00  0.00    -0.206 F 
ATOM     71  C   UNL A   1      52.351  25.556  25.791  1.00  0.00     0.060 A 
BRANCH  71  72
ATOM     72  S   UNL A   1      53.987  24.913  25.377  1.00  0.00     0.124 S 
ATOM     73  O   UNL A   1      54.711  25.137  26.624  1.00  0.00    -0.237 OA
ATOM     74  O   UNL A   1      53.704  23.518  25.052  1.00  0.00    -0.237 OA
ATOM     75  O   UNL A   1      54.403  25.743  24.251  1.00  0.00    -0.744 OA
ENDBRANCH  71  72
ENDBRANCH  50  64
BRANCH  51  76
ATOM     76  C   UNL A   1      40.511  29.370  28.844  1.00  0.00     0.058 A 
ATOM     77  C   UNL A   1      40.163  29.619  30.180  1.00  0.00     0.135 A 
ATOM     78  C   UNL A   1      39.523  29.552  27.865  1.00  0.00     0.135 A 
ATOM     79  F   UNL A   1      41.072  29.451  31.153  1.00  0.00    -0.206 F 
ATOM     80  C   UNL A   1      38.879  30.023  30.534  1.00  0.00     0.059 A 
ATOM     81  C   UNL A   1      38.240  29.976  28.192  1.00  0.00     0.059 A 
ATOM     82  F   UNL A   1      39.810  29.337  26.572  1.00  0.00    -0.206 F 
ATOM     83  C   UNL A   1      37.924  30.201  29.532  1.00  0.00     0.060 A 
BRANCH  83  84
ATOM     84  S   UNL A   1      36.276  30.776  29.996  1.00  0.00     0.124 S 
ATOM     85  O   UNL A   1      36.544  32.159  30.375  1.00  0.00    -0.237 OA
ATOM     86  O   UNL A   1      35.524  30.586  28.761  1.00  0.00    -0.237 OA
ATOM     87  O   UNL A   1      35.907  29.882  31.090  1.00  0.00    -0.744 OA
ENDBRANCH  83  84
ENDBRANCH  51  76
BRANCH  63  88
ATOM     88  C   UNL A   1      46.549  32.763  28.046  1.00  0.00     0.058 A 
ATOM     89  C   UNL A   1      47.138  33.281  29.209  1.00  0.00     0.135 A 
ATOM     90  C   UNL A   1      46.341  33.636  26.967  1.00  0.00     0.135 A 
ATOM     91  F   UNL A   1      47.354  32.487  30.270  1.00  0.00    -0.206 F 
ATOM     92  C   UNL A   1      47.480  34.626  29.310  1.00  0.00     0.059 A 
ATOM     93  C   UNL A   1      46.698  34.980  27.037  1.00  0.00     0.059 A 
ATOM     94  F   UNL A   1      45.794  33.186  25.827  1.00  0.00    -0.206 F 
ATOM     95  C   UNL A   1      47.253  35.468  28.220  1.00  0.00     0.060 A 
BRANCH  95  96
ATOM     96  S   UNL A   1      47.713  37.208  28.354  1.00  0.00     0.124 S 
ATOM     97  O   UNL A   1      46.456  37.812  28.782  1.00  0.00    -0.237 OA
ATOM     98  O   UNL A   1      48.775  37.179  29.355  1.00  0.00    -0.237 OA
ATOM     99  O   UNL A   1      48.146  37.549  27.002  1.00  0.00    -0.744 OA
ENDBRANCH  95  96
ENDBRANCH  63  88
ENDBRANCH  37  38
ENDBRANCH  30  32
ENDBRANCH  29  30
ENDBRANCH  28  29
ENDBRANCH  27  28
ENDBRANCH   1  27
TORSDOF 20
ENDMDL
