MODEL 1
REMARK VINA RESULT:     -11.2      0.000      0.000
REMARK SMILES Cc1[nH]c2c(C(=O)N3CC[C@H](O)C[C@@H]3C(=O)OCCOCCOC(=O)c3ccc(-c4c5nc(c(-c6c(F)cc(S(=O)(=O)[O-])cc6F)c6ccc([nH]6)c(-c6c(F)cc(S(=O)(=O)[O-])cc6F)c6nc(c(-c7c(F)cc(S(=O)(=O)[O-])cc7F)c7ccc4[nH]7)C=C6)C=C5)cc3)cccc2c1C
REMARK SMILES IDX 21 1 20 2 19 3 18 4 17 5 15 6 16 7 14 8 8 9 9 10 10 11 13 12
REMARK SMILES IDX 11 13 6 14 7 15 5 16 1 17 2 18 3 19 96 20 4 21 95 23 97 24
REMARK SMILES IDX 94 25 92 26 93 27 12 28 22 30 23 31 24 32 25 33 26 34 27 35
REMARK SMILES IDX 91 36 28 37 90 38 29 39 30 40 31 41 84 42 32 43 89 44 83 45
REMARK SMILES IDX 85 46 33 47 88 48 82 49 81 50 34 52 68 53 47 54 67 55 48 56
REMARK SMILES IDX 51 57 66 58 86 59 49 60 50 61 65 63 87 64 52 65 35 66 36 67
REMARK SMILES IDX 45 68 37 69 38 70 44 71 46 72 39 73 40 74 41 75 42 76 43 77
REMARK SMILES IDX 69 78 70 79 79 80 71 81 72 82 78 83 80 84 73 85 74 86 75 87
REMARK SMILES IDX 76 88 77 89 53 90 54 91 63 92 55 93 56 94 62 95 64 96 57 97
REMARK SMILES IDX 58 98 59 99 60 100 61 101
REMARK H PARENT 3 22 12 29 85 51 51 62
REMARK Flexibility Score: inf
ROOT
ATOM      1  C   UNL A   1      39.599  22.022  26.672  1.00  0.00     0.202 C 
ENDROOT
BRANCH   1   2
ATOM      2  O   UNL A   1      38.602  21.776  25.682  1.00  0.00    -0.374 OA
BRANCH   2   3
ATOM      3  C   UNL A   1      37.895  22.914  25.196  1.00  0.00     0.202 C 
BRANCH   3   4
ATOM      4  C   UNL A   1      36.808  23.475  26.116  1.00  0.00     0.261 C 
BRANCH   4   5
ATOM      5  O   UNL A   1      35.465  23.236  25.628  1.00  0.00    -0.462 OA
BRANCH   5   6
ATOM      6  C   UNL A   1      34.839  24.331  25.097  1.00  0.00     0.329 C 
ATOM      7  O   UNL A   1      34.803  25.431  25.635  1.00  0.00    -0.250 OA
BRANCH   6   8
ATOM      8  C   UNL A   1      34.310  24.078  23.676  1.00  0.00     0.198 C 
ATOM      9  N   UNL A   1      32.993  24.686  23.445  1.00  0.00    -0.325 N 
ATOM     10  C   UNL A   1      31.769  23.905  23.635  1.00  0.00     0.123 C 
ATOM     11  C   UNL A   1      31.883  22.529  22.996  1.00  0.00     0.053 C 
ATOM     12  C   UNL A   1      34.398  22.619  23.224  1.00  0.00     0.069 C 
ATOM     13  C   UNL A   1      33.133  21.805  23.481  1.00  0.00     0.118 C 
BRANCH   9  14
ATOM     14  C   UNL A   1      32.995  25.874  22.721  1.00  0.00     0.256 C 
ATOM     15  O   UNL A   1      33.789  26.051  21.798  1.00  0.00    -0.269 OA
BRANCH  14  16
ATOM     16  C   UNL A   1      32.137  27.000  23.168  1.00  0.00     0.064 A 
ATOM     17  C   UNL A   1      34.346  29.090  27.120  1.00  0.00     0.064 C 
ATOM     18  C   UNL A   1      33.403  28.948  25.980  1.00  0.00     0.016 A 
ATOM     19  N   UNL A   1      33.561  27.972  25.034  1.00  0.00    -0.358 N 
ATOM     20  C   UNL A   1      32.286  29.681  25.622  1.00  0.00    -0.023 A 
ATOM     21  C   UNL A   1      32.475  27.902  24.196  1.00  0.00     0.059 A 
ATOM     22  H   UNL A   1      34.354  27.393  24.962  1.00  0.00     0.166 HD
ATOM     23  C   UNL A   1      31.686  29.012  24.506  1.00  0.00     0.003 A 
ATOM     24  C   UNL A   1      31.773  30.909  26.288  1.00  0.00     0.047 C 
ATOM     25  C   UNL A   1      30.530  29.258  23.736  1.00  0.00     0.010 A 
ATOM     26  C   UNL A   1      30.975  27.276  22.425  1.00  0.00     0.016 A 
ATOM     27  C   UNL A   1      30.186  28.388  22.699  1.00  0.00     0.002 A 
ENDBRANCH  14  16
ENDBRANCH   9  14
BRANCH  13  28
ATOM     28  O   UNL A   1      33.012  21.458  24.852  1.00  0.00    -0.393 OA
ATOM     29  H   UNL A   1      32.360  22.038  25.275  1.00  0.00     0.210 HD
ENDBRANCH  13  28
ENDBRANCH   6   8
ENDBRANCH   5   6
ENDBRANCH   4   5
ENDBRANCH   3   4
ENDBRANCH   2   3
ENDBRANCH   1   2
BRANCH   1  30
ATOM     30  C   UNL A   1      41.032  22.203  26.161  1.00  0.00     0.261 C 
BRANCH  30  31
ATOM     31  O   UNL A   1      41.786  23.087  27.010  1.00  0.00    -0.460 OA
BRANCH  31  32
ATOM     32  C   UNL A   1      42.114  24.280  26.470  1.00  0.00     0.338 C 
ATOM     33  O   UNL A   1      42.597  24.469  25.361  1.00  0.00    -0.246 OA
BRANCH  32  34
ATOM     34  C   UNL A   1      41.616  25.382  27.323  1.00  0.00     0.060 A 
ATOM     35  C   UNL A   1      42.443  26.504  27.462  1.00  0.00     0.016 A 
ATOM     36  C   UNL A   1      40.401  25.319  28.013  1.00  0.00     0.016 A 
ATOM     37  C   UNL A   1      42.107  27.519  28.355  1.00  0.00     0.010 A 
ATOM     38  C   UNL A   1      40.065  26.342  28.912  1.00  0.00     0.010 A 
ATOM     39  C   UNL A   1      40.942  27.422  29.126  1.00  0.00    -0.014 A 
BRANCH  39  40
ATOM     40  C   UNL A   1      40.744  28.362  30.262  1.00  0.00     0.031 A 
ATOM     41  C   UNL A   1      41.646  28.256  31.466  1.00  0.00     0.074 A 
ATOM     42  C   UNL A   1      39.828  29.348  30.199  1.00  0.00     0.049 A 
ATOM     43  N   UNL A   1      41.666  28.982  32.556  1.00  0.00    -0.248 NA
ATOM     44  C   UNL A   1      42.663  27.192  31.437  1.00  0.00     0.031 C 
ATOM     45  C   UNL A   1      38.926  29.591  29.075  1.00  0.00     0.029 A 
ATOM     46  N   UNL A   1      39.512  30.332  31.103  1.00  0.00    -0.354 N 
ATOM     47  C   UNL A   1      42.691  28.463  33.340  1.00  0.00     0.074 A 
ATOM     48  C   UNL A   1      43.242  27.336  32.619  1.00  0.00     0.031 C 
ATOM     49  C   UNL A   1      38.158  30.658  29.356  1.00  0.00     0.029 A 
ATOM     50  C   UNL A   1      38.489  31.154  30.692  1.00  0.00     0.049 A 
ATOM     51  H   UNL A   1      39.974  30.439  31.966  1.00  0.00     0.167 HD
ATOM     52  C   UNL A   1      43.145  28.893  34.542  1.00  0.00     0.037 A 
ATOM     53  C   UNL A   1      37.879  32.177  31.325  1.00  0.00     0.037 A 
ATOM     54  C   UNL A   1      42.598  30.018  35.259  1.00  0.00     0.049 A 
ATOM     55  C   UNL A   1      38.346  32.587  32.699  1.00  0.00     0.074 A 
ATOM     56  C   UNL A   1      42.999  30.536  36.478  1.00  0.00     0.029 A 
ATOM     57  N   UNL A   1      41.530  30.791  34.830  1.00  0.00    -0.354 N 
ATOM     58  N   UNL A   1      39.329  32.099  33.417  1.00  0.00    -0.248 NA
ATOM     59  C   UNL A   1      37.621  33.691  33.347  1.00  0.00     0.031 C 
ATOM     60  C   UNL A   1      42.136  31.583  36.815  1.00  0.00     0.029 A 
ATOM     61  C   UNL A   1      41.239  31.764  35.774  1.00  0.00     0.049 A 
ATOM     62  H   UNL A   1      41.049  30.668  33.980  1.00  0.00     0.167 HD
ATOM     63  C   UNL A   1      39.361  32.857  34.586  1.00  0.00     0.074 A 
ATOM     64  C   UNL A   1      38.306  33.842  34.473  1.00  0.00     0.031 C 
ATOM     65  C   UNL A   1      40.192  32.748  35.652  1.00  0.00     0.037 A 
BRANCH  52  66
ATOM     66  C   UNL A   1      44.280  28.133  35.175  1.00  0.00     0.058 A 
ATOM     67  C   UNL A   1      44.056  27.034  36.020  1.00  0.00     0.135 A 
ATOM     68  C   UNL A   1      45.612  28.480  34.895  1.00  0.00     0.135 A 
ATOM     69  F   UNL A   1      42.804  26.668  36.337  1.00  0.00    -0.206 F 
ATOM     70  C   UNL A   1      45.111  26.325  36.587  1.00  0.00     0.059 A 
ATOM     71  C   UNL A   1      46.682  27.766  35.425  1.00  0.00     0.059 A 
ATOM     72  F   UNL A   1      45.885  29.521  34.093  1.00  0.00    -0.206 F 
ATOM     73  C   UNL A   1      46.422  26.698  36.282  1.00  0.00     0.060 A 
BRANCH  73  74
ATOM     74  S   UNL A   1      47.778  25.762  37.019  1.00  0.00     0.124 S 
ATOM     75  O   UNL A   1      48.061  26.552  38.213  1.00  0.00    -0.237 OA
ATOM     76  O   UNL A   1      47.165  24.458  37.253  1.00  0.00    -0.237 OA
ATOM     77  O   UNL A   1      48.811  25.790  35.989  1.00  0.00    -0.744 OA
ENDBRANCH  73  74
ENDBRANCH  52  66
BRANCH  53  78
ATOM     78  C   UNL A   1      36.748  32.888  30.668  1.00  0.00     0.058 A 
ATOM     79  C   UNL A   1      35.415  32.550  30.946  1.00  0.00     0.135 A 
ATOM     80  C   UNL A   1      36.978  33.918  29.742  1.00  0.00     0.135 A 
ATOM     81  F   UNL A   1      35.141  31.563  31.813  1.00  0.00    -0.206 F 
ATOM     82  C   UNL A   1      34.352  33.196  30.323  1.00  0.00     0.059 A 
ATOM     83  C   UNL A   1      35.933  34.600  29.129  1.00  0.00     0.059 A 
ATOM     84  F   UNL A   1      38.234  34.287  29.445  1.00  0.00    -0.206 F 
ATOM     85  C   UNL A   1      34.622  34.225  29.419  1.00  0.00     0.060 A 
BRANCH  85  86
ATOM     86  S   UNL A   1      33.234  35.096  28.661  1.00  0.00     0.124 S 
ATOM     87  O   UNL A   1      33.921  36.104  27.861  1.00  0.00    -0.237 OA
ATOM     88  O   UNL A   1      32.574  34.028  27.918  1.00  0.00    -0.237 OA
ATOM     89  O   UNL A   1      32.488  35.603  29.810  1.00  0.00    -0.744 OA
ENDBRANCH  85  86
ENDBRANCH  53  78
BRANCH  65  90
ATOM     90  C   UNL A   1      40.029  33.741  36.774  1.00  0.00     0.058 A 
ATOM     91  C   UNL A   1      40.749  34.946  36.811  1.00  0.00     0.135 A 
ATOM     92  C   UNL A   1      39.095  33.509  37.799  1.00  0.00     0.135 A 
ATOM     93  F   UNL A   1      41.657  35.220  35.861  1.00  0.00    -0.206 F 
ATOM     94  C   UNL A   1      40.567  35.872  37.835  1.00  0.00     0.059 A 
ATOM     95  C   UNL A   1      38.874  34.435  38.813  1.00  0.00     0.059 A 
ATOM     96  F   UNL A   1      38.370  32.379  37.809  1.00  0.00    -0.206 F 
ATOM     97  C   UNL A   1      39.624  35.609  38.830  1.00  0.00     0.060 A 
BRANCH  97  98
ATOM     98  S   UNL A   1      39.376  36.835  40.132  1.00  0.00     0.124 S 
ATOM     99  O   UNL A   1      40.733  37.003  40.642  1.00  0.00    -0.237 OA
ATOM    100  O   UNL A   1      38.833  37.970  39.392  1.00  0.00    -0.237 OA
ATOM    101  O   UNL A   1      38.440  36.182  41.042  1.00  0.00    -0.744 OA
ENDBRANCH  97  98
ENDBRANCH  65  90
ENDBRANCH  39  40
ENDBRANCH  32  34
ENDBRANCH  31  32
ENDBRANCH  30  31
ENDBRANCH   1  30
TORSDOF 20
ENDMDL
MODEL 2
REMARK VINA RESULT:     -11.2      6.150     11.689
REMARK SMILES Cc1[nH]c2c(C(=O)N3CC[C@H](O)C[C@@H]3C(=O)OCCOCCOC(=O)c3ccc(-c4c5nc(c(-c6c(F)cc(S(=O)(=O)[O-])cc6F)c6ccc([nH]6)c(-c6c(F)cc(S(=O)(=O)[O-])cc6F)c6nc(c(-c7c(F)cc(S(=O)(=O)[O-])cc7F)c7ccc4[nH]7)C=C6)C=C5)cc3)cccc2c1C
REMARK SMILES IDX 21 1 20 2 19 3 18 4 17 5 15 6 16 7 14 8 8 9 9 10 10 11 13 12
REMARK SMILES IDX 11 13 6 14 7 15 5 16 1 17 2 18 3 19 96 20 4 21 95 23 97 24
REMARK SMILES IDX 94 25 92 26 93 27 12 28 22 30 23 31 24 32 25 33 26 34 27 35
REMARK SMILES IDX 91 36 28 37 90 38 29 39 30 40 31 41 84 42 32 43 89 44 83 45
REMARK SMILES IDX 85 46 33 47 88 48 82 49 81 50 34 52 68 53 47 54 67 55 48 56
REMARK SMILES IDX 51 57 66 58 86 59 49 60 50 61 65 63 87 64 52 65 35 66 36 67
REMARK SMILES IDX 45 68 37 69 38 70 44 71 46 72 39 73 40 74 41 75 42 76 43 77
REMARK SMILES IDX 69 78 70 79 79 80 71 81 72 82 78 83 80 84 73 85 74 86 75 87
REMARK SMILES IDX 76 88 77 89 53 90 54 91 63 92 55 93 56 94 62 95 64 96 57 97
REMARK SMILES IDX 58 98 59 99 60 100 61 101
REMARK H PARENT 3 22 12 29 85 51 51 62
REMARK Flexibility Score: inf
ROOT
ATOM      1  C   UNL A   1      34.017  31.575  28.017  1.00  0.00     0.202 C 
ENDROOT
BRANCH   1   2
ATOM      2  O   UNL A   1      34.374  30.796  26.877  1.00  0.00    -0.374 OA
BRANCH   2   3
ATOM      3  C   UNL A   1      33.768  29.510  26.772  1.00  0.00     0.202 C 
BRANCH   3   4
ATOM      4  C   UNL A   1      32.280  29.493  26.411  1.00  0.00     0.261 C 
BRANCH   4   5
ATOM      5  O   UNL A   1      31.868  28.278  25.740  1.00  0.00    -0.462 OA
BRANCH   5   6
ATOM      6  C   UNL A   1      31.271  27.346  26.545  1.00  0.00     0.329 C 
ATOM      7  O   UNL A   1      31.067  27.502  27.744  1.00  0.00    -0.250 OA
BRANCH   6   8
ATOM      8  C   UNL A   1      30.745  26.135  25.759  1.00  0.00     0.198 C 
ATOM      9  N   UNL A   1      31.808  25.191  25.391  1.00  0.00    -0.325 N 
ATOM     10  C   UNL A   1      32.462  25.280  24.084  1.00  0.00     0.123 C 
ATOM     11  C   UNL A   1      31.447  25.461  22.965  1.00  0.00     0.053 C 
ATOM     12  C   UNL A   1      29.819  26.497  24.596  1.00  0.00     0.069 C 
ATOM     13  C   UNL A   1      30.526  26.641  23.251  1.00  0.00     0.118 C 
BRANCH   9  14
ATOM     14  C   UNL A   1      31.895  24.044  26.173  1.00  0.00     0.256 C 
ATOM     15  O   UNL A   1      31.527  24.049  27.347  1.00  0.00    -0.269 OA
BRANCH  14  16
ATOM     16  C   UNL A   1      32.587  22.846  25.634  1.00  0.00     0.064 A 
ATOM     17  C   UNL A   1      37.491  23.714  25.869  1.00  0.00     0.064 C 
ATOM     18  C   UNL A   1      36.232  22.940  25.715  1.00  0.00     0.016 A 
ATOM     19  N   UNL A   1      35.015  23.477  26.035  1.00  0.00    -0.358 N 
ATOM     20  C   UNL A   1      36.003  21.645  25.287  1.00  0.00    -0.023 A 
ATOM     21  C   UNL A   1      33.983  22.665  25.629  1.00  0.00     0.059 A 
ATOM     22  H   UNL A   1      34.893  24.338  26.497  1.00  0.00     0.166 HD
ATOM     23  C   UNL A   1      34.582  21.474  25.212  1.00  0.00     0.003 A 
ATOM     24  C   UNL A   1      37.028  20.628  24.927  1.00  0.00     0.047 C 
ATOM     25  C   UNL A   1      33.754  20.401  24.819  1.00  0.00     0.010 A 
ATOM     26  C   UNL A   1      31.794  21.756  25.231  1.00  0.00     0.016 A 
ATOM     27  C   UNL A   1      32.365  20.552  24.835  1.00  0.00     0.002 A 
ENDBRANCH  14  16
ENDBRANCH   9  14
BRANCH  13  28
ATOM     28  O   UNL A   1      31.239  27.866  23.171  1.00  0.00    -0.393 OA
ATOM     29  H   UNL A   1      31.004  28.425  23.928  1.00  0.00     0.210 HD
ENDBRANCH  13  28
ENDBRANCH   6   8
ENDBRANCH   5   6
ENDBRANCH   4   5
ENDBRANCH   3   4
ENDBRANCH   2   3
ENDBRANCH   1   2
BRANCH   1  30
ATOM     30  C   UNL A   1      35.013  31.569  29.181  1.00  0.00     0.261 C 
BRANCH  30  31
ATOM     31  O   UNL A   1      35.807  30.369  29.190  1.00  0.00    -0.460 OA
BRANCH  31  32
ATOM     32  C   UNL A   1      36.554  30.169  30.296  1.00  0.00     0.338 C 
ATOM     33  O   UNL A   1      36.141  29.907  31.417  1.00  0.00    -0.246 OA
BRANCH  32  34
ATOM     34  C   UNL A   1      37.989  30.099  29.936  1.00  0.00     0.060 A 
ATOM     35  C   UNL A   1      38.299  29.972  28.576  1.00  0.00     0.016 A 
ATOM     36  C   UNL A   1      39.013  30.109  30.889  1.00  0.00     0.016 A 
ATOM     37  C   UNL A   1      39.616  29.764  28.172  1.00  0.00     0.010 A 
ATOM     38  C   UNL A   1      40.337  29.898  30.480  1.00  0.00     0.010 A 
ATOM     39  C   UNL A   1      40.640  29.671  29.124  1.00  0.00    -0.014 A 
BRANCH  39  40
ATOM     40  C   UNL A   1      41.977  29.174  28.704  1.00  0.00     0.031 A 
ATOM     41  C   UNL A   1      43.150  30.121  28.724  1.00  0.00     0.074 A 
ATOM     42  C   UNL A   1      42.169  27.880  28.381  1.00  0.00     0.049 A 
ATOM     43  N   UNL A   1      44.404  29.897  28.419  1.00  0.00    -0.248 NA
ATOM     44  C   UNL A   1      42.875  31.504  29.145  1.00  0.00     0.031 C 
ATOM     45  C   UNL A   1      41.131  26.850  28.367  1.00  0.00     0.029 A 
ATOM     46  N   UNL A   1      43.309  27.213  28.007  1.00  0.00    -0.354 N 
ATOM     47  C   UNL A   1      45.064  31.107  28.610  1.00  0.00     0.074 A 
ATOM     48  C   UNL A   1      44.065  32.071  29.017  1.00  0.00     0.031 C 
ATOM     49  C   UNL A   1      41.684  25.680  28.004  1.00  0.00     0.029 A 
ATOM     50  C   UNL A   1      43.106  25.882  27.728  1.00  0.00     0.049 A 
ATOM     51  H   UNL A   1      44.191  27.647  27.944  1.00  0.00     0.167 HD
ATOM     52  C   UNL A   1      46.383  31.388  28.476  1.00  0.00     0.037 A 
ATOM     53  C   UNL A   1      43.963  24.938  27.285  1.00  0.00     0.037 A 
ATOM     54  C   UNL A   1      47.378  30.427  28.073  1.00  0.00     0.049 A 
ATOM     55  C   UNL A   1      45.411  25.294  27.063  1.00  0.00     0.074 A 
ATOM     56  C   UNL A   1      48.741  30.616  27.920  1.00  0.00     0.029 A 
ATOM     57  N   UNL A   1      47.122  29.103  27.751  1.00  0.00    -0.354 N 
ATOM     58  N   UNL A   1      46.022  26.437  27.266  1.00  0.00    -0.248 NA
ATOM     59  C   UNL A   1      46.288  24.229  26.552  1.00  0.00     0.031 C 
ATOM     60  C   UNL A   1      49.299  29.424  27.448  1.00  0.00     0.029 A 
ATOM     61  C   UNL A   1      48.296  28.471  27.371  1.00  0.00     0.049 A 
ATOM     62  H   UNL A   1      46.236  28.674  27.787  1.00  0.00     0.167 HD
ATOM     63  C   UNL A   1      47.360  26.218  26.941  1.00  0.00     0.074 A 
ATOM     64  C   UNL A   1      47.469  24.833  26.537  1.00  0.00     0.031 C 
ATOM     65  C   UNL A   1      48.400  27.087  26.977  1.00  0.00     0.037 A 
BRANCH  52  66
ATOM     66  C   UNL A   1      46.829  32.801  28.745  1.00  0.00     0.058 A 
ATOM     67  C   UNL A   1      47.353  33.189  29.988  1.00  0.00     0.135 A 
ATOM     68  C   UNL A   1      46.774  33.770  27.729  1.00  0.00     0.135 A 
ATOM     69  F   UNL A   1      47.414  32.310  31.001  1.00  0.00    -0.206 F 
ATOM     70  C   UNL A   1      47.780  34.492  30.223  1.00  0.00     0.059 A 
ATOM     71  C   UNL A   1      47.225  35.070  27.931  1.00  0.00     0.059 A 
ATOM     72  F   UNL A   1      46.283  33.453  26.520  1.00  0.00    -0.206 F 
ATOM     73  C   UNL A   1      47.714  35.426  29.187  1.00  0.00     0.060 A 
BRANCH  73  74
ATOM     74  S   UNL A   1      48.280  37.110  29.507  1.00  0.00     0.124 S 
ATOM     75  O   UNL A   1      49.222  37.312  28.410  1.00  0.00    -0.237 OA
ATOM     76  O   UNL A   1      47.041  37.876  29.426  1.00  0.00    -0.237 OA
ATOM     77  O   UNL A   1      48.876  37.023  30.836  1.00  0.00    -0.744 OA
ENDBRANCH  73  74
ENDBRANCH  52  66
BRANCH  53  78
ATOM     78  C   UNL A   1      43.473  23.559  27.013  1.00  0.00     0.058 A 
ATOM     79  C   UNL A   1      43.160  23.141  25.711  1.00  0.00     0.135 A 
ATOM     80  C   UNL A   1      43.302  22.632  28.054  1.00  0.00     0.135 A 
ATOM     81  F   UNL A   1      43.293  23.993  24.683  1.00  0.00    -0.206 F 
ATOM     82  C   UNL A   1      42.684  21.860  25.450  1.00  0.00     0.059 A 
ATOM     83  C   UNL A   1      42.857  21.336  27.815  1.00  0.00     0.059 A 
ATOM     84  F   UNL A   1      43.594  22.978  29.318  1.00  0.00    -0.206 F 
ATOM     85  C   UNL A   1      42.542  20.962  26.510  1.00  0.00     0.060 A 
BRANCH  85  86
ATOM     86  S   UNL A   1      41.980  19.284  26.152  1.00  0.00     0.124 S 
ATOM     87  O   UNL A   1      42.822  18.927  25.016  1.00  0.00    -0.237 OA
ATOM     88  O   UNL A   1      42.266  18.594  27.405  1.00  0.00    -0.237 OA
ATOM     89  O   UNL A   1      40.561  19.462  25.854  1.00  0.00    -0.744 OA
ENDBRANCH  85  86
ENDBRANCH  53  78
BRANCH  65  90
ATOM     90  C   UNL A   1      49.765  26.564  26.610  1.00  0.00     0.058 A 
ATOM     91  C   UNL A   1      50.644  26.041  27.571  1.00  0.00     0.135 A 
ATOM     92  C   UNL A   1      50.176  26.533  25.266  1.00  0.00     0.135 A 
ATOM     93  F   UNL A   1      50.308  26.048  28.870  1.00  0.00    -0.206 F 
ATOM     94  C   UNL A   1      51.890  25.530  27.216  1.00  0.00     0.059 A 
ATOM     95  C   UNL A   1      51.402  25.997  24.886  1.00  0.00     0.059 A 
ATOM     96  F   UNL A   1      49.371  27.009  24.302  1.00  0.00    -0.206 F 
ATOM     97  C   UNL A   1      52.259  25.509  25.870  1.00  0.00     0.060 A 
BRANCH  97  98
ATOM     98  S   UNL A   1      53.863  24.812  25.423  1.00  0.00     0.124 S 
ATOM     99  O   UNL A   1      54.259  25.670  24.311  1.00  0.00    -0.237 OA
ATOM    100  O   UNL A   1      54.630  24.979  26.654  1.00  0.00    -0.237 OA
ATOM    101  O   UNL A   1      53.549  23.431  25.069  1.00  0.00    -0.744 OA
ENDBRANCH  97  98
ENDBRANCH  65  90
ENDBRANCH  39  40
ENDBRANCH  32  34
ENDBRANCH  31  32
ENDBRANCH  30  31
ENDBRANCH   1  30
TORSDOF 20
ENDMDL
MODEL 3
REMARK VINA RESULT:     -10.9      5.973     10.604
REMARK SMILES Cc1[nH]c2c(C(=O)N3CC[C@H](O)C[C@@H]3C(=O)OCCOCCOC(=O)c3ccc(-c4c5nc(c(-c6c(F)cc(S(=O)(=O)[O-])cc6F)c6ccc([nH]6)c(-c6c(F)cc(S(=O)(=O)[O-])cc6F)c6nc(c(-c7c(F)cc(S(=O)(=O)[O-])cc7F)c7ccc4[nH]7)C=C6)C=C5)cc3)cccc2c1C
REMARK SMILES IDX 21 1 20 2 19 3 18 4 17 5 15 6 16 7 14 8 8 9 9 10 10 11 13 12
REMARK SMILES IDX 11 13 6 14 7 15 5 16 1 17 2 18 3 19 96 20 4 21 95 23 97 24
REMARK SMILES IDX 94 25 92 26 93 27 12 28 22 30 23 31 24 32 25 33 26 34 27 35
REMARK SMILES IDX 91 36 28 37 90 38 29 39 30 40 31 41 84 42 32 43 89 44 83 45
REMARK SMILES IDX 85 46 33 47 88 48 82 49 81 50 34 52 68 53 47 54 67 55 48 56
REMARK SMILES IDX 51 57 66 58 86 59 49 60 50 61 65 63 87 64 52 65 35 66 36 67
REMARK SMILES IDX 45 68 37 69 38 70 44 71 46 72 39 73 40 74 41 75 42 76 43 77
REMARK SMILES IDX 69 78 70 79 79 80 71 81 72 82 78 83 80 84 73 85 74 86 75 87
REMARK SMILES IDX 76 88 77 89 53 90 54 91 63 92 55 93 56 94 62 95 64 96 57 97
REMARK SMILES IDX 58 98 59 99 60 100 61 101
REMARK H PARENT 3 22 12 29 85 51 51 62
REMARK Flexibility Score: inf
ROOT
ATOM      1  C   UNL A   1      38.697  21.973  25.984  1.00  0.00     0.202 C 
ENDROOT
BRANCH   1   2
ATOM      2  O   UNL A   1      37.356  22.245  25.585  1.00  0.00    -0.374 OA
BRANCH   2   3
ATOM      3  C   UNL A   1      37.139  22.460  24.193  1.00  0.00     0.202 C 
BRANCH   3   4
ATOM      4  C   UNL A   1      35.843  23.184  23.816  1.00  0.00     0.261 C 
BRANCH   4   5
ATOM      5  O   UNL A   1      34.708  22.294  23.682  1.00  0.00    -0.462 OA
BRANCH   5   6
ATOM      6  C   UNL A   1      33.486  22.909  23.687  1.00  0.00     0.329 C 
ATOM      7  O   UNL A   1      33.023  23.526  22.734  1.00  0.00    -0.250 OA
BRANCH   6   8
ATOM      8  C   UNL A   1      32.683  22.619  24.964  1.00  0.00     0.198 C 
ATOM      9  N   UNL A   1      33.121  23.431  26.107  1.00  0.00    -0.325 N 
ATOM     10  C   UNL A   1      34.104  22.908  27.057  1.00  0.00     0.123 C 
ATOM     11  C   UNL A   1      33.780  21.478  27.464  1.00  0.00     0.053 C 
ATOM     12  C   UNL A   1      32.539  21.131  25.290  1.00  0.00     0.069 C 
ATOM     13  C   UNL A   1      33.605  20.590  26.238  1.00  0.00     0.118 C 
BRANCH   9  14
ATOM     14  C   UNL A   1      32.316  24.521  26.417  1.00  0.00     0.256 C 
ATOM     15  O   UNL A   1      31.427  24.432  27.264  1.00  0.00    -0.269 OA
BRANCH  14  16
ATOM     16  C   UNL A   1      32.424  25.760  25.607  1.00  0.00     0.064 A 
ATOM     17  C   UNL A   1      27.894  26.759  23.779  1.00  0.00     0.064 C 
ATOM     18  C   UNL A   1      29.314  26.989  24.150  1.00  0.00     0.016 A 
ATOM     19  N   UNL A   1      29.993  26.125  24.965  1.00  0.00    -0.358 N 
ATOM     20  C   UNL A   1      30.189  28.009  23.824  1.00  0.00    -0.023 A 
ATOM     21  C   UNL A   1      31.334  26.423  25.010  1.00  0.00     0.059 A 
ATOM     22  H   UNL A   1      29.574  25.383  25.458  1.00  0.00     0.166 HD
ATOM     23  C   UNL A   1      31.472  27.646  24.349  1.00  0.00     0.003 A 
ATOM     24  C   UNL A   1      29.879  29.236  23.040  1.00  0.00     0.047 C 
ATOM     25  C   UNL A   1      32.742  28.257  24.313  1.00  0.00     0.010 A 
ATOM     26  C   UNL A   1      33.677  26.398  25.546  1.00  0.00     0.016 A 
ATOM     27  C   UNL A   1      33.834  27.627  24.916  1.00  0.00     0.002 A 
ENDBRANCH  14  16
ENDBRANCH   9  14
BRANCH  13  28
ATOM     28  O   UNL A   1      34.845  20.407  25.571  1.00  0.00    -0.393 OA
ATOM     29  H   UNL A   1      34.800  19.609  25.022  1.00  0.00     0.210 HD
ENDBRANCH  13  28
ENDBRANCH   6   8
ENDBRANCH   5   6
ENDBRANCH   4   5
ENDBRANCH   3   4
ENDBRANCH   2   3
ENDBRANCH   1   2
BRANCH   1  30
ATOM     30  C   UNL A   1      39.188  20.536  25.775  1.00  0.00     0.261 C 
BRANCH  30  31
ATOM     31  O   UNL A   1      40.122  20.145  26.798  1.00  0.00    -0.460 OA
BRANCH  31  32
ATOM     32  C   UNL A   1      41.359  19.817  26.369  1.00  0.00     0.338 C 
ATOM     33  O   UNL A   1      41.680  18.788  25.791  1.00  0.00    -0.246 OA
BRANCH  32  34
ATOM     34  C   UNL A   1      42.269  20.977  26.503  1.00  0.00     0.060 A 
ATOM     35  C   UNL A   1      42.464  21.488  27.793  1.00  0.00     0.016 A 
ATOM     36  C   UNL A   1      42.888  21.589  25.408  1.00  0.00     0.016 A 
ATOM     37  C   UNL A   1      43.195  22.658  27.983  1.00  0.00     0.010 A 
ATOM     38  C   UNL A   1      43.622  22.767  25.602  1.00  0.00     0.010 A 
ATOM     39  C   UNL A   1      43.736  23.337  26.883  1.00  0.00    -0.014 A 
BRANCH  39  40
ATOM     40  C   UNL A   1      44.265  24.715  27.071  1.00  0.00     0.031 A 
ATOM     41  C   UNL A   1      43.316  25.816  27.473  1.00  0.00     0.074 A 
ATOM     42  C   UNL A   1      45.582  24.976  26.962  1.00  0.00     0.049 A 
ATOM     43  N   UNL A   1      43.562  27.080  27.711  1.00  0.00    -0.248 NA
ATOM     44  C   UNL A   1      41.901  25.441  27.632  1.00  0.00     0.031 C 
ATOM     45  C   UNL A   1      46.613  23.995  26.626  1.00  0.00     0.029 A 
ATOM     46  N   UNL A   1      46.277  26.149  27.129  1.00  0.00    -0.354 N 
ATOM     47  C   UNL A   1      42.337  27.650  28.043  1.00  0.00     0.074 A 
ATOM     48  C   UNL A   1      41.344  26.603  27.937  1.00  0.00     0.031 C 
ATOM     49  C   UNL A   1      47.809  24.607  26.613  1.00  0.00     0.029 A 
ATOM     50  C   UNL A   1      47.629  26.029  26.907  1.00  0.00     0.049 A 
ATOM     51  H   UNL A   1      45.847  26.997  27.383  1.00  0.00     0.167 HD
ATOM     52  C   UNL A   1      42.065  28.923  28.419  1.00  0.00     0.037 A 
ATOM     53  C   UNL A   1      48.605  26.960  26.922  1.00  0.00     0.037 A 
ATOM     54  C   UNL A   1      43.055  29.964  28.527  1.00  0.00     0.049 A 
ATOM     55  C   UNL A   1      48.266  28.389  27.262  1.00  0.00     0.074 A 
ATOM     56  C   UNL A   1      42.876  31.283  28.911  1.00  0.00     0.029 A 
ATOM     57  N   UNL A   1      44.404  29.813  28.244  1.00  0.00    -0.354 N 
ATOM     58  N   UNL A   1      47.107  28.907  27.593  1.00  0.00    -0.248 NA
ATOM     59  C   UNL A   1      49.369  29.361  27.233  1.00  0.00     0.031 C 
ATOM     60  C   UNL A   1      44.104  31.942  28.802  1.00  0.00     0.029 A 
ATOM     61  C   UNL A   1      45.063  31.020  28.416  1.00  0.00     0.049 A 
ATOM     62  H   UNL A   1      44.831  28.971  27.963  1.00  0.00     0.167 HD
ATOM     63  C   UNL A   1      47.349  30.256  27.844  1.00  0.00     0.074 A 
ATOM     64  C   UNL A   1      48.765  30.471  27.636  1.00  0.00     0.031 C 
ATOM     65  C   UNL A   1      46.477  31.226  28.215  1.00  0.00     0.037 A 
BRANCH  52  66
ATOM     66  C   UNL A   1      40.632  29.272  28.722  1.00  0.00     0.058 A 
ATOM     67  C   UNL A   1      39.676  29.429  27.705  1.00  0.00     0.135 A 
ATOM     68  C   UNL A   1      40.198  29.407  30.051  1.00  0.00     0.135 A 
ATOM     69  F   UNL A   1      40.036  29.328  26.416  1.00  0.00    -0.206 F 
ATOM     70  C   UNL A   1      38.349  29.733  27.994  1.00  0.00     0.059 A 
ATOM     71  C   UNL A   1      38.871  29.679  30.365  1.00  0.00     0.059 A 
ATOM     72  F   UNL A   1      41.070  29.266  31.063  1.00  0.00    -0.206 F 
ATOM     73  C   UNL A   1      37.956  29.855  29.328  1.00  0.00     0.060 A 
BRANCH  73  74
ATOM     74  S   UNL A   1      36.229  30.242  29.686  1.00  0.00     0.124 S 
ATOM     75  O   UNL A   1      36.040  29.572  30.968  1.00  0.00    -0.237 OA
ATOM     76  O   UNL A   1      36.239  31.701  29.729  1.00  0.00    -0.237 OA
ATOM     77  O   UNL A   1      35.508  29.657  28.560  1.00  0.00    -0.744 OA
ENDBRANCH  73  74
ENDBRANCH  52  66
BRANCH  53  78
ATOM     78  C   UNL A   1      50.005  26.573  26.597  1.00  0.00     0.058 A 
ATOM     79  C   UNL A   1      50.466  26.549  25.272  1.00  0.00     0.135 A 
ATOM     80  C   UNL A   1      50.911  26.211  27.608  1.00  0.00     0.135 A 
ATOM     81  F   UNL A   1      49.635  26.871  24.268  1.00  0.00    -0.206 F 
ATOM     82  C   UNL A   1      51.767  26.170  24.958  1.00  0.00     0.059 A 
ATOM     83  C   UNL A   1      52.225  25.858  27.322  1.00  0.00     0.059 A 
ATOM     84  F   UNL A   1      50.524  26.224  28.893  1.00  0.00    -0.206 F 
ATOM     85  C   UNL A   1      52.642  25.832  25.991  1.00  0.00     0.060 A 
BRANCH  85  86
ATOM     86  S   UNL A   1      54.344  25.399  25.577  1.00  0.00     0.124 S 
ATOM     87  O   UNL A   1      54.770  26.570  24.820  1.00  0.00    -0.237 OA
ATOM     88  O   UNL A   1      54.946  25.235  26.896  1.00  0.00    -0.237 OA
ATOM     89  O   UNL A   1      54.199  24.167  24.806  1.00  0.00    -0.744 OA
ENDBRANCH  85  86
ENDBRANCH  53  78
BRANCH  65  90
ATOM     90  C   UNL A   1      47.026  32.607  28.465  1.00  0.00     0.058 A 
ATOM     91  C   UNL A   1      47.532  32.991  29.717  1.00  0.00     0.135 A 
ATOM     92  C   UNL A   1      47.101  33.542  27.418  1.00  0.00     0.135 A 
ATOM     93  F   UNL A   1      47.484  32.142  30.755  1.00  0.00    -0.206 F 
ATOM     94  C   UNL A   1      48.067  34.259  29.928  1.00  0.00     0.059 A 
ATOM     95  C   UNL A   1      47.661  34.802  27.598  1.00  0.00     0.059 A 
ATOM     96  F   UNL A   1      46.643  33.225  26.196  1.00  0.00    -0.206 F 
ATOM     97  C   UNL A   1      48.131  35.157  28.861  1.00  0.00     0.060 A 
BRANCH  97  98
ATOM     98  S   UNL A   1      48.860  36.785  29.142  1.00  0.00     0.124 S 
ATOM     99  O   UNL A   1      49.994  36.764  28.224  1.00  0.00    -0.237 OA
ATOM    100  O   UNL A   1      47.767  37.682  28.778  1.00  0.00    -0.237 OA
ATOM    101  O   UNL A   1      49.201  36.766  30.561  1.00  0.00    -0.744 OA
ENDBRANCH  97  98
ENDBRANCH  65  90
ENDBRANCH  39  40
ENDBRANCH  32  34
ENDBRANCH  31  32
ENDBRANCH  30  31
ENDBRANCH   1  30
TORSDOF 20
ENDMDL
