MODEL 1
REMARK VINA RESULT:     -10.1      0.000      0.000
REMARK SMILES CC(C)CC(=O)N[C@@H](CC(=O)OCCOCCOC(=O)c1ccc(-c2c3nc(c(-c4c(F)cc(S(=O)(=O)[O-])cc4F)c4ccc([nH]4)c(-c4c(F)cc(S(=O)(=O)[O-])cc4F)c4nc(c(-c5c(F)cc(S(=O)(=O)[O-])cc5F)c5ccc2[nH]5)C=C4)C=C3)cc1)c1ccccc1Cl
REMARK SMILES IDX 14 1 13 2 12 3 10 4 11 5 9 6 8 7 7 8 5 9 6 10 4 12 2 13 1 14
REMARK SMILES IDX 3 15 87 16 88 17 92 18 89 19 91 20 93 21 90 22 15 23 16 24
REMARK SMILES IDX 17 25 18 26 19 27 20 28 21 29 22 30 86 31 23 32 85 33 24 34
REMARK SMILES IDX 25 35 26 36 79 37 27 38 84 39 78 40 80 41 28 42 83 43 77 44
REMARK SMILES IDX 76 45 29 47 63 48 42 49 62 50 43 51 46 52 61 53 81 54 44 55
REMARK SMILES IDX 45 56 60 58 82 59 47 60 30 61 31 62 40 63 32 64 33 65 39 66
REMARK SMILES IDX 41 67 34 68 35 69 36 70 37 71 38 72 64 73 65 74 74 75 66 76
REMARK SMILES IDX 67 77 73 78 75 79 68 80 69 81 70 82 71 83 72 84 48 85 49 86
REMARK SMILES IDX 58 87 50 88 51 89 57 90 59 91 52 92 53 93 54 94 55 95 56 96
REMARK H PARENT 7 11 80 46 46 57
REMARK Flexibility Score: inf
ROOT
ATOM      1  C   UNL A   1      39.359  22.344  26.649  1.00  0.00     0.202 C 
ENDROOT
BRANCH   1   2
ATOM      2  C   UNL A   1      38.584  21.391  25.729  1.00  0.00     0.261 C 
BRANCH   2   3
ATOM      3  O   UNL A   1      37.824  22.010  24.676  1.00  0.00    -0.463 OA
BRANCH   3   4
ATOM      4  C   UNL A   1      36.483  21.807  24.773  1.00  0.00     0.308 C 
ATOM      5  O   UNL A   1      35.949  20.977  25.501  1.00  0.00    -0.252 OA
BRANCH   4   6
ATOM      6  C   UNL A   1      35.686  22.582  23.765  1.00  0.00     0.152 C 
BRANCH   6   7
ATOM      7  C   UNL A   1      34.289  23.111  24.112  1.00  0.00     0.125 C 
BRANCH   7   8
ATOM      8  N   UNL A   1      33.355  21.980  24.135  1.00  0.00    -0.349 N 
ATOM      9  C   UNL A   1      32.410  21.648  25.058  1.00  0.00     0.220 C 
ATOM     10  O   UNL A   1      31.829  20.569  24.940  1.00  0.00    -0.275 OA
ATOM     11  H   UNL A   1      33.424  21.367  23.368  1.00  0.00     0.164 HD
BRANCH   9  12
ATOM     12  C   UNL A   1      32.067  22.600  26.189  1.00  0.00     0.103 C 
BRANCH  12  13
ATOM     13  C   UNL A   1      30.672  23.237  26.068  1.00  0.00    -0.008 C 
ATOM     14  C   UNL A   1      29.700  22.776  27.152  1.00  0.00     0.008 C 
ATOM     15  C   UNL A   1      30.797  24.762  26.131  1.00  0.00     0.008 C 
ENDBRANCH  12  13
ENDBRANCH   9  12
ENDBRANCH   7   8
BRANCH   7  16
ATOM     16  C   UNL A   1      33.717  24.358  23.432  1.00  0.00    -0.006 A 
ATOM     17  C   UNL A   1      33.085  24.254  22.171  1.00  0.00     0.007 A 
ATOM     18  C   UNL A   1      33.637  25.613  24.073  1.00  0.00     0.046 A 
ATOM     19  C   UNL A   1      32.423  25.338  21.581  1.00  0.00     0.000 A 
ATOM     20  C   UNL A   1      32.992  26.703  23.468  1.00  0.00     0.021 A 
ATOM     21  Cl  UNL A   1      34.238  25.900  25.666  1.00  0.00    -0.084 Cl
ATOM     22  C   UNL A   1      32.380  26.566  22.227  1.00  0.00     0.002 A 
ENDBRANCH   7  16
ENDBRANCH   6   7
ENDBRANCH   4   6
ENDBRANCH   3   4
ENDBRANCH   2   3
ENDBRANCH   1   2
BRANCH   1  23
ATOM     23  O   UNL A   1      40.655  21.938  27.076  1.00  0.00    -0.374 OA
BRANCH  23  24
ATOM     24  C   UNL A   1      41.704  21.936  26.106  1.00  0.00     0.202 C 
BRANCH  24  25
ATOM     25  C   UNL A   1      42.360  23.288  25.832  1.00  0.00     0.261 C 
BRANCH  25  26
ATOM     26  O   UNL A   1      41.449  24.351  26.158  1.00  0.00    -0.460 OA
BRANCH  26  27
ATOM     27  C   UNL A   1      41.990  25.580  26.029  1.00  0.00     0.338 C 
ATOM     28  O   UNL A   1      42.329  26.131  24.994  1.00  0.00    -0.246 OA
BRANCH  27  29
ATOM     29  C   UNL A   1      41.963  26.244  27.341  1.00  0.00     0.060 A 
ATOM     30  C   UNL A   1      40.943  25.900  28.235  1.00  0.00     0.016 A 
ATOM     31  C   UNL A   1      42.853  27.276  27.636  1.00  0.00     0.016 A 
ATOM     32  C   UNL A   1      40.774  26.636  29.406  1.00  0.00     0.010 A 
ATOM     33  C   UNL A   1      42.690  28.004  28.821  1.00  0.00     0.010 A 
ATOM     34  C   UNL A   1      41.621  27.718  29.689  1.00  0.00    -0.014 A 
BRANCH  34  35
ATOM     35  C   UNL A   1      41.290  28.617  30.824  1.00  0.00     0.031 A 
ATOM     36  C   UNL A   1      42.124  28.565  32.077  1.00  0.00     0.074 A 
ATOM     37  C   UNL A   1      40.295  29.516  30.716  1.00  0.00     0.049 A 
ATOM     38  N   UNL A   1      42.067  29.324  33.143  1.00  0.00    -0.248 NA
ATOM     39  C   UNL A   1      43.160  27.521  32.138  1.00  0.00     0.031 C 
ATOM     40  C   UNL A   1      39.416  29.667  29.557  1.00  0.00     0.029 A 
ATOM     41  N   UNL A   1      39.863  30.479  31.593  1.00  0.00    -0.354 N 
ATOM     42  C   UNL A   1      43.062  28.858  33.995  1.00  0.00     0.074 A 
ATOM     43  C   UNL A   1      43.682  27.727  33.339  1.00  0.00     0.031 C 
ATOM     44  C   UNL A   1      38.552  30.670  29.792  1.00  0.00     0.029 A 
ATOM     45  C   UNL A   1      38.810  31.224  31.121  1.00  0.00     0.049 A 
ATOM     46  H   UNL A   1      40.270  30.621  32.479  1.00  0.00     0.167 HD
ATOM     47  C   UNL A   1      43.436  29.337  35.206  1.00  0.00     0.037 A 
ATOM     48  C   UNL A   1      38.134  32.240  31.691  1.00  0.00     0.037 A 
ATOM     49  C   UNL A   1      42.817  30.460  35.862  1.00  0.00     0.049 A 
ATOM     50  C   UNL A   1      38.550  32.738  33.049  1.00  0.00     0.074 A 
ATOM     51  C   UNL A   1      43.145  31.037  37.077  1.00  0.00     0.029 A 
ATOM     52  N   UNL A   1      41.736  31.170  35.362  1.00  0.00    -0.354 N 
ATOM     53  N   UNL A   1      39.526  32.319  33.820  1.00  0.00    -0.248 NA
ATOM     54  C   UNL A   1      37.778  33.857  33.611  1.00  0.00     0.031 C 
ATOM     55  C   UNL A   1      42.238  32.074  37.329  1.00  0.00     0.029 A 
ATOM     56  C   UNL A   1      41.370  32.166  36.254  1.00  0.00     0.049 A 
ATOM     57  H   UNL A   1      41.294  30.993  34.501  1.00  0.00     0.167 HD
ATOM     58  C   UNL A   1      39.494  33.128  34.949  1.00  0.00     0.074 A 
ATOM     59  C   UNL A   1      38.415  34.076  34.753  1.00  0.00     0.031 C 
ATOM     60  C   UNL A   1      40.284  33.092  36.051  1.00  0.00     0.037 A 
BRANCH  47  61
ATOM     61  C   UNL A   1      44.569  28.639  35.905  1.00  0.00     0.058 A 
ATOM     62  C   UNL A   1      44.340  27.573  36.789  1.00  0.00     0.135 A 
ATOM     63  C   UNL A   1      45.899  29.023  35.671  1.00  0.00     0.135 A 
ATOM     64  F   UNL A   1      43.086  27.178  37.060  1.00  0.00    -0.206 F 
ATOM     65  C   UNL A   1      45.389  26.925  37.434  1.00  0.00     0.059 A 
ATOM     66  C   UNL A   1      46.964  28.377  36.290  1.00  0.00     0.059 A 
ATOM     67  F   UNL A   1      46.171  30.039  34.836  1.00  0.00    -0.206 F 
ATOM     68  C   UNL A   1      46.698  27.339  37.182  1.00  0.00     0.060 A 
BRANCH  68  69
ATOM     69  S   UNL A   1      48.052  26.492  38.027  1.00  0.00     0.124 S 
ATOM     70  O   UNL A   1      48.728  27.607  38.681  1.00  0.00    -0.237 OA
ATOM     71  O   UNL A   1      47.344  25.574  38.913  1.00  0.00    -0.237 OA
ATOM     72  O   UNL A   1      48.789  25.860  36.937  1.00  0.00    -0.744 OA
ENDBRANCH  68  69
ENDBRANCH  47  61
BRANCH  48  73
ATOM     73  C   UNL A   1      36.994  32.864  30.970  1.00  0.00     0.058 A 
ATOM     74  C   UNL A   1      37.207  33.821  29.966  1.00  0.00     0.135 A 
ATOM     75  C   UNL A   1      35.671  32.507  31.266  1.00  0.00     0.135 A 
ATOM     76  F   UNL A   1      38.457  34.201  29.658  1.00  0.00    -0.206 F 
ATOM     77  C   UNL A   1      36.147  34.408  29.285  1.00  0.00     0.059 A 
ATOM     78  C   UNL A   1      34.594  33.065  30.583  1.00  0.00     0.059 A 
ATOM     79  F   UNL A   1      35.417  31.591  32.212  1.00  0.00    -0.206 F 
ATOM     80  C   UNL A   1      34.843  34.021  29.598  1.00  0.00     0.060 A 
BRANCH  80  81
ATOM     81  S   UNL A   1      33.473  34.737  28.664  1.00  0.00     0.124 S 
ATOM     82  O   UNL A   1      32.507  35.008  29.721  1.00  0.00    -0.237 OA
ATOM     83  O   UNL A   1      34.095  35.907  28.051  1.00  0.00    -0.237 OA
ATOM     84  O   UNL A   1      33.112  33.672  27.733  1.00  0.00    -0.744 OA
ENDBRANCH  80  81
ENDBRANCH  48  73
BRANCH  60  85
ATOM     85  C   UNL A   1      40.010  34.110  37.123  1.00  0.00     0.058 A 
ATOM     86  C   UNL A   1      40.639  35.364  37.119  1.00  0.00     0.135 A 
ATOM     87  C   UNL A   1      39.103  33.833  38.158  1.00  0.00     0.135 A 
ATOM     88  F   UNL A   1      41.517  35.676  36.153  1.00  0.00    -0.206 F 
ATOM     89  C   UNL A   1      40.405  36.298  38.124  1.00  0.00     0.059 A 
ATOM     90  C   UNL A   1      38.837  34.760  39.161  1.00  0.00     0.059 A 
ATOM     91  F   UNL A   1      38.465  32.653  38.201  1.00  0.00    -0.206 F 
ATOM     92  C   UNL A   1      39.508  35.983  39.146  1.00  0.00     0.060 A 
BRANCH  92  93
ATOM     93  S   UNL A   1      39.211  37.197  40.450  1.00  0.00     0.124 S 
ATOM     94  O   UNL A   1      38.636  36.362  41.500  1.00  0.00    -0.237 OA
ATOM     95  O   UNL A   1      40.551  37.713  40.714  1.00  0.00    -0.237 OA
ATOM     96  O   UNL A   1      38.294  38.144  39.825  1.00  0.00    -0.744 OA
ENDBRANCH  92  93
ENDBRANCH  60  85
ENDBRANCH  34  35
ENDBRANCH  27  29
ENDBRANCH  26  27
ENDBRANCH  25  26
ENDBRANCH  24  25
ENDBRANCH  23  24
ENDBRANCH   1  23
TORSDOF 22
ENDMDL
MODEL 2
REMARK VINA RESULT:      -9.9      6.346     11.930
REMARK SMILES CC(C)CC(=O)N[C@@H](CC(=O)OCCOCCOC(=O)c1ccc(-c2c3nc(c(-c4c(F)cc(S(=O)(=O)[O-])cc4F)c4ccc([nH]4)c(-c4c(F)cc(S(=O)(=O)[O-])cc4F)c4nc(c(-c5c(F)cc(S(=O)(=O)[O-])cc5F)c5ccc2[nH]5)C=C4)C=C3)cc1)c1ccccc1Cl
REMARK SMILES IDX 14 1 13 2 12 3 10 4 11 5 9 6 8 7 7 8 5 9 6 10 4 12 2 13 1 14
REMARK SMILES IDX 3 15 87 16 88 17 92 18 89 19 91 20 93 21 90 22 15 23 16 24
REMARK SMILES IDX 17 25 18 26 19 27 20 28 21 29 22 30 86 31 23 32 85 33 24 34
REMARK SMILES IDX 25 35 26 36 79 37 27 38 84 39 78 40 80 41 28 42 83 43 77 44
REMARK SMILES IDX 76 45 29 47 63 48 42 49 62 50 43 51 46 52 61 53 81 54 44 55
REMARK SMILES IDX 45 56 60 58 82 59 47 60 30 61 31 62 40 63 32 64 33 65 39 66
REMARK SMILES IDX 41 67 34 68 35 69 36 70 37 71 38 72 64 73 65 74 74 75 66 76
REMARK SMILES IDX 67 77 73 78 75 79 68 80 69 81 70 82 71 83 72 84 48 85 49 86
REMARK SMILES IDX 58 87 50 88 51 89 57 90 59 91 52 92 53 93 54 94 55 95 56 96
REMARK H PARENT 7 11 80 46 46 57
REMARK Flexibility Score: inf
ROOT
ATOM      1  C   UNL A   1      34.537  31.484  27.971  1.00  0.00     0.202 C 
ENDROOT
BRANCH   1   2
ATOM      2  C   UNL A   1      33.485  30.606  27.279  1.00  0.00     0.261 C 
BRANCH   2   3
ATOM      3  O   UNL A   1      33.991  29.477  26.543  1.00  0.00    -0.463 OA
BRANCH   3   4
ATOM      4  C   UNL A   1      33.218  28.364  26.646  1.00  0.00     0.308 C 
ATOM      5  O   UNL A   1      32.300  28.217  27.445  1.00  0.00    -0.252 OA
BRANCH   4   6
ATOM      6  C   UNL A   1      33.697  27.223  25.797  1.00  0.00     0.152 C 
BRANCH   6   7
ATOM      7  C   UNL A   1      32.784  26.602  24.732  1.00  0.00     0.125 C 
BRANCH   7   8
ATOM      8  N   UNL A   1      33.618  25.873  23.771  1.00  0.00    -0.349 N 
ATOM      9  C   UNL A   1      33.535  24.582  23.346  1.00  0.00     0.220 C 
ATOM     10  O   UNL A   1      34.434  24.141  22.630  1.00  0.00    -0.275 OA
ATOM     11  H   UNL A   1      34.350  26.398  23.373  1.00  0.00     0.164 HD
BRANCH   9  12
ATOM     12  C   UNL A   1      32.348  23.718  23.729  1.00  0.00     0.103 C 
BRANCH  12  13
ATOM     13  C   UNL A   1      32.678  22.221  23.858  1.00  0.00    -0.008 C 
ATOM     14  C   UNL A   1      32.098  21.579  25.117  1.00  0.00     0.008 C 
ATOM     15  C   UNL A   1      32.152  21.472  22.631  1.00  0.00     0.008 C 
ENDBRANCH  12  13
ENDBRANCH   9  12
ENDBRANCH   7   8
BRANCH   7  16
ATOM     16  C   UNL A   1      31.662  27.410  24.075  1.00  0.00    -0.006 A 
ATOM     17  C   UNL A   1      31.969  28.415  23.130  1.00  0.00     0.007 A 
ATOM     18  C   UNL A   1      30.295  27.098  24.237  1.00  0.00     0.046 A 
ATOM     19  C   UNL A   1      30.974  29.076  22.399  1.00  0.00     0.000 A 
ATOM     20  C   UNL A   1      29.299  27.779  23.520  1.00  0.00     0.021 A 
ATOM     21  Cl  UNL A   1      29.733  25.818  25.251  1.00  0.00    -0.084 Cl
ATOM     22  C   UNL A   1      29.637  28.762  22.597  1.00  0.00     0.002 A 
ENDBRANCH   7  16
ENDBRANCH   6   7
ENDBRANCH   4   6
ENDBRANCH   3   4
ENDBRANCH   2   3
ENDBRANCH   1   2
BRANCH   1  23
ATOM     23  O   UNL A   1      34.119  32.757  28.453  1.00  0.00    -0.374 OA
BRANCH  23  24
ATOM     24  C   UNL A   1      35.011  33.465  29.316  1.00  0.00     0.202 C 
BRANCH  24  25
ATOM     25  C   UNL A   1      36.495  33.144  29.148  1.00  0.00     0.261 C 
BRANCH  25  26
ATOM     26  O   UNL A   1      37.059  32.754  30.411  1.00  0.00    -0.460 OA
BRANCH  26  27
ATOM     27  C   UNL A   1      36.842  31.458  30.719  1.00  0.00     0.338 C 
ATOM     28  O   UNL A   1      35.834  30.978  31.212  1.00  0.00    -0.246 OA
BRANCH  27  29
ATOM     29  C   UNL A   1      37.969  30.661  30.214  1.00  0.00     0.060 A 
ATOM     30  C   UNL A   1      39.019  30.369  31.091  1.00  0.00     0.016 A 
ATOM     31  C   UNL A   1      38.048  30.314  28.864  1.00  0.00     0.016 A 
ATOM     32  C   UNL A   1      40.183  29.779  30.603  1.00  0.00     0.010 A 
ATOM     33  C   UNL A   1      39.214  29.709  28.380  1.00  0.00     0.010 A 
ATOM     34  C   UNL A   1      40.305  29.481  29.237  1.00  0.00    -0.014 A 
BRANCH  34  35
ATOM     35  C   UNL A   1      41.627  29.060  28.705  1.00  0.00     0.031 A 
ATOM     36  C   UNL A   1      42.752  30.058  28.644  1.00  0.00     0.074 A 
ATOM     37  C   UNL A   1      41.841  27.783  28.339  1.00  0.00     0.049 A 
ATOM     38  N   UNL A   1      44.004  29.877  28.307  1.00  0.00    -0.248 NA
ATOM     39  C   UNL A   1      42.425  31.445  29.014  1.00  0.00     0.031 C 
ATOM     40  C   UNL A   1      40.835  26.721  28.351  1.00  0.00     0.029 A 
ATOM     41  N   UNL A   1      42.980  27.161  27.893  1.00  0.00    -0.354 N 
ATOM     42  C   UNL A   1      44.616  31.119  28.432  1.00  0.00     0.074 A 
ATOM     43  C   UNL A   1      43.590  32.054  28.840  1.00  0.00     0.031 C 
ATOM     44  C   UNL A   1      41.404  25.576  27.938  1.00  0.00     0.029 A 
ATOM     45  C   UNL A   1      42.810  25.826  27.622  1.00  0.00     0.049 A 
ATOM     46  H   UNL A   1      43.838  27.630  27.778  1.00  0.00     0.167 HD
ATOM     47  C   UNL A   1      45.916  31.449  28.240  1.00  0.00     0.037 A 
ATOM     48  C   UNL A   1      43.689  24.907  27.176  1.00  0.00     0.037 A 
ATOM     49  C   UNL A   1      46.938  30.520  27.830  1.00  0.00     0.049 A 
ATOM     50  C   UNL A   1      45.123  25.302  26.943  1.00  0.00     0.074 A 
ATOM     51  C   UNL A   1      48.288  30.754  27.637  1.00  0.00     0.029 A 
ATOM     52  N   UNL A   1      46.720  29.182  27.540  1.00  0.00    -0.354 N 
ATOM     53  N   UNL A   1      45.695  26.470  27.115  1.00  0.00    -0.248 NA
ATOM     54  C   UNL A   1      46.032  24.249  26.467  1.00  0.00     0.031 C 
ATOM     55  C   UNL A   1      48.881  29.565  27.195  1.00  0.00     0.029 A 
ATOM     56  C   UNL A   1      47.906  28.582  27.148  1.00  0.00     0.049 A 
ATOM     57  H   UNL A   1      45.850  28.725  27.603  1.00  0.00     0.167 HD
ATOM     58  C   UNL A   1      47.033  26.291  26.780  1.00  0.00     0.074 A 
ATOM     59  C   UNL A   1      47.189  24.896  26.416  1.00  0.00     0.031 C 
ATOM     60  C   UNL A   1      48.041  27.197  26.774  1.00  0.00     0.037 A 
BRANCH  47  61
ATOM     61  C   UNL A   1      46.306  32.883  28.467  1.00  0.00     0.058 A 
ATOM     62  C   UNL A   1      46.294  33.820  27.422  1.00  0.00     0.135 A 
ATOM     63  C   UNL A   1      46.672  33.331  29.746  1.00  0.00     0.135 A 
ATOM     64  F   UNL A   1      45.968  33.439  26.176  1.00  0.00    -0.206 F 
ATOM     65  C   UNL A   1      46.653  35.148  27.632  1.00  0.00     0.059 A 
ATOM     66  C   UNL A   1      47.014  34.658  29.983  1.00  0.00     0.059 A 
ATOM     67  F   UNL A   1      46.701  32.473  30.779  1.00  0.00    -0.206 F 
ATOM     68  C   UNL A   1      47.016  35.556  28.917  1.00  0.00     0.060 A 
BRANCH  68  69
ATOM     69  S   UNL A   1      47.482  37.282  29.178  1.00  0.00     0.124 S 
ATOM     70  O   UNL A   1      47.500  37.787  27.808  1.00  0.00    -0.237 OA
ATOM     71  O   UNL A   1      46.398  37.776  30.020  1.00  0.00    -0.237 OA
ATOM     72  O   UNL A   1      48.784  37.187  29.830  1.00  0.00    -0.744 OA
ENDBRANCH  68  69
ENDBRANCH  47  61
BRANCH  48  73
ATOM     73  C   UNL A   1      43.236  23.513  26.929  1.00  0.00     0.058 A 
ATOM     74  C   UNL A   1      43.000  23.047  25.626  1.00  0.00     0.135 A 
ATOM     75  C   UNL A   1      43.042  22.618  27.991  1.00  0.00     0.135 A 
ATOM     76  F   UNL A   1      43.163  23.872  24.581  1.00  0.00    -0.206 F 
ATOM     77  C   UNL A   1      42.580  21.744  25.385  1.00  0.00     0.059 A 
ATOM     78  C   UNL A   1      42.643  21.303  27.774  1.00  0.00     0.059 A 
ATOM     79  F   UNL A   1      43.263  23.015  29.253  1.00  0.00    -0.206 F 
ATOM     80  C   UNL A   1      42.407  20.878  26.466  1.00  0.00     0.060 A 
BRANCH  80  81
ATOM     81  S   UNL A   1      41.926  19.167  26.143  1.00  0.00     0.124 S 
ATOM     82  O   UNL A   1      42.263  18.524  27.407  1.00  0.00    -0.237 OA
ATOM     83  O   UNL A   1      40.500  19.296  25.852  1.00  0.00    -0.237 OA
ATOM     84  O   UNL A   1      42.756  18.797  25.001  1.00  0.00    -0.744 OA
ENDBRANCH  80  81
ENDBRANCH  48  73
BRANCH  60  85
ATOM     85  C   UNL A   1      49.402  26.703  26.363  1.00  0.00     0.058 A 
ATOM     86  C   UNL A   1      50.270  26.099  27.285  1.00  0.00     0.135 A 
ATOM     87  C   UNL A   1      49.836  26.825  25.034  1.00  0.00     0.135 A 
ATOM     88  F   UNL A   1      49.903  25.963  28.569  1.00  0.00    -0.206 F 
ATOM     89  C   UNL A   1      51.538  25.664  26.912  1.00  0.00     0.059 A 
ATOM     90  C   UNL A   1      51.091  26.377  24.634  1.00  0.00     0.059 A 
ATOM     91  F   UNL A   1      49.038  27.384  24.110  1.00  0.00    -0.206 F 
ATOM     92  C   UNL A   1      51.943  25.815  25.584  1.00  0.00     0.060 A 
BRANCH  92  93
ATOM     93  S   UNL A   1      53.591  25.252  25.106  1.00  0.00     0.124 S 
ATOM     94  O   UNL A   1      54.437  26.027  26.008  1.00  0.00    -0.237 OA
ATOM     95  O   UNL A   1      53.526  23.818  25.375  1.00  0.00    -0.237 OA
ATOM     96  O   UNL A   1      53.674  25.616  23.696  1.00  0.00    -0.744 OA
ENDBRANCH  92  93
ENDBRANCH  60  85
ENDBRANCH  34  35
ENDBRANCH  27  29
ENDBRANCH  26  27
ENDBRANCH  25  26
ENDBRANCH  24  25
ENDBRANCH  23  24
ENDBRANCH   1  23
TORSDOF 22
ENDMDL
MODEL 3
REMARK VINA RESULT:      -9.9      6.017      8.504
REMARK SMILES CC(C)CC(=O)N[C@@H](CC(=O)OCCOCCOC(=O)c1ccc(-c2c3nc(c(-c4c(F)cc(S(=O)(=O)[O-])cc4F)c4ccc([nH]4)c(-c4c(F)cc(S(=O)(=O)[O-])cc4F)c4nc(c(-c5c(F)cc(S(=O)(=O)[O-])cc5F)c5ccc2[nH]5)C=C4)C=C3)cc1)c1ccccc1Cl
REMARK SMILES IDX 14 1 13 2 12 3 10 4 11 5 9 6 8 7 7 8 5 9 6 10 4 12 2 13 1 14
REMARK SMILES IDX 3 15 87 16 88 17 92 18 89 19 91 20 93 21 90 22 15 23 16 24
REMARK SMILES IDX 17 25 18 26 19 27 20 28 21 29 22 30 86 31 23 32 85 33 24 34
REMARK SMILES IDX 25 35 26 36 79 37 27 38 84 39 78 40 80 41 28 42 83 43 77 44
REMARK SMILES IDX 76 45 29 47 63 48 42 49 62 50 43 51 46 52 61 53 81 54 44 55
REMARK SMILES IDX 45 56 60 58 82 59 47 60 30 61 31 62 40 63 32 64 33 65 39 66
REMARK SMILES IDX 41 67 34 68 35 69 36 70 37 71 38 72 64 73 65 74 74 75 66 76
REMARK SMILES IDX 67 77 73 78 75 79 68 80 69 81 70 82 71 83 72 84 48 85 49 86
REMARK SMILES IDX 58 87 50 88 51 89 57 90 59 91 52 92 53 93 54 94 55 95 56 96
REMARK H PARENT 7 11 80 46 46 57
REMARK Flexibility Score: inf
ROOT
ATOM      1  C   UNL A   1      36.128  21.398  25.654  1.00  0.00     0.202 C 
ENDROOT
BRANCH   1   2
ATOM      2  C   UNL A   1      35.080  22.388  25.128  1.00  0.00     0.261 C 
BRANCH   2   3
ATOM      3  O   UNL A   1      34.439  22.028  23.891  1.00  0.00    -0.463 OA
BRANCH   3   4
ATOM      4  C   UNL A   1      33.236  22.633  23.700  1.00  0.00     0.308 C 
ATOM      5  O   UNL A   1      32.553  22.534  22.686  1.00  0.00    -0.252 OA
BRANCH   4   6
ATOM      6  C   UNL A   1      32.873  23.600  24.788  1.00  0.00     0.152 C 
BRANCH   6   7
ATOM      7  C   UNL A   1      32.507  25.052  24.454  1.00  0.00     0.125 C 
BRANCH   7   8
ATOM      8  N   UNL A   1      33.205  25.436  23.222  1.00  0.00    -0.349 N 
ATOM      9  C   UNL A   1      32.743  26.107  22.131  1.00  0.00     0.220 C 
ATOM     10  O   UNL A   1      33.475  26.200  21.146  1.00  0.00    -0.275 OA
ATOM     11  H   UNL A   1      34.151  25.167  23.178  1.00  0.00     0.164 HD
BRANCH   9  12
ATOM     12  C   UNL A   1      31.366  26.745  22.142  1.00  0.00     0.103 C 
BRANCH  12  13
ATOM     13  C   UNL A   1      31.297  28.071  22.919  1.00  0.00    -0.008 C 
ATOM     14  C   UNL A   1      32.574  28.901  22.814  1.00  0.00     0.008 C 
ATOM     15  C   UNL A   1      30.120  28.905  22.406  1.00  0.00     0.008 C 
ENDBRANCH  12  13
ENDBRANCH   9  12
ENDBRANCH   7   8
BRANCH   7  16
ATOM     16  C   UNL A   1      32.520  26.144  25.526  1.00  0.00    -0.006 A 
ATOM     17  C   UNL A   1      33.692  26.900  25.758  1.00  0.00     0.007 A 
ATOM     18  C   UNL A   1      31.358  26.564  26.208  1.00  0.00     0.046 A 
ATOM     19  C   UNL A   1      33.707  28.002  26.623  1.00  0.00     0.000 A 
ATOM     20  C   UNL A   1      31.382  27.654  27.092  1.00  0.00     0.021 A 
ATOM     21  Cl  UNL A   1      29.807  25.846  25.961  1.00  0.00    -0.084 Cl
ATOM     22  C   UNL A   1      32.552  28.377  27.296  1.00  0.00     0.002 A 
ENDBRANCH   7  16
ENDBRANCH   6   7
ENDBRANCH   4   6
ENDBRANCH   3   4
ENDBRANCH   2   3
ENDBRANCH   1   2
BRANCH   1  23
ATOM     23  O   UNL A   1      37.424  21.434  25.063  1.00  0.00    -0.374 OA
BRANCH  23  24
ATOM     24  C   UNL A   1      38.384  20.476  25.512  1.00  0.00     0.202 C 
BRANCH  24  25
ATOM     25  C   UNL A   1      39.668  21.050  26.109  1.00  0.00     0.261 C 
BRANCH  25  26
ATOM     26  O   UNL A   1      40.431  20.003  26.731  1.00  0.00    -0.460 OA
BRANCH  26  27
ATOM     27  C   UNL A   1      41.659  19.842  26.194  1.00  0.00     0.338 C 
ATOM     28  O   UNL A   1      42.023  18.952  25.442  1.00  0.00    -0.246 OA
BRANCH  27  29
ATOM     29  C   UNL A   1      42.474  21.018  26.529  1.00  0.00     0.060 A 
ATOM     30  C   UNL A   1      42.460  21.479  27.850  1.00  0.00     0.016 A 
ATOM     31  C   UNL A   1      43.143  21.730  25.532  1.00  0.00     0.016 A 
ATOM     32  C   UNL A   1      43.068  22.693  28.166  1.00  0.00     0.010 A 
ATOM     33  C   UNL A   1      43.765  22.942  25.855  1.00  0.00     0.010 A 
ATOM     34  C   UNL A   1      43.691  23.452  27.163  1.00  0.00    -0.014 A 
BRANCH  34  35
ATOM     35  C   UNL A   1      44.136  24.834  27.477  1.00  0.00     0.031 A 
ATOM     36  C   UNL A   1      45.570  25.223  27.230  1.00  0.00     0.074 A 
ATOM     37  C   UNL A   1      43.257  25.753  27.918  1.00  0.00     0.049 A 
ATOM     38  N   UNL A   1      46.142  26.396  27.343  1.00  0.00    -0.248 NA
ATOM     39  C   UNL A   1      46.480  24.151  26.796  1.00  0.00     0.031 C 
ATOM     40  C   UNL A   1      41.843  25.502  28.196  1.00  0.00     0.029 A 
ATOM     41  N   UNL A   1      43.425  27.085  28.200  1.00  0.00    -0.354 N 
ATOM     42  C   UNL A   1      47.472  26.206  26.986  1.00  0.00     0.074 A 
ATOM     43  C   UNL A   1      47.632  24.799  26.690  1.00  0.00     0.031 C 
ATOM     44  C   UNL A   1      41.269  26.648  28.603  1.00  0.00     0.029 A 
ATOM     45  C   UNL A   1      42.276  27.708  28.625  1.00  0.00     0.049 A 
ATOM     46  H   UNL A   1      44.288  27.550  28.107  1.00  0.00     0.167 HD
ATOM     47  C   UNL A   1      48.467  27.121  26.900  1.00  0.00     0.037 A 
ATOM     48  C   UNL A   1      42.059  28.988  28.986  1.00  0.00     0.037 A 
ATOM     49  C   UNL A   1      48.311  28.521  27.199  1.00  0.00     0.049 A 
ATOM     50  C   UNL A   1      43.187  29.982  28.907  1.00  0.00     0.074 A 
ATOM     51  C   UNL A   1      49.253  29.532  27.112  1.00  0.00     0.029 A 
ATOM     52  N   UNL A   1      47.139  29.108  27.652  1.00  0.00    -0.354 N 
ATOM     53  N   UNL A   1      44.427  29.796  28.520  1.00  0.00    -0.248 NA
ATOM     54  C   UNL A   1      42.881  31.365  29.303  1.00  0.00     0.031 C 
ATOM     55  C   UNL A   1      48.661  30.723  27.548  1.00  0.00     0.029 A 
ATOM     56  C   UNL A   1      47.340  30.461  27.870  1.00  0.00     0.049 A 
ATOM     57  H   UNL A   1      46.290  28.633  27.797  1.00  0.00     0.167 HD
ATOM     58  C   UNL A   1      45.045  31.037  28.614  1.00  0.00     0.074 A 
ATOM     59  C   UNL A   1      44.038  31.972  29.075  1.00  0.00     0.031 C 
ATOM     60  C   UNL A   1      46.331  31.375  28.344  1.00  0.00     0.037 A 
BRANCH  47  61
ATOM     61  C   UNL A   1      49.821  26.632  26.467  1.00  0.00     0.058 A 
ATOM     62  C   UNL A   1      50.726  26.073  27.384  1.00  0.00     0.135 A 
ATOM     63  C   UNL A   1      50.209  26.698  25.120  1.00  0.00     0.135 A 
ATOM     64  F   UNL A   1      50.411  26.001  28.686  1.00  0.00    -0.206 F 
ATOM     65  C   UNL A   1      51.978  25.617  26.982  1.00  0.00     0.059 A 
ATOM     66  C   UNL A   1      51.447  26.230  24.693  1.00  0.00     0.059 A 
ATOM     67  F   UNL A   1      49.380  27.226  24.204  1.00  0.00    -0.206 F 
ATOM     68  C   UNL A   1      52.331  25.705  25.635  1.00  0.00     0.060 A 
BRANCH  68  69
ATOM     69  S   UNL A   1      53.961  25.112  25.127  1.00  0.00     0.124 S 
ATOM     70  O   UNL A   1      54.197  25.908  23.927  1.00  0.00    -0.237 OA
ATOM     71  O   UNL A   1      54.790  25.444  26.280  1.00  0.00    -0.237 OA
ATOM     72  O   UNL A   1      53.747  23.686  24.903  1.00  0.00    -0.744 OA
ENDBRANCH  68  69
ENDBRANCH  47  61
BRANCH  48  73
ATOM     73  C   UNL A   1      40.710  29.406  29.446  1.00  0.00     0.058 A 
ATOM     74  C   UNL A   1      39.653  29.572  28.538  1.00  0.00     0.135 A 
ATOM     75  C   UNL A   1      40.450  29.637  30.805  1.00  0.00     0.135 A 
ATOM     76  F   UNL A   1      39.859  29.373  27.227  1.00  0.00    -0.206 F 
ATOM     77  C   UNL A   1      38.387  29.960  28.960  1.00  0.00     0.059 A 
ATOM     78  C   UNL A   1      39.186  30.005  31.254  1.00  0.00     0.059 A 
ATOM     79  F   UNL A   1      41.427  29.482  31.712  1.00  0.00    -0.206 F 
ATOM     80  C   UNL A   1      38.162  30.172  30.322  1.00  0.00     0.060 A 
BRANCH  80  81
ATOM     81  S   UNL A   1      36.498  30.610  30.873  1.00  0.00     0.124 S 
ATOM     82  O   UNL A   1      36.096  31.572  29.854  1.00  0.00    -0.237 OA
ATOM     83  O   UNL A   1      35.812  29.322  30.841  1.00  0.00    -0.237 OA
ATOM     84  O   UNL A   1      36.723  31.157  32.208  1.00  0.00    -0.744 OA
ENDBRANCH  80  81
ENDBRANCH  48  73
BRANCH  60  85
ATOM     85  C   UNL A   1      46.714  32.816  28.539  1.00  0.00     0.058 A 
ATOM     86  C   UNL A   1      46.568  33.758  27.509  1.00  0.00     0.135 A 
ATOM     87  C   UNL A   1      47.222  33.262  29.769  1.00  0.00     0.135 A 
ATOM     88  F   UNL A   1      46.090  33.381  26.313  1.00  0.00    -0.206 F 
ATOM     89  C   UNL A   1      46.945  35.086  27.680  1.00  0.00     0.059 A 
ATOM     90  C   UNL A   1      47.586  34.590  29.970  1.00  0.00     0.059 A 
ATOM     91  F   UNL A   1      47.370  32.404  30.791  1.00  0.00    -0.206 F 
ATOM     92  C   UNL A   1      47.461  35.491  28.913  1.00  0.00     0.060 A 
BRANCH  92  93
ATOM     93  S   UNL A   1      47.953  37.216  29.128  1.00  0.00     0.124 S 
ATOM     94  O   UNL A   1      47.416  37.509  30.453  1.00  0.00    -0.237 OA
ATOM     95  O   UNL A   1      49.408  37.145  29.035  1.00  0.00    -0.237 OA
ATOM     96  O   UNL A   1      47.293  37.894  28.017  1.00  0.00    -0.744 OA
ENDBRANCH  92  93
ENDBRANCH  60  85
ENDBRANCH  34  35
ENDBRANCH  27  29
ENDBRANCH  26  27
ENDBRANCH  25  26
ENDBRANCH  24  25
ENDBRANCH  23  24
ENDBRANCH   1  23
TORSDOF 22
ENDMDL
