MODEL 1
REMARK VINA RESULT:     -11.8      0.000      0.000
REMARK SMILES Cc1cc(S(=O)(=O)Nc2ccc(Cl)cc2F)ccc1OCC(=O)OCCOCCOC(=O)c1ccc(-c2c3nc(c(-c4c(F)cc(S(=O)(=O)[O-])cc4F)c4ccc([nH]4)c(-c4c(F)cc(S(=O)(=O)[O-])cc4F)c4nc(c(-c5c(F)cc(S(=O)(=O)[O-])cc5F)c5ccc2[nH]5)C=C4)C=C3)cc1
REMARK SMILES IDX 26 1 25 2 24 3 22 4 23 5 21 6 20 7 19 8 1 9 2 10 3 11 4 12
REMARK SMILES IDX 18 13 17 14 5 15 6 16 7 17 8 18 9 20 10 21 15 22 11 23 14 24
REMARK SMILES IDX 16 25 12 26 13 27 27 28 28 29 29 30 30 31 31 32 32 33 33 34
REMARK SMILES IDX 34 35 98 36 35 37 97 38 36 39 37 40 38 41 91 42 39 43 96 44
REMARK SMILES IDX 90 45 92 46 40 47 95 48 89 49 88 50 41 52 75 53 54 54 74 55
REMARK SMILES IDX 55 56 58 57 73 58 93 59 56 60 57 61 72 63 94 64 59 65 42 66
REMARK SMILES IDX 43 67 52 68 44 69 45 70 51 71 53 72 46 73 47 74 48 75 49 76
REMARK SMILES IDX 50 77 76 78 77 79 86 80 78 81 79 82 85 83 87 84 80 85 81 86
REMARK SMILES IDX 82 87 83 88 84 89 60 90 61 91 70 92 62 93 63 94 69 95 71 96
REMARK SMILES IDX 64 97 65 98 66 99 67 100 68 101
REMARK H PARENT 8 19 92 51 58 62
REMARK Flexibility Score: inf
ROOT
ATOM      1  C   UNL A   1      31.314  30.532  25.649  1.00  0.00     0.202 C 
ENDROOT
BRANCH   1   2
ATOM      2  C   UNL A   1      30.917  29.617  24.526  1.00  0.00     0.261 C 
BRANCH   2   3
ATOM      3  O   UNL A   1      30.248  30.293  23.445  1.00  0.00    -0.461 OA
BRANCH   3   4
ATOM      4  C   UNL A   1      29.513  29.548  22.574  1.00  0.00     0.344 C 
ATOM      5  O   UNL A   1      28.821  29.970  21.658  1.00  0.00    -0.248 OA
BRANCH   4   6
ATOM      6  C   UNL A   1      29.593  28.066  22.925  1.00  0.00     0.351 C 
BRANCH   6   7
ATOM      7  O   UNL A   1      30.390  27.179  22.157  1.00  0.00    -0.482 OA
BRANCH   7   8
ATOM      8  C   UNL A   1      31.063  26.216  22.857  1.00  0.00     0.123 A 
ATOM      9  C   UNL A   1      33.395  26.848  22.029  1.00  0.00     0.048 C 
ATOM     10  C   UNL A   1      32.417  25.907  22.674  1.00  0.00    -0.008 A 
ATOM     11  C   UNL A   1      32.898  24.685  23.188  1.00  0.00     0.029 A 
ATOM     12  C   UNL A   1      32.100  23.903  24.039  1.00  0.00     0.088 A 
ATOM     13  C   UNL A   1      30.285  25.455  23.734  1.00  0.00     0.048 A 
ATOM     14  C   UNL A   1      30.837  24.368  24.405  1.00  0.00     0.026 A 
BRANCH  12  15
ATOM     15  S   UNL A   1      32.806  22.474  24.827  1.00  0.00     0.262 S 
ATOM     16  O   UNL A   1      33.354  22.872  26.091  1.00  0.00    -0.201 OA
ATOM     17  O   UNL A   1      31.803  21.415  24.765  1.00  0.00    -0.201 OA
BRANCH  15  18
ATOM     18  N   UNL A   1      34.119  21.887  23.906  1.00  0.00    -0.277 N 
ATOM     19  H   UNL A   1      33.992  21.596  22.974  1.00  0.00     0.180 HD
BRANCH  18  20
ATOM     20  C   UNL A   1      35.412  21.828  24.527  1.00  0.00     0.085 A 
ATOM     21  C   UNL A   1      35.983  20.602  24.879  1.00  0.00     0.031 A 
ATOM     22  C   UNL A   1      36.156  23.006  24.679  1.00  0.00     0.148 A 
ATOM     23  C   UNL A   1      37.290  20.570  25.382  1.00  0.00     0.023 A 
ATOM     24  C   UNL A   1      37.462  22.975  25.148  1.00  0.00     0.062 A 
ATOM     25  F   UNL A   1      35.630  24.181  24.303  1.00  0.00    -0.205 F 
ATOM     26  C   UNL A   1      38.024  21.753  25.504  1.00  0.00     0.044 A 
ATOM     27  Cl  UNL A   1      39.642  21.702  26.086  1.00  0.00    -0.084 Cl
ENDBRANCH  18  20
ENDBRANCH  15  18
ENDBRANCH  12  15
ENDBRANCH   7   8
ENDBRANCH   6   7
ENDBRANCH   4   6
ENDBRANCH   3   4
ENDBRANCH   2   3
ENDBRANCH   1   2
BRANCH   1  28
ATOM     28  O   UNL A   1      32.715  30.304  25.789  1.00  0.00    -0.374 OA
BRANCH  28  29
ATOM     29  C   UNL A   1      33.109  29.498  26.866  1.00  0.00     0.202 C 
BRANCH  29  30
ATOM     30  C   UNL A   1      34.607  29.257  26.994  1.00  0.00     0.261 C 
BRANCH  30  31
ATOM     31  O   UNL A   1      35.177  29.702  28.245  1.00  0.00    -0.460 OA
BRANCH  31  32
ATOM     32  C   UNL A   1      36.385  30.335  28.202  1.00  0.00     0.338 C 
ATOM     33  O   UNL A   1      36.509  31.547  28.166  1.00  0.00    -0.246 OA
BRANCH  32  34
ATOM     34  C   UNL A   1      37.498  29.398  28.477  1.00  0.00     0.060 A 
ATOM     35  C   UNL A   1      37.606  28.711  29.693  1.00  0.00     0.016 A 
ATOM     36  C   UNL A   1      38.506  29.297  27.527  1.00  0.00     0.016 A 
ATOM     37  C   UNL A   1      38.795  28.030  30.003  1.00  0.00     0.010 A 
ATOM     38  C   UNL A   1      39.722  28.774  27.906  1.00  0.00     0.010 A 
ATOM     39  C   UNL A   1      39.881  28.117  29.134  1.00  0.00    -0.014 A 
BRANCH  39  40
ATOM     40  C   UNL A   1      41.215  27.541  29.345  1.00  0.00     0.031 A 
ATOM     41  C   UNL A   1      41.444  26.150  28.856  1.00  0.00     0.074 A 
ATOM     42  C   UNL A   1      42.268  28.285  29.767  1.00  0.00     0.049 A 
ATOM     43  N   UNL A   1      42.471  25.441  29.170  1.00  0.00    -0.248 NA
ATOM     44  C   UNL A   1      40.541  25.424  27.957  1.00  0.00     0.031 C 
ATOM     45  C   UNL A   1      43.698  27.982  29.668  1.00  0.00     0.029 A 
ATOM     46  N   UNL A   1      42.292  29.532  30.410  1.00  0.00    -0.354 N 
ATOM     47  C   UNL A   1      42.535  24.363  28.316  1.00  0.00     0.074 A 
ATOM     48  C   UNL A   1      41.287  24.375  27.601  1.00  0.00     0.031 C 
ATOM     49  C   UNL A   1      44.382  28.775  30.517  1.00  0.00     0.029 A 
ATOM     50  C   UNL A   1      43.401  29.552  31.262  1.00  0.00     0.049 A 
ATOM     51  H   UNL A   1      41.643  30.262  30.286  1.00  0.00     0.167 HD
ATOM     52  C   UNL A   1      43.703  23.665  28.244  1.00  0.00     0.037 A 
ATOM     53  C   UNL A   1      43.245  29.662  32.608  1.00  0.00     0.037 A 
ATOM     54  C   UNL A   1      44.662  24.197  29.219  1.00  0.00     0.049 A 
ATOM     55  C   UNL A   1      43.774  28.403  33.224  1.00  0.00     0.074 A 
ATOM     56  C   UNL A   1      45.728  25.075  29.106  1.00  0.00     0.029 A 
ATOM     57  N   UNL A   1      44.343  24.148  30.576  1.00  0.00    -0.354 N 
ATOM     58  N   UNL A   1      43.842  27.280  32.558  1.00  0.00    -0.248 NA
ATOM     59  C   UNL A   1      44.391  28.311  34.542  1.00  0.00     0.031 C 
ATOM     60  C   UNL A   1      45.987  25.618  30.395  1.00  0.00     0.029 A 
ATOM     61  C   UNL A   1      45.088  25.065  31.296  1.00  0.00     0.049 A 
ATOM     62  H   UNL A   1      43.674  23.542  30.970  1.00  0.00     0.167 HD
ATOM     63  C   UNL A   1      44.581  26.383  33.256  1.00  0.00     0.074 A 
ATOM     64  C   UNL A   1      44.857  27.048  34.519  1.00  0.00     0.031 C 
ATOM     65  C   UNL A   1      44.945  25.175  32.743  1.00  0.00     0.037 A 
BRANCH  52  66
ATOM     66  C   UNL A   1      44.055  22.684  27.142  1.00  0.00     0.058 A 
ATOM     67  C   UNL A   1      43.259  21.539  26.919  1.00  0.00     0.135 A 
ATOM     68  C   UNL A   1      45.167  22.797  26.280  1.00  0.00     0.135 A 
ATOM     69  F   UNL A   1      42.142  21.312  27.623  1.00  0.00    -0.206 F 
ATOM     70  C   UNL A   1      43.566  20.564  25.966  1.00  0.00     0.059 A 
ATOM     71  C   UNL A   1      45.526  21.808  25.352  1.00  0.00     0.059 A 
ATOM     72  F   UNL A   1      45.923  23.902  26.254  1.00  0.00    -0.206 F 
ATOM     73  C   UNL A   1      44.712  20.697  25.196  1.00  0.00     0.060 A 
BRANCH  73  74
ATOM     74  S   UNL A   1      45.085  19.427  23.971  1.00  0.00     0.124 S 
ATOM     75  O   UNL A   1      46.543  19.374  24.014  1.00  0.00    -0.237 OA
ATOM     76  O   UNL A   1      44.391  18.266  24.519  1.00  0.00    -0.237 OA
ATOM     77  O   UNL A   1      44.523  19.969  22.736  1.00  0.00    -0.744 OA
ENDBRANCH  73  74
ENDBRANCH  52  66
BRANCH  53  78
ATOM     78  C   UNL A   1      42.085  30.529  32.993  1.00  0.00     0.058 A 
ATOM     79  C   UNL A   1      40.892  29.870  33.372  1.00  0.00     0.135 A 
ATOM     80  C   UNL A   1      42.235  31.848  33.442  1.00  0.00     0.135 A 
ATOM     81  F   UNL A   1      40.683  28.598  32.992  1.00  0.00    -0.206 F 
ATOM     82  C   UNL A   1      39.971  30.431  34.261  1.00  0.00     0.059 A 
ATOM     83  C   UNL A   1      41.328  32.428  34.348  1.00  0.00     0.059 A 
ATOM     84  F   UNL A   1      43.334  32.547  33.121  1.00  0.00    -0.206 F 
ATOM     85  C   UNL A   1      40.228  31.691  34.793  1.00  0.00     0.060 A 
BRANCH  85  86
ATOM     86  S   UNL A   1      39.263  32.234  36.235  1.00  0.00     0.124 S 
ATOM     87  O   UNL A   1      40.243  33.007  36.988  1.00  0.00    -0.237 OA
ATOM     88  O   UNL A   1      38.183  33.010  35.622  1.00  0.00    -0.237 OA
ATOM     89  O   UNL A   1      38.833  30.979  36.840  1.00  0.00    -0.744 OA
ENDBRANCH  85  86
ENDBRANCH  53  78
BRANCH  65  90
ATOM     90  C   UNL A   1      45.281  23.999  33.603  1.00  0.00     0.058 A 
ATOM     91  C   UNL A   1      46.571  23.791  34.118  1.00  0.00     0.135 A 
ATOM     92  C   UNL A   1      44.263  23.154  34.099  1.00  0.00     0.135 A 
ATOM     93  F   UNL A   1      47.590  24.608  33.815  1.00  0.00    -0.206 F 
ATOM     94  C   UNL A   1      46.855  22.757  34.997  1.00  0.00     0.059 A 
ATOM     95  C   UNL A   1      44.513  22.160  35.034  1.00  0.00     0.059 A 
ATOM     96  F   UNL A   1      42.987  23.281  33.707  1.00  0.00    -0.206 F 
ATOM     97  C   UNL A   1      45.820  21.945  35.446  1.00  0.00     0.060 A 
BRANCH  97  98
ATOM     98  S   UNL A   1      46.191  20.613  36.589  1.00  0.00     0.124 S 
ATOM     99  O   UNL A   1      47.641  20.525  36.457  1.00  0.00    -0.237 OA
ATOM    100  O   UNL A   1      45.703  21.138  37.861  1.00  0.00    -0.237 OA
ATOM    101  O   UNL A   1      45.434  19.488  36.051  1.00  0.00    -0.744 OA
ENDBRANCH  97  98
ENDBRANCH  65  90
ENDBRANCH  39  40
ENDBRANCH  32  34
ENDBRANCH  31  32
ENDBRANCH  30  31
ENDBRANCH  29  30
ENDBRANCH  28  29
ENDBRANCH   1  28
TORSDOF 22
ENDMDL
MODEL 2
REMARK VINA RESULT:     -11.8      2.498      3.446
REMARK SMILES Cc1cc(S(=O)(=O)Nc2ccc(Cl)cc2F)ccc1OCC(=O)OCCOCCOC(=O)c1ccc(-c2c3nc(c(-c4c(F)cc(S(=O)(=O)[O-])cc4F)c4ccc([nH]4)c(-c4c(F)cc(S(=O)(=O)[O-])cc4F)c4nc(c(-c5c(F)cc(S(=O)(=O)[O-])cc5F)c5ccc2[nH]5)C=C4)C=C3)cc1
REMARK SMILES IDX 26 1 25 2 24 3 22 4 23 5 21 6 20 7 19 8 1 9 2 10 3 11 4 12
REMARK SMILES IDX 18 13 17 14 5 15 6 16 7 17 8 18 9 20 10 21 15 22 11 23 14 24
REMARK SMILES IDX 16 25 12 26 13 27 27 28 28 29 29 30 30 31 31 32 32 33 33 34
REMARK SMILES IDX 34 35 98 36 35 37 97 38 36 39 37 40 38 41 91 42 39 43 96 44
REMARK SMILES IDX 90 45 92 46 40 47 95 48 89 49 88 50 41 52 75 53 54 54 74 55
REMARK SMILES IDX 55 56 58 57 73 58 93 59 56 60 57 61 72 63 94 64 59 65 42 66
REMARK SMILES IDX 43 67 52 68 44 69 45 70 51 71 53 72 46 73 47 74 48 75 49 76
REMARK SMILES IDX 50 77 76 78 77 79 86 80 78 81 79 82 85 83 87 84 80 85 81 86
REMARK SMILES IDX 82 87 83 88 84 89 60 90 61 91 70 92 62 93 63 94 69 95 71 96
REMARK SMILES IDX 64 97 65 98 66 99 67 100 68 101
REMARK H PARENT 8 19 92 51 58 62
REMARK Flexibility Score: inf
ROOT
ATOM      1  C   UNL A   1      30.297  31.066  24.721  1.00  0.00     0.202 C 
ENDROOT
BRANCH   1   2
ATOM      2  C   UNL A   1      29.164  31.459  23.817  1.00  0.00     0.261 C 
BRANCH   2   3
ATOM      3  O   UNL A   1      28.969  30.553  22.716  1.00  0.00    -0.461 OA
BRANCH   3   4
ATOM      4  C   UNL A   1      28.253  29.415  22.934  1.00  0.00     0.344 C 
ATOM      5  O   UNL A   1      27.041  29.331  23.065  1.00  0.00    -0.248 OA
BRANCH   4   6
ATOM      6  C   UNL A   1      29.178  28.211  23.074  1.00  0.00     0.351 C 
BRANCH   6   7
ATOM      7  O   UNL A   1      30.453  28.196  22.452  1.00  0.00    -0.482 OA
BRANCH   7   8
ATOM      8  C   UNL A   1      31.259  27.135  22.757  1.00  0.00     0.123 A 
ATOM      9  C   UNL A   1      33.447  28.452  22.814  1.00  0.00     0.048 C 
ATOM     10  C   UNL A   1      32.659  27.175  22.738  1.00  0.00    -0.008 A 
ATOM     11  C   UNL A   1      33.361  25.951  22.723  1.00  0.00     0.029 A 
ATOM     12  C   UNL A   1      32.687  24.737  22.936  1.00  0.00     0.088 A 
ATOM     13  C   UNL A   1      30.597  25.929  23.005  1.00  0.00     0.048 A 
ATOM     14  C   UNL A   1      31.319  24.756  23.203  1.00  0.00     0.026 A 
BRANCH  12  15
ATOM     15  S   UNL A   1      33.627  23.238  23.111  1.00  0.00     0.262 S 
ATOM     16  O   UNL A   1      32.784  22.127  22.778  1.00  0.00    -0.201 OA
ATOM     17  O   UNL A   1      34.887  23.440  22.400  1.00  0.00    -0.201 OA
BRANCH  15  18
ATOM     18  N   UNL A   1      34.078  23.017  24.744  1.00  0.00    -0.277 N 
ATOM     19  H   UNL A   1      33.399  22.989  25.456  1.00  0.00     0.180 HD
BRANCH  18  20
ATOM     20  C   UNL A   1      35.473  22.875  25.050  1.00  0.00     0.085 A 
ATOM     21  C   UNL A   1      36.215  23.956  25.535  1.00  0.00     0.031 A 
ATOM     22  C   UNL A   1      36.070  21.610  24.967  1.00  0.00     0.148 A 
ATOM     23  C   UNL A   1      37.545  23.759  25.927  1.00  0.00     0.023 A 
ATOM     24  C   UNL A   1      37.379  21.404  25.384  1.00  0.00     0.062 A 
ATOM     25  F   UNL A   1      35.352  20.560  24.543  1.00  0.00    -0.205 F 
ATOM     26  C   UNL A   1      38.115  22.484  25.860  1.00  0.00     0.044 A 
ATOM     27  Cl  UNL A   1      39.736  22.241  26.379  1.00  0.00    -0.084 Cl
ENDBRANCH  18  20
ENDBRANCH  15  18
ENDBRANCH  12  15
ENDBRANCH   7   8
ENDBRANCH   6   7
ENDBRANCH   4   6
ENDBRANCH   3   4
ENDBRANCH   2   3
ENDBRANCH   1   2
BRANCH   1  28
ATOM     28  O   UNL A   1      30.496  32.222  25.532  1.00  0.00    -0.374 OA
BRANCH  28  29
ATOM     29  C   UNL A   1      31.352  32.071  26.632  1.00  0.00     0.202 C 
BRANCH  29  30
ATOM     30  C   UNL A   1      32.161  30.780  26.663  1.00  0.00     0.261 C 
BRANCH  30  31
ATOM     31  O   UNL A   1      33.203  30.755  27.664  1.00  0.00    -0.460 OA
BRANCH  31  32
ATOM     32  C   UNL A   1      33.833  29.567  27.893  1.00  0.00     0.338 C 
ATOM     33  O   UNL A   1      33.319  28.481  27.685  1.00  0.00    -0.246 OA
BRANCH  32  34
ATOM     34  C   UNL A   1      35.277  29.761  28.158  1.00  0.00     0.060 A 
ATOM     35  C   UNL A   1      36.173  30.131  27.147  1.00  0.00     0.016 A 
ATOM     36  C   UNL A   1      35.747  29.458  29.430  1.00  0.00     0.016 A 
ATOM     37  C   UNL A   1      37.555  30.065  27.385  1.00  0.00     0.010 A 
ATOM     38  C   UNL A   1      37.095  29.234  29.600  1.00  0.00     0.010 A 
ATOM     39  C   UNL A   1      38.018  29.551  28.595  1.00  0.00    -0.014 A 
BRANCH  39  40
ATOM     40  C   UNL A   1      39.421  29.335  28.971  1.00  0.00     0.031 A 
ATOM     41  C   UNL A   1      40.043  28.037  28.574  1.00  0.00     0.074 A 
ATOM     42  C   UNL A   1      40.202  30.329  29.464  1.00  0.00     0.049 A 
ATOM     43  N   UNL A   1      41.171  27.617  29.026  1.00  0.00    -0.248 NA
ATOM     44  C   UNL A   1      39.456  27.089  27.623  1.00  0.00     0.031 C 
ATOM     45  C   UNL A   1      41.664  30.395  29.528  1.00  0.00     0.029 A 
ATOM     46  N   UNL A   1      39.842  31.554  30.046  1.00  0.00    -0.354 N 
ATOM     47  C   UNL A   1      41.598  26.574  28.236  1.00  0.00     0.074 A 
ATOM     48  C   UNL A   1      40.474  26.256  27.396  1.00  0.00     0.031 C 
ATOM     49  C   UNL A   1      42.029  31.352  30.404  1.00  0.00     0.029 A 
ATOM     50  C   UNL A   1      40.809  31.871  31.006  1.00  0.00     0.049 A 
ATOM     51  H   UNL A   1      39.050  32.094  29.821  1.00  0.00     0.167 HD
ATOM     52  C   UNL A   1      42.903  26.192  28.318  1.00  0.00     0.037 A 
ATOM     53  C   UNL A   1      40.480  31.964  32.322  1.00  0.00     0.037 A 
ATOM     54  C   UNL A   1      43.584  26.969  29.361  1.00  0.00     0.049 A 
ATOM     55  C   UNL A   1      41.233  30.892  33.049  1.00  0.00     0.074 A 
ATOM     56  C   UNL A   1      44.404  28.085  29.317  1.00  0.00     0.029 A 
ATOM     57  N   UNL A   1      43.136  26.867  30.678  1.00  0.00    -0.354 N 
ATOM     58  N   UNL A   1      41.653  29.810  32.447  1.00  0.00    -0.248 NA
ATOM     59  C   UNL A   1      41.702  30.985  34.426  1.00  0.00     0.031 C 
ATOM     60  C   UNL A   1      44.373  28.701  30.599  1.00  0.00     0.029 A 
ATOM     61  C   UNL A   1      43.545  27.956  31.427  1.00  0.00     0.049 A 
ATOM     62  H   UNL A   1      42.600  26.120  31.029  1.00  0.00     0.167 HD
ATOM     63  C   UNL A   1      42.509  29.142  33.260  1.00  0.00     0.074 A 
ATOM     64  C   UNL A   1      42.468  29.881  34.512  1.00  0.00     0.031 C 
ATOM     65  C   UNL A   1      43.218  28.055  32.845  1.00  0.00     0.037 A 
BRANCH  52  66
ATOM     66  C   UNL A   1      43.609  25.310  27.306  1.00  0.00     0.058 A 
ATOM     67  C   UNL A   1      43.361  23.920  27.269  1.00  0.00     0.135 A 
ATOM     68  C   UNL A   1      44.551  25.759  26.356  1.00  0.00     0.135 A 
ATOM     69  F   UNL A   1      42.459  23.346  28.075  1.00  0.00    -0.206 F 
ATOM     70  C   UNL A   1      44.028  23.045  26.407  1.00  0.00     0.059 A 
ATOM     71  C   UNL A   1      45.272  24.896  25.518  1.00  0.00     0.059 A 
ATOM     72  F   UNL A   1      44.774  27.064  26.154  1.00  0.00    -0.206 F 
ATOM     73  C   UNL A   1      44.995  23.538  25.544  1.00  0.00     0.060 A 
BRANCH  73  74
ATOM     74  S   UNL A   1      45.838  22.389  24.440  1.00  0.00     0.124 S 
ATOM     75  O   UNL A   1      46.818  23.250  23.785  1.00  0.00    -0.237 OA
ATOM     76  O   UNL A   1      46.380  21.411  25.378  1.00  0.00    -0.237 OA
ATOM     77  O   UNL A   1      44.769  21.900  23.574  1.00  0.00    -0.744 OA
ENDBRANCH  73  74
ENDBRANCH  52  66
BRANCH  53  78
ATOM     78  C   UNL A   1      39.105  32.517  32.543  1.00  0.00     0.058 A 
ATOM     79  C   UNL A   1      38.856  33.823  32.060  1.00  0.00     0.135 A 
ATOM     80  C   UNL A   1      37.980  31.706  32.748  1.00  0.00     0.135 A 
ATOM     81  F   UNL A   1      39.886  34.654  31.825  1.00  0.00    -0.206 F 
ATOM     82  C   UNL A   1      37.586  34.252  31.666  1.00  0.00     0.059 A 
ATOM     83  C   UNL A   1      36.694  32.113  32.345  1.00  0.00     0.059 A 
ATOM     84  F   UNL A   1      38.127  30.456  33.210  1.00  0.00    -0.206 F 
ATOM     85  C   UNL A   1      36.517  33.366  31.756  1.00  0.00     0.060 A 
BRANCH  85  86
ATOM     86  S   UNL A   1      34.979  33.775  30.876  1.00  0.00     0.124 S 
ATOM     87  O   UNL A   1      34.371  32.463  30.696  1.00  0.00    -0.237 OA
ATOM     88  O   UNL A   1      34.298  34.663  31.820  1.00  0.00    -0.237 OA
ATOM     89  O   UNL A   1      35.454  34.434  29.665  1.00  0.00    -0.744 OA
ENDBRANCH  85  86
ENDBRANCH  53  78
BRANCH  65  90
ATOM     90  C   UNL A   1      43.737  27.020  33.790  1.00  0.00     0.058 A 
ATOM     91  C   UNL A   1      45.110  26.837  34.021  1.00  0.00     0.135 A 
ATOM     92  C   UNL A   1      42.857  26.316  34.642  1.00  0.00     0.135 A 
ATOM     93  F   UNL A   1      46.036  27.545  33.358  1.00  0.00    -0.206 F 
ATOM     94  C   UNL A   1      45.584  25.946  34.973  1.00  0.00     0.059 A 
ATOM     95  C   UNL A   1      43.312  25.475  35.648  1.00  0.00     0.059 A 
ATOM     96  F   UNL A   1      41.526  26.438  34.539  1.00  0.00    -0.206 F 
ATOM     97  C   UNL A   1      44.677  25.268  35.777  1.00  0.00     0.060 A 
BRANCH  97  98
ATOM     98  S   UNL A   1      45.296  24.122  37.012  1.00  0.00     0.124 S 
ATOM     99  O   UNL A   1      44.942  22.841  36.409  1.00  0.00    -0.237 OA
ATOM    100  O   UNL A   1      46.723  24.431  37.048  1.00  0.00    -0.237 OA
ATOM    101  O   UNL A   1      44.551  24.487  38.212  1.00  0.00    -0.744 OA
ENDBRANCH  97  98
ENDBRANCH  65  90
ENDBRANCH  39  40
ENDBRANCH  32  34
ENDBRANCH  31  32
ENDBRANCH  30  31
ENDBRANCH  29  30
ENDBRANCH  28  29
ENDBRANCH   1  28
TORSDOF 22
ENDMDL
MODEL 3
REMARK VINA RESULT:     -11.5      3.082      4.506
REMARK SMILES Cc1cc(S(=O)(=O)Nc2ccc(Cl)cc2F)ccc1OCC(=O)OCCOCCOC(=O)c1ccc(-c2c3nc(c(-c4c(F)cc(S(=O)(=O)[O-])cc4F)c4ccc([nH]4)c(-c4c(F)cc(S(=O)(=O)[O-])cc4F)c4nc(c(-c5c(F)cc(S(=O)(=O)[O-])cc5F)c5ccc2[nH]5)C=C4)C=C3)cc1
REMARK SMILES IDX 26 1 25 2 24 3 22 4 23 5 21 6 20 7 19 8 1 9 2 10 3 11 4 12
REMARK SMILES IDX 18 13 17 14 5 15 6 16 7 17 8 18 9 20 10 21 15 22 11 23 14 24
REMARK SMILES IDX 16 25 12 26 13 27 27 28 28 29 29 30 30 31 31 32 32 33 33 34
REMARK SMILES IDX 34 35 98 36 35 37 97 38 36 39 37 40 38 41 91 42 39 43 96 44
REMARK SMILES IDX 90 45 92 46 40 47 95 48 89 49 88 50 41 52 75 53 54 54 74 55
REMARK SMILES IDX 55 56 58 57 73 58 93 59 56 60 57 61 72 63 94 64 59 65 42 66
REMARK SMILES IDX 43 67 52 68 44 69 45 70 51 71 53 72 46 73 47 74 48 75 49 76
REMARK SMILES IDX 50 77 76 78 77 79 86 80 78 81 79 82 85 83 87 84 80 85 81 86
REMARK SMILES IDX 82 87 83 88 84 89 60 90 61 91 70 92 62 93 63 94 69 95 71 96
REMARK SMILES IDX 64 97 65 98 66 99 67 100 68 101
REMARK H PARENT 8 19 92 51 58 62
REMARK Flexibility Score: inf
ROOT
ATOM      1  C   UNL A   1      30.974  29.896  24.679  1.00  0.00     0.202 C 
ENDROOT
BRANCH   1   2
ATOM      2  C   UNL A   1      30.072  29.555  23.528  1.00  0.00     0.261 C 
BRANCH   2   3
ATOM      3  O   UNL A   1      30.394  28.300  22.901  1.00  0.00    -0.461 OA
BRANCH   3   4
ATOM      4  C   UNL A   1      29.779  27.173  23.356  1.00  0.00     0.344 C 
ATOM      5  O   UNL A   1      28.604  27.061  23.672  1.00  0.00    -0.248 OA
BRANCH   4   6
ATOM      6  C   UNL A   1      30.780  26.032  23.503  1.00  0.00     0.351 C 
BRANCH   6   7
ATOM      7  O   UNL A   1      30.342  24.685  23.576  1.00  0.00    -0.482 OA
BRANCH   7   8
ATOM      8  C   UNL A   1      31.260  23.777  24.025  1.00  0.00     0.123 A 
ATOM      9  C   UNL A   1      30.434  23.715  26.441  1.00  0.00     0.048 C 
ATOM     10  C   UNL A   1      31.458  23.454  25.374  1.00  0.00    -0.008 A 
ATOM     11  C   UNL A   1      32.648  22.785  25.732  1.00  0.00     0.029 A 
ATOM     12  C   UNL A   1      33.504  22.270  24.744  1.00  0.00     0.088 A 
ATOM     13  C   UNL A   1      32.094  23.231  23.045  1.00  0.00     0.048 A 
ATOM     14  C   UNL A   1      33.146  22.391  23.402  1.00  0.00     0.026 A 
BRANCH  12  15
ATOM     15  S   UNL A   1      34.885  21.261  25.229  1.00  0.00     0.262 S 
ATOM     16  O   UNL A   1      35.065  21.380  26.646  1.00  0.00    -0.201 OA
ATOM     17  O   UNL A   1      34.685  19.946  24.625  1.00  0.00    -0.201 OA
BRANCH  15  18
ATOM     18  N   UNL A   1      36.321  21.853  24.518  1.00  0.00    -0.277 N 
ATOM     19  H   UNL A   1      36.433  21.863  23.539  1.00  0.00     0.180 HD
BRANCH  18  20
ATOM     20  C   UNL A   1      37.358  22.337  25.383  1.00  0.00     0.085 A 
ATOM     21  C   UNL A   1      38.471  21.544  25.681  1.00  0.00     0.031 A 
ATOM     22  C   UNL A   1      37.308  23.658  25.845  1.00  0.00     0.148 A 
ATOM     23  C   UNL A   1      39.518  22.084  26.439  1.00  0.00     0.023 A 
ATOM     24  C   UNL A   1      38.358  24.206  26.572  1.00  0.00     0.062 A 
ATOM     25  F   UNL A   1      36.264  24.437  25.529  1.00  0.00    -0.205 F 
ATOM     26  C   UNL A   1      39.460  23.412  26.871  1.00  0.00     0.044 A 
ATOM     27  Cl  UNL A   1      40.766  24.079  27.769  1.00  0.00    -0.084 Cl
ENDBRANCH  18  20
ENDBRANCH  15  18
ENDBRANCH  12  15
ENDBRANCH   7   8
ENDBRANCH   6   7
ENDBRANCH   4   6
ENDBRANCH   3   4
ENDBRANCH   2   3
ENDBRANCH   1   2
BRANCH   1  28
ATOM     28  O   UNL A   1      30.567  31.214  25.045  1.00  0.00    -0.374 OA
BRANCH  28  29
ATOM     29  C   UNL A   1      31.215  31.780  26.152  1.00  0.00     0.202 C 
BRANCH  29  30
ATOM     30  C   UNL A   1      31.870  30.790  27.107  1.00  0.00     0.261 C 
BRANCH  30  31
ATOM     31  O   UNL A   1      33.242  31.103  27.439  1.00  0.00    -0.460 OA
BRANCH  31  32
ATOM     32  C   UNL A   1      34.186  30.151  27.191  1.00  0.00     0.338 C 
ATOM     33  O   UNL A   1      34.107  29.344  26.279  1.00  0.00    -0.246 OA
BRANCH  32  34
ATOM     34  C   UNL A   1      35.418  30.391  27.976  1.00  0.00     0.060 A 
ATOM     35  C   UNL A   1      36.137  31.590  27.880  1.00  0.00     0.016 A 
ATOM     36  C   UNL A   1      35.911  29.342  28.742  1.00  0.00     0.016 A 
ATOM     37  C   UNL A   1      37.418  31.680  28.449  1.00  0.00     0.010 A 
ATOM     38  C   UNL A   1      37.226  29.381  29.147  1.00  0.00     0.010 A 
ATOM     39  C   UNL A   1      37.991  30.548  29.028  1.00  0.00    -0.014 A 
BRANCH  39  40
ATOM     40  C   UNL A   1      39.344  30.447  29.588  1.00  0.00     0.031 A 
ATOM     41  C   UNL A   1      40.265  29.445  28.976  1.00  0.00     0.074 A 
ATOM     42  C   UNL A   1      39.832  31.352  30.475  1.00  0.00     0.049 A 
ATOM     43  N   UNL A   1      41.384  29.087  29.500  1.00  0.00    -0.248 NA
ATOM     44  C   UNL A   1      40.018  28.754  27.707  1.00  0.00     0.031 C 
ATOM     45  C   UNL A   1      41.228  31.620  30.831  1.00  0.00     0.029 A 
ATOM     46  N   UNL A   1      39.155  32.269  31.293  1.00  0.00    -0.354 N 
ATOM     47  C   UNL A   1      42.117  28.414  28.549  1.00  0.00     0.074 A 
ATOM     48  C   UNL A   1      41.206  28.198  27.457  1.00  0.00     0.031 C 
ATOM     49  C   UNL A   1      41.268  32.308  31.989  1.00  0.00     0.029 A 
ATOM     50  C   UNL A   1      39.898  32.423  32.468  1.00  0.00     0.049 A 
ATOM     51  H   UNL A   1      38.308  32.723  31.078  1.00  0.00     0.167 HD
ATOM     52  C   UNL A   1      43.449  28.232  28.769  1.00  0.00     0.037 A 
ATOM     53  C   UNL A   1      39.382  32.058  33.671  1.00  0.00     0.037 A 
ATOM     54  C   UNL A   1      43.809  28.748  30.095  1.00  0.00     0.049 A 
ATOM     55  C   UNL A   1      40.231  30.945  34.204  1.00  0.00     0.074 A 
ATOM     56  C   UNL A   1      44.383  29.937  30.517  1.00  0.00     0.029 A 
ATOM     57  N   UNL A   1      43.217  28.181  31.224  1.00  0.00    -0.354 N 
ATOM     58  N   UNL A   1      40.940  30.177  33.419  1.00  0.00    -0.248 NA
ATOM     59  C   UNL A   1      40.480  30.684  35.617  1.00  0.00     0.031 C 
ATOM     60  C   UNL A   1      44.054  30.119  31.888  1.00  0.00     0.029 A 
ATOM     61  C   UNL A   1      43.290  29.039  32.307  1.00  0.00     0.049 A 
ATOM     62  H   UNL A   1      42.802  27.289  31.247  1.00  0.00     0.167 HD
ATOM     63  C   UNL A   1      41.796  29.433  34.164  1.00  0.00     0.074 A 
ATOM     64  C   UNL A   1      41.435  29.739  35.539  1.00  0.00     0.031 C 
ATOM     65  C   UNL A   1      42.761  28.649  33.608  1.00  0.00     0.037 A 
BRANCH  52  66
ATOM     66  C   UNL A   1      44.450  27.821  27.707  1.00  0.00     0.058 A 
ATOM     67  C   UNL A   1      44.510  26.484  27.255  1.00  0.00     0.135 A 
ATOM     68  C   UNL A   1      45.390  28.682  27.102  1.00  0.00     0.135 A 
ATOM     69  F   UNL A   1      43.654  25.554  27.698  1.00  0.00    -0.206 F 
ATOM     70  C   UNL A   1      45.452  26.028  26.329  1.00  0.00     0.059 A 
ATOM     71  C   UNL A   1      46.379  28.240  26.211  1.00  0.00     0.059 A 
ATOM     72  F   UNL A   1      45.355  30.006  27.300  1.00  0.00    -0.206 F 
ATOM     73  C   UNL A   1      46.396  26.909  25.822  1.00  0.00     0.060 A 
BRANCH  73  74
ATOM     74  S   UNL A   1      47.599  26.297  24.627  1.00  0.00     0.124 S 
ATOM     75  O   UNL A   1      47.440  27.235  23.519  1.00  0.00    -0.237 OA
ATOM     76  O   UNL A   1      48.848  26.404  25.374  1.00  0.00    -0.237 OA
ATOM     77  O   UNL A   1      47.146  24.936  24.353  1.00  0.00    -0.744 OA
ENDBRANCH  73  74
ENDBRANCH  52  66
BRANCH  53  78
ATOM     78  C   UNL A   1      37.906  32.298  33.771  1.00  0.00     0.058 A 
ATOM     79  C   UNL A   1      37.494  33.581  34.202  1.00  0.00     0.135 A 
ATOM     80  C   UNL A   1      36.961  31.553  33.052  1.00  0.00     0.135 A 
ATOM     81  F   UNL A   1      38.351  34.361  34.885  1.00  0.00    -0.206 F 
ATOM     82  C   UNL A   1      36.276  34.149  33.822  1.00  0.00     0.059 A 
ATOM     83  C   UNL A   1      35.734  32.111  32.646  1.00  0.00     0.059 A 
ATOM     84  F   UNL A   1      37.267  30.324  32.612  1.00  0.00    -0.206 F 
ATOM     85  C   UNL A   1      35.425  33.428  32.991  1.00  0.00     0.060 A 
BRANCH  85  86
ATOM     86  S   UNL A   1      34.059  34.309  32.176  1.00  0.00     0.124 S 
ATOM     87  O   UNL A   1      32.921  33.958  33.016  1.00  0.00    -0.237 OA
ATOM     88  O   UNL A   1      34.492  35.706  32.250  1.00  0.00    -0.237 OA
ATOM     89  O   UNL A   1      34.060  33.751  30.829  1.00  0.00    -0.744 OA
ENDBRANCH  85  86
ENDBRANCH  53  78
BRANCH  65  90
ATOM     90  C   UNL A   1      43.346  27.467  34.312  1.00  0.00     0.058 A 
ATOM     91  C   UNL A   1      42.564  26.372  34.716  1.00  0.00     0.135 A 
ATOM     92  C   UNL A   1      44.746  27.315  34.424  1.00  0.00     0.135 A 
ATOM     93  F   UNL A   1      41.235  26.354  34.543  1.00  0.00    -0.206 F 
ATOM     94  C   UNL A   1      43.125  25.235  35.278  1.00  0.00     0.059 A 
ATOM     95  C   UNL A   1      45.330  26.156  34.916  1.00  0.00     0.059 A 
ATOM     96  F   UNL A   1      45.595  28.279  34.038  1.00  0.00    -0.206 F 
ATOM     97  C   UNL A   1      44.508  25.139  35.377  1.00  0.00     0.060 A 
BRANCH  97  98
ATOM     98  S   UNL A   1      45.229  23.662  36.097  1.00  0.00     0.124 S 
ATOM     99  O   UNL A   1      44.395  22.623  35.500  1.00  0.00    -0.237 OA
ATOM    100  O   UNL A   1      46.609  23.715  35.622  1.00  0.00    -0.237 OA
ATOM    101  O   UNL A   1      45.057  23.870  37.531  1.00  0.00    -0.744 OA
ENDBRANCH  97  98
ENDBRANCH  65  90
ENDBRANCH  39  40
ENDBRANCH  32  34
ENDBRANCH  31  32
ENDBRANCH  30  31
ENDBRANCH  29  30
ENDBRANCH  28  29
ENDBRANCH   1  28
TORSDOF 22
ENDMDL
