MODEL 1
REMARK VINA RESULT:     -10.3      0.000      0.000
REMARK SMILES CC[C@@H](C)[C@@H](NC(N)=O)C(=O)N1CCC[C@H](C(=O)OCCOCCOC(=O)c2ccc(-c3c4nc(c(-c5c(F)cc(S(=O)(=O)[O-])cc5F)c5ccc([nH]5)c(-c5c(F)cc(S(=O)(=O)[O-])cc5F)c5nc(c(-c6c(F)cc(S(=O)(=O)[O-])cc6F)c6ccc3[nH]6)C=C5)C=C4)cc2)C1
REMARK SMILES IDX 21 1 20 2 19 3 17 4 18 5 16 6 12 7 13 8 94 9 14 10 15 11
REMARK SMILES IDX 10 12 11 13 5 14 3 15 4 16 2 17 1 18 6 19 7 20 8 22 9 23
REMARK SMILES IDX 22 26 23 27 24 28 25 29 26 30 27 31 28 32 29 33 93 34 30 35
REMARK SMILES IDX 92 36 31 37 32 38 33 39 86 40 34 41 91 42 85 43 87 44 35 45
REMARK SMILES IDX 90 46 84 47 83 48 36 50 70 51 49 52 69 53 50 54 53 55 68 56
REMARK SMILES IDX 88 57 51 58 52 59 67 61 89 62 54 63 37 64 38 65 47 66 39 67
REMARK SMILES IDX 40 68 46 69 48 70 41 71 42 72 43 73 44 74 45 75 71 76 72 77
REMARK SMILES IDX 81 78 73 79 74 80 80 81 82 82 75 83 76 84 77 85 78 86 79 87
REMARK SMILES IDX 55 88 56 89 65 90 57 91 58 92 64 93 66 94 59 95 60 96 61 97
REMARK SMILES IDX 62 98 63 99
REMARK H PARENT 6 21 8 24 8 25 87 49 53 60
REMARK Flexibility Score: inf
ROOT
ATOM      1  C   UNL A   1      35.836  21.781  26.064  1.00  0.00     0.202 C 
ENDROOT
BRANCH   1   2
ATOM      2  C   UNL A   1      34.595  22.026  25.207  1.00  0.00     0.261 C 
BRANCH   2   3
ATOM      3  O   UNL A   1      34.942  22.581  23.928  1.00  0.00    -0.463 OA
BRANCH   3   4
ATOM      4  C   UNL A   1      34.563  23.855  23.663  1.00  0.00     0.310 C 
ATOM      5  O   UNL A   1      34.909  24.842  24.303  1.00  0.00    -0.252 OA
BRANCH   4   6
ATOM      6  C   UNL A   1      33.611  23.955  22.478  1.00  0.00     0.119 C 
ATOM      7  N   UNL A   1      31.767  24.920  23.724  1.00  0.00    -0.340 N 
ATOM      8  C   UNL A   1      30.853  23.812  23.482  1.00  0.00     0.119 C 
ATOM      9  C   UNL A   1      32.713  25.178  22.654  1.00  0.00     0.134 C 
ATOM     10  C   UNL A   1      31.587  22.513  23.163  1.00  0.00     0.022 C 
ATOM     11  C   UNL A   1      32.750  22.714  22.183  1.00  0.00     0.019 C 
BRANCH   7  12
ATOM     12  C   UNL A   1      31.877  25.432  25.015  1.00  0.00     0.245 C 
ATOM     13  O   UNL A   1      32.156  24.691  25.963  1.00  0.00    -0.272 OA
BRANCH  12  14
ATOM     14  C   UNL A   1      31.718  26.976  25.239  1.00  0.00     0.176 C 
BRANCH  14  15
ATOM     15  C   UNL A   1      32.476  27.510  26.498  1.00  0.00     0.018 C 
ATOM     16  C   UNL A   1      31.706  28.635  27.202  1.00  0.00     0.010 C 
BRANCH  15  17
ATOM     17  C   UNL A   1      33.914  27.998  26.194  1.00  0.00     0.002 C 
ATOM     18  C   UNL A   1      34.416  28.997  27.236  1.00  0.00     0.004 C 
ENDBRANCH  15  17
ENDBRANCH  14  15
BRANCH  14  19
ATOM     19  N   UNL A   1      32.125  27.680  24.007  1.00  0.00    -0.326 N 
ATOM     20  C   UNL A   1      31.395  28.723  23.516  1.00  0.00     0.312 C 
ATOM     21  H   UNL A   1      32.937  27.391  23.531  1.00  0.00     0.166 HD
ATOM     22  N   UNL A   1      31.962  29.310  22.439  1.00  0.00    -0.352 N 
ATOM     23  O   UNL A   1      30.305  29.099  23.923  1.00  0.00    -0.249 OA
ATOM     24  H   UNL A   1      32.841  29.003  22.117  1.00  0.00     0.161 HD
ATOM     25  H   UNL A   1      31.498  30.044  21.977  1.00  0.00     0.161 HD
ENDBRANCH  14  19
ENDBRANCH  12  14
ENDBRANCH   7  12
ENDBRANCH   4   6
ENDBRANCH   3   4
ENDBRANCH   2   3
ENDBRANCH   1   2
BRANCH   1  26
ATOM     26  O   UNL A   1      36.856  22.778  26.021  1.00  0.00    -0.374 OA
BRANCH  26  27
ATOM     27  C   UNL A   1      38.195  22.348  25.792  1.00  0.00     0.202 C 
BRANCH  27  28
ATOM     28  C   UNL A   1      39.332  23.181  26.403  1.00  0.00     0.261 C 
BRANCH  28  29
ATOM     29  O   UNL A   1      39.068  24.593  26.435  1.00  0.00    -0.460 OA
BRANCH  29  30
ATOM     30  C   UNL A   1      40.185  25.363  26.375  1.00  0.00     0.338 C 
ATOM     31  O   UNL A   1      40.849  25.607  25.381  1.00  0.00    -0.246 OA
BRANCH  30  32
ATOM     32  C   UNL A   1      40.442  26.037  27.662  1.00  0.00     0.060 A 
ATOM     33  C   UNL A   1      39.497  25.849  28.679  1.00  0.00     0.016 A 
ATOM     34  C   UNL A   1      41.489  26.945  27.825  1.00  0.00     0.016 A 
ATOM     35  C   UNL A   1      39.543  26.633  29.827  1.00  0.00     0.010 A 
ATOM     36  C   UNL A   1      41.533  27.733  28.982  1.00  0.00     0.010 A 
ATOM     37  C   UNL A   1      40.527  27.620  29.960  1.00  0.00    -0.014 A 
BRANCH  37  38
ATOM     38  C   UNL A   1      40.375  28.649  31.023  1.00  0.00     0.031 A 
ATOM     39  C   UNL A   1      41.271  28.582  32.233  1.00  0.00     0.074 A 
ATOM     40  C   UNL A   1      39.504  29.664  30.883  1.00  0.00     0.049 A 
ATOM     41  N   UNL A   1      41.315  29.365  33.281  1.00  0.00    -0.248 NA
ATOM     42  C   UNL A   1      42.248  27.481  32.268  1.00  0.00     0.031 C 
ATOM     43  C   UNL A   1      38.616  29.862  29.740  1.00  0.00     0.029 A 
ATOM     44  N   UNL A   1      39.223  30.719  31.716  1.00  0.00    -0.354 N 
ATOM     45  C   UNL A   1      42.309  28.846  34.103  1.00  0.00     0.074 A 
ATOM     46  C   UNL A   1      42.820  27.661  33.450  1.00  0.00     0.031 C 
ATOM     47  C   UNL A   1      37.885  30.971  29.943  1.00  0.00     0.029 A 
ATOM     48  C   UNL A   1      38.227  31.541  31.245  1.00  0.00     0.049 A 
ATOM     49  H   UNL A   1      39.691  30.873  32.568  1.00  0.00     0.167 HD
ATOM     50  C   UNL A   1      42.762  29.318  35.290  1.00  0.00     0.037 A 
ATOM     51  C   UNL A   1      37.646  32.618  31.810  1.00  0.00     0.037 A 
ATOM     52  C   UNL A   1      42.254  30.504  35.931  1.00  0.00     0.049 A 
ATOM     53  C   UNL A   1      38.128  33.096  33.157  1.00  0.00     0.074 A 
ATOM     54  C   UNL A   1      42.655  31.077  37.124  1.00  0.00     0.029 A 
ATOM     55  N   UNL A   1      41.227  31.295  35.434  1.00  0.00    -0.354 N 
ATOM     56  N   UNL A   1      39.079  32.605  33.917  1.00  0.00    -0.248 NA
ATOM     57  C   UNL A   1      37.466  34.281  33.717  1.00  0.00     0.031 C 
ATOM     58  C   UNL A   1      41.834  32.180  37.378  1.00  0.00     0.029 A 
ATOM     59  C   UNL A   1      40.966  32.337  36.310  1.00  0.00     0.049 A 
ATOM     60  H   UNL A   1      40.754  31.140  34.585  1.00  0.00     0.167 HD
ATOM     61  C   UNL A   1      39.152  33.441  35.027  1.00  0.00     0.074 A 
ATOM     62  C   UNL A   1      38.154  34.474  34.834  1.00  0.00     0.031 C 
ATOM     63  C   UNL A   1      39.975  33.366  36.103  1.00  0.00     0.037 A 
BRANCH  50  64
ATOM     64  C   UNL A   1      43.841  28.531  35.988  1.00  0.00     0.058 A 
ATOM     65  C   UNL A   1      45.204  28.835  35.837  1.00  0.00     0.135 A 
ATOM     66  C   UNL A   1      43.502  27.467  36.841  1.00  0.00     0.135 A 
ATOM     67  F   UNL A   1      45.589  29.831  35.023  1.00  0.00    -0.206 F 
ATOM     68  C   UNL A   1      46.192  28.091  36.476  1.00  0.00     0.059 A 
ATOM     69  C   UNL A   1      44.471  26.730  37.515  1.00  0.00     0.059 A 
ATOM     70  F   UNL A   1      42.216  27.131  37.024  1.00  0.00    -0.206 F 
ATOM     71  C   UNL A   1      45.815  27.040  37.313  1.00  0.00     0.060 A 
BRANCH  71  72
ATOM     72  S   UNL A   1      47.108  26.079  38.129  1.00  0.00     0.124 S 
ATOM     73  O   UNL A   1      46.353  24.933  38.624  1.00  0.00    -0.237 OA
ATOM     74  O   UNL A   1      48.032  25.804  37.032  1.00  0.00    -0.237 OA
ATOM     75  O   UNL A   1      47.612  26.988  39.155  1.00  0.00    -0.744 OA
ENDBRANCH  71  72
ENDBRANCH  50  64
BRANCH  51  76
ATOM     76  C   UNL A   1      36.539  33.318  31.102  1.00  0.00     0.058 A 
ATOM     77  C   UNL A   1      36.783  34.104  29.968  1.00  0.00     0.135 A 
ATOM     78  C   UNL A   1      35.210  33.201  31.543  1.00  0.00     0.135 A 
ATOM     79  F   UNL A   1      38.036  34.258  29.514  1.00  0.00    -0.206 F 
ATOM     80  C   UNL A   1      35.752  34.759  29.300  1.00  0.00     0.059 A 
ATOM     81  C   UNL A   1      34.160  33.822  30.875  1.00  0.00     0.059 A 
ATOM     82  F   UNL A   1      34.923  32.456  32.621  1.00  0.00    -0.206 F 
ATOM     83  C   UNL A   1      34.443  34.608  29.758  1.00  0.00     0.060 A 
BRANCH  83  84
ATOM     84  S   UNL A   1      33.109  35.421  28.851  1.00  0.00     0.124 S 
ATOM     85  O   UNL A   1      32.540  34.307  28.102  1.00  0.00    -0.237 OA
ATOM     86  O   UNL A   1      32.285  35.952  29.931  1.00  0.00    -0.237 OA
ATOM     87  O   UNL A   1      33.806  36.426  28.053  1.00  0.00    -0.744 OA
ENDBRANCH  83  84
ENDBRANCH  51  76
BRANCH  63  88
ATOM     88  C   UNL A   1      39.876  34.460  37.135  1.00  0.00     0.058 A 
ATOM     89  C   UNL A   1      39.064  34.343  38.273  1.00  0.00     0.135 A 
ATOM     90  C   UNL A   1      40.645  35.629  36.999  1.00  0.00     0.135 A 
ATOM     91  F   UNL A   1      38.306  33.250  38.453  1.00  0.00    -0.206 F 
ATOM     92  C   UNL A   1      38.990  35.359  39.222  1.00  0.00     0.059 A 
ATOM     93  C   UNL A   1      40.613  36.642  37.952  1.00  0.00     0.059 A 
ATOM     94  F   UNL A   1      41.452  35.789  35.939  1.00  0.00    -0.206 F 
ATOM     95  C   UNL A   1      39.769  36.506  39.052  1.00  0.00     0.060 A 
BRANCH  95  96
ATOM     96  S   UNL A   1      39.677  37.808  40.299  1.00  0.00     0.124 S 
ATOM     97  O   UNL A   1      39.118  37.086  41.438  1.00  0.00    -0.237 OA
ATOM     98  O   UNL A   1      41.072  38.214  40.431  1.00  0.00    -0.237 OA
ATOM     99  O   UNL A   1      38.796  38.801  39.691  1.00  0.00    -0.744 OA
ENDBRANCH  95  96
ENDBRANCH  63  88
ENDBRANCH  37  38
ENDBRANCH  30  32
ENDBRANCH  29  30
ENDBRANCH  28  29
ENDBRANCH  27  28
ENDBRANCH  26  27
ENDBRANCH   1  26
TORSDOF 22
ENDMDL
MODEL 2
REMARK VINA RESULT:      -9.9      6.531      8.560
REMARK SMILES CC[C@@H](C)[C@@H](NC(N)=O)C(=O)N1CCC[C@H](C(=O)OCCOCCOC(=O)c2ccc(-c3c4nc(c(-c5c(F)cc(S(=O)(=O)[O-])cc5F)c5ccc([nH]5)c(-c5c(F)cc(S(=O)(=O)[O-])cc5F)c5nc(c(-c6c(F)cc(S(=O)(=O)[O-])cc6F)c6ccc3[nH]6)C=C5)C=C4)cc2)C1
REMARK SMILES IDX 21 1 20 2 19 3 17 4 18 5 16 6 12 7 13 8 94 9 14 10 15 11
REMARK SMILES IDX 10 12 11 13 5 14 3 15 4 16 2 17 1 18 6 19 7 20 8 22 9 23
REMARK SMILES IDX 22 26 23 27 24 28 25 29 26 30 27 31 28 32 29 33 93 34 30 35
REMARK SMILES IDX 92 36 31 37 32 38 33 39 86 40 34 41 91 42 85 43 87 44 35 45
REMARK SMILES IDX 90 46 84 47 83 48 36 50 70 51 49 52 69 53 50 54 53 55 68 56
REMARK SMILES IDX 88 57 51 58 52 59 67 61 89 62 54 63 37 64 38 65 47 66 39 67
REMARK SMILES IDX 40 68 46 69 48 70 41 71 42 72 43 73 44 74 45 75 71 76 72 77
REMARK SMILES IDX 81 78 73 79 74 80 80 81 82 82 75 83 76 84 77 85 78 86 79 87
REMARK SMILES IDX 55 88 56 89 65 90 57 91 58 92 64 93 66 94 59 95 60 96 61 97
REMARK SMILES IDX 62 98 63 99
REMARK H PARENT 6 21 8 24 8 25 87 49 53 60
REMARK Flexibility Score: inf
ROOT
ATOM      1  C   UNL A   1      37.029  23.231  24.938  1.00  0.00     0.202 C 
ENDROOT
BRANCH   1   2
ATOM      2  C   UNL A   1      35.559  23.067  25.322  1.00  0.00     0.261 C 
BRANCH   2   3
ATOM      3  O   UNL A   1      34.841  22.301  24.340  1.00  0.00    -0.463 OA
BRANCH   3   4
ATOM      4  C   UNL A   1      34.199  22.974  23.355  1.00  0.00     0.310 C 
ATOM      5  O   UNL A   1      34.648  23.943  22.752  1.00  0.00    -0.252 OA
BRANCH   4   6
ATOM      6  C   UNL A   1      32.808  22.421  23.071  1.00  0.00     0.119 C 
ATOM      7  N   UNL A   1      31.621  24.012  24.467  1.00  0.00    -0.340 N 
ATOM      8  C   UNL A   1      31.083  23.010  25.377  1.00  0.00     0.119 C 
ATOM      9  C   UNL A   1      31.795  23.564  23.097  1.00  0.00     0.134 C 
ATOM     10  C   UNL A   1      31.913  21.730  25.388  1.00  0.00     0.022 C 
ATOM     11  C   UNL A   1      32.326  21.278  23.982  1.00  0.00     0.019 C 
BRANCH   7  12
ATOM     12  C   UNL A   1      32.193  25.166  24.999  1.00  0.00     0.245 C 
ATOM     13  O   UNL A   1      32.915  25.106  25.999  1.00  0.00    -0.272 OA
BRANCH  12  14
ATOM     14  C   UNL A   1      31.971  26.533  24.264  1.00  0.00     0.176 C 
BRANCH  14  15
ATOM     15  C   UNL A   1      30.853  27.418  24.905  1.00  0.00     0.018 C 
ATOM     16  C   UNL A   1      29.901  28.000  23.853  1.00  0.00     0.010 C 
BRANCH  15  17
ATOM     17  C   UNL A   1      31.402  28.571  25.782  1.00  0.00     0.002 C 
ATOM     18  C   UNL A   1      31.557  28.159  27.245  1.00  0.00     0.004 C 
ENDBRANCH  15  17
ENDBRANCH  14  15
BRANCH  14  19
ATOM     19  N   UNL A   1      33.262  27.245  24.182  1.00  0.00    -0.326 N 
ATOM     20  C   UNL A   1      33.617  27.936  23.060  1.00  0.00     0.312 C 
ATOM     21  H   UNL A   1      33.877  27.220  24.950  1.00  0.00     0.166 HD
ATOM     22  N   UNL A   1      34.785  28.604  23.194  1.00  0.00    -0.352 N 
ATOM     23  O   UNL A   1      33.020  27.941  21.994  1.00  0.00    -0.249 OA
ATOM     24  H   UNL A   1      35.261  28.595  24.056  1.00  0.00     0.161 HD
ATOM     25  H   UNL A   1      35.159  29.099  22.430  1.00  0.00     0.161 HD
ENDBRANCH  14  19
ENDBRANCH  12  14
ENDBRANCH   7  12
ENDBRANCH   4   6
ENDBRANCH   3   4
ENDBRANCH   2   3
ENDBRANCH   1   2
BRANCH   1  26
ATOM     26  O   UNL A   1      37.753  22.039  24.636  1.00  0.00    -0.374 OA
BRANCH  26  27
ATOM     27  C   UNL A   1      38.210  21.246  25.728  1.00  0.00     0.202 C 
BRANCH  27  28
ATOM     28  C   UNL A   1      39.690  21.355  26.125  1.00  0.00     0.261 C 
BRANCH  28  29
ATOM     29  O   UNL A   1      40.221  20.164  26.729  1.00  0.00    -0.460 OA
BRANCH  29  30
ATOM     30  C   UNL A   1      41.479  19.855  26.324  1.00  0.00     0.338 C 
ATOM     31  O   UNL A   1      41.831  18.836  25.752  1.00  0.00    -0.246 OA
BRANCH  30  32
ATOM     32  C   UNL A   1      42.398  20.994  26.513  1.00  0.00     0.060 A 
ATOM     33  C   UNL A   1      42.571  21.462  27.822  1.00  0.00     0.016 A 
ATOM     34  C   UNL A   1      42.954  21.682  25.434  1.00  0.00     0.016 A 
ATOM     35  C   UNL A   1      43.226  22.668  28.051  1.00  0.00     0.010 A 
ATOM     36  C   UNL A   1      43.613  22.896  25.667  1.00  0.00     0.010 A 
ATOM     37  C   UNL A   1      43.699  23.421  26.970  1.00  0.00    -0.014 A 
BRANCH  37  38
ATOM     38  C   UNL A   1      44.102  24.834  27.199  1.00  0.00     0.031 A 
ATOM     39  C   UNL A   1      45.536  25.230  26.959  1.00  0.00     0.074 A 
ATOM     40  C   UNL A   1      43.195  25.763  27.549  1.00  0.00     0.049 A 
ATOM     41  N   UNL A   1      46.112  26.397  27.096  1.00  0.00    -0.248 NA
ATOM     42  C   UNL A   1      46.445  24.165  26.504  1.00  0.00     0.031 C 
ATOM     43  C   UNL A   1      41.772  25.513  27.767  1.00  0.00     0.029 A 
ATOM     44  N   UNL A   1      43.341  27.108  27.784  1.00  0.00    -0.354 N 
ATOM     45  C   UNL A   1      47.448  26.205  26.761  1.00  0.00     0.074 A 
ATOM     46  C   UNL A   1      47.605  24.802  26.446  1.00  0.00     0.031 C 
ATOM     47  C   UNL A   1      41.174  26.667  28.108  1.00  0.00     0.029 A 
ATOM     48  C   UNL A   1      42.176  27.730  28.167  1.00  0.00     0.049 A 
ATOM     49  H   UNL A   1      44.198  27.582  27.687  1.00  0.00     0.167 HD
ATOM     50  C   UNL A   1      48.450  27.115  26.709  1.00  0.00     0.037 A 
ATOM     51  C   UNL A   1      41.950  29.005  28.540  1.00  0.00     0.037 A 
ATOM     52  C   UNL A   1      48.284  28.513  27.017  1.00  0.00     0.049 A 
ATOM     53  C   UNL A   1      43.091  29.991  28.528  1.00  0.00     0.074 A 
ATOM     54  C   UNL A   1      49.230  29.521  26.979  1.00  0.00     0.029 A 
ATOM     55  N   UNL A   1      47.094  29.099  27.425  1.00  0.00    -0.354 N 
ATOM     56  N   UNL A   1      44.347  29.800  28.195  1.00  0.00    -0.248 NA
ATOM     57  C   UNL A   1      42.782  31.369  28.933  1.00  0.00     0.031 C 
ATOM     58  C   UNL A   1      48.628  30.704  27.419  1.00  0.00     0.029 A 
ATOM     59  C   UNL A   1      47.288  30.449  27.665  1.00  0.00     0.049 A 
ATOM     60  H   UNL A   1      46.237  28.625  27.528  1.00  0.00     0.167 HD
ATOM     61  C   UNL A   1      44.967  31.039  28.316  1.00  0.00     0.074 A 
ATOM     62  C   UNL A   1      43.947  31.973  28.745  1.00  0.00     0.031 C 
ATOM     63  C   UNL A   1      46.262  31.374  28.084  1.00  0.00     0.037 A 
BRANCH  50  64
ATOM     64  C   UNL A   1      49.824  26.620  26.339  1.00  0.00     0.058 A 
ATOM     65  C   UNL A   1      50.707  26.083  27.290  1.00  0.00     0.135 A 
ATOM     66  C   UNL A   1      50.257  26.666  25.003  1.00  0.00     0.135 A 
ATOM     67  F   UNL A   1      50.354  26.027  28.584  1.00  0.00    -0.206 F 
ATOM     68  C   UNL A   1      51.979  25.643  26.937  1.00  0.00     0.059 A 
ATOM     69  C   UNL A   1      51.513  26.202  24.622  1.00  0.00     0.059 A 
ATOM     70  F   UNL A   1      49.457  27.169  24.050  1.00  0.00    -0.206 F 
ATOM     71  C   UNL A   1      52.374  25.707  25.600  1.00  0.00     0.060 A 
BRANCH  71  72
ATOM     72  S   UNL A   1      54.030  25.139  25.159  1.00  0.00     0.124 S 
ATOM     73  O   UNL A   1      54.799  25.543  26.331  1.00  0.00    -0.237 OA
ATOM     74  O   UNL A   1      53.833  23.702  24.994  1.00  0.00    -0.237 OA
ATOM     75  O   UNL A   1      54.327  25.873  23.932  1.00  0.00    -0.744 OA
ENDBRANCH  71  72
ENDBRANCH  50  64
BRANCH  51  76
ATOM     76  C   UNL A   1      40.584  29.422  28.959  1.00  0.00     0.058 A 
ATOM     77  C   UNL A   1      40.284  29.688  30.303  1.00  0.00     0.135 A 
ATOM     78  C   UNL A   1      39.553  29.574  28.018  1.00  0.00     0.135 A 
ATOM     79  F   UNL A   1      41.231  29.545  31.243  1.00  0.00    -0.206 F 
ATOM     80  C   UNL A   1      39.010  30.079  30.702  1.00  0.00     0.059 A 
ATOM     81  C   UNL A   1      38.279  29.992  28.388  1.00  0.00     0.059 A 
ATOM     82  F   UNL A   1      39.789  29.337  26.719  1.00  0.00    -0.206 F 
ATOM     83  C   UNL A   1      38.014  30.234  29.736  1.00  0.00     0.060 A 
BRANCH  83  84
ATOM     84  S   UNL A   1      36.379  30.793  30.261  1.00  0.00     0.124 S 
ATOM     85  O   UNL A   1      36.704  32.013  30.991  1.00  0.00    -0.237 OA
ATOM     86  O   UNL A   1      35.694  30.976  28.986  1.00  0.00    -0.237 OA
ATOM     87  O   UNL A   1      35.888  29.684  31.074  1.00  0.00    -0.744 OA
ENDBRANCH  83  84
ENDBRANCH  51  76
BRANCH  63  88
ATOM     88  C   UNL A   1      46.645  32.824  28.234  1.00  0.00     0.058 A 
ATOM     89  C   UNL A   1      46.455  33.757  27.205  1.00  0.00     0.135 A 
ATOM     90  C   UNL A   1      47.173  33.291  29.450  1.00  0.00     0.135 A 
ATOM     91  F   UNL A   1      45.957  33.368  26.021  1.00  0.00    -0.206 F 
ATOM     92  C   UNL A   1      46.806  35.096  27.363  1.00  0.00     0.059 A 
ATOM     93  C   UNL A   1      47.500  34.630  29.641  1.00  0.00     0.059 A 
ATOM     94  F   UNL A   1      47.363  32.446  30.475  1.00  0.00    -0.206 F 
ATOM     95  C   UNL A   1      47.329  35.523  28.585  1.00  0.00     0.060 A 
BRANCH  95  96
ATOM     96  S   UNL A   1      47.763  37.263  28.782  1.00  0.00     0.124 S 
ATOM     97  O   UNL A   1      47.429  37.494  30.183  1.00  0.00    -0.237 OA
ATOM     98  O   UNL A   1      49.186  37.270  28.460  1.00  0.00    -0.237 OA
ATOM     99  O   UNL A   1      46.905  37.941  27.813  1.00  0.00    -0.744 OA
ENDBRANCH  95  96
ENDBRANCH  63  88
ENDBRANCH  37  38
ENDBRANCH  30  32
ENDBRANCH  29  30
ENDBRANCH  28  29
ENDBRANCH  27  28
ENDBRANCH  26  27
ENDBRANCH   1  26
TORSDOF 22
ENDMDL
MODEL 3
REMARK VINA RESULT:      -9.9      1.159      8.347
REMARK SMILES CC[C@@H](C)[C@@H](NC(N)=O)C(=O)N1CCC[C@H](C(=O)OCCOCCOC(=O)c2ccc(-c3c4nc(c(-c5c(F)cc(S(=O)(=O)[O-])cc5F)c5ccc([nH]5)c(-c5c(F)cc(S(=O)(=O)[O-])cc5F)c5nc(c(-c6c(F)cc(S(=O)(=O)[O-])cc6F)c6ccc3[nH]6)C=C5)C=C4)cc2)C1
REMARK SMILES IDX 21 1 20 2 19 3 17 4 18 5 16 6 12 7 13 8 94 9 14 10 15 11
REMARK SMILES IDX 10 12 11 13 5 14 3 15 4 16 2 17 1 18 6 19 7 20 8 22 9 23
REMARK SMILES IDX 22 26 23 27 24 28 25 29 26 30 27 31 28 32 29 33 93 34 30 35
REMARK SMILES IDX 92 36 31 37 32 38 33 39 86 40 34 41 91 42 85 43 87 44 35 45
REMARK SMILES IDX 90 46 84 47 83 48 36 50 70 51 49 52 69 53 50 54 53 55 68 56
REMARK SMILES IDX 88 57 51 58 52 59 67 61 89 62 54 63 37 64 38 65 47 66 39 67
REMARK SMILES IDX 40 68 46 69 48 70 41 71 42 72 43 73 44 74 45 75 71 76 72 77
REMARK SMILES IDX 81 78 73 79 74 80 80 81 82 82 75 83 76 84 77 85 78 86 79 87
REMARK SMILES IDX 55 88 56 89 65 90 57 91 58 92 64 93 66 94 59 95 60 96 61 97
REMARK SMILES IDX 62 98 63 99
REMARK H PARENT 6 21 8 24 8 25 87 49 53 60
REMARK Flexibility Score: inf
ROOT
ATOM      1  C   UNL A   1      38.188  23.589  25.743  1.00  0.00     0.202 C 
ENDROOT
BRANCH   1   2
ATOM      2  C   UNL A   1      36.728  23.986  25.956  1.00  0.00     0.261 C 
BRANCH   2   3
ATOM      3  O   UNL A   1      35.911  23.600  24.839  1.00  0.00    -0.463 OA
BRANCH   3   4
ATOM      4  C   UNL A   1      35.076  22.545  24.997  1.00  0.00     0.310 C 
ATOM      5  O   UNL A   1      35.044  21.809  25.978  1.00  0.00    -0.252 OA
BRANCH   4   6
ATOM      6  C   UNL A   1      34.166  22.325  23.795  1.00  0.00     0.119 C 
ATOM      7  N   UNL A   1      32.570  24.059  24.375  1.00  0.00    -0.340 N 
ATOM      8  C   UNL A   1      31.441  23.151  24.526  1.00  0.00     0.119 C 
ATOM      9  C   UNL A   1      33.548  23.659  23.380  1.00  0.00     0.134 C 
ATOM     10  C   UNL A   1      31.882  21.722  24.828  1.00  0.00     0.022 C 
ATOM     11  C   UNL A   1      33.059  21.268  23.957  1.00  0.00     0.019 C 
BRANCH   7  12
ATOM     12  C   UNL A   1      32.789  25.029  25.351  1.00  0.00     0.245 C 
ATOM     13  O   UNL A   1      33.207  24.713  26.469  1.00  0.00    -0.272 OA
BRANCH  12  14
ATOM     14  C   UNL A   1      32.571  26.539  24.986  1.00  0.00     0.176 C 
BRANCH  14  15
ATOM     15  C   UNL A   1      31.099  27.027  25.180  1.00  0.00     0.018 C 
ATOM     16  C   UNL A   1      30.320  26.143  26.162  1.00  0.00     0.010 C 
BRANCH  15  17
ATOM     17  C   UNL A   1      30.302  27.130  23.855  1.00  0.00     0.002 C 
ATOM     18  C   UNL A   1      29.080  26.213  23.845  1.00  0.00     0.004 C 
ENDBRANCH  15  17
ENDBRANCH  14  15
BRANCH  14  19
ATOM     19  N   UNL A   1      33.533  27.357  25.752  1.00  0.00    -0.326 N 
ATOM     20  C   UNL A   1      33.815  28.641  25.386  1.00  0.00     0.312 C 
ATOM     21  H   UNL A   1      33.977  26.970  26.539  1.00  0.00     0.166 HD
ATOM     22  N   UNL A   1      34.640  29.272  26.251  1.00  0.00    -0.352 N 
ATOM     23  O   UNL A   1      33.444  29.201  24.365  1.00  0.00    -0.249 OA
ATOM     24  H   UNL A   1      34.934  28.815  27.072  1.00  0.00     0.161 HD
ATOM     25  H   UNL A   1      34.946  30.188  26.061  1.00  0.00     0.161 HD
ENDBRANCH  14  19
ENDBRANCH  12  14
ENDBRANCH   7  12
ENDBRANCH   4   6
ENDBRANCH   3   4
ENDBRANCH   2   3
ENDBRANCH   1   2
BRANCH   1  26
ATOM     26  O   UNL A   1      38.813  22.845  26.788  1.00  0.00    -0.374 OA
BRANCH  26  27
ATOM     27  C   UNL A   1      39.885  21.976  26.435  1.00  0.00     0.202 C 
BRANCH  27  28
ATOM     28  C   UNL A   1      41.316  22.531  26.514  1.00  0.00     0.261 C 
BRANCH  28  29
ATOM     29  O   UNL A   1      41.467  23.624  27.435  1.00  0.00    -0.460 OA
BRANCH  29  30
ATOM     30  C   UNL A   1      41.681  24.824  26.835  1.00  0.00     0.338 C 
ATOM     31  O   UNL A   1      42.092  25.008  25.701  1.00  0.00    -0.246 OA
BRANCH  30  32
ATOM     32  C   UNL A   1      41.197  25.937  27.674  1.00  0.00     0.060 A 
ATOM     33  C   UNL A   1      41.989  27.091  27.718  1.00  0.00     0.016 A 
ATOM     34  C   UNL A   1      40.089  25.805  28.511  1.00  0.00     0.016 A 
ATOM     35  C   UNL A   1      41.729  28.081  28.660  1.00  0.00     0.010 A 
ATOM     36  C   UNL A   1      39.828  26.802  29.459  1.00  0.00     0.010 A 
ATOM     37  C   UNL A   1      40.682  27.915  29.576  1.00  0.00    -0.014 A 
BRANCH  37  38
ATOM     38  C   UNL A   1      40.616  28.808  30.762  1.00  0.00     0.031 A 
ATOM     39  C   UNL A   1      39.579  29.902  30.792  1.00  0.00     0.074 A 
ATOM     40  C   UNL A   1      41.418  28.609  31.823  1.00  0.00     0.049 A 
ATOM     41  N   UNL A   1      39.339  30.798  31.716  1.00  0.00    -0.248 NA
ATOM     42  C   UNL A   1      38.693  30.000  29.621  1.00  0.00     0.031 C 
ATOM     43  C   UNL A   1      42.429  27.560  31.932  1.00  0.00     0.029 A 
ATOM     44  N   UNL A   1      41.506  29.287  33.014  1.00  0.00    -0.354 N 
ATOM     45  C   UNL A   1      38.290  31.572  31.234  1.00  0.00     0.074 A 
ATOM     46  C   UNL A   1      37.960  31.063  29.921  1.00  0.00     0.031 C 
ATOM     47  C   UNL A   1      43.040  27.665  33.123  1.00  0.00     0.029 A 
ATOM     48  C   UNL A   1      42.489  28.810  33.847  1.00  0.00     0.049 A 
ATOM     49  H   UNL A   1      40.922  30.044  33.248  1.00  0.00     0.167 HD
ATOM     50  C   UNL A   1      37.652  32.606  31.833  1.00  0.00     0.037 A 
ATOM     51  C   UNL A   1      42.908  29.257  35.048  1.00  0.00     0.037 A 
ATOM     52  C   UNL A   1      37.981  33.102  33.145  1.00  0.00     0.049 A 
ATOM     53  C   UNL A   1      42.221  30.444  35.674  1.00  0.00     0.074 A 
ATOM     54  C   UNL A   1      37.386  34.133  33.850  1.00  0.00     0.029 A 
ATOM     55  N   UNL A   1      39.000  32.607  33.948  1.00  0.00    -0.354 N 
ATOM     56  N   UNL A   1      41.220  31.159  35.214  1.00  0.00    -0.248 NA
ATOM     57  C   UNL A   1      42.712  30.879  36.988  1.00  0.00     0.031 C 
ATOM     58  C   UNL A   1      38.080  34.299  35.052  1.00  0.00     0.029 A 
ATOM     59  C   UNL A   1      39.065  33.328  35.129  1.00  0.00     0.049 A 
ATOM     60  H   UNL A   1      39.590  31.855  33.712  1.00  0.00     0.167 HD
ATOM     61  C   UNL A   1      40.940  32.103  36.197  1.00  0.00     0.074 A 
ATOM     62  C   UNL A   1      41.873  31.863  37.280  1.00  0.00     0.031 C 
ATOM     63  C   UNL A   1      39.993  33.074  36.206  1.00  0.00     0.037 A 
BRANCH  50  64
ATOM     64  C   UNL A   1      36.555  33.292  31.061  1.00  0.00     0.058 A 
ATOM     65  C   UNL A   1      36.820  34.085  29.931  1.00  0.00     0.135 A 
ATOM     66  C   UNL A   1      35.213  33.136  31.446  1.00  0.00     0.135 A 
ATOM     67  F   UNL A   1      38.085  34.282  29.526  1.00  0.00    -0.206 F 
ATOM     68  C   UNL A   1      35.799  34.725  29.235  1.00  0.00     0.059 A 
ATOM     69  C   UNL A   1      34.174  33.741  30.745  1.00  0.00     0.059 A 
ATOM     70  F   UNL A   1      34.900  32.390  32.517  1.00  0.00    -0.206 F 
ATOM     71  C   UNL A   1      34.479  34.548  29.650  1.00  0.00     0.060 A 
BRANCH  71  72
ATOM     72  S   UNL A   1      33.166  35.391  28.742  1.00  0.00     0.124 S 
ATOM     73  O   UNL A   1      32.367  35.946  29.829  1.00  0.00    -0.237 OA
ATOM     74  O   UNL A   1      33.912  36.360  27.944  1.00  0.00    -0.237 OA
ATOM     75  O   UNL A   1      32.531  34.317  27.984  1.00  0.00    -0.744 OA
ENDBRANCH  71  72
ENDBRANCH  50  64
BRANCH  51  76
ATOM     76  C   UNL A   1      44.041  28.579  35.736  1.00  0.00     0.058 A 
ATOM     77  C   UNL A   1      43.823  27.504  36.610  1.00  0.00     0.135 A 
ATOM     78  C   UNL A   1      45.367  28.988  35.521  1.00  0.00     0.135 A 
ATOM     79  F   UNL A   1      42.573  27.084  36.859  1.00  0.00    -0.206 F 
ATOM     80  C   UNL A   1      44.878  26.864  37.254  1.00  0.00     0.059 A 
ATOM     81  C   UNL A   1      46.439  28.345  36.131  1.00  0.00     0.059 A 
ATOM     82  F   UNL A   1      45.630  30.008  34.690  1.00  0.00    -0.206 F 
ATOM     83  C   UNL A   1      46.184  27.289  37.004  1.00  0.00     0.060 A 
BRANCH  83  84
ATOM     84  S   UNL A   1      47.546  26.416  37.808  1.00  0.00     0.124 S 
ATOM     85  O   UNL A   1      46.919  25.968  39.046  1.00  0.00    -0.237 OA
ATOM     86  O   UNL A   1      47.856  25.373  36.836  1.00  0.00    -0.237 OA
ATOM     87  O   UNL A   1      48.568  27.447  37.956  1.00  0.00    -0.744 OA
ENDBRANCH  83  84
ENDBRANCH  51  76
BRANCH  63  88
ATOM     88  C   UNL A   1      39.873  33.921  37.447  1.00  0.00     0.058 A 
ATOM     89  C   UNL A   1      40.647  35.075  37.642  1.00  0.00     0.135 A 
ATOM     90  C   UNL A   1      38.933  33.590  38.438  1.00  0.00     0.135 A 
ATOM     91  F   UNL A   1      41.562  35.437  36.730  1.00  0.00    -0.206 F 
ATOM     92  C   UNL A   1      40.518  35.852  38.791  1.00  0.00     0.059 A 
ATOM     93  C   UNL A   1      38.764  34.370  39.578  1.00  0.00     0.059 A 
ATOM     94  F   UNL A   1      38.155  32.505  38.298  1.00  0.00    -0.206 F 
ATOM     95  C   UNL A   1      39.573  35.491  39.753  1.00  0.00     0.060 A 
BRANCH  95  96
ATOM     96  S   UNL A   1      39.404  36.517  41.229  1.00  0.00     0.124 S 
ATOM     97  O   UNL A   1      40.789  36.617  41.678  1.00  0.00    -0.237 OA
ATOM     98  O   UNL A   1      38.822  37.743  40.693  1.00  0.00    -0.237 OA
ATOM     99  O   UNL A   1      38.521  35.734  42.089  1.00  0.00    -0.744 OA
ENDBRANCH  95  96
ENDBRANCH  63  88
ENDBRANCH  37  38
ENDBRANCH  30  32
ENDBRANCH  29  30
ENDBRANCH  28  29
ENDBRANCH  27  28
ENDBRANCH  26  27
ENDBRANCH   1  26
TORSDOF 22
ENDMDL
