MODEL 1
REMARK VINA RESULT:     -11.5      0.000      0.000
REMARK SMILES Cc1ccc(Nc2c(C)cccc2Cl)c(CC(=O)OCCOCCOC(=O)c2ccc(-c3c4nc(c(-c5c(F)cc(S(=O)(=O)[O-])cc5F)c5ccc([nH]5)c(-c5c(F)cc(S(=O)(=O)[O-])cc5F)c5nc(c(-c6c(F)cc(S(=O)(=O)[O-])cc6F)c6ccc3[nH]6)C=C5)C=C4)cc2)c1
REMARK SMILES IDX 22 1 21 2 20 3 19 4 17 5 18 6 16 7 15 8 1 9 2 10 3 11 94 12
REMARK SMILES IDX 4 13 5 14 6 15 7 17 8 18 13 19 9 20 10 21 12 22 14 23 11 24
REMARK SMILES IDX 23 25 24 26 25 27 26 28 27 29 28 30 29 31 93 32 30 33 92 34
REMARK SMILES IDX 31 35 32 36 33 37 86 38 34 39 91 40 85 41 87 42 35 43 90 44
REMARK SMILES IDX 84 45 83 46 36 48 70 49 49 50 69 51 50 52 53 53 68 54 88 55
REMARK SMILES IDX 51 56 52 57 67 59 89 60 54 61 37 62 38 63 47 64 39 65 40 66
REMARK SMILES IDX 46 67 48 68 41 69 42 70 43 71 44 72 45 73 71 74 72 75 81 76
REMARK SMILES IDX 73 77 74 78 80 79 82 80 75 81 76 82 77 83 78 84 79 85 55 86
REMARK SMILES IDX 56 87 65 88 57 89 58 90 64 91 66 92 59 93 60 94 61 95 62 96
REMARK SMILES IDX 63 97
REMARK H PARENT 6 16 87 47 53 58
REMARK Flexibility Score: inf
ROOT
ATOM      1  O   UNL A   1      35.995  21.217  25.722  1.00  0.00    -0.374 OA
ENDROOT
BRANCH   1   2
ATOM      2  C   UNL A   1      34.824  21.737  25.137  1.00  0.00     0.202 C 
BRANCH   2   3
ATOM      3  C   UNL A   1      34.715  23.169  25.608  1.00  0.00     0.261 C 
BRANCH   3   4
ATOM      4  O   UNL A   1      34.924  24.128  24.591  1.00  0.00    -0.463 OA
BRANCH   4   5
ATOM      5  C   UNL A   1      34.243  25.318  24.676  1.00  0.00     0.310 C 
ATOM      6  O   UNL A   1      33.986  26.086  23.775  1.00  0.00    -0.252 OA
BRANCH   5   7
ATOM      7  C   UNL A   1      33.853  25.581  26.123  1.00  0.00     0.160 C 
BRANCH   7   8
ATOM      8  C   UNL A   1      33.163  26.929  26.210  1.00  0.00    -0.013 A 
ATOM      9  C   UNL A   1      34.599  30.320  27.245  1.00  0.00     0.044 C 
ATOM     10  C   UNL A   1      33.618  29.233  26.924  1.00  0.00    -0.051 A 
ATOM     11  C   UNL A   1      32.284  29.343  27.301  1.00  0.00     0.005 A 
ATOM     12  C   UNL A   1      34.036  28.048  26.321  1.00  0.00     0.009 A 
ATOM     13  C   UNL A   1      31.401  28.267  27.124  1.00  0.00     0.026 A 
ATOM     14  C   UNL A   1      31.813  27.026  26.601  1.00  0.00     0.042 A 
BRANCH  14  15
ATOM     15  N   UNL A   1      30.918  25.918  26.511  1.00  0.00    -0.354 N 
ATOM     16  H   UNL A   1      30.361  25.749  27.305  1.00  0.00     0.167 HD
BRANCH  15  17
ATOM     17  C   UNL A   1      30.729  25.028  25.415  1.00  0.00     0.060 A 
ATOM     18  C   UNL A   1      31.006  23.655  25.544  1.00  0.00    -0.026 A 
ATOM     19  C   UNL A   1      30.450  25.509  24.121  1.00  0.00     0.064 A 
ATOM     20  C   UNL A   1      30.898  22.961  26.876  1.00  0.00     0.046 C 
ATOM     21  C   UNL A   1      31.303  22.891  24.404  1.00  0.00     0.005 A 
ATOM     22  C   UNL A   1      30.771  24.756  22.987  1.00  0.00     0.023 A 
ATOM     23  Cl  UNL A   1      29.587  26.988  23.884  1.00  0.00    -0.082 Cl
ATOM     24  C   UNL A   1      31.255  23.461  23.134  1.00  0.00     0.002 A 
ENDBRANCH  15  17
ENDBRANCH  14  15
ENDBRANCH   7   8
ENDBRANCH   5   7
ENDBRANCH   4   5
ENDBRANCH   3   4
ENDBRANCH   2   3
ENDBRANCH   1   2
BRANCH   1  25
ATOM     25  C   UNL A   1      37.002  20.845  24.816  1.00  0.00     0.202 C 
BRANCH  25  26
ATOM     26  C   UNL A   1      38.344  21.119  25.474  1.00  0.00     0.261 C 
BRANCH  26  27
ATOM     27  O   UNL A   1      38.498  22.504  25.879  1.00  0.00    -0.460 OA
BRANCH  27  28
ATOM     28  C   UNL A   1      39.624  22.835  26.586  1.00  0.00     0.338 C 
ATOM     29  O   UNL A   1      40.550  22.060  26.766  1.00  0.00    -0.246 OA
BRANCH  28  30
ATOM     30  C   UNL A   1      39.701  24.286  26.895  1.00  0.00     0.060 A 
ATOM     31  C   UNL A   1      40.459  25.160  26.096  1.00  0.00     0.016 A 
ATOM     32  C   UNL A   1      39.153  24.735  28.092  1.00  0.00     0.016 A 
ATOM     33  C   UNL A   1      40.811  26.429  26.580  1.00  0.00     0.010 A 
ATOM     34  C   UNL A   1      39.589  25.939  28.608  1.00  0.00     0.010 A 
ATOM     35  C   UNL A   1      40.435  26.789  27.870  1.00  0.00    -0.014 A 
BRANCH  35  36
ATOM     36  C   UNL A   1      40.835  27.993  28.601  1.00  0.00     0.031 A 
ATOM     37  C   UNL A   1      39.882  29.124  28.632  1.00  0.00     0.074 A 
ATOM     38  C   UNL A   1      41.884  27.992  29.457  1.00  0.00     0.049 A 
ATOM     39  N   UNL A   1      40.074  30.200  29.303  1.00  0.00    -0.248 NA
ATOM     40  C   UNL A   1      38.632  29.163  27.870  1.00  0.00     0.031 C 
ATOM     41  C   UNL A   1      42.063  28.766  30.688  1.00  0.00     0.029 A 
ATOM     42  N   UNL A   1      43.065  27.293  29.377  1.00  0.00    -0.354 N 
ATOM     43  C   UNL A   1      38.888  30.881  29.364  1.00  0.00     0.074 A 
ATOM     44  C   UNL A   1      38.055  30.265  28.363  1.00  0.00     0.031 C 
ATOM     45  C   UNL A   1      43.333  28.655  31.118  1.00  0.00     0.029 A 
ATOM     46  C   UNL A   1      44.072  27.912  30.110  1.00  0.00     0.049 A 
ATOM     47  H   UNL A   1      43.183  26.460  28.867  1.00  0.00     0.167 HD
ATOM     48  C   UNL A   1      38.751  31.807  30.351  1.00  0.00     0.037 A 
ATOM     49  C   UNL A   1      45.180  28.319  29.421  1.00  0.00     0.037 A 
ATOM     50  C   UNL A   1      40.063  32.103  30.953  1.00  0.00     0.049 A 
ATOM     51  C   UNL A   1      45.137  29.827  29.233  1.00  0.00     0.074 A 
ATOM     52  C   UNL A   1      40.693  31.832  32.154  1.00  0.00     0.029 A 
ATOM     53  N   UNL A   1      41.065  32.547  30.100  1.00  0.00    -0.354 N 
ATOM     54  N   UNL A   1      44.167  30.561  29.712  1.00  0.00    -0.248 NA
ATOM     55  C   UNL A   1      46.123  30.639  28.528  1.00  0.00     0.031 C 
ATOM     56  C   UNL A   1      42.105  32.033  31.961  1.00  0.00     0.029 A 
ATOM     57  C   UNL A   1      42.323  32.466  30.661  1.00  0.00     0.049 A 
ATOM     58  H   UNL A   1      40.896  32.882  29.191  1.00  0.00     0.167 HD
ATOM     59  C   UNL A   1      44.347  31.868  29.414  1.00  0.00     0.074 A 
ATOM     60  C   UNL A   1      45.578  31.869  28.631  1.00  0.00     0.031 C 
ATOM     61  C   UNL A   1      43.478  32.833  29.839  1.00  0.00     0.037 A 
BRANCH  48  62
ATOM     62  C   UNL A   1      37.442  32.382  30.844  1.00  0.00     0.058 A 
ATOM     63  C   UNL A   1      37.295  33.780  30.957  1.00  0.00     0.135 A 
ATOM     64  C   UNL A   1      36.340  31.633  31.319  1.00  0.00     0.135 A 
ATOM     65  F   UNL A   1      38.268  34.613  30.560  1.00  0.00    -0.206 F 
ATOM     66  C   UNL A   1      36.159  34.385  31.501  1.00  0.00     0.059 A 
ATOM     67  C   UNL A   1      35.175  32.218  31.826  1.00  0.00     0.059 A 
ATOM     68  F   UNL A   1      36.357  30.296  31.377  1.00  0.00    -0.206 F 
ATOM     69  C   UNL A   1      35.099  33.596  31.932  1.00  0.00     0.060 A 
BRANCH  69  70
ATOM     70  S   UNL A   1      33.652  34.391  32.654  1.00  0.00     0.124 S 
ATOM     71  O   UNL A   1      34.259  35.316  33.605  1.00  0.00    -0.237 OA
ATOM     72  O   UNL A   1      33.019  35.000  31.489  1.00  0.00    -0.237 OA
ATOM     73  O   UNL A   1      32.913  33.281  33.251  1.00  0.00    -0.744 OA
ENDBRANCH  69  70
ENDBRANCH  48  62
BRANCH  49  74
ATOM     74  C   UNL A   1      45.594  27.227  28.464  1.00  0.00     0.058 A 
ATOM     75  C   UNL A   1      45.951  25.989  29.060  1.00  0.00     0.135 A 
ATOM     76  C   UNL A   1      45.094  27.162  27.150  1.00  0.00     0.135 A 
ATOM     77  F   UNL A   1      46.398  25.967  30.327  1.00  0.00    -0.206 F 
ATOM     78  C   UNL A   1      45.681  24.758  28.458  1.00  0.00     0.059 A 
ATOM     79  C   UNL A   1      44.820  25.930  26.528  1.00  0.00     0.059 A 
ATOM     80  F   UNL A   1      44.688  28.281  26.532  1.00  0.00    -0.206 F 
ATOM     81  C   UNL A   1      45.081  24.734  27.203  1.00  0.00     0.060 A 
BRANCH  81  82
ATOM     82  S   UNL A   1      44.493  23.137  26.550  1.00  0.00     0.124 S 
ATOM     83  O   UNL A   1      43.680  23.561  25.417  1.00  0.00    -0.237 OA
ATOM     84  O   UNL A   1      45.738  22.453  26.206  1.00  0.00    -0.237 OA
ATOM     85  O   UNL A   1      43.767  22.569  27.678  1.00  0.00    -0.744 OA
ENDBRANCH  81  82
ENDBRANCH  49  74
BRANCH  61  86
ATOM     86  C   UNL A   1      43.682  34.259  29.449  1.00  0.00     0.058 A 
ATOM     87  C   UNL A   1      43.526  34.686  28.124  1.00  0.00     0.135 A 
ATOM     88  C   UNL A   1      44.071  35.233  30.391  1.00  0.00     0.135 A 
ATOM     89  F   UNL A   1      43.253  33.808  27.145  1.00  0.00    -0.206 F 
ATOM     90  C   UNL A   1      43.623  36.025  27.775  1.00  0.00     0.059 A 
ATOM     91  C   UNL A   1      44.255  36.562  30.049  1.00  0.00     0.059 A 
ATOM     92  F   UNL A   1      44.232  34.939  31.689  1.00  0.00    -0.206 F 
ATOM     93  C   UNL A   1      43.975  36.956  28.750  1.00  0.00     0.060 A 
BRANCH  93  94
ATOM     94  S   UNL A   1      44.044  38.698  28.316  1.00  0.00     0.124 S 
ATOM     95  O   UNL A   1      42.972  39.267  29.126  1.00  0.00    -0.237 OA
ATOM     96  O   UNL A   1      45.401  39.040  28.731  1.00  0.00    -0.237 OA
ATOM     97  O   UNL A   1      43.805  38.697  26.877  1.00  0.00    -0.744 OA
ENDBRANCH  93  94
ENDBRANCH  61  86
ENDBRANCH  35  36
ENDBRANCH  28  30
ENDBRANCH  27  28
ENDBRANCH  26  27
ENDBRANCH  25  26
ENDBRANCH   1  25
TORSDOF 20
ENDMDL
MODEL 2
REMARK VINA RESULT:     -11.3      1.686      2.895
REMARK SMILES Cc1ccc(Nc2c(C)cccc2Cl)c(CC(=O)OCCOCCOC(=O)c2ccc(-c3c4nc(c(-c5c(F)cc(S(=O)(=O)[O-])cc5F)c5ccc([nH]5)c(-c5c(F)cc(S(=O)(=O)[O-])cc5F)c5nc(c(-c6c(F)cc(S(=O)(=O)[O-])cc6F)c6ccc3[nH]6)C=C5)C=C4)cc2)c1
REMARK SMILES IDX 22 1 21 2 20 3 19 4 17 5 18 6 16 7 15 8 1 9 2 10 3 11 94 12
REMARK SMILES IDX 4 13 5 14 6 15 7 17 8 18 13 19 9 20 10 21 12 22 14 23 11 24
REMARK SMILES IDX 23 25 24 26 25 27 26 28 27 29 28 30 29 31 93 32 30 33 92 34
REMARK SMILES IDX 31 35 32 36 33 37 86 38 34 39 91 40 85 41 87 42 35 43 90 44
REMARK SMILES IDX 84 45 83 46 36 48 70 49 49 50 69 51 50 52 53 53 68 54 88 55
REMARK SMILES IDX 51 56 52 57 67 59 89 60 54 61 37 62 38 63 47 64 39 65 40 66
REMARK SMILES IDX 46 67 48 68 41 69 42 70 43 71 44 72 45 73 71 74 72 75 81 76
REMARK SMILES IDX 73 77 74 78 80 79 82 80 75 81 76 82 77 83 78 84 79 85 55 86
REMARK SMILES IDX 56 87 65 88 57 89 58 90 64 91 66 92 59 93 60 94 61 95 62 96
REMARK SMILES IDX 63 97
REMARK H PARENT 6 16 87 47 53 58
REMARK Flexibility Score: inf
ROOT
ATOM      1  O   UNL A   1      35.116  22.206  26.079  1.00  0.00    -0.374 OA
ENDROOT
BRANCH   1   2
ATOM      2  C   UNL A   1      34.033  21.484  26.619  1.00  0.00     0.202 C 
BRANCH   2   3
ATOM      3  C   UNL A   1      33.304  22.438  27.537  1.00  0.00     0.261 C 
BRANCH   3   4
ATOM      4  O   UNL A   1      32.797  23.588  26.889  1.00  0.00    -0.463 OA
BRANCH   4   5
ATOM      5  C   UNL A   1      31.434  23.727  26.796  1.00  0.00     0.310 C 
ATOM      6  O   UNL A   1      30.588  23.147  27.442  1.00  0.00    -0.252 OA
BRANCH   5   7
ATOM      7  C   UNL A   1      31.096  24.734  25.706  1.00  0.00     0.160 C 
BRANCH   7   8
ATOM      8  C   UNL A   1      31.853  24.366  24.444  1.00  0.00    -0.013 A 
ATOM      9  C   UNL A   1      31.997  21.019  22.597  1.00  0.00     0.044 C 
ATOM     10  C   UNL A   1      32.337  22.410  23.043  1.00  0.00    -0.051 A 
ATOM     11  C   UNL A   1      33.576  22.969  22.750  1.00  0.00     0.005 A 
ATOM     12  C   UNL A   1      31.456  23.141  23.837  1.00  0.00     0.009 A 
ATOM     13  C   UNL A   1      33.943  24.212  23.287  1.00  0.00     0.026 A 
ATOM     14  C   UNL A   1      33.112  24.934  24.164  1.00  0.00     0.042 A 
BRANCH  14  15
ATOM     15  N   UNL A   1      33.541  26.155  24.766  1.00  0.00    -0.354 N 
ATOM     16  H   UNL A   1      34.322  26.090  25.362  1.00  0.00     0.167 HD
BRANCH  15  17
ATOM     17  C   UNL A   1      32.981  27.456  24.611  1.00  0.00     0.060 A 
ATOM     18  C   UNL A   1      32.498  28.171  25.721  1.00  0.00    -0.026 A 
ATOM     19  C   UNL A   1      32.713  27.989  23.335  1.00  0.00     0.064 A 
ATOM     20  C   UNL A   1      33.066  27.949  27.098  1.00  0.00     0.046 C 
ATOM     21  C   UNL A   1      31.532  29.174  25.541  1.00  0.00     0.005 A 
ATOM     22  C   UNL A   1      31.732  28.970  23.155  1.00  0.00     0.023 A 
ATOM     23  Cl  UNL A   1      33.667  27.549  21.963  1.00  0.00    -0.082 Cl
ATOM     24  C   UNL A   1      31.098  29.522  24.264  1.00  0.00     0.002 A 
ENDBRANCH  15  17
ENDBRANCH  14  15
ENDBRANCH   7   8
ENDBRANCH   5   7
ENDBRANCH   4   5
ENDBRANCH   3   4
ENDBRANCH   2   3
ENDBRANCH   1   2
BRANCH   1  25
ATOM     25  C   UNL A   1      35.827  21.546  25.062  1.00  0.00     0.202 C 
BRANCH  25  26
ATOM     26  C   UNL A   1      37.238  21.297  25.568  1.00  0.00     0.261 C 
BRANCH  26  27
ATOM     27  O   UNL A   1      38.090  22.466  25.450  1.00  0.00    -0.460 OA
BRANCH  27  28
ATOM     28  C   UNL A   1      39.108  22.600  26.357  1.00  0.00     0.338 C 
ATOM     29  O   UNL A   1      39.819  21.669  26.705  1.00  0.00    -0.246 OA
BRANCH  28  30
ATOM     30  C   UNL A   1      39.404  24.019  26.681  1.00  0.00     0.060 A 
ATOM     31  C   UNL A   1      40.179  24.815  25.820  1.00  0.00     0.016 A 
ATOM     32  C   UNL A   1      39.049  24.496  27.940  1.00  0.00     0.016 A 
ATOM     33  C   UNL A   1      40.742  26.014  26.285  1.00  0.00     0.010 A 
ATOM     34  C   UNL A   1      39.689  25.618  28.426  1.00  0.00     0.010 A 
ATOM     35  C   UNL A   1      40.554  26.377  27.615  1.00  0.00    -0.014 A 
BRANCH  35  36
ATOM     36  C   UNL A   1      41.182  27.497  28.319  1.00  0.00     0.031 A 
ATOM     37  C   UNL A   1      40.335  28.669  28.635  1.00  0.00     0.074 A 
ATOM     38  C   UNL A   1      42.388  27.375  28.920  1.00  0.00     0.049 A 
ATOM     39  N   UNL A   1      40.738  29.676  29.318  1.00  0.00    -0.248 NA
ATOM     40  C   UNL A   1      38.955  28.831  28.171  1.00  0.00     0.031 C 
ATOM     41  C   UNL A   1      42.879  28.039  30.131  1.00  0.00     0.029 A 
ATOM     42  N   UNL A   1      43.475  26.627  28.536  1.00  0.00    -0.354 N 
ATOM     43  C   UNL A   1      39.641  30.408  29.685  1.00  0.00     0.074 A 
ATOM     44  C   UNL A   1      38.573  29.918  28.852  1.00  0.00     0.031 C 
ATOM     45  C   UNL A   1      44.203  27.831  30.262  1.00  0.00     0.029 A 
ATOM     46  C   UNL A   1      44.656  27.135  29.069  1.00  0.00     0.049 A 
ATOM     47  H   UNL A   1      43.425  25.833  27.957  1.00  0.00     0.167 HD
ATOM     48  C   UNL A   1      39.782  31.259  30.737  1.00  0.00     0.037 A 
ATOM     49  C   UNL A   1      45.613  27.540  28.181  1.00  0.00     0.037 A 
ATOM     50  C   UNL A   1      41.210  31.440  31.053  1.00  0.00     0.049 A 
ATOM     51  C   UNL A   1      45.630  29.058  28.109  1.00  0.00     0.074 A 
ATOM     52  C   UNL A   1      42.065  31.043  32.065  1.00  0.00     0.029 A 
ATOM     53  N   UNL A   1      42.031  31.899  30.033  1.00  0.00    -0.354 N 
ATOM     54  N   UNL A   1      44.837  29.799  28.838  1.00  0.00    -0.248 NA
ATOM     55  C   UNL A   1      46.492  29.874  27.260  1.00  0.00     0.031 C 
ATOM     56  C   UNL A   1      43.412  31.188  31.580  1.00  0.00     0.029 A 
ATOM     57  C   UNL A   1      43.372  31.712  30.296  1.00  0.00     0.049 A 
ATOM     58  H   UNL A   1      41.692  32.315  29.208  1.00  0.00     0.167 HD
ATOM     59  C   UNL A   1      45.034  31.114  28.596  1.00  0.00     0.074 A 
ATOM     60  C   UNL A   1      46.065  31.117  27.563  1.00  0.00     0.031 C 
ATOM     61  C   UNL A   1      44.344  32.085  29.266  1.00  0.00     0.037 A 
BRANCH  48  62
ATOM     62  C   UNL A   1      38.651  31.857  31.544  1.00  0.00     0.058 A 
ATOM     63  C   UNL A   1      37.948  32.970  31.037  1.00  0.00     0.135 A 
ATOM     64  C   UNL A   1      38.275  31.467  32.851  1.00  0.00     0.135 A 
ATOM     65  F   UNL A   1      38.213  33.459  29.816  1.00  0.00    -0.206 F 
ATOM     66  C   UNL A   1      36.964  33.645  31.764  1.00  0.00     0.059 A 
ATOM     67  C   UNL A   1      37.262  32.099  33.579  1.00  0.00     0.059 A 
ATOM     68  F   UNL A   1      38.910  30.496  33.517  1.00  0.00    -0.206 F 
ATOM     69  C   UNL A   1      36.623  33.201  33.036  1.00  0.00     0.060 A 
BRANCH  69  70
ATOM     70  S   UNL A   1      35.369  34.097  33.969  1.00  0.00     0.124 S 
ATOM     71  O   UNL A   1      35.597  35.472  33.538  1.00  0.00    -0.237 OA
ATOM     72  O   UNL A   1      34.133  33.480  33.500  1.00  0.00    -0.237 OA
ATOM     73  O   UNL A   1      35.712  33.817  35.362  1.00  0.00    -0.744 OA
ENDBRANCH  69  70
ENDBRANCH  48  62
BRANCH  49  74
ATOM     74  C   UNL A   1      45.737  26.508  27.085  1.00  0.00     0.058 A 
ATOM     75  C   UNL A   1      46.282  25.258  27.476  1.00  0.00     0.135 A 
ATOM     76  C   UNL A   1      44.862  26.487  25.983  1.00  0.00     0.135 A 
ATOM     77  F   UNL A   1      47.094  25.192  28.545  1.00  0.00    -0.206 F 
ATOM     78  C   UNL A   1      45.866  24.046  26.917  1.00  0.00     0.059 A 
ATOM     79  C   UNL A   1      44.436  25.277  25.406  1.00  0.00     0.059 A 
ATOM     80  F   UNL A   1      44.266  27.619  25.579  1.00  0.00    -0.206 F 
ATOM     81  C   UNL A   1      44.913  24.060  25.904  1.00  0.00     0.060 A 
BRANCH  81  82
ATOM     82  S   UNL A   1      44.185  22.476  25.373  1.00  0.00     0.124 S 
ATOM     83  O   UNL A   1      43.893  22.739  23.970  1.00  0.00    -0.237 OA
ATOM     84  O   UNL A   1      45.268  21.526  25.619  1.00  0.00    -0.237 OA
ATOM     85  O   UNL A   1      43.029  22.336  26.250  1.00  0.00    -0.744 OA
ENDBRANCH  81  82
ENDBRANCH  49  74
BRANCH  61  86
ATOM     86  C   UNL A   1      44.553  33.526  28.937  1.00  0.00     0.058 A 
ATOM     87  C   UNL A   1      44.031  34.094  27.769  1.00  0.00     0.135 A 
ATOM     88  C   UNL A   1      45.311  34.371  29.773  1.00  0.00     0.135 A 
ATOM     89  F   UNL A   1      43.380  33.340  26.867  1.00  0.00    -0.206 F 
ATOM     90  C   UNL A   1      44.143  35.452  27.506  1.00  0.00     0.059 A 
ATOM     91  C   UNL A   1      45.507  35.711  29.489  1.00  0.00     0.059 A 
ATOM     92  F   UNL A   1      45.843  33.937  30.925  1.00  0.00    -0.206 F 
ATOM     93  C   UNL A   1      44.872  36.253  28.382  1.00  0.00     0.060 A 
BRANCH  93  94
ATOM     94  S   UNL A   1      44.971  38.020  28.079  1.00  0.00     0.124 S 
ATOM     95  O   UNL A   1      44.249  38.165  26.818  1.00  0.00    -0.237 OA
ATOM     96  O   UNL A   1      44.295  38.549  29.259  1.00  0.00    -0.237 OA
ATOM     97  O   UNL A   1      46.406  38.271  28.007  1.00  0.00    -0.744 OA
ENDBRANCH  93  94
ENDBRANCH  61  86
ENDBRANCH  35  36
ENDBRANCH  28  30
ENDBRANCH  27  28
ENDBRANCH  26  27
ENDBRANCH  25  26
ENDBRANCH   1  25
TORSDOF 20
ENDMDL
MODEL 3
REMARK VINA RESULT:     -11.3      1.740      2.374
REMARK SMILES Cc1ccc(Nc2c(C)cccc2Cl)c(CC(=O)OCCOCCOC(=O)c2ccc(-c3c4nc(c(-c5c(F)cc(S(=O)(=O)[O-])cc5F)c5ccc([nH]5)c(-c5c(F)cc(S(=O)(=O)[O-])cc5F)c5nc(c(-c6c(F)cc(S(=O)(=O)[O-])cc6F)c6ccc3[nH]6)C=C5)C=C4)cc2)c1
REMARK SMILES IDX 22 1 21 2 20 3 19 4 17 5 18 6 16 7 15 8 1 9 2 10 3 11 94 12
REMARK SMILES IDX 4 13 5 14 6 15 7 17 8 18 13 19 9 20 10 21 12 22 14 23 11 24
REMARK SMILES IDX 23 25 24 26 25 27 26 28 27 29 28 30 29 31 93 32 30 33 92 34
REMARK SMILES IDX 31 35 32 36 33 37 86 38 34 39 91 40 85 41 87 42 35 43 90 44
REMARK SMILES IDX 84 45 83 46 36 48 70 49 49 50 69 51 50 52 53 53 68 54 88 55
REMARK SMILES IDX 51 56 52 57 67 59 89 60 54 61 37 62 38 63 47 64 39 65 40 66
REMARK SMILES IDX 46 67 48 68 41 69 42 70 43 71 44 72 45 73 71 74 72 75 81 76
REMARK SMILES IDX 73 77 74 78 80 79 82 80 75 81 76 82 77 83 78 84 79 85 55 86
REMARK SMILES IDX 56 87 65 88 57 89 58 90 64 91 66 92 59 93 60 94 61 95 62 96
REMARK SMILES IDX 63 97
REMARK H PARENT 6 16 87 47 53 58
REMARK Flexibility Score: inf
ROOT
ATOM      1  O   UNL A   1      35.219  21.762  26.515  1.00  0.00    -0.374 OA
ENDROOT
BRANCH   1   2
ATOM      2  C   UNL A   1      33.823  21.831  26.690  1.00  0.00     0.202 C 
BRANCH   2   3
ATOM      3  C   UNL A   1      33.360  23.053  25.932  1.00  0.00     0.261 C 
BRANCH   3   4
ATOM      4  O   UNL A   1      32.963  24.129  26.759  1.00  0.00    -0.463 OA
BRANCH   4   5
ATOM      5  C   UNL A   1      32.372  25.216  26.164  1.00  0.00     0.310 C 
ATOM      6  O   UNL A   1      31.375  25.803  26.527  1.00  0.00    -0.252 OA
BRANCH   5   7
ATOM      7  C   UNL A   1      33.146  25.597  24.912  1.00  0.00     0.160 C 
BRANCH   7   8
ATOM      8  C   UNL A   1      33.376  27.097  24.912  1.00  0.00    -0.013 A 
ATOM      9  C   UNL A   1      34.725  29.337  27.704  1.00  0.00     0.044 C 
ATOM     10  C   UNL A   1      34.054  28.896  26.438  1.00  0.00    -0.051 A 
ATOM     11  C   UNL A   1      33.220  29.759  25.736  1.00  0.00     0.005 A 
ATOM     12  C   UNL A   1      34.177  27.584  25.983  1.00  0.00     0.009 A 
ATOM     13  C   UNL A   1      32.484  29.300  24.632  1.00  0.00     0.026 A 
ATOM     14  C   UNL A   1      32.518  27.960  24.202  1.00  0.00     0.042 A 
BRANCH  14  15
ATOM     15  N   UNL A   1      31.696  27.497  23.131  1.00  0.00    -0.354 N 
ATOM     16  H   UNL A   1      32.172  27.149  22.343  1.00  0.00     0.167 HD
BRANCH  15  17
ATOM     17  C   UNL A   1      30.273  27.476  23.061  1.00  0.00     0.060 A 
ATOM     18  C   UNL A   1      29.549  28.633  22.724  1.00  0.00    -0.026 A 
ATOM     19  C   UNL A   1      29.536  26.364  23.512  1.00  0.00     0.064 A 
ATOM     20  C   UNL A   1      30.153  29.702  21.851  1.00  0.00     0.046 C 
ATOM     21  C   UNL A   1      28.211  28.763  23.126  1.00  0.00     0.005 A 
ATOM     22  C   UNL A   1      28.211  26.501  23.937  1.00  0.00     0.023 A 
ATOM     23  Cl  UNL A   1      30.193  24.766  23.440  1.00  0.00    -0.082 Cl
ATOM     24  C   UNL A   1      27.566  27.725  23.796  1.00  0.00     0.002 A 
ENDBRANCH  15  17
ENDBRANCH  14  15
ENDBRANCH   7   8
ENDBRANCH   5   7
ENDBRANCH   4   5
ENDBRANCH   3   4
ENDBRANCH   2   3
ENDBRANCH   1   2
BRANCH   1  25
ATOM     25  C   UNL A   1      35.684  22.160  25.250  1.00  0.00     0.202 C 
BRANCH  25  26
ATOM     26  C   UNL A   1      36.887  23.064  25.459  1.00  0.00     0.261 C 
BRANCH  26  27
ATOM     27  O   UNL A   1      38.146  22.346  25.398  1.00  0.00    -0.460 OA
BRANCH  27  28
ATOM     28  C   UNL A   1      39.023  22.516  26.436  1.00  0.00     0.338 C 
ATOM     29  O   UNL A   1      39.636  21.593  26.950  1.00  0.00    -0.246 OA
BRANCH  28  30
ATOM     30  C   UNL A   1      39.323  23.946  26.705  1.00  0.00     0.060 A 
ATOM     31  C   UNL A   1      40.041  24.723  25.781  1.00  0.00     0.016 A 
ATOM     32  C   UNL A   1      39.034  24.454  27.968  1.00  0.00     0.016 A 
ATOM     33  C   UNL A   1      40.617  25.940  26.180  1.00  0.00     0.010 A 
ATOM     34  C   UNL A   1      39.689  25.595  28.387  1.00  0.00     0.010 A 
ATOM     35  C   UNL A   1      40.500  26.338  27.509  1.00  0.00    -0.014 A 
BRANCH  35  36
ATOM     36  C   UNL A   1      41.155  27.483  28.146  1.00  0.00     0.031 A 
ATOM     37  C   UNL A   1      40.343  28.698  28.371  1.00  0.00     0.074 A 
ATOM     38  C   UNL A   1      42.350  27.363  28.770  1.00  0.00     0.049 A 
ATOM     39  N   UNL A   1      40.771  29.736  28.992  1.00  0.00    -0.248 NA
ATOM     40  C   UNL A   1      38.974  28.872  27.879  1.00  0.00     0.031 C 
ATOM     41  C   UNL A   1      42.848  28.090  29.941  1.00  0.00     0.029 A 
ATOM     42  N   UNL A   1      43.417  26.557  28.451  1.00  0.00    -0.354 N 
ATOM     43  C   UNL A   1      39.693  30.524  29.295  1.00  0.00     0.074 A 
ATOM     44  C   UNL A   1      38.619  30.013  28.481  1.00  0.00     0.031 C 
ATOM     45  C   UNL A   1      44.162  27.849  30.104  1.00  0.00     0.029 A 
ATOM     46  C   UNL A   1      44.607  27.062  28.965  1.00  0.00     0.049 A 
ATOM     47  H   UNL A   1      43.348  25.728  27.925  1.00  0.00     0.167 HD
ATOM     48  C   UNL A   1      39.849  31.438  30.291  1.00  0.00     0.037 A 
ATOM     49  C   UNL A   1      45.587  27.377  28.066  1.00  0.00     0.037 A 
ATOM     50  C   UNL A   1      41.278  31.595  30.613  1.00  0.00     0.049 A 
ATOM     51  C   UNL A   1      45.653  28.886  27.895  1.00  0.00     0.074 A 
ATOM     52  C   UNL A   1      42.108  31.239  31.661  1.00  0.00     0.029 A 
ATOM     53  N   UNL A   1      42.126  31.960  29.576  1.00  0.00    -0.354 N 
ATOM     54  N   UNL A   1      44.877  29.698  28.561  1.00  0.00    -0.248 NA
ATOM     55  C   UNL A   1      46.551  29.616  27.006  1.00  0.00     0.031 C 
ATOM     56  C   UNL A   1      43.464  31.310  31.186  1.00  0.00     0.029 A 
ATOM     57  C   UNL A   1      43.457  31.748  29.870  1.00  0.00     0.049 A 
ATOM     58  H   UNL A   1      41.810  32.330  28.721  1.00  0.00     0.167 HD
ATOM     59  C   UNL A   1      45.119  30.988  28.236  1.00  0.00     0.074 A 
ATOM     60  C   UNL A   1      46.161  30.890  27.220  1.00  0.00     0.031 C 
ATOM     61  C   UNL A   1      44.452  32.022  28.831  1.00  0.00     0.037 A 
BRANCH  48  62
ATOM     62  C   UNL A   1      38.729  32.124  31.040  1.00  0.00     0.058 A 
ATOM     63  C   UNL A   1      38.421  31.718  32.355  1.00  0.00     0.135 A 
ATOM     64  C   UNL A   1      37.854  33.098  30.504  1.00  0.00     0.135 A 
ATOM     65  F   UNL A   1      39.157  30.788  32.983  1.00  0.00    -0.206 F 
ATOM     66  C   UNL A   1      37.337  32.226  33.075  1.00  0.00     0.059 A 
ATOM     67  C   UNL A   1      36.790  33.653  31.222  1.00  0.00     0.059 A 
ATOM     68  F   UNL A   1      37.943  33.518  29.236  1.00  0.00    -0.206 F 
ATOM     69  C   UNL A   1      36.525  33.198  32.502  1.00  0.00     0.060 A 
BRANCH  69  70
ATOM     70  S   UNL A   1      35.117  33.825  33.435  1.00  0.00     0.124 S 
ATOM     71  O   UNL A   1      35.192  35.257  33.170  1.00  0.00    -0.237 OA
ATOM     72  O   UNL A   1      33.998  33.121  32.818  1.00  0.00    -0.237 OA
ATOM     73  O   UNL A   1      35.414  33.430  34.811  1.00  0.00    -0.744 OA
ENDBRANCH  69  70
ENDBRANCH  48  62
BRANCH  49  74
ATOM     74  C   UNL A   1      45.691  26.272  27.043  1.00  0.00     0.058 A 
ATOM     75  C   UNL A   1      46.159  25.024  27.530  1.00  0.00     0.135 A 
ATOM     76  C   UNL A   1      44.849  26.221  25.916  1.00  0.00     0.135 A 
ATOM     77  F   UNL A   1      46.934  24.988  28.627  1.00  0.00    -0.206 F 
ATOM     78  C   UNL A   1      45.699  23.800  27.035  1.00  0.00     0.059 A 
ATOM     79  C   UNL A   1      44.378  24.998  25.404  1.00  0.00     0.059 A 
ATOM     80  F   UNL A   1      44.323  27.352  25.421  1.00  0.00    -0.206 F 
ATOM     81  C   UNL A   1      44.778  23.795  25.992  1.00  0.00     0.060 A 
BRANCH  81  82
ATOM     82  S   UNL A   1      43.986  22.217  25.540  1.00  0.00     0.124 S 
ATOM     83  O   UNL A   1      43.201  22.603  24.375  1.00  0.00    -0.237 OA
ATOM     84  O   UNL A   1      45.131  21.351  25.264  1.00  0.00    -0.237 OA
ATOM     85  O   UNL A   1      43.227  21.877  26.736  1.00  0.00    -0.744 OA
ENDBRANCH  81  82
ENDBRANCH  49  74
BRANCH  61  86
ATOM     86  C   UNL A   1      44.711  33.430  28.411  1.00  0.00     0.058 A 
ATOM     87  C   UNL A   1      44.336  33.898  27.145  1.00  0.00     0.135 A 
ATOM     88  C   UNL A   1      45.372  34.343  29.257  1.00  0.00     0.135 A 
ATOM     89  F   UNL A   1      43.789  33.071  26.239  1.00  0.00    -0.206 F 
ATOM     90  C   UNL A   1      44.490  35.229  26.786  1.00  0.00     0.059 A 
ATOM     91  C   UNL A   1      45.612  35.655  28.888  1.00  0.00     0.059 A 
ATOM     92  F   UNL A   1      45.760  34.008  30.497  1.00  0.00    -0.206 F 
ATOM     93  C   UNL A   1      45.118  36.102  27.673  1.00  0.00     0.060 A 
BRANCH  93  94
ATOM     94  S   UNL A   1      45.267  37.838  27.237  1.00  0.00     0.124 S 
ATOM     95  O   UNL A   1      46.116  37.794  26.051  1.00  0.00    -0.237 OA
ATOM     96  O   UNL A   1      43.871  38.193  27.004  1.00  0.00    -0.237 OA
ATOM     97  O   UNL A   1      45.880  38.431  28.421  1.00  0.00    -0.744 OA
ENDBRANCH  93  94
ENDBRANCH  61  86
ENDBRANCH  35  36
ENDBRANCH  28  30
ENDBRANCH  27  28
ENDBRANCH  26  27
ENDBRANCH  25  26
ENDBRANCH   1  25
TORSDOF 20
ENDMDL
