MODEL 1
REMARK VINA RESULT:     -11.2      0.000      0.000
REMARK SMILES Nc1ncccc1C[N@@H+]1CC2(CC[NH2+]CC2)C[C@H]1C(=O)OCCOCCOC(=O)c1ccc(-c2c3nc(c(-c4c(F)cc(S(=O)(=O)[O-])cc4F)c4ccc([nH]4)c(-c4c(F)cc(S(=O)(=O)[O-])cc4F)c4nc(c(-c5c(F)cc(S(=O)(=O)[O-])cc5F)c5ccc2[nH]5)C=C4)C=C3)cc1
REMARK SMILES IDX 24 1 23 2 22 3 21 4 19 5 20 6 18 7 9 8 10 9 11 11 17 12
REMARK SMILES IDX 12 13 16 14 13 15 15 16 14 17 8 20 7 21 2 22 3 23 4 24 6 25
REMARK SMILES IDX 5 26 1 27 25 30 26 31 27 32 28 33 29 34 30 35 31 36 95 37
REMARK SMILES IDX 32 38 94 39 33 40 34 41 35 42 88 43 36 44 93 45 87 46 89 47
REMARK SMILES IDX 37 48 92 49 86 50 85 51 38 53 72 54 51 55 71 56 52 57 55 58
REMARK SMILES IDX 70 59 90 60 53 61 54 62 69 64 91 65 56 66 39 67 40 68 49 69
REMARK SMILES IDX 41 70 42 71 48 72 50 73 43 74 44 75 45 76 46 77 47 78 73 79
REMARK SMILES IDX 74 80 83 81 75 82 76 83 82 84 84 85 77 86 78 87 79 88 80 89
REMARK SMILES IDX 81 90 57 91 58 92 67 93 59 94 60 95 66 96 68 97 61 98 62 99
REMARK SMILES IDX 63 100 64 101 65 102
REMARK H PARENT 9 10 14 18 14 19 1 28 1 29 89 52 55 63
REMARK Flexibility Score: inf
ROOT
ATOM      1  O   UNL A   1      32.263  29.103  24.791  1.00  0.00    -0.374 OA
ENDROOT
BRANCH   1   2
ATOM      2  C   UNL A   1      32.881  27.819  24.753  1.00  0.00     0.202 C 
BRANCH   2   3
ATOM      3  C   UNL A   1      32.124  26.713  24.017  1.00  0.00     0.261 C 
BRANCH   3   4
ATOM      4  O   UNL A   1      32.820  25.458  24.048  1.00  0.00    -0.459 OA
BRANCH   4   5
ATOM      5  C   UNL A   1      32.030  24.351  23.990  1.00  0.00     0.365 C 
ATOM      6  O   UNL A   1      31.049  24.238  23.258  1.00  0.00    -0.245 OA
BRANCH   5   7
ATOM      7  C   UNL A   1      32.419  23.249  24.979  1.00  0.00     0.296 C 
ATOM      8  N   UNL A   1      32.699  21.927  24.374  1.00  0.00    -0.319 N 
ATOM      9  C   UNL A   1      34.156  21.783  24.249  1.00  0.00     0.270 C 
ATOM     10  H   UNL A   1      32.286  21.897  23.442  1.00  0.00     0.349 HD
ATOM     11  C   UNL A   1      34.840  22.906  25.063  1.00  0.00     0.036 C 
ATOM     12  C   UNL A   1      33.673  23.640  25.745  1.00  0.00     0.091 C 
ATOM     13  C   UNL A   1      35.648  23.863  24.151  1.00  0.00     0.074 C 
ATOM     14  C   UNL A   1      35.821  22.365  26.127  1.00  0.00     0.074 C 
ATOM     15  C   UNL A   1      36.931  23.219  23.612  1.00  0.00     0.261 C 
ATOM     16  C   UNL A   1      37.067  21.737  25.512  1.00  0.00     0.261 C 
ATOM     17  N   UNL A   1      37.781  22.696  24.681  1.00  0.00    -0.346 N 
ATOM     18  H   UNL A   1      38.094  23.471  25.264  1.00  0.00     0.346 HD
ATOM     19  H   UNL A   1      38.573  22.218  24.253  1.00  0.00     0.346 HD
BRANCH   8  20
ATOM     20  C   UNL A   1      32.012  20.786  25.022  1.00  0.00     0.303 C 
BRANCH  20  21
ATOM     21  C   UNL A   1      32.313  19.400  24.488  1.00  0.00     0.048 A 
ATOM     22  C   UNL A   1      32.821  18.375  25.293  1.00  0.00     0.132 A 
ATOM     23  N   UNL A   1      33.343  17.238  24.790  1.00  0.00    -0.239 NA
ATOM     24  C   UNL A   1      33.313  17.071  23.453  1.00  0.00     0.113 A 
ATOM     25  C   UNL A   1      32.184  19.130  23.121  1.00  0.00     0.015 A 
ATOM     26  C   UNL A   1      32.714  17.962  22.586  1.00  0.00     0.021 A 
BRANCH  22  27
ATOM     27  N   UNL A   1      32.877  18.467  26.670  1.00  0.00    -0.383 N 
ATOM     28  H   UNL A   1      33.251  19.273  27.094  1.00  0.00     0.158 HD
ATOM     29  H   UNL A   1      32.543  17.727  27.227  1.00  0.00     0.158 HD
ENDBRANCH  22  27
ENDBRANCH  20  21
ENDBRANCH   8  20
ENDBRANCH   5   7
ENDBRANCH   4   5
ENDBRANCH   3   4
ENDBRANCH   2   3
ENDBRANCH   1   2
BRANCH   1  30
ATOM     30  C   UNL A   1      31.770  29.556  26.054  1.00  0.00     0.202 C 
BRANCH  30  31
ATOM     31  C   UNL A   1      32.627  30.583  26.804  1.00  0.00     0.261 C 
BRANCH  31  32
ATOM     32  O   UNL A   1      33.574  29.978  27.705  1.00  0.00    -0.460 OA
BRANCH  32  33
ATOM     33  C   UNL A   1      34.513  30.826  28.196  1.00  0.00     0.338 C 
ATOM     34  O   UNL A   1      34.332  31.951  28.629  1.00  0.00    -0.246 OA
BRANCH  33  35
ATOM     35  C   UNL A   1      35.817  30.141  28.299  1.00  0.00     0.060 A 
ATOM     36  C   UNL A   1      36.182  29.626  29.549  1.00  0.00     0.016 A 
ATOM     37  C   UNL A   1      36.708  30.092  27.224  1.00  0.00     0.016 A 
ATOM     38  C   UNL A   1      37.459  29.104  29.744  1.00  0.00     0.010 A 
ATOM     39  C   UNL A   1      37.993  29.576  27.426  1.00  0.00     0.010 A 
ATOM     40  C   UNL A   1      38.387  29.113  28.694  1.00  0.00    -0.014 A 
BRANCH  40  41
ATOM     41  C   UNL A   1      39.805  28.772  28.967  1.00  0.00     0.031 A 
ATOM     42  C   UNL A   1      40.695  29.805  29.605  1.00  0.00     0.074 A 
ATOM     43  C   UNL A   1      40.286  27.549  28.680  1.00  0.00     0.049 A 
ATOM     44  N   UNL A   1      41.966  29.732  29.907  1.00  0.00    -0.248 NA
ATOM     45  C   UNL A   1      40.069  31.091  29.950  1.00  0.00     0.031 C 
ATOM     46  C   UNL A   1      39.512  26.453  28.097  1.00  0.00     0.029 A 
ATOM     47  N   UNL A   1      41.544  27.026  28.837  1.00  0.00    -0.354 N 
ATOM     48  C   UNL A   1      42.292  30.957  30.475  1.00  0.00     0.074 A 
ATOM     49  C   UNL A   1      41.093  31.767  30.450  1.00  0.00     0.031 C 
ATOM     50  C   UNL A   1      40.318  25.389  27.937  1.00  0.00     0.029 A 
ATOM     51  C   UNL A   1      41.667  25.736  28.380  1.00  0.00     0.049 A 
ATOM     52  H   UNL A   1      42.290  27.528  29.240  1.00  0.00     0.167 HD
ATOM     53  C   UNL A   1      43.480  31.368  30.981  1.00  0.00     0.037 A 
ATOM     54  C   UNL A   1      42.749  24.936  28.310  1.00  0.00     0.037 A 
ATOM     55  C   UNL A   1      44.672  30.562  31.003  1.00  0.00     0.049 A 
ATOM     56  C   UNL A   1      44.076  25.439  28.816  1.00  0.00     0.074 A 
ATOM     57  C   UNL A   1      45.923  30.887  31.498  1.00  0.00     0.029 A 
ATOM     58  N   UNL A   1      44.763  29.271  30.503  1.00  0.00    -0.354 N 
ATOM     59  N   UNL A   1      44.366  26.596  29.362  1.00  0.00    -0.248 NA
ATOM     60  C   UNL A   1      45.223  24.527  28.697  1.00  0.00     0.031 C 
ATOM     61  C   UNL A   1      46.781  29.806  31.263  1.00  0.00     0.029 A 
ATOM     62  C   UNL A   1      46.053  28.792  30.661  1.00  0.00     0.049 A 
ATOM     63  H   UNL A   1      44.020  28.770  30.096  1.00  0.00     0.167 HD
ATOM     64  C   UNL A   1      45.720  26.539  29.677  1.00  0.00     0.074 A 
ATOM     65  C   UNL A   1      46.191  25.233  29.266  1.00  0.00     0.031 C 
ATOM     66  C   UNL A   1      46.504  27.484  30.255  1.00  0.00     0.037 A 
BRANCH  53  67
ATOM     67  C   UNL A   1      43.551  32.763  31.538  1.00  0.00     0.058 A 
ATOM     68  C   UNL A   1      43.859  33.865  30.725  1.00  0.00     0.135 A 
ATOM     69  C   UNL A   1      43.282  33.004  32.895  1.00  0.00     0.135 A 
ATOM     70  F   UNL A   1      44.141  33.687  29.424  1.00  0.00    -0.206 F 
ATOM     71  C   UNL A   1      43.923  35.155  31.242  1.00  0.00     0.059 A 
ATOM     72  C   UNL A   1      43.318  34.289  33.428  1.00  0.00     0.059 A 
ATOM     73  F   UNL A   1      42.985  31.985  33.716  1.00  0.00    -0.206 F 
ATOM     74  C   UNL A   1      43.654  35.356  32.597  1.00  0.00     0.060 A 
BRANCH  74  75
ATOM     75  S   UNL A   1      43.742  37.035  33.256  1.00  0.00     0.124 S 
ATOM     76  O   UNL A   1      42.576  37.064  34.134  1.00  0.00    -0.237 OA
ATOM     77  O   UNL A   1      45.038  37.042  33.925  1.00  0.00    -0.237 OA
ATOM     78  O   UNL A   1      43.650  37.873  32.064  1.00  0.00    -0.744 OA
ENDBRANCH  74  75
ENDBRANCH  53  67
BRANCH  54  79
ATOM     79  C   UNL A   1      42.629  23.573  27.728  1.00  0.00     0.058 A 
ATOM     80  C   UNL A   1      42.465  22.447  28.547  1.00  0.00     0.135 A 
ATOM     81  C   UNL A   1      42.682  23.371  26.340  1.00  0.00     0.135 A 
ATOM     82  F   UNL A   1      42.422  22.589  29.880  1.00  0.00    -0.206 F 
ATOM     83  C   UNL A   1      42.371  21.165  28.013  1.00  0.00     0.059 A 
ATOM     84  C   UNL A   1      42.567  22.102  25.780  1.00  0.00     0.059 A 
ATOM     85  F   UNL A   1      42.828  24.417  25.512  1.00  0.00    -0.206 F 
ATOM     86  C   UNL A   1      42.423  21.003  26.627  1.00  0.00     0.060 A 
BRANCH  86  87
ATOM     87  S   UNL A   1      42.254  19.342  25.939  1.00  0.00     0.124 S 
ATOM     88  O   UNL A   1      42.723  18.517  27.046  1.00  0.00    -0.237 OA
ATOM     89  O   UNL A   1      40.825  19.272  25.651  1.00  0.00    -0.237 OA
ATOM     90  O   UNL A   1      43.120  19.378  24.765  1.00  0.00    -0.744 OA
ENDBRANCH  86  87
ENDBRANCH  54  79
BRANCH  66  91
ATOM     91  C   UNL A   1      47.942  27.129  30.514  1.00  0.00     0.058 A 
ATOM     92  C   UNL A   1      48.934  27.317  29.540  1.00  0.00     0.135 A 
ATOM     93  C   UNL A   1      48.338  26.645  31.772  1.00  0.00     0.135 A 
ATOM     94  F   UNL A   1      48.606  27.772  28.321  1.00  0.00    -0.206 F 
ATOM     95  C   UNL A   1      50.268  27.018  29.797  1.00  0.00     0.059 A 
ATOM     96  C   UNL A   1      49.670  26.361  32.057  1.00  0.00     0.059 A 
ATOM     97  F   UNL A   1      47.429  26.457  32.741  1.00  0.00    -0.206 F 
ATOM     98  C   UNL A   1      50.627  26.541  31.059  1.00  0.00     0.060 A 
BRANCH  98  99
ATOM     99  S   UNL A   1      52.366  26.188  31.393  1.00  0.00     0.124 S 
ATOM    100  O   UNL A   1      52.980  26.487  30.103  1.00  0.00    -0.237 OA
ATOM    101  O   UNL A   1      52.675  27.121  32.473  1.00  0.00    -0.237 OA
ATOM    102  O   UNL A   1      52.360  24.779  31.774  1.00  0.00    -0.744 OA
ENDBRANCH  98  99
ENDBRANCH  66  91
ENDBRANCH  40  41
ENDBRANCH  33  35
ENDBRANCH  32  33
ENDBRANCH  31  32
ENDBRANCH  30  31
ENDBRANCH   1  30
TORSDOF 20
ENDMDL
MODEL 2
REMARK VINA RESULT:     -11.0      3.273      5.098
REMARK SMILES Nc1ncccc1C[N@@H+]1CC2(CC[NH2+]CC2)C[C@H]1C(=O)OCCOCCOC(=O)c1ccc(-c2c3nc(c(-c4c(F)cc(S(=O)(=O)[O-])cc4F)c4ccc([nH]4)c(-c4c(F)cc(S(=O)(=O)[O-])cc4F)c4nc(c(-c5c(F)cc(S(=O)(=O)[O-])cc5F)c5ccc2[nH]5)C=C4)C=C3)cc1
REMARK SMILES IDX 24 1 23 2 22 3 21 4 19 5 20 6 18 7 9 8 10 9 11 11 17 12
REMARK SMILES IDX 12 13 16 14 13 15 15 16 14 17 8 20 7 21 2 22 3 23 4 24 6 25
REMARK SMILES IDX 5 26 1 27 25 30 26 31 27 32 28 33 29 34 30 35 31 36 95 37
REMARK SMILES IDX 32 38 94 39 33 40 34 41 35 42 88 43 36 44 93 45 87 46 89 47
REMARK SMILES IDX 37 48 92 49 86 50 85 51 38 53 72 54 51 55 71 56 52 57 55 58
REMARK SMILES IDX 70 59 90 60 53 61 54 62 69 64 91 65 56 66 39 67 40 68 49 69
REMARK SMILES IDX 41 70 42 71 48 72 50 73 43 74 44 75 45 76 46 77 47 78 73 79
REMARK SMILES IDX 74 80 83 81 75 82 76 83 82 84 84 85 77 86 78 87 79 88 80 89
REMARK SMILES IDX 81 90 57 91 58 92 67 93 59 94 60 95 66 96 68 97 61 98 62 99
REMARK SMILES IDX 63 100 64 101 65 102
REMARK H PARENT 9 10 14 18 14 19 1 28 1 29 89 52 55 63
REMARK Flexibility Score: inf
ROOT
ATOM      1  O   UNL A   1      34.567  30.697  27.650  1.00  0.00    -0.374 OA
ENDROOT
BRANCH   1   2
ATOM      2  C   UNL A   1      33.372  30.812  26.882  1.00  0.00     0.202 C 
BRANCH   2   3
ATOM      3  C   UNL A   1      32.251  29.823  27.202  1.00  0.00     0.261 C 
BRANCH   3   4
ATOM      4  O   UNL A   1      32.106  28.812  26.193  1.00  0.00    -0.459 OA
BRANCH   4   5
ATOM      5  C   UNL A   1      31.460  27.682  26.588  1.00  0.00     0.365 C 
ATOM      6  O   UNL A   1      31.290  27.355  27.760  1.00  0.00    -0.245 OA
BRANCH   5   7
ATOM      7  C   UNL A   1      31.004  26.784  25.435  1.00  0.00     0.296 C 
ATOM      8  N   UNL A   1      31.653  27.049  24.131  1.00  0.00    -0.319 N 
ATOM      9  C   UNL A   1      32.730  26.067  23.949  1.00  0.00     0.270 C 
ATOM     10  H   UNL A   1      32.062  27.983  24.151  1.00  0.00     0.349 HD
ATOM     11  C   UNL A   1      32.580  24.959  25.017  1.00  0.00     0.036 C 
ATOM     12  C   UNL A   1      31.282  25.323  25.757  1.00  0.00     0.091 C 
ATOM     13  C   UNL A   1      33.789  24.930  25.986  1.00  0.00     0.074 C 
ATOM     14  C   UNL A   1      32.463  23.546  24.405  1.00  0.00     0.074 C 
ATOM     15  C   UNL A   1      35.059  24.380  25.327  1.00  0.00     0.261 C 
ATOM     16  C   UNL A   1      33.763  23.072  23.765  1.00  0.00     0.261 C 
ATOM     17  N   UNL A   1      34.849  23.059  24.736  1.00  0.00    -0.346 N 
ATOM     18  H   UNL A   1      34.622  22.396  25.477  1.00  0.00     0.346 HD
ATOM     19  H   UNL A   1      35.705  22.787  24.252  1.00  0.00     0.346 HD
BRANCH   8  20
ATOM     20  C   UNL A   1      30.722  27.176  22.985  1.00  0.00     0.303 C 
BRANCH  20  21
ATOM     21  C   UNL A   1      29.560  28.137  23.138  1.00  0.00     0.048 A 
ATOM     22  C   UNL A   1      28.255  27.707  23.405  1.00  0.00     0.132 A 
ATOM     23  N   UNL A   1      27.180  28.509  23.277  1.00  0.00    -0.239 NA
ATOM     24  C   UNL A   1      27.391  29.794  22.933  1.00  0.00     0.113 A 
ATOM     25  C   UNL A   1      29.744  29.505  22.912  1.00  0.00     0.015 A 
ATOM     26  C   UNL A   1      28.646  30.346  22.779  1.00  0.00     0.021 A 
BRANCH  22  27
ATOM     27  N   UNL A   1      27.959  26.409  23.772  1.00  0.00    -0.383 N 
ATOM     28  H   UNL A   1      28.570  25.677  23.526  1.00  0.00     0.158 HD
ATOM     29  H   UNL A   1      27.138  26.216  24.279  1.00  0.00     0.158 HD
ENDBRANCH  22  27
ENDBRANCH  20  21
ENDBRANCH   8  20
ENDBRANCH   5   7
ENDBRANCH   4   5
ENDBRANCH   3   4
ENDBRANCH   2   3
ENDBRANCH   1   2
BRANCH   1  30
ATOM     30  C   UNL A   1      35.081  31.891  28.246  1.00  0.00     0.202 C 
BRANCH  30  31
ATOM     31  C   UNL A   1      35.014  31.986  29.774  1.00  0.00     0.261 C 
BRANCH  31  32
ATOM     32  O   UNL A   1      36.298  31.839  30.407  1.00  0.00    -0.460 OA
BRANCH  32  33
ATOM     33  C   UNL A   1      36.720  30.556  30.545  1.00  0.00     0.338 C 
ATOM     34  O   UNL A   1      36.041  29.586  30.834  1.00  0.00    -0.246 OA
BRANCH  33  35
ATOM     35  C   UNL A   1      38.132  30.434  30.129  1.00  0.00     0.060 A 
ATOM     36  C   UNL A   1      38.392  30.250  28.765  1.00  0.00     0.016 A 
ATOM     37  C   UNL A   1      39.172  30.399  31.060  1.00  0.00     0.016 A 
ATOM     38  C   UNL A   1      39.689  29.978  28.332  1.00  0.00     0.010 A 
ATOM     39  C   UNL A   1      40.471  30.117  30.623  1.00  0.00     0.010 A 
ATOM     40  C   UNL A   1      40.730  29.870  29.263  1.00  0.00    -0.014 A 
BRANCH  40  41
ATOM     41  C   UNL A   1      42.053  29.359  28.827  1.00  0.00     0.031 A 
ATOM     42  C   UNL A   1      43.221  30.308  28.773  1.00  0.00     0.074 A 
ATOM     43  C   UNL A   1      42.220  28.062  28.514  1.00  0.00     0.049 A 
ATOM     44  N   UNL A   1      44.454  30.085  28.398  1.00  0.00    -0.248 NA
ATOM     45  C   UNL A   1      42.964  31.692  29.200  1.00  0.00     0.031 C 
ATOM     46  C   UNL A   1      41.176  27.039  28.566  1.00  0.00     0.029 A 
ATOM     47  N   UNL A   1      43.334  27.384  28.086  1.00  0.00    -0.354 N 
ATOM     48  C   UNL A   1      45.119  31.296  28.543  1.00  0.00     0.074 A 
ATOM     49  C   UNL A   1      44.147  32.259  29.011  1.00  0.00     0.031 C 
ATOM     50  C   UNL A   1      41.698  25.864  28.174  1.00  0.00     0.029 A 
ATOM     51  C   UNL A   1      43.104  26.056  27.819  1.00  0.00     0.049 A 
ATOM     52  H   UNL A   1      44.216  27.810  27.981  1.00  0.00     0.167 HD
ATOM     53  C   UNL A   1      46.425  31.578  28.314  1.00  0.00     0.037 A 
ATOM     54  C   UNL A   1      43.928  25.110  27.326  1.00  0.00     0.037 A 
ATOM     55  C   UNL A   1      47.390  30.620  27.845  1.00  0.00     0.049 A 
ATOM     56  C   UNL A   1      45.359  25.465  27.014  1.00  0.00     0.074 A 
ATOM     57  C   UNL A   1      48.736  30.807  27.587  1.00  0.00     0.029 A 
ATOM     58  N   UNL A   1      47.110  29.291  27.557  1.00  0.00    -0.354 N 
ATOM     59  N   UNL A   1      45.977  26.612  27.168  1.00  0.00    -0.248 NA
ATOM     60  C   UNL A   1      46.204  24.396  26.464  1.00  0.00     0.031 C 
ATOM     61  C   UNL A   1      49.264  29.603  27.108  1.00  0.00     0.029 A 
ATOM     62  C   UNL A   1      48.254  28.653  27.107  1.00  0.00     0.049 A 
ATOM     63  H   UNL A   1      46.229  28.866  27.658  1.00  0.00     0.167 HD
ATOM     64  C   UNL A   1      47.289  26.394  26.759  1.00  0.00     0.074 A 
ATOM     65  C   UNL A   1      47.378  25.006  26.358  1.00  0.00     0.031 C 
ATOM     66  C   UNL A   1      48.328  27.266  26.721  1.00  0.00     0.037 A 
BRANCH  53  67
ATOM     67  C   UNL A   1      46.880  32.991  28.553  1.00  0.00     0.058 A 
ATOM     68  C   UNL A   1      46.863  33.953  27.530  1.00  0.00     0.135 A 
ATOM     69  C   UNL A   1      47.313  33.395  29.826  1.00  0.00     0.135 A 
ATOM     70  F   UNL A   1      46.474  33.614  26.291  1.00  0.00    -0.206 F 
ATOM     71  C   UNL A   1      47.284  35.260  27.755  1.00  0.00     0.059 A 
ATOM     72  C   UNL A   1      47.717  34.703  30.078  1.00  0.00     0.059 A 
ATOM     73  F   UNL A   1      47.351  32.515  30.838  1.00  0.00    -0.206 F 
ATOM     74  C   UNL A   1      47.712  35.624  29.032  1.00  0.00     0.060 A 
BRANCH  74  75
ATOM     75  S   UNL A   1      48.258  37.324  29.309  1.00  0.00     0.124 S 
ATOM     76  O   UNL A   1      49.572  37.112  29.909  1.00  0.00    -0.237 OA
ATOM     77  O   UNL A   1      48.259  37.877  27.959  1.00  0.00    -0.237 OA
ATOM     78  O   UNL A   1      47.240  37.865  30.204  1.00  0.00    -0.744 OA
ENDBRANCH  74  75
ENDBRANCH  53  67
BRANCH  54  79
ATOM     79  C   UNL A   1      43.419  23.734  27.086  1.00  0.00     0.058 A 
ATOM     80  C   UNL A   1      43.062  23.308  25.799  1.00  0.00     0.135 A 
ATOM     81  C   UNL A   1      43.276  22.820  28.142  1.00  0.00     0.135 A 
ATOM     82  F   UNL A   1      43.169  24.150  24.760  1.00  0.00    -0.206 F 
ATOM     83  C   UNL A   1      42.566  22.029  25.566  1.00  0.00     0.059 A 
ATOM     84  C   UNL A   1      42.805  21.528  27.932  1.00  0.00     0.059 A 
ATOM     85  F   UNL A   1      43.614  23.176  29.391  1.00  0.00    -0.206 F 
ATOM     86  C   UNL A   1      42.442  21.145  26.641  1.00  0.00     0.060 A 
BRANCH  86  87
ATOM     87  S   UNL A   1      41.841  19.471  26.324  1.00  0.00     0.124 S 
ATOM     88  O   UNL A   1      40.405  19.692  26.211  1.00  0.00    -0.237 OA
ATOM     89  O   UNL A   1      42.534  19.124  25.087  1.00  0.00    -0.237 OA
ATOM     90  O   UNL A   1      42.278  18.732  27.505  1.00  0.00    -0.744 OA
ENDBRANCH  86  87
ENDBRANCH  54  79
BRANCH  66  91
ATOM     91  C   UNL A   1      49.660  26.738  26.265  1.00  0.00     0.058 A 
ATOM     92  C   UNL A   1      50.100  26.891  24.941  1.00  0.00     0.135 A 
ATOM     93  C   UNL A   1      50.529  26.118  27.179  1.00  0.00     0.135 A 
ATOM     94  F   UNL A   1      49.305  27.472  24.029  1.00  0.00    -0.206 F 
ATOM     95  C   UNL A   1      51.347  26.429  24.533  1.00  0.00     0.059 A 
ATOM     96  C   UNL A   1      51.789  25.670  26.797  1.00  0.00     0.059 A 
ATOM     97  F   UNL A   1      50.159  25.956  28.459  1.00  0.00    -0.206 F 
ATOM     98  C   UNL A   1      52.186  25.820  25.469  1.00  0.00     0.060 A 
BRANCH  98  99
ATOM     99  S   UNL A   1      53.816  25.256  24.937  1.00  0.00     0.124 S 
ATOM    100  O   UNL A   1      53.967  25.951  23.662  1.00  0.00    -0.237 OA
ATOM    101  O   UNL A   1      54.678  25.722  26.019  1.00  0.00    -0.237 OA
ATOM    102  O   UNL A   1      53.661  23.807  24.848  1.00  0.00    -0.744 OA
ENDBRANCH  98  99
ENDBRANCH  66  91
ENDBRANCH  40  41
ENDBRANCH  33  35
ENDBRANCH  32  33
ENDBRANCH  31  32
ENDBRANCH  30  31
ENDBRANCH   1  30
TORSDOF 20
ENDMDL
MODEL 3
REMARK VINA RESULT:     -11.0      3.163      9.612
REMARK SMILES Nc1ncccc1C[N@@H+]1CC2(CC[NH2+]CC2)C[C@H]1C(=O)OCCOCCOC(=O)c1ccc(-c2c3nc(c(-c4c(F)cc(S(=O)(=O)[O-])cc4F)c4ccc([nH]4)c(-c4c(F)cc(S(=O)(=O)[O-])cc4F)c4nc(c(-c5c(F)cc(S(=O)(=O)[O-])cc5F)c5ccc2[nH]5)C=C4)C=C3)cc1
REMARK SMILES IDX 24 1 23 2 22 3 21 4 19 5 20 6 18 7 9 8 10 9 11 11 17 12
REMARK SMILES IDX 12 13 16 14 13 15 15 16 14 17 8 20 7 21 2 22 3 23 4 24 6 25
REMARK SMILES IDX 5 26 1 27 25 30 26 31 27 32 28 33 29 34 30 35 31 36 95 37
REMARK SMILES IDX 32 38 94 39 33 40 34 41 35 42 88 43 36 44 93 45 87 46 89 47
REMARK SMILES IDX 37 48 92 49 86 50 85 51 38 53 72 54 51 55 71 56 52 57 55 58
REMARK SMILES IDX 70 59 90 60 53 61 54 62 69 64 91 65 56 66 39 67 40 68 49 69
REMARK SMILES IDX 41 70 42 71 48 72 50 73 43 74 44 75 45 76 46 77 47 78 73 79
REMARK SMILES IDX 74 80 83 81 75 82 76 83 82 84 84 85 77 86 78 87 79 88 80 89
REMARK SMILES IDX 81 90 57 91 58 92 67 93 59 94 60 95 66 96 68 97 61 98 62 99
REMARK SMILES IDX 63 100 64 101 65 102
REMARK H PARENT 9 10 14 18 14 19 1 28 1 29 89 52 55 63
REMARK Flexibility Score: inf
ROOT
ATOM      1  O   UNL A   1      35.139  20.963  25.162  1.00  0.00    -0.374 OA
ENDROOT
BRANCH   1   2
ATOM      2  C   UNL A   1      33.844  21.440  24.802  1.00  0.00     0.202 C 
BRANCH   2   3
ATOM      3  C   UNL A   1      33.791  22.588  23.793  1.00  0.00     0.261 C 
BRANCH   3   4
ATOM      4  O   UNL A   1      33.095  23.735  24.304  1.00  0.00    -0.459 OA
BRANCH   4   5
ATOM      5  C   UNL A   1      33.806  24.895  24.304  1.00  0.00     0.365 C 
ATOM      6  O   UNL A   1      34.914  25.029  24.820  1.00  0.00    -0.245 OA
BRANCH   5   7
ATOM      7  C   UNL A   1      33.080  26.077  23.657  1.00  0.00     0.296 C 
ATOM      8  N   UNL A   1      31.650  26.215  24.017  1.00  0.00    -0.319 N 
ATOM      9  C   UNL A   1      31.541  27.234  25.071  1.00  0.00     0.270 C 
ATOM     10  H   UNL A   1      31.316  25.325  24.387  1.00  0.00     0.349 HD
ATOM     11  C   UNL A   1      32.890  27.982  25.181  1.00  0.00     0.036 C 
ATOM     12  C   UNL A   1      33.744  27.389  24.047  1.00  0.00     0.091 C 
ATOM     13  C   UNL A   1      33.557  27.759  26.561  1.00  0.00     0.074 C 
ATOM     14  C   UNL A   1      32.748  29.509  24.994  1.00  0.00     0.074 C 
ATOM     15  C   UNL A   1      32.839  28.506  27.691  1.00  0.00     0.261 C 
ATOM     16  C   UNL A   1      32.019  30.178  26.154  1.00  0.00     0.261 C 
ATOM     17  N   UNL A   1      32.709  29.936  27.414  1.00  0.00    -0.346 N 
ATOM     18  H   UNL A   1      33.639  30.351  27.367  1.00  0.00     0.346 HD
ATOM     19  H   UNL A   1      32.160  30.357  28.163  1.00  0.00     0.346 HD
BRANCH   8  20
ATOM     20  C   UNL A   1      30.733  26.403  22.869  1.00  0.00     0.303 C 
BRANCH  20  21
ATOM     21  C   UNL A   1      29.809  27.604  22.908  1.00  0.00     0.048 A 
ATOM     22  C   UNL A   1      28.485  27.525  23.352  1.00  0.00     0.132 A 
ATOM     23  N   UNL A   1      27.582  28.504  23.143  1.00  0.00    -0.239 NA
ATOM     24  C   UNL A   1      28.003  29.627  22.528  1.00  0.00     0.113 A 
ATOM     25  C   UNL A   1      30.235  28.835  22.394  1.00  0.00     0.015 A 
ATOM     26  C   UNL A   1      29.317  29.854  22.173  1.00  0.00     0.021 A 
BRANCH  22  27
ATOM     27  N   UNL A   1      27.981  26.414  23.998  1.00  0.00    -0.383 N 
ATOM     28  H   UNL A   1      27.094  26.062  23.752  1.00  0.00     0.158 HD
ATOM     29  H   UNL A   1      28.507  25.973  24.704  1.00  0.00     0.158 HD
ENDBRANCH  22  27
ENDBRANCH  20  21
ENDBRANCH   8  20
ENDBRANCH   5   7
ENDBRANCH   4   5
ENDBRANCH   3   4
ENDBRANCH   2   3
ENDBRANCH   1   2
BRANCH   1  30
ATOM     30  C   UNL A   1      36.262  21.559  24.510  1.00  0.00     0.202 C 
BRANCH  30  31
ATOM     31  C   UNL A   1      37.595  21.538  25.267  1.00  0.00     0.261 C 
BRANCH  31  32
ATOM     32  O   UNL A   1      38.190  22.842  25.400  1.00  0.00    -0.460 OA
BRANCH  32  33
ATOM     33  C   UNL A   1      39.291  22.887  26.193  1.00  0.00     0.338 C 
ATOM     34  O   UNL A   1      40.175  22.051  26.271  1.00  0.00    -0.246 OA
BRANCH  33  35
ATOM     35  C   UNL A   1      39.384  24.198  26.865  1.00  0.00     0.060 A 
ATOM     36  C   UNL A   1      40.141  25.196  26.238  1.00  0.00     0.016 A 
ATOM     37  C   UNL A   1      38.831  24.417  28.128  1.00  0.00     0.016 A 
ATOM     38  C   UNL A   1      40.390  26.400  26.893  1.00  0.00     0.010 A 
ATOM     39  C   UNL A   1      39.091  25.623  28.788  1.00  0.00     0.010 A 
ATOM     40  C   UNL A   1      39.900  26.606  28.190  1.00  0.00    -0.014 A 
BRANCH  40  41
ATOM     41  C   UNL A   1      40.356  27.785  28.967  1.00  0.00     0.031 A 
ATOM     42  C   UNL A   1      41.737  27.774  29.567  1.00  0.00     0.074 A 
ATOM     43  C   UNL A   1      39.565  28.863  29.109  1.00  0.00     0.049 A 
ATOM     44  N   UNL A   1      42.329  28.680  30.302  1.00  0.00    -0.248 NA
ATOM     45  C   UNL A   1      42.560  26.584  29.302  1.00  0.00     0.031 C 
ATOM     46  C   UNL A   1      38.225  29.007  28.542  1.00  0.00     0.029 A 
ATOM     47  N   UNL A   1      39.775  30.041  29.780  1.00  0.00    -0.354 N 
ATOM     48  C   UNL A   1      43.590  28.172  30.588  1.00  0.00     0.074 A 
ATOM     49  C   UNL A   1      43.669  26.865  29.973  1.00  0.00     0.031 C 
ATOM     50  C   UNL A   1      37.729  30.205  28.898  1.00  0.00     0.029 A 
ATOM     51  C   UNL A   1      38.703  30.899  29.739  1.00  0.00     0.049 A 
ATOM     52  H   UNL A   1      40.616  30.252  30.248  1.00  0.00     0.167 HD
ATOM     53  C   UNL A   1      44.595  28.746  31.292  1.00  0.00     0.037 A 
ATOM     54  C   UNL A   1      38.522  32.097  30.328  1.00  0.00     0.037 A 
ATOM     55  C   UNL A   1      44.514  30.045  31.907  1.00  0.00     0.049 A 
ATOM     56  C   UNL A   1      39.629  32.685  31.164  1.00  0.00     0.074 A 
ATOM     57  C   UNL A   1      45.480  30.715  32.636  1.00  0.00     0.029 A 
ATOM     58  N   UNL A   1      43.399  30.871  31.867  1.00  0.00    -0.354 N 
ATOM     59  N   UNL A   1      40.821  32.199  31.415  1.00  0.00    -0.248 NA
ATOM     60  C   UNL A   1      39.366  33.987  31.795  1.00  0.00     0.031 C 
ATOM     61  C   UNL A   1      44.937  31.930  33.070  1.00  0.00     0.029 A 
ATOM     62  C   UNL A   1      43.647  32.035  32.575  1.00  0.00     0.049 A 
ATOM     63  H   UNL A   1      42.557  30.659  31.404  1.00  0.00     0.167 HD
ATOM     64  C   UNL A   1      41.459  33.146  32.209  1.00  0.00     0.074 A 
ATOM     65  C   UNL A   1      40.525  34.237  32.392  1.00  0.00     0.031 C 
ATOM     66  C   UNL A   1      42.709  33.117  32.739  1.00  0.00     0.037 A 
BRANCH  53  67
ATOM     67  C   UNL A   1      45.867  27.960  31.450  1.00  0.00     0.058 A 
ATOM     68  C   UNL A   1      46.935  28.099  30.550  1.00  0.00     0.135 A 
ATOM     69  C   UNL A   1      46.030  27.077  32.530  1.00  0.00     0.135 A 
ATOM     70  F   UNL A   1      46.824  28.917  29.491  1.00  0.00    -0.206 F 
ATOM     71  C   UNL A   1      48.112  27.372  30.699  1.00  0.00     0.059 A 
ATOM     72  C   UNL A   1      47.207  26.357  32.712  1.00  0.00     0.059 A 
ATOM     73  F   UNL A   1      45.039  26.906  33.418  1.00  0.00    -0.206 F 
ATOM     74  C   UNL A   1      48.236  26.500  31.783  1.00  0.00     0.060 A 
BRANCH  74  75
ATOM     75  S   UNL A   1      49.768  25.560  31.964  1.00  0.00     0.124 S 
ATOM     76  O   UNL A   1      49.392  24.588  32.987  1.00  0.00    -0.237 OA
ATOM     77  O   UNL A   1      49.967  25.022  30.623  1.00  0.00    -0.237 OA
ATOM     78  O   UNL A   1      50.737  26.567  32.383  1.00  0.00    -0.744 OA
ENDBRANCH  74  75
ENDBRANCH  53  67
BRANCH  54  79
ATOM     79  C   UNL A   1      37.234  32.822  30.159  1.00  0.00     0.058 A 
ATOM     80  C   UNL A   1      36.150  32.580  31.013  1.00  0.00     0.135 A 
ATOM     81  C   UNL A   1      37.064  33.765  29.133  1.00  0.00     0.135 A 
ATOM     82  F   UNL A   1      36.261  31.678  32.000  1.00  0.00    -0.206 F 
ATOM     83  C   UNL A   1      34.934  33.238  30.851  1.00  0.00     0.059 A 
ATOM     84  C   UNL A   1      35.866  34.453  28.965  1.00  0.00     0.059 A 
ATOM     85  F   UNL A   1      38.075  34.038  28.295  1.00  0.00    -0.206 F 
ATOM     86  C   UNL A   1      34.803  34.174  29.823  1.00  0.00     0.060 A 
BRANCH  86  87
ATOM     87  S   UNL A   1      33.238  35.058  29.647  1.00  0.00     0.124 S 
ATOM     88  O   UNL A   1      32.773  35.109  31.027  1.00  0.00    -0.237 OA
ATOM     89  O   UNL A   1      33.665  36.329  29.070  1.00  0.00    -0.237 OA
ATOM     90  O   UNL A   1      32.469  34.200  28.751  1.00  0.00    -0.744 OA
ENDBRANCH  86  87
ENDBRANCH  54  79
BRANCH  66  91
ATOM     91  C   UNL A   1      43.153  34.313  33.535  1.00  0.00     0.058 A 
ATOM     92  C   UNL A   1      43.702  35.446  32.918  1.00  0.00     0.135 A 
ATOM     93  C   UNL A   1      42.976  34.343  34.928  1.00  0.00     0.135 A 
ATOM     94  F   UNL A   1      43.897  35.465  31.590  1.00  0.00    -0.206 F 
ATOM     95  C   UNL A   1      44.081  36.563  33.657  1.00  0.00     0.059 A 
ATOM     96  C   UNL A   1      43.326  35.458  35.683  1.00  0.00     0.059 A 
ATOM     97  F   UNL A   1      42.444  33.288  35.565  1.00  0.00    -0.206 F 
ATOM     98  C   UNL A   1      43.888  36.560  35.039  1.00  0.00     0.060 A 
BRANCH  98  99
ATOM     99  S   UNL A   1      44.350  38.026  35.984  1.00  0.00     0.124 S 
ATOM    100  O   UNL A   1      43.548  37.863  37.193  1.00  0.00    -0.237 OA
ATOM    101  O   UNL A   1      45.790  37.852  36.152  1.00  0.00    -0.237 OA
ATOM    102  O   UNL A   1      43.957  39.130  35.114  1.00  0.00    -0.744 OA
ENDBRANCH  98  99
ENDBRANCH  66  91
ENDBRANCH  40  41
ENDBRANCH  33  35
ENDBRANCH  32  33
ENDBRANCH  31  32
ENDBRANCH  30  31
ENDBRANCH   1  30
TORSDOF 20
ENDMDL
