MODEL 1
REMARK VINA RESULT:     -12.6      0.000      0.000
REMARK SMILES O=C(OCCOCCOC(=O)c1ccc(-c2c3nc(c(-c4c(F)cc(S(=O)(=O)[O-])cc4F)c4ccc([nH]4)c(-c4c(F)cc(S(=O)(=O)[O-])cc4F)c4nc(c(-c5c(F)cc(S(=O)(=O)[O-])cc5F)c5ccc2[nH]5)C=C4)C=C3)cc1)c1ccc(/[NH+]=C2\S[C@@H](Cc3ccc(F)cc3)C(=O)N2Cc2ccccc2)cc1
REMARK SMILES IDX 6 1 5 2 4 3 3 4 2 5 1 6 78 7 79 8 105 9 80 10 104 11 81 12
REMARK SMILES IDX 82 13 83 14 84 16 96 17 85 18 94 19 95 20 97 21 98 22 99 23
REMARK SMILES IDX 103 24 100 25 102 26 101 27 86 28 87 29 88 30 93 31 89 32
REMARK SMILES IDX 92 33 90 34 91 35 7 36 8 37 9 38 10 39 11 40 12 41 13 42
REMARK SMILES IDX 77 43 14 44 76 45 15 46 16 47 17 48 70 49 18 50 75 51 69 52
REMARK SMILES IDX 71 53 19 54 74 55 68 56 67 57 20 59 54 60 33 61 53 62 34 63
REMARK SMILES IDX 37 64 52 65 72 66 35 67 36 68 51 70 73 71 38 72 21 73 22 74
REMARK SMILES IDX 31 75 23 76 24 77 30 78 32 79 25 80 26 81 27 82 28 83 29 84
REMARK SMILES IDX 55 85 56 86 65 87 57 88 58 89 64 90 66 91 59 92 60 93 61 94
REMARK SMILES IDX 62 95 63 96 39 97 40 98 49 99 41 100 42 101 48 102 50 103
REMARK SMILES IDX 43 104 44 105 45 106 46 107 47 108
REMARK H PARENT 82 15 71 58 37 69
REMARK Flexibility Score: inf
ROOT
ATOM      1  O   UNL A   1      43.618  21.414  24.838  1.00  0.00    -0.374 OA
ENDROOT
BRANCH   1   2
ATOM      2  C   UNL A   1      43.792  20.209  25.587  1.00  0.00     0.202 C 
BRANCH   2   3
ATOM      3  C   UNL A   1      42.478  19.611  26.097  1.00  0.00     0.261 C 
BRANCH   3   4
ATOM      4  O   UNL A   1      41.396  20.538  25.876  1.00  0.00    -0.460 OA
BRANCH   4   5
ATOM      5  C   UNL A   1      40.632  21.181  26.788  1.00  0.00     0.338 C 
ATOM      6  O   UNL A   1      40.920  21.094  27.980  1.00  0.00    -0.246 OA
BRANCH   5   7
ATOM      7  C   UNL A   1      39.454  22.019  26.426  1.00  0.00     0.060 A 
ATOM      8  C   UNL A   1      39.243  23.318  26.884  1.00  0.00     0.020 A 
ATOM      9  C   UNL A   1      38.558  21.499  25.475  1.00  0.00     0.020 A 
ATOM     10  C   UNL A   1      38.136  24.049  26.479  1.00  0.00     0.052 A 
ATOM     11  C   UNL A   1      37.450  22.243  25.048  1.00  0.00     0.052 A 
ATOM     12  C   UNL A   1      37.217  23.506  25.586  1.00  0.00     0.125 A 
BRANCH  12  13
ATOM     13  N   UNL A   1      36.066  24.254  25.330  1.00  0.00    -0.235 N 
ATOM     14  C   UNL A   1      34.955  23.610  25.184  1.00  0.00     0.320 C 
ATOM     15  H   UNL A   1      36.099  25.236  25.263  1.00  0.00     0.313 HD
ATOM     16  S   UNL A   1      34.772  21.886  24.963  1.00  0.00    -0.022 SA
ATOM     17  N   UNL A   1      33.733  24.219  25.224  1.00  0.00    -0.186 N 
ATOM     18  C   UNL A   1      33.085  22.090  24.347  1.00  0.00     0.178 C 
ATOM     19  C   UNL A   1      32.640  23.426  24.928  1.00  0.00     0.324 C 
ATOM     20  O   UNL A   1      31.471  23.779  25.038  1.00  0.00    -0.245 OA
BRANCH  17  21
ATOM     21  C   UNL A   1      33.571  25.597  25.672  1.00  0.00     0.283 C 
BRANCH  21  22
ATOM     22  C   UNL A   1      33.593  26.601  24.532  1.00  0.00    -0.006 A 
ATOM     23  C   UNL A   1      33.462  26.183  23.201  1.00  0.00     0.008 A 
ATOM     24  C   UNL A   1      33.748  27.972  24.787  1.00  0.00     0.008 A 
ATOM     25  C   UNL A   1      33.485  27.116  22.157  1.00  0.00     0.000 A 
ATOM     26  C   UNL A   1      33.741  28.906  23.749  1.00  0.00     0.000 A 
ATOM     27  C   UNL A   1      33.616  28.476  22.433  1.00  0.00     0.000 A 
ENDBRANCH  21  22
ENDBRANCH  17  21
BRANCH  18  28
ATOM     28  C   UNL A   1      32.236  20.884  24.731  1.00  0.00     0.063 C 
BRANCH  28  29
ATOM     29  C   UNL A   1      32.804  19.580  24.221  1.00  0.00    -0.046 A 
ATOM     30  C   UNL A   1      32.154  18.891  23.187  1.00  0.00     0.007 A 
ATOM     31  C   UNL A   1      33.979  19.040  24.772  1.00  0.00     0.007 A 
ATOM     32  C   UNL A   1      32.687  17.703  22.690  1.00  0.00     0.039 A 
ATOM     33  C   UNL A   1      34.515  17.858  24.265  1.00  0.00     0.039 A 
ATOM     34  C   UNL A   1      33.867  17.203  23.226  1.00  0.00     0.123 A 
ATOM     35  F   UNL A   1      34.387  16.071  22.733  1.00  0.00    -0.207 F 
ENDBRANCH  28  29
ENDBRANCH  18  28
ENDBRANCH  12  13
ENDBRANCH   5   7
ENDBRANCH   4   5
ENDBRANCH   3   4
ENDBRANCH   2   3
ENDBRANCH   1   2
BRANCH   1  36
ATOM     36  C   UNL A   1      43.900  22.626  25.551  1.00  0.00     0.202 C 
BRANCH  36  37
ATOM     37  C   UNL A   1      42.990  23.746  25.045  1.00  0.00     0.261 C 
BRANCH  37  38
ATOM     38  O   UNL A   1      42.680  24.604  26.151  1.00  0.00    -0.460 OA
BRANCH  38  39
ATOM     39  C   UNL A   1      42.530  25.913  25.826  1.00  0.00     0.338 C 
ATOM     40  O   UNL A   1      42.530  26.401  24.708  1.00  0.00    -0.246 OA
BRANCH  39  41
ATOM     41  C   UNL A   1      42.134  26.641  27.052  1.00  0.00     0.060 A 
ATOM     42  C   UNL A   1      42.598  27.952  27.221  1.00  0.00     0.016 A 
ATOM     43  C   UNL A   1      41.262  26.074  27.986  1.00  0.00     0.016 A 
ATOM     44  C   UNL A   1      42.200  28.695  28.333  1.00  0.00     0.010 A 
ATOM     45  C   UNL A   1      40.868  26.812  29.098  1.00  0.00     0.010 A 
ATOM     46  C   UNL A   1      41.353  28.117  29.286  1.00  0.00    -0.014 A 
BRANCH  46  47
ATOM     47  C   UNL A   1      41.090  28.796  30.571  1.00  0.00     0.031 A 
ATOM     48  C   UNL A   1      39.978  29.805  30.617  1.00  0.00     0.074 A 
ATOM     49  C   UNL A   1      41.858  28.555  31.648  1.00  0.00     0.049 A 
ATOM     50  N   UNL A   1      39.632  30.611  31.583  1.00  0.00    -0.248 NA
ATOM     51  C   UNL A   1      39.154  29.930  29.401  1.00  0.00     0.031 C 
ATOM     52  C   UNL A   1      42.955  27.590  31.707  1.00  0.00     0.029 A 
ATOM     53  N   UNL A   1      41.846  29.129  32.893  1.00  0.00    -0.354 N 
ATOM     54  C   UNL A   1      38.560  31.346  31.092  1.00  0.00     0.074 A 
ATOM     55  C   UNL A   1      38.325  30.908  29.734  1.00  0.00     0.031 C 
ATOM     56  C   UNL A   1      43.531  27.658  32.921  1.00  0.00     0.029 A 
ATOM     57  C   UNL A   1      42.863  28.691  33.710  1.00  0.00     0.049 A 
ATOM     58  H   UNL A   1      41.175  29.791  33.176  1.00  0.00     0.167 HD
ATOM     59  C   UNL A   1      37.836  32.298  31.723  1.00  0.00     0.037 A 
ATOM     60  C   UNL A   1      43.225  29.105  34.940  1.00  0.00     0.037 A 
ATOM     61  C   UNL A   1      38.082  32.722  33.074  1.00  0.00     0.049 A 
ATOM     62  C   UNL A   1      42.430  30.203  35.603  1.00  0.00     0.074 A 
ATOM     63  C   UNL A   1      37.383  33.650  33.824  1.00  0.00     0.029 A 
ATOM     64  N   UNL A   1      39.114  32.252  33.873  1.00  0.00    -0.354 N 
ATOM     65  N   UNL A   1      41.386  30.855  35.147  1.00  0.00    -0.248 NA
ATOM     66  C   UNL A   1      42.862  30.622  36.943  1.00  0.00     0.031 C 
ATOM     67  C   UNL A   1      38.022  33.776  35.063  1.00  0.00     0.029 A 
ATOM     68  C   UNL A   1      39.088  32.892  35.100  1.00  0.00     0.049 A 
ATOM     69  H   UNL A   1      39.768  31.566  33.606  1.00  0.00     0.167 HD
ATOM     70  C   UNL A   1      41.025  31.746  36.153  1.00  0.00     0.074 A 
ATOM     71  C   UNL A   1      41.952  31.536  37.247  1.00  0.00     0.031 C 
ATOM     72  C   UNL A   1      40.021  32.657  36.173  1.00  0.00     0.037 A 
BRANCH  59  73
ATOM     73  C   UNL A   1      36.723  32.954  30.957  1.00  0.00     0.058 A 
ATOM     74  C   UNL A   1      35.376  32.681  31.240  1.00  0.00     0.135 A 
ATOM     75  C   UNL A   1      37.008  33.906  29.966  1.00  0.00     0.135 A 
ATOM     76  F   UNL A   1      35.050  31.760  32.161  1.00  0.00    -0.206 F 
ATOM     77  C   UNL A   1      34.348  33.326  30.561  1.00  0.00     0.059 A 
ATOM     78  C   UNL A   1      35.995  34.580  29.290  1.00  0.00     0.059 A 
ATOM     79  F   UNL A   1      38.281  34.193  29.649  1.00  0.00    -0.206 F 
ATOM     80  C   UNL A   1      34.667  34.279  29.592  1.00  0.00     0.060 A 
BRANCH  80  81
ATOM     81  S   UNL A   1      33.320  35.136  28.750  1.00  0.00     0.124 S 
ATOM     82  O   UNL A   1      32.487  35.546  29.877  1.00  0.00    -0.237 OA
ATOM     83  O   UNL A   1      34.020  36.210  28.056  1.00  0.00    -0.237 OA
ATOM     84  O   UNL A   1      32.747  34.106  27.889  1.00  0.00    -0.744 OA
ENDBRANCH  80  81
ENDBRANCH  59  73
BRANCH  60  85
ATOM     85  C   UNL A   1      44.407  28.509  35.620  1.00  0.00     0.058 A 
ATOM     86  C   UNL A   1      45.697  29.018  35.410  1.00  0.00     0.135 A 
ATOM     87  C   UNL A   1      44.273  27.401  36.472  1.00  0.00     0.135 A 
ATOM     88  F   UNL A   1      45.879  30.069  34.596  1.00  0.00    -0.206 F 
ATOM     89  C   UNL A   1      46.816  28.435  35.998  1.00  0.00     0.059 A 
ATOM     90  C   UNL A   1      45.374  26.818  37.092  1.00  0.00     0.059 A 
ATOM     91  F   UNL A   1      43.060  26.883  36.717  1.00  0.00    -0.206 F 
ATOM     92  C   UNL A   1      46.644  27.333  36.837  1.00  0.00     0.060 A 
BRANCH  92  93
ATOM     93  S   UNL A   1      48.099  26.599  37.615  1.00  0.00     0.124 S 
ATOM     94  O   UNL A   1      48.954  27.766  37.797  1.00  0.00    -0.237 OA
ATOM     95  O   UNL A   1      47.538  26.022  38.833  1.00  0.00    -0.237 OA
ATOM     96  O   UNL A   1      48.555  25.628  36.623  1.00  0.00    -0.744 OA
ENDBRANCH  92  93
ENDBRANCH  60  85
BRANCH  72  97
ATOM     97  C   UNL A   1      39.857  33.477  37.422  1.00  0.00     0.058 A 
ATOM     98  C   UNL A   1      40.622  34.632  37.647  1.00  0.00     0.135 A 
ATOM     99  C   UNL A   1      38.882  33.137  38.373  1.00  0.00     0.135 A 
ATOM    100  F   UNL A   1      41.570  34.996  36.769  1.00  0.00    -0.206 F 
ATOM    101  C   UNL A   1      40.440  35.411  38.784  1.00  0.00     0.059 A 
ATOM    102  C   UNL A   1      38.665  33.917  39.504  1.00  0.00     0.059 A 
ATOM    103  F   UNL A   1      38.116  32.049  38.197  1.00  0.00    -0.206 F 
ATOM    104  C   UNL A   1      39.458  35.046  39.706  1.00  0.00     0.060 A 
BRANCH 104 105
ATOM    105  S   UNL A   1      39.206  36.084  41.162  1.00  0.00     0.124 S 
ATOM    106  O   UNL A   1      40.578  36.302  41.607  1.00  0.00    -0.237 OA
ATOM    107  O   UNL A   1      38.530  37.250  40.601  1.00  0.00    -0.237 OA
ATOM    108  O   UNL A   1      38.386  35.252  42.035  1.00  0.00    -0.744 OA
ENDBRANCH 104 105
ENDBRANCH  72  97
ENDBRANCH  46  47
ENDBRANCH  39  41
ENDBRANCH  38  39
ENDBRANCH  37  38
ENDBRANCH  36  37
ENDBRANCH   1  36
TORSDOF 22
ENDMDL
MODEL 2
REMARK VINA RESULT:     -12.1      0.813      7.849
REMARK SMILES O=C(OCCOCCOC(=O)c1ccc(-c2c3nc(c(-c4c(F)cc(S(=O)(=O)[O-])cc4F)c4ccc([nH]4)c(-c4c(F)cc(S(=O)(=O)[O-])cc4F)c4nc(c(-c5c(F)cc(S(=O)(=O)[O-])cc5F)c5ccc2[nH]5)C=C4)C=C3)cc1)c1ccc(/[NH+]=C2\S[C@@H](Cc3ccc(F)cc3)C(=O)N2Cc2ccccc2)cc1
REMARK SMILES IDX 6 1 5 2 4 3 3 4 2 5 1 6 78 7 79 8 105 9 80 10 104 11 81 12
REMARK SMILES IDX 82 13 83 14 84 16 96 17 85 18 94 19 95 20 97 21 98 22 99 23
REMARK SMILES IDX 103 24 100 25 102 26 101 27 86 28 87 29 88 30 93 31 89 32
REMARK SMILES IDX 92 33 90 34 91 35 7 36 8 37 9 38 10 39 11 40 12 41 13 42
REMARK SMILES IDX 77 43 14 44 76 45 15 46 16 47 17 48 70 49 18 50 75 51 69 52
REMARK SMILES IDX 71 53 19 54 74 55 68 56 67 57 20 59 54 60 33 61 53 62 34 63
REMARK SMILES IDX 37 64 52 65 72 66 35 67 36 68 51 70 73 71 38 72 21 73 22 74
REMARK SMILES IDX 31 75 23 76 24 77 30 78 32 79 25 80 26 81 27 82 28 83 29 84
REMARK SMILES IDX 55 85 56 86 65 87 57 88 58 89 64 90 66 91 59 92 60 93 61 94
REMARK SMILES IDX 62 95 63 96 39 97 40 98 49 99 41 100 42 101 48 102 50 103
REMARK SMILES IDX 43 104 44 105 45 106 46 107 47 108
REMARK H PARENT 82 15 71 58 37 69
REMARK Flexibility Score: inf
ROOT
ATOM      1  O   UNL A   1      44.802  21.607  24.681  1.00  0.00    -0.374 OA
ENDROOT
BRANCH   1   2
ATOM      2  C   UNL A   1      43.910  20.513  24.909  1.00  0.00     0.202 C 
BRANCH   2   3
ATOM      3  C   UNL A   1      43.071  20.663  26.181  1.00  0.00     0.261 C 
BRANCH   3   4
ATOM      4  O   UNL A   1      41.778  21.213  25.858  1.00  0.00    -0.460 OA
BRANCH   4   5
ATOM      5  C   UNL A   1      40.639  21.185  26.586  1.00  0.00     0.338 C 
ATOM      6  O   UNL A   1      40.565  20.432  27.555  1.00  0.00    -0.246 OA
BRANCH   5   7
ATOM      7  C   UNL A   1      39.456  22.041  26.291  1.00  0.00     0.060 A 
ATOM      8  C   UNL A   1      39.285  23.338  26.770  1.00  0.00     0.020 A 
ATOM      9  C   UNL A   1      38.507  21.542  25.381  1.00  0.00     0.020 A 
ATOM     10  C   UNL A   1      38.169  24.087  26.427  1.00  0.00     0.052 A 
ATOM     11  C   UNL A   1      37.388  22.303  25.016  1.00  0.00     0.052 A 
ATOM     12  C   UNL A   1      37.200  23.564  25.576  1.00  0.00     0.125 A 
BRANCH  12  13
ATOM     13  N   UNL A   1      36.047  24.329  25.385  1.00  0.00    -0.235 N 
ATOM     14  C   UNL A   1      34.910  23.713  25.404  1.00  0.00     0.320 C 
ATOM     15  H   UNL A   1      36.098  25.301  25.239  1.00  0.00     0.313 HD
ATOM     16  S   UNL A   1      34.662  21.984  25.336  1.00  0.00    -0.022 SA
ATOM     17  N   UNL A   1      33.716  24.364  25.524  1.00  0.00    -0.186 N 
ATOM     18  C   UNL A   1      32.925  22.198  24.885  1.00  0.00     0.178 C 
ATOM     19  C   UNL A   1      32.578  23.588  25.405  1.00  0.00     0.324 C 
ATOM     20  O   UNL A   1      31.436  23.986  25.608  1.00  0.00    -0.245 OA
BRANCH  17  21
ATOM     21  C   UNL A   1      33.637  25.775  25.880  1.00  0.00     0.283 C 
BRANCH  21  22
ATOM     22  C   UNL A   1      33.568  26.692  24.671  1.00  0.00    -0.006 A 
ATOM     23  C   UNL A   1      33.449  28.080  24.824  1.00  0.00     0.008 A 
ATOM     24  C   UNL A   1      33.621  26.168  23.370  1.00  0.00     0.008 A 
ATOM     25  C   UNL A   1      33.384  28.916  23.703  1.00  0.00     0.000 A 
ATOM     26  C   UNL A   1      33.587  27.004  22.251  1.00  0.00     0.000 A 
ATOM     27  C   UNL A   1      33.462  28.379  22.420  1.00  0.00     0.000 A 
ENDBRANCH  21  22
ENDBRANCH  17  21
BRANCH  18  28
ATOM     28  C   UNL A   1      32.091  21.052  25.445  1.00  0.00     0.063 C 
BRANCH  28  29
ATOM     29  C   UNL A   1      32.481  19.708  24.874  1.00  0.00    -0.046 A 
ATOM     30  C   UNL A   1      32.828  18.658  25.736  1.00  0.00     0.007 A 
ATOM     31  C   UNL A   1      32.507  19.494  23.485  1.00  0.00     0.007 A 
ATOM     32  C   UNL A   1      33.159  17.406  25.219  1.00  0.00     0.039 A 
ATOM     33  C   UNL A   1      32.828  18.239  22.973  1.00  0.00     0.039 A 
ATOM     34  C   UNL A   1      33.147  17.205  23.845  1.00  0.00     0.123 A 
ATOM     35  F   UNL A   1      33.447  15.996  23.352  1.00  0.00    -0.207 F 
ENDBRANCH  28  29
ENDBRANCH  18  28
ENDBRANCH  12  13
ENDBRANCH   5   7
ENDBRANCH   4   5
ENDBRANCH   3   4
ENDBRANCH   2   3
ENDBRANCH   1   2
BRANCH   1  36
ATOM     36  C   UNL A   1      45.116  22.395  25.837  1.00  0.00     0.202 C 
BRANCH  36  37
ATOM     37  C   UNL A   1      44.657  23.837  25.618  1.00  0.00     0.261 C 
BRANCH  37  38
ATOM     38  O   UNL A   1      43.900  24.244  26.765  1.00  0.00    -0.460 OA
BRANCH  38  39
ATOM     39  C   UNL A   1      42.805  24.994  26.482  1.00  0.00     0.338 C 
ATOM     40  O   UNL A   1      42.010  24.826  25.572  1.00  0.00    -0.246 OA
BRANCH  39  41
ATOM     41  C   UNL A   1      42.597  25.934  27.605  1.00  0.00     0.060 A 
ATOM     42  C   UNL A   1      41.461  25.765  28.408  1.00  0.00     0.016 A 
ATOM     43  C   UNL A   1      43.540  26.921  27.912  1.00  0.00     0.016 A 
ATOM     44  C   UNL A   1      41.259  26.592  29.513  1.00  0.00     0.010 A 
ATOM     45  C   UNL A   1      43.336  27.749  29.012  1.00  0.00     0.010 A 
ATOM     46  C   UNL A   1      42.184  27.601  29.803  1.00  0.00    -0.014 A 
BRANCH  46  47
ATOM     47  C   UNL A   1      41.891  28.622  30.830  1.00  0.00     0.031 A 
ATOM     48  C   UNL A   1      42.693  28.592  32.100  1.00  0.00     0.074 A 
ATOM     49  C   UNL A   1      40.900  29.513  30.652  1.00  0.00     0.049 A 
ATOM     50  N   UNL A   1      42.546  29.297  33.188  1.00  0.00    -0.248 NA
ATOM     51  C   UNL A   1      43.802  27.622  32.152  1.00  0.00     0.031 C 
ATOM     52  C   UNL A   1      40.071  29.630  29.452  1.00  0.00     0.029 A 
ATOM     53  N   UNL A   1      40.407  30.474  31.497  1.00  0.00    -0.354 N 
ATOM     54  C   UNL A   1      43.533  28.852  34.058  1.00  0.00     0.074 A 
ATOM     55  C   UNL A   1      44.260  27.800  33.382  1.00  0.00     0.031 C 
ATOM     56  C   UNL A   1      39.151  30.591  29.651  1.00  0.00     0.029 A 
ATOM     57  C   UNL A   1      39.308  31.134  30.998  1.00  0.00     0.049 A 
ATOM     58  H   UNL A   1      40.802  30.673  32.376  1.00  0.00     0.167 HD
ATOM     59  C   UNL A   1      43.808  29.288  35.308  1.00  0.00     0.037 A 
ATOM     60  C   UNL A   1      38.507  32.047  31.582  1.00  0.00     0.037 A 
ATOM     61  C   UNL A   1      43.077  30.335  35.966  1.00  0.00     0.049 A 
ATOM     62  C   UNL A   1      38.808  32.482  32.995  1.00  0.00     0.074 A 
ATOM     63  C   UNL A   1      43.297  30.884  37.216  1.00  0.00     0.029 A 
ATOM     64  N   UNL A   1      41.975  30.986  35.429  1.00  0.00    -0.354 N 
ATOM     65  N   UNL A   1      39.776  32.090  33.791  1.00  0.00    -0.248 NA
ATOM     66  C   UNL A   1      37.908  33.478  33.591  1.00  0.00     0.031 C 
ATOM     67  C   UNL A   1      42.299  31.835  37.455  1.00  0.00     0.029 A 
ATOM     68  C   UNL A   1      41.487  31.912  36.334  1.00  0.00     0.049 A 
ATOM     69  H   UNL A   1      41.597  30.814  34.537  1.00  0.00     0.167 HD
ATOM     70  C   UNL A   1      39.613  32.808  34.971  1.00  0.00     0.074 A 
ATOM     71  C   UNL A   1      38.464  33.669  34.779  1.00  0.00     0.031 C 
ATOM     72  C   UNL A   1      40.343  32.760  36.113  1.00  0.00     0.037 A 
BRANCH  59  73
ATOM     73  C   UNL A   1      44.934  28.627  36.049  1.00  0.00     0.058 A 
ATOM     74  C   UNL A   1      46.248  29.114  35.976  1.00  0.00     0.135 A 
ATOM     75  C   UNL A   1      44.687  27.525  36.883  1.00  0.00     0.135 A 
ATOM     76  F   UNL A   1      46.543  30.150  35.174  1.00  0.00    -0.206 F 
ATOM     77  C   UNL A   1      47.280  28.528  36.701  1.00  0.00     0.059 A 
ATOM     78  C   UNL A   1      45.699  26.937  37.634  1.00  0.00     0.059 A 
ATOM     79  F   UNL A   1      43.449  27.013  36.977  1.00  0.00    -0.206 F 
ATOM     80  C   UNL A   1      46.995  27.443  37.532  1.00  0.00     0.060 A 
BRANCH  80  81
ATOM     81  S   UNL A   1      48.338  26.721  38.498  1.00  0.00     0.124 S 
ATOM     82  O   UNL A   1      47.707  26.564  39.804  1.00  0.00    -0.237 OA
ATOM     83  O   UNL A   1      48.613  25.485  37.774  1.00  0.00    -0.237 OA
ATOM     84  O   UNL A   1      49.389  27.733  38.427  1.00  0.00    -0.744 OA
ENDBRANCH  80  81
ENDBRANCH  59  73
BRANCH  60  85
ATOM     85  C   UNL A   1      37.330  32.594  30.855  1.00  0.00     0.058 A 
ATOM     86  C   UNL A   1      36.087  31.947  30.896  1.00  0.00     0.135 A 
ATOM     87  C   UNL A   1      37.433  33.761  30.081  1.00  0.00     0.135 A 
ATOM     88  F   UNL A   1      35.941  30.822  31.613  1.00  0.00    -0.206 F 
ATOM     89  C   UNL A   1      34.993  32.420  30.177  1.00  0.00     0.059 A 
ATOM     90  C   UNL A   1      36.346  34.268  29.374  1.00  0.00     0.059 A 
ATOM     91  F   UNL A   1      38.596  34.426  30.017  1.00  0.00    -0.206 F 
ATOM     92  C   UNL A   1      35.134  33.581  29.416  1.00  0.00     0.060 A 
BRANCH  92  93
ATOM     93  S   UNL A   1      33.703  34.202  28.505  1.00  0.00     0.124 S 
ATOM     94  O   UNL A   1      34.320  35.190  27.628  1.00  0.00    -0.237 OA
ATOM     95  O   UNL A   1      33.205  32.993  27.856  1.00  0.00    -0.237 OA
ATOM     96  O   UNL A   1      32.843  34.737  29.558  1.00  0.00    -0.744 OA
ENDBRANCH  92  93
ENDBRANCH  60  85
BRANCH  72  97
ATOM     97  C   UNL A   1      39.938  33.679  37.231  1.00  0.00     0.058 A 
ATOM     98  C   UNL A   1      39.002  33.286  38.201  1.00  0.00     0.135 A 
ATOM     99  C   UNL A   1      40.538  34.941  37.367  1.00  0.00     0.135 A 
ATOM    100  F   UNL A   1      38.398  32.091  38.111  1.00  0.00    -0.206 F 
ATOM    101  C   UNL A   1      38.660  34.123  39.256  1.00  0.00     0.059 A 
ATOM    102  C   UNL A   1      40.230  35.783  38.431  1.00  0.00     0.059 A 
ATOM    103  F   UNL A   1      41.448  35.357  36.473  1.00  0.00    -0.206 F 
ATOM    104  C   UNL A   1      39.280  35.369  39.364  1.00  0.00     0.060 A 
BRANCH 104 105
ATOM    105  S   UNL A   1      38.853  36.433  40.759  1.00  0.00     0.124 S 
ATOM    106  O   UNL A   1      40.147  36.591  41.414  1.00  0.00    -0.237 OA
ATOM    107  O   UNL A   1      38.329  37.623  40.096  1.00  0.00    -0.237 OA
ATOM    108  O   UNL A   1      37.868  35.648  41.495  1.00  0.00    -0.744 OA
ENDBRANCH 104 105
ENDBRANCH  72  97
ENDBRANCH  46  47
ENDBRANCH  39  41
ENDBRANCH  38  39
ENDBRANCH  37  38
ENDBRANCH  36  37
ENDBRANCH   1  36
TORSDOF 22
ENDMDL
MODEL 3
REMARK VINA RESULT:     -11.9      5.986     12.422
REMARK SMILES O=C(OCCOCCOC(=O)c1ccc(-c2c3nc(c(-c4c(F)cc(S(=O)(=O)[O-])cc4F)c4ccc([nH]4)c(-c4c(F)cc(S(=O)(=O)[O-])cc4F)c4nc(c(-c5c(F)cc(S(=O)(=O)[O-])cc5F)c5ccc2[nH]5)C=C4)C=C3)cc1)c1ccc(/[NH+]=C2\S[C@@H](Cc3ccc(F)cc3)C(=O)N2Cc2ccccc2)cc1
REMARK SMILES IDX 6 1 5 2 4 3 3 4 2 5 1 6 78 7 79 8 105 9 80 10 104 11 81 12
REMARK SMILES IDX 82 13 83 14 84 16 96 17 85 18 94 19 95 20 97 21 98 22 99 23
REMARK SMILES IDX 103 24 100 25 102 26 101 27 86 28 87 29 88 30 93 31 89 32
REMARK SMILES IDX 92 33 90 34 91 35 7 36 8 37 9 38 10 39 11 40 12 41 13 42
REMARK SMILES IDX 77 43 14 44 76 45 15 46 16 47 17 48 70 49 18 50 75 51 69 52
REMARK SMILES IDX 71 53 19 54 74 55 68 56 67 57 20 59 54 60 33 61 53 62 34 63
REMARK SMILES IDX 37 64 52 65 72 66 35 67 36 68 51 70 73 71 38 72 21 73 22 74
REMARK SMILES IDX 31 75 23 76 24 77 30 78 32 79 25 80 26 81 27 82 28 83 29 84
REMARK SMILES IDX 55 85 56 86 65 87 57 88 58 89 64 90 66 91 59 92 60 93 61 94
REMARK SMILES IDX 62 95 63 96 39 97 40 98 49 99 41 100 42 101 48 102 50 103
REMARK SMILES IDX 43 104 44 105 45 106 46 107 47 108
REMARK H PARENT 82 15 71 58 37 69
REMARK Flexibility Score: inf
ROOT
ATOM      1  O   UNL A   1      35.733  33.685  31.380  1.00  0.00    -0.374 OA
ENDROOT
BRANCH   1   2
ATOM      2  C   UNL A   1      34.624  34.575  31.226  1.00  0.00     0.202 C 
BRANCH   2   3
ATOM      3  C   UNL A   1      34.124  34.686  29.784  1.00  0.00     0.261 C 
BRANCH   3   4
ATOM      4  O   UNL A   1      34.177  33.396  29.142  1.00  0.00    -0.460 OA
BRANCH   4   5
ATOM      5  C   UNL A   1      33.388  32.904  28.161  1.00  0.00     0.338 C 
ATOM      6  O   UNL A   1      32.535  33.632  27.656  1.00  0.00    -0.246 OA
BRANCH   5   7
ATOM      7  C   UNL A   1      33.505  31.515  27.632  1.00  0.00     0.060 A 
ATOM      8  C   UNL A   1      32.514  30.867  26.900  1.00  0.00     0.020 A 
ATOM      9  C   UNL A   1      34.742  30.865  27.794  1.00  0.00     0.020 A 
ATOM     10  C   UNL A   1      32.708  29.582  26.414  1.00  0.00     0.052 A 
ATOM     11  C   UNL A   1      34.948  29.575  27.286  1.00  0.00     0.052 A 
ATOM     12  C   UNL A   1      33.911  28.917  26.631  1.00  0.00     0.125 A 
BRANCH  12  13
ATOM     13  N   UNL A   1      33.979  27.582  26.224  1.00  0.00    -0.235 N 
ATOM     14  C   UNL A   1      33.247  27.227  25.218  1.00  0.00     0.320 C 
ATOM     15  H   UNL A   1      34.561  26.937  26.685  1.00  0.00     0.313 HD
ATOM     16  S   UNL A   1      31.948  28.148  24.498  1.00  0.00    -0.022 SA
ATOM     17  N   UNL A   1      33.434  26.054  24.544  1.00  0.00    -0.186 N 
ATOM     18  C   UNL A   1      31.299  26.681  23.667  1.00  0.00     0.178 C 
ATOM     19  C   UNL A   1      32.500  25.749  23.571  1.00  0.00     0.324 C 
ATOM     20  O   UNL A   1      32.585  24.805  22.793  1.00  0.00    -0.245 OA
BRANCH  17  21
ATOM     21  C   UNL A   1      34.617  25.226  24.746  1.00  0.00     0.283 C 
BRANCH  21  22
ATOM     22  C   UNL A   1      34.293  23.849  25.296  1.00  0.00    -0.006 A 
ATOM     23  C   UNL A   1      34.707  22.689  24.626  1.00  0.00     0.008 A 
ATOM     24  C   UNL A   1      33.567  23.705  26.488  1.00  0.00     0.008 A 
ATOM     25  C   UNL A   1      34.401  21.423  25.140  1.00  0.00     0.000 A 
ATOM     26  C   UNL A   1      33.288  22.443  27.018  1.00  0.00     0.000 A 
ATOM     27  C   UNL A   1      33.701  21.301  26.339  1.00  0.00     0.000 A 
ENDBRANCH  21  22
ENDBRANCH  17  21
BRANCH  18  28
ATOM     28  C   UNL A   1      30.654  27.070  22.342  1.00  0.00     0.063 C 
BRANCH  28  29
ATOM     29  C   UNL A   1      29.741  28.269  22.463  1.00  0.00    -0.046 A 
ATOM     30  C   UNL A   1      28.494  28.136  23.090  1.00  0.00     0.007 A 
ATOM     31  C   UNL A   1      30.122  29.520  21.950  1.00  0.00     0.007 A 
ATOM     32  C   UNL A   1      27.658  29.243  23.233  1.00  0.00     0.039 A 
ATOM     33  C   UNL A   1      29.289  30.627  22.105  1.00  0.00     0.039 A 
ATOM     34  C   UNL A   1      28.067  30.479  22.748  1.00  0.00     0.123 A 
ATOM     35  F   UNL A   1      27.270  31.544  22.904  1.00  0.00    -0.207 F 
ENDBRANCH  28  29
ENDBRANCH  18  28
ENDBRANCH  12  13
ENDBRANCH   5   7
ENDBRANCH   4   5
ENDBRANCH   3   4
ENDBRANCH   2   3
ENDBRANCH   1   2
BRANCH   1  36
ATOM     36  C   UNL A   1      35.863  33.083  32.674  1.00  0.00     0.202 C 
BRANCH  36  37
ATOM     37  C   UNL A   1      36.327  31.633  32.525  1.00  0.00     0.261 C 
BRANCH  37  38
ATOM     38  O   UNL A   1      36.823  31.458  31.192  1.00  0.00    -0.460 OA
BRANCH  38  39
ATOM     39  C   UNL A   1      36.925  30.165  30.791  1.00  0.00     0.338 C 
ATOM     40  O   UNL A   1      36.026  29.345  30.710  1.00  0.00    -0.246 OA
BRANCH  39  41
ATOM     41  C   UNL A   1      38.284  29.966  30.244  1.00  0.00     0.060 A 
ATOM     42  C   UNL A   1      38.458  30.051  28.856  1.00  0.00     0.016 A 
ATOM     43  C   UNL A   1      39.386  29.773  31.084  1.00  0.00     0.016 A 
ATOM     44  C   UNL A   1      39.734  29.929  28.304  1.00  0.00     0.010 A 
ATOM     45  C   UNL A   1      40.658  29.647  30.533  1.00  0.00     0.010 A 
ATOM     46  C   UNL A   1      40.832  29.703  29.140  1.00  0.00    -0.014 A 
BRANCH  46  47
ATOM     47  C   UNL A   1      42.152  29.358  28.575  1.00  0.00     0.031 A 
ATOM     48  C   UNL A   1      42.387  27.934  28.157  1.00  0.00     0.074 A 
ATOM     49  C   UNL A   1      43.128  30.279  28.488  1.00  0.00     0.049 A 
ATOM     50  N   UNL A   1      43.486  27.362  27.749  1.00  0.00    -0.248 NA
ATOM     51  C   UNL A   1      41.224  27.030  28.225  1.00  0.00     0.031 C 
ATOM     52  C   UNL A   1      42.997  31.688  28.858  1.00  0.00     0.029 A 
ATOM     53  N   UNL A   1      44.432  30.156  28.085  1.00  0.00    -0.354 N 
ATOM     54  C   UNL A   1      43.155  26.032  27.521  1.00  0.00     0.074 A 
ATOM     55  C   UNL A   1      41.757  25.874  27.857  1.00  0.00     0.031 C 
ATOM     56  C   UNL A   1      44.186  32.295  28.691  1.00  0.00     0.029 A 
ATOM     57  C   UNL A   1      45.164  31.312  28.232  1.00  0.00     0.049 A 
ATOM     58  H   UNL A   1      44.810  29.322  27.724  1.00  0.00     0.167 HD
ATOM     59  C   UNL A   1      43.948  25.035  27.067  1.00  0.00     0.037 A 
ATOM     60  C   UNL A   1      46.481  31.533  28.046  1.00  0.00     0.037 A 
ATOM     61  C   UNL A   1      45.335  25.208  26.737  1.00  0.00     0.049 A 
ATOM     62  C   UNL A   1      47.353  30.391  27.585  1.00  0.00     0.074 A 
ATOM     63  C   UNL A   1      46.221  24.275  26.230  1.00  0.00     0.029 A 
ATOM     64  N   UNL A   1      46.041  26.392  26.891  1.00  0.00    -0.354 N 
ATOM     65  N   UNL A   1      47.017  29.149  27.324  1.00  0.00    -0.248 NA
ATOM     66  C   UNL A   1      48.781  30.678  27.396  1.00  0.00     0.031 C 
ATOM     67  C   UNL A   1      47.477  24.883  26.121  1.00  0.00     0.029 A 
ATOM     68  C   UNL A   1      47.360  26.207  26.515  1.00  0.00     0.049 A 
ATOM     69  H   UNL A   1      45.661  27.239  27.219  1.00  0.00     0.167 HD
ATOM     70  C   UNL A   1      48.187  28.514  26.920  1.00  0.00     0.074 A 
ATOM     71  C   UNL A   1      49.236  29.513  26.956  1.00  0.00     0.031 C 
ATOM     72  C   UNL A   1      48.381  27.223  26.556  1.00  0.00     0.037 A 
BRANCH  59  73
ATOM     73  C   UNL A   1      43.340  23.671  26.916  1.00  0.00     0.058 A 
ATOM     74  C   UNL A   1      42.960  23.170  25.661  1.00  0.00     0.135 A 
ATOM     75  C   UNL A   1      43.185  22.833  28.032  1.00  0.00     0.135 A 
ATOM     76  F   UNL A   1      43.064  23.940  24.565  1.00  0.00    -0.206 F 
ATOM     77  C   UNL A   1      42.441  21.888  25.518  1.00  0.00     0.059 A 
ATOM     78  C   UNL A   1      42.689  21.539  27.910  1.00  0.00     0.059 A 
ATOM     79  F   UNL A   1      43.521  23.270  29.256  1.00  0.00    -0.206 F 
ATOM     80  C   UNL A   1      42.315  21.077  26.648  1.00  0.00     0.060 A 
BRANCH  80  81
ATOM     81  S   UNL A   1      41.680  19.401  26.438  1.00  0.00     0.124 S 
ATOM     82  O   UNL A   1      40.280  19.658  26.112  1.00  0.00    -0.237 OA
ATOM     83  O   UNL A   1      42.502  18.891  25.346  1.00  0.00    -0.237 OA
ATOM     84  O   UNL A   1      41.917  18.782  27.739  1.00  0.00    -0.744 OA
ENDBRANCH  80  81
ENDBRANCH  59  73
BRANCH  60  85
ATOM     85  C   UNL A   1      47.068  32.872  28.319  1.00  0.00     0.058 A 
ATOM     86  C   UNL A   1      47.144  33.849  27.317  1.00  0.00     0.135 A 
ATOM     87  C   UNL A   1      47.591  33.192  29.583  1.00  0.00     0.135 A 
ATOM     88  F   UNL A   1      46.667  33.588  26.090  1.00  0.00    -0.206 F 
ATOM     89  C   UNL A   1      47.740  35.086  27.545  1.00  0.00     0.059 A 
ATOM     90  C   UNL A   1      48.168  34.431  29.844  1.00  0.00     0.059 A 
ATOM     91  F   UNL A   1      47.533  32.298  30.582  1.00  0.00    -0.206 F 
ATOM     92  C   UNL A   1      48.251  35.367  28.813  1.00  0.00     0.060 A 
BRANCH  92  93
ATOM     93  S   UNL A   1      49.001  36.984  29.108  1.00  0.00     0.124 S 
ATOM     94  O   UNL A   1      47.937  37.883  28.677  1.00  0.00    -0.237 OA
ATOM     95  O   UNL A   1      49.261  36.944  30.544  1.00  0.00    -0.237 OA
ATOM     96  O   UNL A   1      50.192  36.959  28.263  1.00  0.00    -0.744 OA
ENDBRANCH  92  93
ENDBRANCH  60  85
BRANCH  72  97
ATOM     97  C   UNL A   1      49.770  26.823  26.143  1.00  0.00     0.058 A 
ATOM     98  C   UNL A   1      50.186  26.893  24.804  1.00  0.00     0.135 A 
ATOM     99  C   UNL A   1      50.712  26.425  27.105  1.00  0.00     0.135 A 
ATOM    100  F   UNL A   1      49.321  27.263  23.846  1.00  0.00    -0.206 F 
ATOM    101  C   UNL A   1      51.484  26.561  24.431  1.00  0.00     0.059 A 
ATOM    102  C   UNL A   1      52.022  26.114  26.758  1.00  0.00     0.059 A 
ATOM    103  F   UNL A   1      50.367  26.355  28.400  1.00  0.00    -0.206 F 
ATOM    104  C   UNL A   1      52.395  26.174  25.416  1.00  0.00     0.060 A 
BRANCH 104 105
ATOM    105  S   UNL A   1      54.087  25.779  24.924  1.00  0.00     0.124 S 
ATOM    106  O   UNL A   1      54.832  26.137  26.126  1.00  0.00    -0.237 OA
ATOM    107  O   UNL A   1      54.002  24.352  24.631  1.00  0.00    -0.237 OA
ATOM    108  O   UNL A   1      54.313  26.637  23.765  1.00  0.00    -0.744 OA
ENDBRANCH 104 105
ENDBRANCH  72  97
ENDBRANCH  46  47
ENDBRANCH  39  41
ENDBRANCH  38  39
ENDBRANCH  37  38
ENDBRANCH  36  37
ENDBRANCH   1  36
TORSDOF 22
ENDMDL
