MODEL 1
REMARK VINA RESULT:     -10.8      0.000      0.000
REMARK SMILES Cc1cc(=O)n(Cc2cc(C(=O)OCCOCCOC(=O)c3ccc(-c4c5nc(c(-c6c(F)cc(S(=O)(=O)[O-])cc6F)c6ccc([nH]6)c(-c6c(F)cc(S(=O)(=O)[O-])cc6F)c6nc(c(-c7c(F)cc(S(=O)(=O)[O-])cc7F)c7ccc4[nH]7)C=C6)C=C5)cc3)oc2C)cc1[N+](=O)[O-]
REMARK SMILES IDX 16 1 15 2 14 3 13 4 11 5 12 6 10 7 8 8 9 9 89 10 88 11 90 12
REMARK SMILES IDX 7 13 6 14 1 15 2 16 3 17 92 18 4 19 91 20 5 21 93 22 94 23
REMARK SMILES IDX 95 24 17 25 18 26 19 27 20 28 21 29 22 30 23 31 87 32 24 33
REMARK SMILES IDX 86 34 25 35 26 36 27 37 80 38 28 39 85 40 79 41 81 42 29 43
REMARK SMILES IDX 84 44 78 45 77 46 30 48 64 49 43 50 63 51 44 52 47 53 62 54
REMARK SMILES IDX 82 55 45 56 46 57 61 59 83 60 48 61 31 62 32 63 41 64 33 65
REMARK SMILES IDX 34 66 40 67 42 68 35 69 36 70 37 71 38 72 39 73 65 74 66 75
REMARK SMILES IDX 75 76 67 77 68 78 74 79 76 80 69 81 70 82 71 83 72 84 73 85
REMARK SMILES IDX 49 86 50 87 59 88 51 89 52 90 58 91 60 92 53 93 54 94 55 95
REMARK SMILES IDX 56 96 57 97
REMARK H PARENT 81 47 47 58
REMARK Flexibility Score: inf
ROOT
ATOM      1  O   UNL A   1      35.140  34.220  29.955  1.00  0.00    -0.374 OA
ENDROOT
BRANCH   1   2
ATOM      2  C   UNL A   1      33.996  33.847  29.183  1.00  0.00     0.202 C 
BRANCH   2   3
ATOM      3  C   UNL A   1      34.315  32.912  28.012  1.00  0.00     0.261 C 
BRANCH   3   4
ATOM      4  O   UNL A   1      33.633  31.659  28.174  1.00  0.00    -0.457 OA
BRANCH   4   5
ATOM      5  C   UNL A   1      34.310  30.555  27.740  1.00  0.00     0.374 C 
ATOM      6  O   UNL A   1      35.347  30.128  28.234  1.00  0.00    -0.242 OA
BRANCH   5   7
ATOM      7  C   UNL A   1      33.567  29.927  26.673  1.00  0.00     0.212 A 
ATOM      8  C   UNL A   1      32.085  29.090  25.174  1.00  0.00     0.014 A 
ATOM      9  C   UNL A   1      32.218  29.837  26.387  1.00  0.00     0.064 A 
ATOM     10  C   UNL A   1      33.372  28.697  24.850  1.00  0.00     0.107 A 
ATOM     11  O   UNL A   1      34.264  29.216  25.736  1.00  0.00    -0.454 OA
ATOM     12  C   UNL A   1      33.965  27.868  23.782  1.00  0.00     0.088 C 
BRANCH   8  13
ATOM     13  C   UNL A   1      30.813  28.827  24.428  1.00  0.00     0.164 C 
BRANCH  13  14
ATOM     14  N   UNL A   1      30.666  27.378  24.289  1.00  0.00    -0.304 N 
ATOM     15  C   UNL A   1      31.135  23.128  23.875  1.00  0.00     0.052 C 
ATOM     16  C   UNL A   1      30.823  24.592  24.015  1.00  0.00     0.034 A 
ATOM     17  C   UNL A   1      30.776  25.367  22.914  1.00  0.00     0.082 A 
ATOM     18  C   UNL A   1      30.671  25.227  25.321  1.00  0.00     0.288 A 
ATOM     19  C   UNL A   1      30.637  26.845  23.001  1.00  0.00     0.251 A 
ATOM     20  C   UNL A   1      30.640  26.569  25.421  1.00  0.00     0.175 A 
ATOM     21  O   UNL A   1      30.564  27.508  21.973  1.00  0.00    -0.269 OA
BRANCH  18  22
ATOM     22  N   UNL A   1      30.530  24.485  26.582  1.00  0.00     0.064 N 
ATOM     23  O   UNL A   1      31.560  24.220  27.222  1.00  0.00    -0.258 OA
ATOM     24  O   UNL A   1      29.387  24.195  26.959  1.00  0.00    -0.258 OA
ENDBRANCH  18  22
ENDBRANCH  13  14
ENDBRANCH   8  13
ENDBRANCH   5   7
ENDBRANCH   4   5
ENDBRANCH   3   4
ENDBRANCH   2   3
ENDBRANCH   1   2
BRANCH   1  25
ATOM     25  C   UNL A   1      35.127  33.803  31.324  1.00  0.00     0.202 C 
BRANCH  25  26
ATOM     26  C   UNL A   1      35.323  32.297  31.526  1.00  0.00     0.261 C 
BRANCH  26  27
ATOM     27  O   UNL A   1      36.650  31.906  31.127  1.00  0.00    -0.460 OA
BRANCH  27  28
ATOM     28  C   UNL A   1      36.980  30.614  31.364  1.00  0.00     0.338 C 
ATOM     29  O   UNL A   1      36.256  29.745  31.820  1.00  0.00    -0.246 OA
BRANCH  28  30
ATOM     30  C   UNL A   1      38.326  30.343  30.809  1.00  0.00     0.060 A 
ATOM     31  C   UNL A   1      39.431  30.089  31.626  1.00  0.00     0.016 A 
ATOM     32  C   UNL A   1      38.469  30.356  29.415  1.00  0.00     0.016 A 
ATOM     33  C   UNL A   1      40.675  29.831  31.043  1.00  0.00     0.010 A 
ATOM     34  C   UNL A   1      39.712  30.096  28.836  1.00  0.00     0.010 A 
ATOM     35  C   UNL A   1      40.823  29.822  29.644  1.00  0.00    -0.014 A 
BRANCH  35  36
ATOM     36  C   UNL A   1      42.118  29.432  29.034  1.00  0.00     0.031 A 
ATOM     37  C   UNL A   1      43.239  30.418  28.888  1.00  0.00     0.074 A 
ATOM     38  C   UNL A   1      42.270  28.167  28.597  1.00  0.00     0.049 A 
ATOM     39  N   UNL A   1      44.460  30.214  28.465  1.00  0.00    -0.248 NA
ATOM     40  C   UNL A   1      42.955  31.812  29.257  1.00  0.00     0.031 C 
ATOM     41  C   UNL A   1      41.233  27.134  28.641  1.00  0.00     0.029 A 
ATOM     42  N   UNL A   1      43.350  27.534  28.038  1.00  0.00    -0.354 N 
ATOM     43  C   UNL A   1      45.100  31.444  28.537  1.00  0.00     0.074 A 
ATOM     44  C   UNL A   1      44.115  32.402  28.995  1.00  0.00     0.031 C 
ATOM     45  C   UNL A   1      41.736  25.989  28.155  1.00  0.00     0.029 A 
ATOM     46  C   UNL A   1      43.123  26.209  27.751  1.00  0.00     0.049 A 
ATOM     47  H   UNL A   1      44.206  27.984  27.858  1.00  0.00     0.167 HD
ATOM     48  C   UNL A   1      46.395  31.738  28.270  1.00  0.00     0.037 A 
ATOM     49  C   UNL A   1      43.939  25.273  27.231  1.00  0.00     0.037 A 
ATOM     50  C   UNL A   1      47.366  30.781  27.804  1.00  0.00     0.049 A 
ATOM     51  C   UNL A   1      45.360  25.635  26.900  1.00  0.00     0.074 A 
ATOM     52  C   UNL A   1      48.717  30.969  27.571  1.00  0.00     0.029 A 
ATOM     53  N   UNL A   1      47.087  29.461  27.480  1.00  0.00    -0.354 N 
ATOM     54  N   UNL A   1      45.978  26.778  27.074  1.00  0.00    -0.248 NA
ATOM     55  C   UNL A   1      46.195  24.583  26.303  1.00  0.00     0.031 C 
ATOM     56  C   UNL A   1      49.246  29.779  27.061  1.00  0.00     0.029 A 
ATOM     57  C   UNL A   1      48.232  28.835  27.012  1.00  0.00     0.049 A 
ATOM     58  H   UNL A   1      46.206  29.031  27.569  1.00  0.00     0.167 HD
ATOM     59  C   UNL A   1      47.275  26.583  26.611  1.00  0.00     0.074 A 
ATOM     60  C   UNL A   1      47.359  25.205  26.170  1.00  0.00     0.031 C 
ATOM     61  C   UNL A   1      48.300  27.469  26.556  1.00  0.00     0.037 A 
BRANCH  48  62
ATOM     62  C   UNL A   1      46.851  33.153  28.493  1.00  0.00     0.058 A 
ATOM     63  C   UNL A   1      46.709  34.127  27.492  1.00  0.00     0.135 A 
ATOM     64  C   UNL A   1      47.373  33.557  29.733  1.00  0.00     0.135 A 
ATOM     65  F   UNL A   1      46.225  33.792  26.285  1.00  0.00    -0.206 F 
ATOM     66  C   UNL A   1      47.089  35.447  27.705  1.00  0.00     0.059 A 
ATOM     67  C   UNL A   1      47.739  34.878  29.975  1.00  0.00     0.059 A 
ATOM     68  F   UNL A   1      47.525  32.664  30.724  1.00  0.00    -0.206 F 
ATOM     69  C   UNL A   1      47.603  35.814  28.950  1.00  0.00     0.060 A 
BRANCH  69  70
ATOM     70  S   UNL A   1      48.086  37.535  29.203  1.00  0.00     0.124 S 
ATOM     71  O   UNL A   1      48.661  37.868  27.903  1.00  0.00    -0.237 OA
ATOM     72  O   UNL A   1      46.811  38.174  29.512  1.00  0.00    -0.237 OA
ATOM     73  O   UNL A   1      49.034  37.464  30.310  1.00  0.00    -0.744 OA
ENDBRANCH  69  70
ENDBRANCH  48  62
BRANCH  49  74
ATOM     74  C   UNL A   1      43.433  23.892  27.027  1.00  0.00     0.058 A 
ATOM     75  C   UNL A   1      43.320  23.003  28.104  1.00  0.00     0.135 A 
ATOM     76  C   UNL A   1      43.014  23.450  25.762  1.00  0.00     0.135 A 
ATOM     77  F   UNL A   1      43.715  23.380  29.329  1.00  0.00    -0.206 F 
ATOM     78  C   UNL A   1      42.806  21.721  27.937  1.00  0.00     0.059 A 
ATOM     79  C   UNL A   1      42.478  22.181  25.574  1.00  0.00     0.059 A 
ATOM     80  F   UNL A   1      43.091  24.271  24.704  1.00  0.00    -0.206 F 
ATOM     81  C   UNL A   1      42.381  21.322  26.668  1.00  0.00     0.060 A 
BRANCH  81  82
ATOM     82  S   UNL A   1      41.654  19.679  26.479  1.00  0.00     0.124 S 
ATOM     83  O   UNL A   1      42.295  19.213  25.254  1.00  0.00    -0.237 OA
ATOM     84  O   UNL A   1      42.072  19.018  27.711  1.00  0.00    -0.237 OA
ATOM     85  O   UNL A   1      40.224  19.956  26.379  1.00  0.00    -0.744 OA
ENDBRANCH  81  82
ENDBRANCH  49  74
BRANCH  61  86
ATOM     86  C   UNL A   1      49.601  26.992  25.975  1.00  0.00     0.058 A 
ATOM     87  C   UNL A   1      49.906  27.196  24.621  1.00  0.00     0.135 A 
ATOM     88  C   UNL A   1      50.586  26.411  26.790  1.00  0.00     0.135 A 
ATOM     89  F   UNL A   1      48.995  27.738  23.797  1.00  0.00    -0.206 F 
ATOM     90  C   UNL A   1      51.144  26.842  24.093  1.00  0.00     0.059 A 
ATOM     91  C   UNL A   1      51.838  26.068  26.289  1.00  0.00     0.059 A 
ATOM     92  F   UNL A   1      50.345  26.199  28.093  1.00  0.00    -0.206 F 
ATOM     93  C   UNL A   1      52.107  26.287  24.938  1.00  0.00     0.060 A 
BRANCH  93  94
ATOM     94  S   UNL A   1      53.733  25.900  24.254  1.00  0.00     0.124 S 
ATOM     95  O   UNL A   1      53.480  25.998  22.820  1.00  0.00    -0.237 OA
ATOM     96  O   UNL A   1      54.569  26.951  24.825  1.00  0.00    -0.237 OA
ATOM     97  O   UNL A   1      54.000  24.554  24.752  1.00  0.00    -0.744 OA
ENDBRANCH  93  94
ENDBRANCH  61  86
ENDBRANCH  35  36
ENDBRANCH  28  30
ENDBRANCH  27  28
ENDBRANCH  26  27
ENDBRANCH  25  26
ENDBRANCH   1  25
TORSDOF 20
ENDMDL
MODEL 2
REMARK VINA RESULT:     -10.7      1.192      2.166
REMARK SMILES Cc1cc(=O)n(Cc2cc(C(=O)OCCOCCOC(=O)c3ccc(-c4c5nc(c(-c6c(F)cc(S(=O)(=O)[O-])cc6F)c6ccc([nH]6)c(-c6c(F)cc(S(=O)(=O)[O-])cc6F)c6nc(c(-c7c(F)cc(S(=O)(=O)[O-])cc7F)c7ccc4[nH]7)C=C6)C=C5)cc3)oc2C)cc1[N+](=O)[O-]
REMARK SMILES IDX 16 1 15 2 14 3 13 4 11 5 12 6 10 7 8 8 9 9 89 10 88 11 90 12
REMARK SMILES IDX 7 13 6 14 1 15 2 16 3 17 92 18 4 19 91 20 5 21 93 22 94 23
REMARK SMILES IDX 95 24 17 25 18 26 19 27 20 28 21 29 22 30 23 31 87 32 24 33
REMARK SMILES IDX 86 34 25 35 26 36 27 37 80 38 28 39 85 40 79 41 81 42 29 43
REMARK SMILES IDX 84 44 78 45 77 46 30 48 64 49 43 50 63 51 44 52 47 53 62 54
REMARK SMILES IDX 82 55 45 56 46 57 61 59 83 60 48 61 31 62 32 63 41 64 33 65
REMARK SMILES IDX 34 66 40 67 42 68 35 69 36 70 37 71 38 72 39 73 65 74 66 75
REMARK SMILES IDX 75 76 67 77 68 78 74 79 76 80 69 81 70 82 71 83 72 84 73 85
REMARK SMILES IDX 49 86 50 87 59 88 51 89 52 90 58 91 60 92 53 93 54 94 55 95
REMARK SMILES IDX 56 96 57 97
REMARK H PARENT 81 47 47 58
REMARK Flexibility Score: inf
ROOT
ATOM      1  O   UNL A   1      35.014  33.565  29.357  1.00  0.00    -0.374 OA
ENDROOT
BRANCH   1   2
ATOM      2  C   UNL A   1      34.040  32.879  28.567  1.00  0.00     0.202 C 
BRANCH   2   3
ATOM      3  C   UNL A   1      34.574  31.617  27.882  1.00  0.00     0.261 C 
BRANCH   3   4
ATOM      4  O   UNL A   1      33.502  30.900  27.250  1.00  0.00    -0.457 OA
BRANCH   4   5
ATOM      5  C   UNL A   1      33.769  29.602  26.922  1.00  0.00     0.374 C 
ATOM      6  O   UNL A   1      34.715  28.950  27.348  1.00  0.00    -0.242 OA
BRANCH   5   7
ATOM      7  C   UNL A   1      32.718  29.098  26.069  1.00  0.00     0.212 A 
ATOM      8  C   UNL A   1      31.199  27.952  24.835  1.00  0.00     0.014 A 
ATOM      9  C   UNL A   1      32.328  27.823  25.705  1.00  0.00     0.064 A 
ATOM     10  C   UNL A   1      31.035  29.314  24.658  1.00  0.00     0.107 A 
ATOM     11  O   UNL A   1      31.932  30.003  25.414  1.00  0.00    -0.454 OA
ATOM     12  C   UNL A   1      30.122  30.153  23.856  1.00  0.00     0.088 C 
BRANCH   8  13
ATOM     13  C   UNL A   1      30.379  26.832  24.272  1.00  0.00     0.164 C 
BRANCH  13  14
ATOM     14  N   UNL A   1      31.126  25.589  24.461  1.00  0.00    -0.304 N 
ATOM     15  C   UNL A   1      32.651  21.574  24.538  1.00  0.00     0.052 C 
ATOM     16  C   UNL A   1      32.236  23.018  24.594  1.00  0.00     0.034 A 
ATOM     17  C   UNL A   1      31.382  23.425  25.553  1.00  0.00     0.082 A 
ATOM     18  C   UNL A   1      32.648  23.979  23.575  1.00  0.00     0.288 A 
ATOM     19  C   UNL A   1      30.808  24.795  25.562  1.00  0.00     0.251 A 
ATOM     20  C   UNL A   1      32.065  25.191  23.514  1.00  0.00     0.175 A 
ATOM     21  O   UNL A   1      30.061  25.135  26.474  1.00  0.00    -0.269 OA
BRANCH  18  22
ATOM     22  N   UNL A   1      33.700  23.720  22.581  1.00  0.00     0.064 N 
ATOM     23  O   UNL A   1      34.881  23.731  22.964  1.00  0.00    -0.258 OA
ATOM     24  O   UNL A   1      33.351  23.469  21.421  1.00  0.00    -0.258 OA
ENDBRANCH  18  22
ENDBRANCH  13  14
ENDBRANCH   8  13
ENDBRANCH   5   7
ENDBRANCH   4   5
ENDBRANCH   3   4
ENDBRANCH   2   3
ENDBRANCH   1   2
BRANCH   1  25
ATOM     25  C   UNL A   1      34.762  33.594  30.766  1.00  0.00     0.202 C 
BRANCH  25  26
ATOM     26  C   UNL A   1      35.333  32.397  31.532  1.00  0.00     0.261 C 
BRANCH  26  27
ATOM     27  O   UNL A   1      36.531  31.917  30.894  1.00  0.00    -0.460 OA
BRANCH  27  28
ATOM     28  C   UNL A   1      36.753  30.584  30.984  1.00  0.00     0.338 C 
ATOM     29  O   UNL A   1      35.937  29.723  31.268  1.00  0.00    -0.246 OA
BRANCH  28  30
ATOM     30  C   UNL A   1      38.119  30.282  30.498  1.00  0.00     0.060 A 
ATOM     31  C   UNL A   1      39.183  30.039  31.371  1.00  0.00     0.016 A 
ATOM     32  C   UNL A   1      38.324  30.253  29.112  1.00  0.00     0.016 A 
ATOM     33  C   UNL A   1      40.449  29.751  30.852  1.00  0.00     0.010 A 
ATOM     34  C   UNL A   1      39.589  29.962  28.597  1.00  0.00     0.010 A 
ATOM     35  C   UNL A   1      40.659  29.699  29.462  1.00  0.00    -0.014 A 
BRANCH  35  36
ATOM     36  C   UNL A   1      41.975  29.277  28.923  1.00  0.00     0.031 A 
ATOM     37  C   UNL A   1      43.122  30.240  28.823  1.00  0.00     0.074 A 
ATOM     38  C   UNL A   1      42.123  28.005  28.507  1.00  0.00     0.049 A 
ATOM     39  N   UNL A   1      44.358  30.007  28.465  1.00  0.00    -0.248 NA
ATOM     40  C   UNL A   1      42.847  31.643  29.163  1.00  0.00     0.031 C 
ATOM     41  C   UNL A   1      41.065  26.994  28.508  1.00  0.00     0.029 A 
ATOM     42  N   UNL A   1      43.217  27.345  28.009  1.00  0.00    -0.354 N 
ATOM     43  C   UNL A   1      45.017  31.225  28.557  1.00  0.00     0.074 A 
ATOM     44  C   UNL A   1      44.030  32.208  28.955  1.00  0.00     0.031 C 
ATOM     45  C   UNL A   1      41.569  25.833  28.060  1.00  0.00     0.029 A 
ATOM     46  C   UNL A   1      42.978  26.022  27.725  1.00  0.00     0.049 A 
ATOM     47  H   UNL A   1      44.090  27.777  27.869  1.00  0.00     0.167 HD
ATOM     48  C   UNL A   1      46.330  31.491  28.352  1.00  0.00     0.037 A 
ATOM     49  C   UNL A   1      43.801  25.064  27.257  1.00  0.00     0.037 A 
ATOM     50  C   UNL A   1      47.304  30.510  27.946  1.00  0.00     0.049 A 
ATOM     51  C   UNL A   1      45.244  25.394  26.994  1.00  0.00     0.074 A 
ATOM     52  C   UNL A   1      48.669  30.670  27.780  1.00  0.00     0.029 A 
ATOM     53  N   UNL A   1      47.015  29.192  27.622  1.00  0.00    -0.354 N 
ATOM     54  N   UNL A   1      45.875  26.528  27.187  1.00  0.00    -0.248 NA
ATOM     55  C   UNL A   1      46.086  24.320  26.451  1.00  0.00     0.031 C 
ATOM     56  C   UNL A   1      49.199  29.464  27.310  1.00  0.00     0.029 A 
ATOM     57  C   UNL A   1      48.170  28.539  27.219  1.00  0.00     0.049 A 
ATOM     58  H   UNL A   1      46.122  28.781  27.670  1.00  0.00     0.167 HD
ATOM     59  C   UNL A   1      47.189  26.302  26.793  1.00  0.00     0.074 A 
ATOM     60  C   UNL A   1      47.267  24.918  26.370  1.00  0.00     0.031 C 
ATOM     61  C   UNL A   1      48.233  27.167  26.781  1.00  0.00     0.037 A 
BRANCH  48  62
ATOM     62  C   UNL A   1      46.803  32.899  28.584  1.00  0.00     0.058 A 
ATOM     63  C   UNL A   1      47.245  33.316  29.849  1.00  0.00     0.135 A 
ATOM     64  C   UNL A   1      46.877  33.820  27.527  1.00  0.00     0.135 A 
ATOM     65  F   UNL A   1      47.187  32.479  30.898  1.00  0.00    -0.206 F 
ATOM     66  C   UNL A   1      47.724  34.604  30.064  1.00  0.00     0.059 A 
ATOM     67  C   UNL A   1      47.374  35.107  27.714  1.00  0.00     0.059 A 
ATOM     68  F   UNL A   1      46.470  33.469  26.297  1.00  0.00    -0.206 F 
ATOM     69  C   UNL A   1      47.785  35.493  28.989  1.00  0.00     0.060 A 
BRANCH  69  70
ATOM     70  S   UNL A   1      48.413  37.158  29.291  1.00  0.00     0.124 S 
ATOM     71  O   UNL A   1      48.723  37.097  30.717  1.00  0.00    -0.237 OA
ATOM     72  O   UNL A   1      49.564  37.223  28.397  1.00  0.00    -0.237 OA
ATOM     73  O   UNL A   1      47.290  38.017  28.928  1.00  0.00    -0.744 OA
ENDBRANCH  69  70
ENDBRANCH  48  62
BRANCH  49  74
ATOM     74  C   UNL A   1      43.278  23.691  27.041  1.00  0.00     0.058 A 
ATOM     75  C   UNL A   1      43.011  23.220  25.748  1.00  0.00     0.135 A 
ATOM     76  C   UNL A   1      43.078  22.811  28.116  1.00  0.00     0.135 A 
ATOM     77  F   UNL A   1      43.182  24.029  24.691  1.00  0.00    -0.206 F 
ATOM     78  C   UNL A   1      42.564  21.922  25.526  1.00  0.00     0.059 A 
ATOM     79  C   UNL A   1      42.651  21.503  27.918  1.00  0.00     0.059 A 
ATOM     80  F   UNL A   1      43.333  23.214  29.370  1.00  0.00    -0.206 F 
ATOM     81  C   UNL A   1      42.393  21.068  26.618  1.00  0.00     0.060 A 
BRANCH  81  82
ATOM     82  S   UNL A   1      41.877  19.365  26.309  1.00  0.00     0.124 S 
ATOM     83  O   UNL A   1      42.362  18.689  27.507  1.00  0.00    -0.237 OA
ATOM     84  O   UNL A   1      40.429  19.503  26.194  1.00  0.00    -0.237 OA
ATOM     85  O   UNL A   1      42.568  19.026  25.068  1.00  0.00    -0.744 OA
ENDBRANCH  81  82
ENDBRANCH  49  74
BRANCH  61  86
ATOM     86  C   UNL A   1      49.552  26.658  26.271  1.00  0.00     0.058 A 
ATOM     87  C   UNL A   1      49.961  26.903  24.952  1.00  0.00     0.135 A 
ATOM     88  C   UNL A   1      50.452  26.004  27.127  1.00  0.00     0.135 A 
ATOM     89  F   UNL A   1      49.133  27.517  24.091  1.00  0.00    -0.206 F 
ATOM     90  C   UNL A   1      51.217  26.517  24.496  1.00  0.00     0.059 A 
ATOM     91  C   UNL A   1      51.723  25.627  26.699  1.00  0.00     0.059 A 
ATOM     92  F   UNL A   1      50.112  25.750  28.400  1.00  0.00    -0.206 F 
ATOM     93  C   UNL A   1      52.095  25.888  25.381  1.00  0.00     0.060 A 
BRANCH  93  94
ATOM     94  S   UNL A   1      53.749  25.460  24.795  1.00  0.00     0.124 S 
ATOM     95  O   UNL A   1      54.593  26.106  25.794  1.00  0.00    -0.237 OA
ATOM     96  O   UNL A   1      53.723  24.001  24.832  1.00  0.00    -0.237 OA
ATOM     97  O   UNL A   1      53.799  26.046  23.459  1.00  0.00    -0.744 OA
ENDBRANCH  93  94
ENDBRANCH  61  86
ENDBRANCH  35  36
ENDBRANCH  28  30
ENDBRANCH  27  28
ENDBRANCH  26  27
ENDBRANCH  25  26
ENDBRANCH   1  25
TORSDOF 20
ENDMDL
MODEL 3
REMARK VINA RESULT:     -10.7      6.231     12.208
REMARK SMILES Cc1cc(=O)n(Cc2cc(C(=O)OCCOCCOC(=O)c3ccc(-c4c5nc(c(-c6c(F)cc(S(=O)(=O)[O-])cc6F)c6ccc([nH]6)c(-c6c(F)cc(S(=O)(=O)[O-])cc6F)c6nc(c(-c7c(F)cc(S(=O)(=O)[O-])cc7F)c7ccc4[nH]7)C=C6)C=C5)cc3)oc2C)cc1[N+](=O)[O-]
REMARK SMILES IDX 16 1 15 2 14 3 13 4 11 5 12 6 10 7 8 8 9 9 89 10 88 11 90 12
REMARK SMILES IDX 7 13 6 14 1 15 2 16 3 17 92 18 4 19 91 20 5 21 93 22 94 23
REMARK SMILES IDX 95 24 17 25 18 26 19 27 20 28 21 29 22 30 23 31 87 32 24 33
REMARK SMILES IDX 86 34 25 35 26 36 27 37 80 38 28 39 85 40 79 41 81 42 29 43
REMARK SMILES IDX 84 44 78 45 77 46 30 48 64 49 43 50 63 51 44 52 47 53 62 54
REMARK SMILES IDX 82 55 45 56 46 57 61 59 83 60 48 61 31 62 32 63 41 64 33 65
REMARK SMILES IDX 34 66 40 67 42 68 35 69 36 70 37 71 38 72 39 73 65 74 66 75
REMARK SMILES IDX 75 76 67 77 68 78 74 79 76 80 69 81 70 82 71 83 72 84 73 85
REMARK SMILES IDX 49 86 50 87 59 88 51 89 52 90 58 91 60 92 53 93 54 94 55 95
REMARK SMILES IDX 56 96 57 97
REMARK H PARENT 81 47 47 58
REMARK Flexibility Score: inf
ROOT
ATOM      1  O   UNL A   1      42.022  21.812  25.436  1.00  0.00    -0.374 OA
ENDROOT
BRANCH   1   2
ATOM      2  C   UNL A   1      41.225  21.139  26.414  1.00  0.00     0.202 C 
BRANCH   2   3
ATOM      3  C   UNL A   1      40.061  21.979  26.949  1.00  0.00     0.261 C 
BRANCH   3   4
ATOM      4  O   UNL A   1      38.966  21.965  26.019  1.00  0.00    -0.457 OA
BRANCH   4   5
ATOM      5  C   UNL A   1      38.197  23.093  25.990  1.00  0.00     0.374 C 
ATOM      6  O   UNL A   1      38.528  24.179  26.450  1.00  0.00    -0.242 OA
BRANCH   5   7
ATOM      7  C   UNL A   1      36.982  22.825  25.259  1.00  0.00     0.212 A 
ATOM      8  C   UNL A   1      35.131  22.757  23.949  1.00  0.00     0.014 A 
ATOM      9  C   UNL A   1      36.249  23.557  24.344  1.00  0.00     0.064 A 
ATOM     10  C   UNL A   1      35.214  21.615  24.726  1.00  0.00     0.107 A 
ATOM     11  O   UNL A   1      36.334  21.645  25.497  1.00  0.00    -0.454 OA
ATOM     12  C   UNL A   1      34.378  20.409  24.889  1.00  0.00     0.088 C 
BRANCH   8  13
ATOM     13  C   UNL A   1      34.120  23.100  22.899  1.00  0.00     0.164 C 
BRANCH  13  14
ATOM     14  N   UNL A   1      33.145  24.013  23.496  1.00  0.00    -0.304 N 
ATOM     15  C   UNL A   1      30.762  26.562  26.000  1.00  0.00     0.052 C 
ATOM     16  C   UNL A   1      31.501  25.704  25.012  1.00  0.00     0.034 A 
ATOM     17  C   UNL A   1      31.205  24.393  24.921  1.00  0.00     0.082 A 
ATOM     18  C   UNL A   1      32.610  26.224  24.216  1.00  0.00     0.288 A 
ATOM     19  C   UNL A   1      32.010  23.463  24.087  1.00  0.00     0.251 A 
ATOM     20  C   UNL A   1      33.405  25.380  23.532  1.00  0.00     0.175 A 
ATOM     21  O   UNL A   1      31.683  22.283  24.006  1.00  0.00    -0.269 OA
BRANCH  18  22
ATOM     22  N   UNL A   1      32.928  27.653  24.088  1.00  0.00     0.064 N 
ATOM     23  O   UNL A   1      33.715  28.151  24.909  1.00  0.00    -0.258 OA
ATOM     24  O   UNL A   1      32.422  28.277  23.147  1.00  0.00    -0.258 OA
ENDBRANCH  18  22
ENDBRANCH  13  14
ENDBRANCH   8  13
ENDBRANCH   5   7
ENDBRANCH   4   5
ENDBRANCH   3   4
ENDBRANCH   2   3
ENDBRANCH   1   2
BRANCH   1  25
ATOM     25  C   UNL A   1      43.400  21.997  25.779  1.00  0.00     0.202 C 
BRANCH  25  26
ATOM     26  C   UNL A   1      43.892  23.442  25.652  1.00  0.00     0.261 C 
BRANCH  26  27
ATOM     27  O   UNL A   1      43.266  24.274  26.646  1.00  0.00    -0.460 OA
BRANCH  27  28
ATOM     28  C   UNL A   1      42.572  25.336  26.171  1.00  0.00     0.338 C 
ATOM     29  O   UNL A   1      42.204  25.517  25.022  1.00  0.00    -0.246 OA
BRANCH  28  30
ATOM     30  C   UNL A   1      42.146  26.189  27.305  1.00  0.00     0.060 A 
ATOM     31  C   UNL A   1      41.110  25.818  28.167  1.00  0.00     0.016 A 
ATOM     32  C   UNL A   1      42.816  27.405  27.492  1.00  0.00     0.016 A 
ATOM     33  C   UNL A   1      40.759  26.661  29.226  1.00  0.00     0.010 A 
ATOM     34  C   UNL A   1      42.465  28.243  28.552  1.00  0.00     0.010 A 
ATOM     35  C   UNL A   1      41.441  27.873  29.433  1.00  0.00    -0.014 A 
BRANCH  35  36
ATOM     36  C   UNL A   1      41.140  28.703  30.626  1.00  0.00     0.031 A 
ATOM     37  C   UNL A   1      41.938  28.570  31.889  1.00  0.00     0.074 A 
ATOM     38  C   UNL A   1      40.120  29.579  30.562  1.00  0.00     0.049 A 
ATOM     39  N   UNL A   1      41.865  29.282  32.984  1.00  0.00    -0.248 NA
ATOM     40  C   UNL A   1      42.943  27.497  31.934  1.00  0.00     0.031 C 
ATOM     41  C   UNL A   1      39.242  29.761  29.404  1.00  0.00     0.029 A 
ATOM     42  N   UNL A   1      39.652  30.482  31.481  1.00  0.00    -0.354 N 
ATOM     43  C   UNL A   1      42.827  28.765  33.841  1.00  0.00     0.074 A 
ATOM     44  C   UNL A   1      43.436  27.641  33.158  1.00  0.00     0.031 C 
ATOM     45  C   UNL A   1      38.359  30.735  29.673  1.00  0.00     0.029 A 
ATOM     46  C   UNL A   1      38.597  31.235  31.025  1.00  0.00     0.049 A 
ATOM     47  H   UNL A   1      40.035  30.581  32.382  1.00  0.00     0.167 HD
ATOM     48  C   UNL A   1      43.183  29.204  35.072  1.00  0.00     0.037 A 
ATOM     49  C   UNL A   1      37.904  32.224  31.621  1.00  0.00     0.037 A 
ATOM     50  C   UNL A   1      42.565  30.315  35.748  1.00  0.00     0.049 A 
ATOM     51  C   UNL A   1      38.289  32.664  33.006  1.00  0.00     0.074 A 
ATOM     52  C   UNL A   1      42.903  30.877  36.967  1.00  0.00     0.029 A 
ATOM     53  N   UNL A   1      41.469  31.022  35.275  1.00  0.00    -0.354 N 
ATOM     54  N   UNL A   1      39.270  32.232  33.762  1.00  0.00    -0.248 NA
ATOM     55  C   UNL A   1      37.475  33.722  33.621  1.00  0.00     0.031 C 
ATOM     56  C   UNL A   1      41.984  31.891  37.255  1.00  0.00     0.029 A 
ATOM     57  C   UNL A   1      41.094  31.988  36.196  1.00  0.00     0.049 A 
ATOM     58  H   UNL A   1      41.022  30.862  34.413  1.00  0.00     0.167 HD
ATOM     59  C   UNL A   1      39.195  32.968  34.939  1.00  0.00     0.074 A 
ATOM     60  C   UNL A   1      38.085  33.888  34.787  1.00  0.00     0.031 C 
ATOM     61  C   UNL A   1      39.975  32.885  36.044  1.00  0.00     0.037 A 
BRANCH  48  62
ATOM     62  C   UNL A   1      44.312  28.495  35.768  1.00  0.00     0.058 A 
ATOM     63  C   UNL A   1      45.645  28.884  35.569  1.00  0.00     0.135 A 
ATOM     64  C   UNL A   1      44.060  27.464  36.688  1.00  0.00     0.135 A 
ATOM     65  F   UNL A   1      45.943  29.858  34.693  1.00  0.00    -0.206 F 
ATOM     66  C   UNL A   1      46.692  28.263  36.240  1.00  0.00     0.059 A 
ATOM     67  C   UNL A   1      45.091  26.842  37.387  1.00  0.00     0.059 A 
ATOM     68  F   UNL A   1      42.801  27.056  36.917  1.00  0.00    -0.206 F 
ATOM     69  C   UNL A   1      46.405  27.242  37.148  1.00  0.00     0.060 A 
BRANCH  69  70
ATOM     70  S   UNL A   1      47.780  26.452  38.010  1.00  0.00     0.124 S 
ATOM     71  O   UNL A   1      48.919  26.907  37.218  1.00  0.00    -0.237 OA
ATOM     72  O   UNL A   1      47.676  27.020  39.350  1.00  0.00    -0.237 OA
ATOM     73  O   UNL A   1      47.474  25.028  37.909  1.00  0.00    -0.744 OA
ENDBRANCH  69  70
ENDBRANCH  48  62
BRANCH  49  74
ATOM     74  C   UNL A   1      36.794  32.886  30.889  1.00  0.00     0.058 A 
ATOM     75  C   UNL A   1      35.458  32.631  31.227  1.00  0.00     0.135 A 
ATOM     76  C   UNL A   1      37.049  33.815  29.869  1.00  0.00     0.135 A 
ATOM     77  F   UNL A   1      35.168  31.744  32.191  1.00  0.00    -0.206 F 
ATOM     78  C   UNL A   1      34.410  33.276  30.581  1.00  0.00     0.059 A 
ATOM     79  C   UNL A   1      36.018  34.488  29.221  1.00  0.00     0.059 A 
ATOM     80  F   UNL A   1      38.312  34.101  29.520  1.00  0.00    -0.206 F 
ATOM     81  C   UNL A   1      34.700  34.209  29.583  1.00  0.00     0.060 A 
BRANCH  81  82
ATOM     82  S   UNL A   1      33.331  35.088  28.799  1.00  0.00     0.124 S 
ATOM     83  O   UNL A   1      32.745  34.041  27.971  1.00  0.00    -0.237 OA
ATOM     84  O   UNL A   1      32.541  35.510  29.952  1.00  0.00    -0.237 OA
ATOM     85  O   UNL A   1      33.997  36.168  28.076  1.00  0.00    -0.744 OA
ENDBRANCH  81  82
ENDBRANCH  49  74
BRANCH  61  86
ATOM     86  C   UNL A   1      39.648  33.792  37.197  1.00  0.00     0.058 A 
ATOM     87  C   UNL A   1      38.830  33.357  38.250  1.00  0.00     0.135 A 
ATOM     88  C   UNL A   1      40.225  35.068  37.297  1.00  0.00     0.135 A 
ATOM     89  F   UNL A   1      38.246  32.149  38.198  1.00  0.00    -0.206 F 
ATOM     90  C   UNL A   1      38.595  34.155  39.366  1.00  0.00     0.059 A 
ATOM     91  C   UNL A   1      40.021  35.875  38.413  1.00  0.00     0.059 A 
ATOM     92  F   UNL A   1      41.019  35.529  36.319  1.00  0.00    -0.206 F 
ATOM     93  C   UNL A   1      39.204  35.409  39.442  1.00  0.00     0.060 A 
BRANCH  93  94
ATOM     94  S   UNL A   1      38.947  36.401  40.929  1.00  0.00     0.124 S 
ATOM     95  O   UNL A   1      37.886  35.658  41.600  1.00  0.00    -0.237 OA
ATOM     96  O   UNL A   1      40.259  36.351  41.566  1.00  0.00    -0.237 OA
ATOM     97  O   UNL A   1      38.561  37.708  40.404  1.00  0.00    -0.744 OA
ENDBRANCH  93  94
ENDBRANCH  61  86
ENDBRANCH  35  36
ENDBRANCH  28  30
ENDBRANCH  27  28
ENDBRANCH  26  27
ENDBRANCH  25  26
ENDBRANCH   1  25
TORSDOF 20
ENDMDL
