MODEL 1
REMARK VINA RESULT:     -10.4      0.000      0.000
REMARK SMILES COc1ccc([C@H]2CC(c3ccc(S(C)(=O)=O)cc3)=NN2c2ccc(C(=O)OCCOCCOC(=O)c3ccc(-c4c5nc(c(-c6c(F)cc(S(=O)(=O)[O-])cc6F)c6ccc([nH]6)c(-c6c(F)cc(S(=O)(=O)[O-])cc6F)c6nc(c(-c7c(F)cc(S(=O)(=O)[O-])cc7F)c7ccc4[nH]7)C=C6)C=C5)cc3)cc2)cc1OC
REMARK SMILES IDX 31 1 30 2 29 3 28 4 26 5 27 6 25 7 22 8 23 9 104 10 24 11
REMARK SMILES IDX 103 12 21 13 7 14 8 15 9 16 20 17 6 18 3 19 4 20 106 21 5 22
REMARK SMILES IDX 105 23 2 24 1 25 107 26 108 27 10 28 11 29 19 30 12 31 18 32
REMARK SMILES IDX 13 33 14 34 15 35 16 36 17 37 32 38 33 39 34 40 35 41 36 42
REMARK SMILES IDX 37 43 38 44 102 45 39 46 101 47 40 48 41 49 42 50 95 51
REMARK SMILES IDX 43 52 100 53 94 54 96 55 44 56 99 57 93 58 92 59 45 61 79 62
REMARK SMILES IDX 58 63 78 64 59 65 62 66 77 67 97 68 60 69 61 70 76 72 98 73
REMARK SMILES IDX 63 74 46 75 47 76 56 77 48 78 49 79 55 80 57 81 50 82 51 83
REMARK SMILES IDX 52 84 53 85 54 86 80 87 81 88 90 89 82 90 83 91 89 92 91 93
REMARK SMILES IDX 84 94 85 95 86 96 87 97 88 98 64 99 65 100 74 101 66 102
REMARK SMILES IDX 67 103 73 104 75 105 68 106 69 107 70 108 71 109 72 110
REMARK H PARENT 96 60 62 71
REMARK Flexibility Score: inf
ROOT
ATOM      1  O   UNL A   1      35.074  32.064  31.544  1.00  0.00    -0.374 OA
ENDROOT
BRANCH   1   2
ATOM      2  C   UNL A   1      35.181  32.290  30.138  1.00  0.00     0.202 C 
BRANCH   2   3
ATOM      3  C   UNL A   1      36.133  31.366  29.373  1.00  0.00     0.261 C 
BRANCH   3   4
ATOM      4  O   UNL A   1      35.426  30.296  28.728  1.00  0.00    -0.460 OA
BRANCH   4   5
ATOM      5  C   UNL A   1      34.543  30.687  27.779  1.00  0.00     0.338 C 
ATOM      6  O   UNL A   1      34.367  31.826  27.368  1.00  0.00    -0.246 OA
BRANCH   5   7
ATOM      7  C   UNL A   1      33.891  29.509  27.164  1.00  0.00     0.060 A 
ATOM      8  C   UNL A   1      32.571  27.215  26.212  1.00  0.00     0.060 A 
ATOM      9  C   UNL A   1      31.875  28.189  26.937  1.00  0.00     0.029 A 
ATOM     10  C   UNL A   1      33.919  27.452  25.899  1.00  0.00     0.029 A 
ATOM     11  C   UNL A   1      32.534  29.313  27.437  1.00  0.00     0.018 A 
ATOM     12  C   UNL A   1      34.578  28.601  26.354  1.00  0.00     0.018 A 
BRANCH   8  13
ATOM     13  N   UNL A   1      31.961  26.006  25.890  1.00  0.00    -0.257 N 
ATOM     14  C   UNL A   1      30.593  25.945  25.355  1.00  0.00     0.144 C 
ATOM     15  C   UNL A   1      30.491  24.495  24.865  1.00  0.00     0.091 C 
ATOM     16  C   UNL A   1      31.886  24.014  25.152  1.00  0.00     0.071 C 
ATOM     17  N   UNL A   1      32.691  24.875  25.689  1.00  0.00    -0.176 NA
BRANCH  14  18
ATOM     18  C   UNL A   1      30.341  26.967  24.251  1.00  0.00    -0.019 A 
ATOM     19  C   UNL A   1      29.852  28.984  22.333  1.00  0.00     0.160 A 
ATOM     20  C   UNL A   1      28.788  28.288  22.922  1.00  0.00     0.051 A 
ATOM     21  C   UNL A   1      31.169  28.680  22.694  1.00  0.00     0.161 A 
ATOM     22  C   UNL A   1      29.031  27.282  23.865  1.00  0.00     0.010 A 
ATOM     23  C   UNL A   1      31.396  27.679  23.651  1.00  0.00     0.056 A 
BRANCH  19  24
ATOM     24  O   UNL A   1      29.570  30.048  21.519  1.00  0.00    -0.493 OA
ATOM     25  C   UNL A   1      28.180  30.359  21.483  1.00  0.00     0.278 C 
ENDBRANCH  19  24
BRANCH  21  26
ATOM     26  O   UNL A   1      32.327  29.265  22.253  1.00  0.00    -0.493 OA
ATOM     27  C   UNL A   1      33.520  28.497  22.295  1.00  0.00     0.278 C 
ENDBRANCH  21  26
ENDBRANCH  14  18
BRANCH  16  28
ATOM     28  C   UNL A   1      32.266  22.618  24.895  1.00  0.00    -0.002 A 
ATOM     29  C   UNL A   1      32.693  21.836  25.975  1.00  0.00     0.011 A 
ATOM     30  C   UNL A   1      32.174  22.074  23.612  1.00  0.00     0.011 A 
ATOM     31  C   UNL A   1      33.006  20.490  25.777  1.00  0.00     0.021 A 
ATOM     32  C   UNL A   1      32.513  20.734  23.406  1.00  0.00     0.021 A 
ATOM     33  C   UNL A   1      32.924  19.949  24.490  1.00  0.00     0.067 A 
BRANCH  33  34
ATOM     34  S   UNL A   1      33.307  18.229  24.247  1.00  0.00     0.175 S 
ATOM     35  C   UNL A   1      32.703  17.427  25.709  1.00  0.00     0.163 C 
ATOM     36  O   UNL A   1      32.519  17.778  23.117  1.00  0.00    -0.224 OA
ATOM     37  O   UNL A   1      34.753  18.097  24.245  1.00  0.00    -0.224 OA
ENDBRANCH  33  34
ENDBRANCH  16  28
ENDBRANCH   8  13
ENDBRANCH   5   7
ENDBRANCH   4   5
ENDBRANCH   3   4
ENDBRANCH   2   3
ENDBRANCH   1   2
BRANCH   1  38
ATOM     38  C   UNL A   1      34.473  33.103  32.319  1.00  0.00     0.202 C 
BRANCH  38  39
ATOM     39  C   UNL A   1      34.867  33.161  33.800  1.00  0.00     0.261 C 
BRANCH  39  40
ATOM     40  O   UNL A   1      35.880  32.192  34.125  1.00  0.00    -0.460 OA
BRANCH  40  41
ATOM     41  C   UNL A   1      37.007  32.706  34.667  1.00  0.00     0.338 C 
ATOM     42  O   UNL A   1      37.166  33.081  35.823  1.00  0.00    -0.246 OA
BRANCH  41  43
ATOM     43  C   UNL A   1      38.123  32.592  33.711  1.00  0.00     0.060 A 
ATOM     44  C   UNL A   1      39.263  31.891  34.126  1.00  0.00     0.016 A 
ATOM     45  C   UNL A   1      38.084  33.201  32.453  1.00  0.00     0.016 A 
ATOM     46  C   UNL A   1      40.388  31.841  33.307  1.00  0.00     0.010 A 
ATOM     47  C   UNL A   1      39.218  33.155  31.636  1.00  0.00     0.010 A 
ATOM     48  C   UNL A   1      40.387  32.505  32.073  1.00  0.00    -0.014 A 
BRANCH  48  49
ATOM     49  C   UNL A   1      41.652  32.639  31.309  1.00  0.00     0.031 A 
ATOM     50  C   UNL A   1      42.432  33.921  31.408  1.00  0.00     0.074 A 
ATOM     51  C   UNL A   1      42.113  31.622  30.559  1.00  0.00     0.049 A 
ATOM     52  N   UNL A   1      43.540  34.267  30.807  1.00  0.00    -0.248 NA
ATOM     53  C   UNL A   1      41.885  34.953  32.304  1.00  0.00     0.031 C 
ATOM     54  C   UNL A   1      41.467  30.319  30.415  1.00  0.00     0.029 A 
ATOM     55  N   UNL A   1      43.234  31.531  29.772  1.00  0.00    -0.354 N 
ATOM     56  C   UNL A   1      43.822  35.556  31.244  1.00  0.00     0.074 A 
ATOM     57  C   UNL A   1      42.750  35.943  32.136  1.00  0.00     0.031 C 
ATOM     58  C   UNL A   1      42.198  29.559  29.582  1.00  0.00     0.029 A 
ATOM     59  C   UNL A   1      43.346  30.332  29.110  1.00  0.00     0.049 A 
ATOM     60  H   UNL A   1      43.895  32.256  29.689  1.00  0.00     0.167 HD
ATOM     61  C   UNL A   1      44.883  36.342  30.938  1.00  0.00     0.037 A 
ATOM     62  C   UNL A   1      44.260  29.915  28.213  1.00  0.00     0.037 A 
ATOM     63  C   UNL A   1      45.946  35.950  30.048  1.00  0.00     0.049 A 
ATOM     64  C   UNL A   1      45.396  30.829  27.834  1.00  0.00     0.074 A 
ATOM     65  C   UNL A   1      47.073  36.666  29.687  1.00  0.00     0.029 A 
ATOM     66  N   UNL A   1      46.009  34.740  29.373  1.00  0.00    -0.354 N 
ATOM     67  N   UNL A   1      45.662  32.038  28.271  1.00  0.00    -0.248 NA
ATOM     68  C   UNL A   1      46.357  30.323  26.844  1.00  0.00     0.031 C 
ATOM     69  C   UNL A   1      47.792  35.910  28.755  1.00  0.00     0.029 A 
ATOM     70  C   UNL A   1      47.141  34.699  28.576  1.00  0.00     0.049 A 
ATOM     71  H   UNL A   1      45.345  34.016  29.448  1.00  0.00     0.167 HD
ATOM     72  C   UNL A   1      46.835  32.425  27.630  1.00  0.00     0.074 A 
ATOM     73  C   UNL A   1      47.231  31.319  26.782  1.00  0.00     0.031 C 
ATOM     74  C   UNL A   1      47.525  33.589  27.738  1.00  0.00     0.037 A 
BRANCH  61  75
ATOM     75  C   UNL A   1      44.927  37.715  31.550  1.00  0.00     0.058 A 
ATOM     76  C   UNL A   1      45.619  37.973  32.744  1.00  0.00     0.135 A 
ATOM     77  C   UNL A   1      44.280  38.793  30.924  1.00  0.00     0.135 A 
ATOM     78  F   UNL A   1      46.242  36.976  33.394  1.00  0.00    -0.206 F 
ATOM     79  C   UNL A   1      45.638  39.242  33.316  1.00  0.00     0.059 A 
ATOM     80  C   UNL A   1      44.309  40.077  31.463  1.00  0.00     0.059 A 
ATOM     81  F   UNL A   1      43.603  38.604  29.780  1.00  0.00    -0.206 F 
ATOM     82  C   UNL A   1      44.976  40.286  32.669  1.00  0.00     0.060 A 
BRANCH  82  83
ATOM     83  S   UNL A   1      44.998  41.924  33.429  1.00  0.00     0.124 S 
ATOM     84  O   UNL A   1      46.349  41.971  33.979  1.00  0.00    -0.237 OA
ATOM     85  O   UNL A   1      44.747  42.801  32.289  1.00  0.00    -0.237 OA
ATOM     86  O   UNL A   1      43.922  41.858  34.412  1.00  0.00    -0.744 OA
ENDBRANCH  82  83
ENDBRANCH  61  75
BRANCH  62  87
ATOM     87  C   UNL A   1      44.137  28.561  27.607  1.00  0.00     0.058 A 
ATOM     88  C   UNL A   1      44.898  27.484  28.080  1.00  0.00     0.135 A 
ATOM     89  C   UNL A   1      43.240  28.317  26.554  1.00  0.00     0.135 A 
ATOM     90  F   UNL A   1      45.777  27.670  29.076  1.00  0.00    -0.206 F 
ATOM     91  C   UNL A   1      44.781  26.211  27.529  1.00  0.00     0.059 A 
ATOM     92  C   UNL A   1      43.088  27.050  26.003  1.00  0.00     0.059 A 
ATOM     93  F   UNL A   1      42.482  29.314  26.071  1.00  0.00    -0.206 F 
ATOM     94  C   UNL A   1      43.867  26.003  26.494  1.00  0.00     0.060 A 
BRANCH  94  95
ATOM     95  S   UNL A   1      43.675  24.334  25.831  1.00  0.00     0.124 S 
ATOM     96  O   UNL A   1      44.219  23.523  26.913  1.00  0.00    -0.237 OA
ATOM     97  O   UNL A   1      42.233  24.249  25.629  1.00  0.00    -0.237 OA
ATOM     98  O   UNL A   1      44.471  24.367  24.606  1.00  0.00    -0.744 OA
ENDBRANCH  94  95
ENDBRANCH  62  87
BRANCH  74  99
ATOM     99  C   UNL A   1      48.799  33.719  26.947  1.00  0.00     0.058 A 
ATOM    100  C   UNL A   1      48.846  34.420  25.731  1.00  0.00     0.135 A 
ATOM    101  C   UNL A   1      49.998  33.181  27.440  1.00  0.00     0.135 A 
ATOM    102  F   UNL A   1      47.728  34.948  25.211  1.00  0.00    -0.206 F 
ATOM    103  C   UNL A   1      50.035  34.563  25.022  1.00  0.00     0.059 A 
ATOM    104  C   UNL A   1      51.203  33.337  26.762  1.00  0.00     0.059 A 
ATOM    105  F   UNL A   1      50.012  32.512  28.604  1.00  0.00    -0.206 F 
ATOM    106  C   UNL A   1      51.210  34.020  25.547  1.00  0.00     0.060 A 
BRANCH 106 107
ATOM    107  S   UNL A   1      52.752  34.242  24.634  1.00  0.00     0.124 S 
ATOM    108  O   UNL A   1      53.715  33.603  25.524  1.00  0.00    -0.237 OA
ATOM    109  O   UNL A   1      52.479  33.539  23.384  1.00  0.00    -0.237 OA
ATOM    110  O   UNL A   1      52.871  35.692  24.517  1.00  0.00    -0.744 OA
ENDBRANCH 106 107
ENDBRANCH  74  99
ENDBRANCH  48  49
ENDBRANCH  41  43
ENDBRANCH  40  41
ENDBRANCH  39  40
ENDBRANCH  38  39
ENDBRANCH   1  38
TORSDOF 23
ENDMDL
MODEL 2
REMARK VINA RESULT:     -10.1      2.208      3.170
REMARK SMILES COc1ccc([C@H]2CC(c3ccc(S(C)(=O)=O)cc3)=NN2c2ccc(C(=O)OCCOCCOC(=O)c3ccc(-c4c5nc(c(-c6c(F)cc(S(=O)(=O)[O-])cc6F)c6ccc([nH]6)c(-c6c(F)cc(S(=O)(=O)[O-])cc6F)c6nc(c(-c7c(F)cc(S(=O)(=O)[O-])cc7F)c7ccc4[nH]7)C=C6)C=C5)cc3)cc2)cc1OC
REMARK SMILES IDX 31 1 30 2 29 3 28 4 26 5 27 6 25 7 22 8 23 9 104 10 24 11
REMARK SMILES IDX 103 12 21 13 7 14 8 15 9 16 20 17 6 18 3 19 4 20 106 21 5 22
REMARK SMILES IDX 105 23 2 24 1 25 107 26 108 27 10 28 11 29 19 30 12 31 18 32
REMARK SMILES IDX 13 33 14 34 15 35 16 36 17 37 32 38 33 39 34 40 35 41 36 42
REMARK SMILES IDX 37 43 38 44 102 45 39 46 101 47 40 48 41 49 42 50 95 51
REMARK SMILES IDX 43 52 100 53 94 54 96 55 44 56 99 57 93 58 92 59 45 61 79 62
REMARK SMILES IDX 58 63 78 64 59 65 62 66 77 67 97 68 60 69 61 70 76 72 98 73
REMARK SMILES IDX 63 74 46 75 47 76 56 77 48 78 49 79 55 80 57 81 50 82 51 83
REMARK SMILES IDX 52 84 53 85 54 86 80 87 81 88 90 89 82 90 83 91 89 92 91 93
REMARK SMILES IDX 84 94 85 95 86 96 87 97 88 98 64 99 65 100 74 101 66 102
REMARK SMILES IDX 67 103 73 104 75 105 68 106 69 107 70 108 71 109 72 110
REMARK H PARENT 96 60 62 71
REMARK Flexibility Score: inf
ROOT
ATOM      1  O   UNL A   1      36.408  29.528  31.703  1.00  0.00    -0.374 OA
ENDROOT
BRANCH   1   2
ATOM      2  C   UNL A   1      36.639  29.491  30.295  1.00  0.00     0.202 C 
BRANCH   2   3
ATOM      3  C   UNL A   1      36.203  30.727  29.503  1.00  0.00     0.261 C 
BRANCH   3   4
ATOM      4  O   UNL A   1      35.768  30.380  28.179  1.00  0.00    -0.460 OA
BRANCH   4   5
ATOM      5  C   UNL A   1      34.460  30.623  27.928  1.00  0.00     0.338 C 
ATOM      6  O   UNL A   1      33.875  31.690  28.060  1.00  0.00    -0.246 OA
BRANCH   5   7
ATOM      7  C   UNL A   1      33.825  29.438  27.309  1.00  0.00     0.060 A 
ATOM      8  C   UNL A   1      32.550  27.122  26.350  1.00  0.00     0.060 A 
ATOM      9  C   UNL A   1      31.852  28.046  27.137  1.00  0.00     0.029 A 
ATOM     10  C   UNL A   1      33.871  27.422  25.981  1.00  0.00     0.029 A 
ATOM     11  C   UNL A   1      32.491  29.180  27.639  1.00  0.00     0.018 A 
ATOM     12  C   UNL A   1      34.506  28.582  26.440  1.00  0.00     0.018 A 
BRANCH   8  13
ATOM     13  N   UNL A   1      31.972  25.900  26.020  1.00  0.00    -0.257 N 
ATOM     14  C   UNL A   1      30.623  25.809  25.443  1.00  0.00     0.144 C 
ATOM     15  C   UNL A   1      30.562  24.353  24.963  1.00  0.00     0.091 C 
ATOM     16  C   UNL A   1      31.956  23.900  25.299  1.00  0.00     0.071 C 
ATOM     17  N   UNL A   1      32.728  24.780  25.854  1.00  0.00    -0.176 NA
BRANCH  14  18
ATOM     18  C   UNL A   1      30.388  26.817  24.321  1.00  0.00    -0.019 A 
ATOM     19  C   UNL A   1      29.934  28.809  22.369  1.00  0.00     0.160 A 
ATOM     20  C   UNL A   1      28.859  28.141  22.969  1.00  0.00     0.051 A 
ATOM     21  C   UNL A   1      31.246  28.489  22.736  1.00  0.00     0.161 A 
ATOM     22  C   UNL A   1      29.084  27.147  23.929  1.00  0.00     0.010 A 
ATOM     23  C   UNL A   1      31.456  27.500  23.709  1.00  0.00     0.056 A 
BRANCH  19  24
ATOM     24  O   UNL A   1      29.670  29.864  21.537  1.00  0.00    -0.493 OA
ATOM     25  C   UNL A   1      28.275  30.120  21.400  1.00  0.00     0.278 C 
ENDBRANCH  19  24
BRANCH  21  26
ATOM     26  O   UNL A   1      32.413  29.047  22.285  1.00  0.00    -0.493 OA
ATOM     27  C   UNL A   1      33.563  28.218  22.211  1.00  0.00     0.278 C 
ENDBRANCH  21  26
ENDBRANCH  14  18
BRANCH  16  28
ATOM     28  C   UNL A   1      32.368  22.509  25.068  1.00  0.00    -0.002 A 
ATOM     29  C   UNL A   1      33.073  21.847  26.081  1.00  0.00     0.011 A 
ATOM     30  C   UNL A   1      32.040  21.851  23.881  1.00  0.00     0.011 A 
ATOM     31  C   UNL A   1      33.429  20.507  25.918  1.00  0.00     0.021 A 
ATOM     32  C   UNL A   1      32.420  20.517  23.703  1.00  0.00     0.021 A 
ATOM     33  C   UNL A   1      33.109  19.853  24.724  1.00  0.00     0.067 A 
BRANCH  33  34
ATOM     34  S   UNL A   1      33.551  18.141  24.529  1.00  0.00     0.175 S 
ATOM     35  C   UNL A   1      32.891  17.688  22.946  1.00  0.00     0.163 C 
ATOM     36  O   UNL A   1      34.997  18.085  24.456  1.00  0.00    -0.224 OA
ATOM     37  O   UNL A   1      32.827  17.383  25.534  1.00  0.00    -0.224 OA
ENDBRANCH  33  34
ENDBRANCH  16  28
ENDBRANCH   8  13
ENDBRANCH   5   7
ENDBRANCH   4   5
ENDBRANCH   3   4
ENDBRANCH   2   3
ENDBRANCH   1   2
BRANCH   1  38
ATOM     38  C   UNL A   1      36.979  30.625  32.420  1.00  0.00     0.202 C 
BRANCH  38  39
ATOM     39  C   UNL A   1      38.423  30.444  32.901  1.00  0.00     0.261 C 
BRANCH  39  40
ATOM     40  O   UNL A   1      38.791  31.430  33.882  1.00  0.00    -0.460 OA
BRANCH  40  41
ATOM     41  C   UNL A   1      38.911  32.691  33.408  1.00  0.00     0.338 C 
ATOM     42  O   UNL A   1      38.213  33.656  33.694  1.00  0.00    -0.246 OA
BRANCH  41  43
ATOM     43  C   UNL A   1      40.142  32.813  32.607  1.00  0.00     0.060 A 
ATOM     44  C   UNL A   1      41.366  32.749  33.287  1.00  0.00     0.016 A 
ATOM     45  C   UNL A   1      40.109  33.039  31.229  1.00  0.00     0.016 A 
ATOM     46  C   UNL A   1      42.558  32.964  32.600  1.00  0.00     0.010 A 
ATOM     47  C   UNL A   1      41.307  33.261  30.543  1.00  0.00     0.010 A 
ATOM     48  C   UNL A   1      42.534  33.260  31.231  1.00  0.00    -0.014 A 
BRANCH  48  49
ATOM     49  C   UNL A   1      43.777  33.706  30.553  1.00  0.00     0.031 A 
ATOM     50  C   UNL A   1      44.114  35.172  30.539  1.00  0.00     0.074 A 
ATOM     51  C   UNL A   1      44.607  32.815  29.982  1.00  0.00     0.049 A 
ATOM     52  N   UNL A   1      45.125  35.786  29.983  1.00  0.00    -0.248 NA
ATOM     53  C   UNL A   1      43.181  36.066  31.246  1.00  0.00     0.031 C 
ATOM     54  C   UNL A   1      44.408  31.367  29.965  1.00  0.00     0.029 A 
ATOM     55  N   UNL A   1      45.784  33.002  29.302  1.00  0.00    -0.354 N 
ATOM     56  C   UNL A   1      44.950  37.136  30.265  1.00  0.00     0.074 A 
ATOM     57  C   UNL A   1      43.718  37.255  31.014  1.00  0.00     0.031 C 
ATOM     58  C   UNL A   1      45.425  30.795  29.298  1.00  0.00     0.029 A 
ATOM     59  C   UNL A   1      46.330  31.837  28.816  1.00  0.00     0.049 A 
ATOM     60  H   UNL A   1      46.198  33.886  29.173  1.00  0.00     0.167 HD
ATOM     61  C   UNL A   1      45.749  38.180  29.937  1.00  0.00     0.037 A 
ATOM     62  C   UNL A   1      47.423  31.640  28.053  1.00  0.00     0.037 A 
ATOM     63  C   UNL A   1      46.975  38.055  29.191  1.00  0.00     0.049 A 
ATOM     64  C   UNL A   1      48.262  32.822  27.643  1.00  0.00     0.074 A 
ATOM     65  C   UNL A   1      47.864  39.048  28.823  1.00  0.00     0.029 A 
ATOM     66  N   UNL A   1      47.478  36.863  28.689  1.00  0.00    -0.354 N 
ATOM     67  N   UNL A   1      48.097  34.091  27.934  1.00  0.00    -0.248 NA
ATOM     68  C   UNL A   1      49.437  32.546  26.805  1.00  0.00     0.031 C 
ATOM     69  C   UNL A   1      48.880  38.465  28.057  1.00  0.00     0.029 A 
ATOM     70  C   UNL A   1      48.652  37.100  27.993  1.00  0.00     0.049 A 
ATOM     71  H   UNL A   1      47.062  35.979  28.810  1.00  0.00     0.167 HD
ATOM     72  C   UNL A   1      49.161  34.761  27.338  1.00  0.00     0.074 A 
ATOM     73  C   UNL A   1      49.968  33.755  26.677  1.00  0.00     0.031 C 
ATOM     74  C   UNL A   1      49.447  36.087  27.342  1.00  0.00     0.037 A 
BRANCH  61  75
ATOM     75  C   UNL A   1      45.304  39.553  30.363  1.00  0.00     0.058 A 
ATOM     76  C   UNL A   1      44.490  40.354  29.547  1.00  0.00     0.135 A 
ATOM     77  C   UNL A   1      45.687  40.069  31.612  1.00  0.00     0.135 A 
ATOM     78  F   UNL A   1      44.108  39.918  28.336  1.00  0.00    -0.206 F 
ATOM     79  C   UNL A   1      44.100  41.631  29.938  1.00  0.00     0.059 A 
ATOM     80  C   UNL A   1      45.285  41.332  32.036  1.00  0.00     0.059 A 
ATOM     81  F   UNL A   1      46.466  39.346  32.432  1.00  0.00    -0.206 F 
ATOM     82  C   UNL A   1      44.506  42.113  31.183  1.00  0.00     0.060 A 
BRANCH  82  83
ATOM     83  S   UNL A   1      44.004  43.777  31.672  1.00  0.00     0.124 S 
ATOM     84  O   UNL A   1      45.205  44.256  32.349  1.00  0.00    -0.237 OA
ATOM     85  O   UNL A   1      43.707  44.404  30.388  1.00  0.00    -0.237 OA
ATOM     86  O   UNL A   1      42.849  43.545  32.533  1.00  0.00    -0.744 OA
ENDBRANCH  82  83
ENDBRANCH  61  75
BRANCH  62  87
ATOM     87  C   UNL A   1      47.786  30.262  27.626  1.00  0.00     0.058 A 
ATOM     88  C   UNL A   1      47.241  29.696  26.466  1.00  0.00     0.135 A 
ATOM     89  C   UNL A   1      48.702  29.493  28.363  1.00  0.00     0.135 A 
ATOM     90  F   UNL A   1      46.354  30.387  25.735  1.00  0.00    -0.206 F 
ATOM     91  C   UNL A   1      47.585  28.412  26.050  1.00  0.00     0.059 A 
ATOM     92  C   UNL A   1      49.078  28.217  27.956  1.00  0.00     0.059 A 
ATOM     93  F   UNL A   1      49.258  29.993  29.477  1.00  0.00    -0.206 F 
ATOM     94  C   UNL A   1      48.510  27.683  26.800  1.00  0.00     0.060 A 
BRANCH  94  95
ATOM     95  S   UNL A   1      48.998  26.045  26.217  1.00  0.00     0.124 S 
ATOM     96  O   UNL A   1      50.394  26.264  25.858  1.00  0.00    -0.237 OA
ATOM     97  O   UNL A   1      48.763  25.218  27.396  1.00  0.00    -0.237 OA
ATOM     98  O   UNL A   1      48.089  25.803  25.100  1.00  0.00    -0.744 OA
ENDBRANCH  94  95
ENDBRANCH  62  87
BRANCH  74  99
ATOM     99  C   UNL A   1      50.703  36.530  26.638  1.00  0.00     0.058 A 
ATOM    100  C   UNL A   1      51.911  36.716  27.328  1.00  0.00     0.135 A 
ATOM    101  C   UNL A   1      50.707  36.718  25.247  1.00  0.00     0.135 A 
ATOM    102  F   UNL A   1      51.961  36.556  28.659  1.00  0.00    -0.206 F 
ATOM    103  C   UNL A   1      53.075  37.094  26.665  1.00  0.00     0.059 A 
ATOM    104  C   UNL A   1      51.866  37.069  24.560  1.00  0.00     0.059 A 
ATOM    105  F   UNL A   1      49.582  36.543  24.537  1.00  0.00    -0.206 F 
ATOM    106  C   UNL A   1      53.042  37.266  25.279  1.00  0.00     0.060 A 
BRANCH 106 107
ATOM    107  S   UNL A   1      54.567  37.723  24.427  1.00  0.00     0.124 S 
ATOM    108  O   UNL A   1      54.294  37.264  23.069  1.00  0.00    -0.237 OA
ATOM    109  O   UNL A   1      54.607  39.170  24.611  1.00  0.00    -0.237 OA
ATOM    110  O   UNL A   1      55.595  36.979  25.146  1.00  0.00    -0.744 OA
ENDBRANCH 106 107
ENDBRANCH  74  99
ENDBRANCH  48  49
ENDBRANCH  41  43
ENDBRANCH  40  41
ENDBRANCH  39  40
ENDBRANCH  38  39
ENDBRANCH   1  38
TORSDOF 23
ENDMDL
MODEL 3
REMARK VINA RESULT:     -10.1      4.959      9.145
REMARK SMILES COc1ccc([C@H]2CC(c3ccc(S(C)(=O)=O)cc3)=NN2c2ccc(C(=O)OCCOCCOC(=O)c3ccc(-c4c5nc(c(-c6c(F)cc(S(=O)(=O)[O-])cc6F)c6ccc([nH]6)c(-c6c(F)cc(S(=O)(=O)[O-])cc6F)c6nc(c(-c7c(F)cc(S(=O)(=O)[O-])cc7F)c7ccc4[nH]7)C=C6)C=C5)cc3)cc2)cc1OC
REMARK SMILES IDX 31 1 30 2 29 3 28 4 26 5 27 6 25 7 22 8 23 9 104 10 24 11
REMARK SMILES IDX 103 12 21 13 7 14 8 15 9 16 20 17 6 18 3 19 4 20 106 21 5 22
REMARK SMILES IDX 105 23 2 24 1 25 107 26 108 27 10 28 11 29 19 30 12 31 18 32
REMARK SMILES IDX 13 33 14 34 15 35 16 36 17 37 32 38 33 39 34 40 35 41 36 42
REMARK SMILES IDX 37 43 38 44 102 45 39 46 101 47 40 48 41 49 42 50 95 51
REMARK SMILES IDX 43 52 100 53 94 54 96 55 44 56 99 57 93 58 92 59 45 61 79 62
REMARK SMILES IDX 58 63 78 64 59 65 62 66 77 67 97 68 60 69 61 70 76 72 98 73
REMARK SMILES IDX 63 74 46 75 47 76 56 77 48 78 49 79 55 80 57 81 50 82 51 83
REMARK SMILES IDX 52 84 53 85 54 86 80 87 81 88 90 89 82 90 83 91 89 92 91 93
REMARK SMILES IDX 84 94 85 95 86 96 87 97 88 98 64 99 65 100 74 101 66 102
REMARK SMILES IDX 67 103 73 104 75 105 68 106 69 107 70 108 71 109 72 110
REMARK H PARENT 96 60 62 71
REMARK Flexibility Score: inf
ROOT
ATOM      1  O   UNL A   1      42.459  21.308  25.403  1.00  0.00    -0.374 OA
ENDROOT
BRANCH   1   2
ATOM      2  C   UNL A   1      41.524  21.033  26.446  1.00  0.00     0.202 C 
BRANCH   2   3
ATOM      3  C   UNL A   1      40.049  20.976  26.037  1.00  0.00     0.261 C 
BRANCH   3   4
ATOM      4  O   UNL A   1      39.246  21.860  26.835  1.00  0.00    -0.460 OA
BRANCH   4   5
ATOM      5  C   UNL A   1      39.161  23.128  26.369  1.00  0.00     0.338 C 
ATOM      6  O   UNL A   1      40.069  23.945  26.299  1.00  0.00    -0.246 OA
BRANCH   5   7
ATOM      7  C   UNL A   1      37.820  23.376  25.793  1.00  0.00     0.060 A 
ATOM      8  C   UNL A   1      35.382  23.949  24.514  1.00  0.00     0.060 A 
ATOM      9  C   UNL A   1      36.385  23.235  23.849  1.00  0.00     0.029 A 
ATOM     10  C   UNL A   1      35.588  24.295  25.859  1.00  0.00     0.029 A 
ATOM     11  C   UNL A   1      37.607  22.976  24.470  1.00  0.00     0.018 A 
ATOM     12  C   UNL A   1      36.793  23.997  26.508  1.00  0.00     0.018 A 
BRANCH   8  13
ATOM     13  N   UNL A   1      34.249  24.378  23.828  1.00  0.00    -0.257 N 
ATOM     14  C   UNL A   1      33.403  23.447  23.067  1.00  0.00     0.144 C 
ATOM     15  C   UNL A   1      32.154  24.290  22.780  1.00  0.00     0.091 C 
ATOM     16  C   UNL A   1      32.504  25.552  23.519  1.00  0.00     0.071 C 
ATOM     17  N   UNL A   1      33.653  25.567  24.117  1.00  0.00    -0.176 NA
BRANCH  14  18
ATOM     18  C   UNL A   1      33.094  22.164  23.833  1.00  0.00    -0.019 A 
ATOM     19  C   UNL A   1      32.690  19.738  25.223  1.00  0.00     0.160 A 
ATOM     20  C   UNL A   1      32.540  19.795  23.831  1.00  0.00     0.051 A 
ATOM     21  C   UNL A   1      33.042  20.890  25.935  1.00  0.00     0.161 A 
ATOM     22  C   UNL A   1      32.731  20.999  23.144  1.00  0.00     0.010 A 
ATOM     23  C   UNL A   1      33.243  22.087  25.231  1.00  0.00     0.056 A 
BRANCH  19  24
ATOM     24  O   UNL A   1      32.628  18.517  25.840  1.00  0.00    -0.493 OA
ATOM     25  C   UNL A   1      32.217  17.475  24.959  1.00  0.00     0.278 C 
ENDBRANCH  19  24
BRANCH  21  26
ATOM     26  O   UNL A   1      33.259  21.023  27.281  1.00  0.00    -0.493 OA
ATOM     27  C   UNL A   1      33.249  22.331  27.832  1.00  0.00     0.278 C 
ENDBRANCH  21  26
ENDBRANCH  14  18
BRANCH  16  28
ATOM     28  C   UNL A   1      31.606  26.714  23.486  1.00  0.00    -0.002 A 
ATOM     29  C   UNL A   1      31.822  27.748  24.406  1.00  0.00     0.011 A 
ATOM     30  C   UNL A   1      30.582  26.803  22.541  1.00  0.00     0.011 A 
ATOM     31  C   UNL A   1      31.024  28.892  24.364  1.00  0.00     0.021 A 
ATOM     32  C   UNL A   1      29.764  27.936  22.515  1.00  0.00     0.021 A 
ATOM     33  C   UNL A   1      29.992  28.975  23.424  1.00  0.00     0.067 A 
BRANCH  33  34
ATOM     34  S   UNL A   1      28.990  30.444  23.365  1.00  0.00     0.175 S 
ATOM     35  C   UNL A   1      29.161  31.033  21.701  1.00  0.00     0.163 C 
ATOM     36  O   UNL A   1      27.617  30.024  23.565  1.00  0.00    -0.224 OA
ATOM     37  O   UNL A   1      29.601  31.428  24.239  1.00  0.00    -0.224 OA
ENDBRANCH  33  34
ENDBRANCH  16  28
ENDBRANCH   8  13
ENDBRANCH   5   7
ENDBRANCH   4   5
ENDBRANCH   3   4
ENDBRANCH   2   3
ENDBRANCH   1   2
BRANCH   1  38
ATOM     38  C   UNL A   1      43.845  21.193  25.735  1.00  0.00     0.202 C 
BRANCH  38  39
ATOM     39  C   UNL A   1      44.695  22.455  25.548  1.00  0.00     0.261 C 
BRANCH  39  40
ATOM     40  O   UNL A   1      45.446  22.778  26.732  1.00  0.00    -0.460 OA
BRANCH  40  41
ATOM     41  C   UNL A   1      44.850  23.665  27.562  1.00  0.00     0.338 C 
ATOM     42  O   UNL A   1      43.994  23.425  28.404  1.00  0.00    -0.246 OA
BRANCH  41  43
ATOM     43  C   UNL A   1      45.508  24.979  27.451  1.00  0.00     0.060 A 
ATOM     44  C   UNL A   1      45.587  25.558  26.177  1.00  0.00     0.016 A 
ATOM     45  C   UNL A   1      46.083  25.614  28.555  1.00  0.00     0.016 A 
ATOM     46  C   UNL A   1      46.289  26.747  25.993  1.00  0.00     0.010 A 
ATOM     47  C   UNL A   1      46.793  26.804  28.366  1.00  0.00     0.010 A 
ATOM     48  C   UNL A   1      46.929  27.357  27.079  1.00  0.00    -0.014 A 
BRANCH  48  49
ATOM     49  C   UNL A   1      47.856  28.492  26.843  1.00  0.00     0.031 A 
ATOM     50  C   UNL A   1      47.318  29.896  26.894  1.00  0.00     0.074 A 
ATOM     51  C   UNL A   1      49.163  28.275  26.613  1.00  0.00     0.049 A 
ATOM     52  N   UNL A   1      47.936  31.029  26.689  1.00  0.00    -0.248 NA
ATOM     53  C   UNL A   1      45.889  30.039  27.218  1.00  0.00     0.031 C 
ATOM     54  C   UNL A   1      49.808  26.964  26.578  1.00  0.00     0.029 A 
ATOM     55  N   UNL A   1      50.182  29.159  26.359  1.00  0.00    -0.354 N 
ATOM     56  C   UNL A   1      46.975  32.020  26.851  1.00  0.00     0.074 A 
ATOM     57  C   UNL A   1      45.724  31.351  27.139  1.00  0.00     0.031 C 
ATOM     58  C   UNL A   1      51.115  27.128  26.309  1.00  0.00     0.029 A 
ATOM     59  C   UNL A   1      51.392  28.552  26.123  1.00  0.00     0.049 A 
ATOM     60  H   UNL A   1      50.058  30.136  26.348  1.00  0.00     0.167 HD
ATOM     61  C   UNL A   1      47.122  33.365  26.776  1.00  0.00     0.037 A 
ATOM     62  C   UNL A   1      52.581  29.084  25.778  1.00  0.00     0.037 A 
ATOM     63  C   UNL A   1      48.370  34.024  26.487  1.00  0.00     0.049 A 
ATOM     64  C   UNL A   1      52.709  30.577  25.633  1.00  0.00     0.074 A 
ATOM     65  C   UNL A   1      48.629  35.381  26.406  1.00  0.00     0.029 A 
ATOM     66  N   UNL A   1      49.567  33.374  26.223  1.00  0.00    -0.354 N 
ATOM     67  N   UNL A   1      51.797  31.505  25.810  1.00  0.00    -0.248 NA
ATOM     68  C   UNL A   1      54.028  31.099  25.247  1.00  0.00     0.031 C 
ATOM     69  C   UNL A   1      49.969  35.550  26.044  1.00  0.00     0.029 A 
ATOM     70  C   UNL A   1      50.561  34.300  25.952  1.00  0.00     0.049 A 
ATOM     71  H   UNL A   1      49.692  32.397  26.226  1.00  0.00     0.167 HD
ATOM     72  C   UNL A   1      52.438  32.719  25.583  1.00  0.00     0.074 A 
ATOM     73  C   UNL A   1      53.817  32.409  25.264  1.00  0.00     0.031 C 
ATOM     74  C   UNL A   1      51.932  33.977  25.639  1.00  0.00     0.037 A 
BRANCH  61  75
ATOM     75  C   UNL A   1      45.895  34.210  26.982  1.00  0.00     0.058 A 
ATOM     76  C   UNL A   1      44.968  34.434  25.952  1.00  0.00     0.135 A 
ATOM     77  C   UNL A   1      45.635  34.792  28.234  1.00  0.00     0.135 A 
ATOM     78  F   UNL A   1      45.174  33.916  24.731  1.00  0.00    -0.206 F 
ATOM     79  C   UNL A   1      43.845  35.234  26.144  1.00  0.00     0.059 A 
ATOM     80  C   UNL A   1      44.504  35.572  28.457  1.00  0.00     0.059 A 
ATOM     81  F   UNL A   1      46.488  34.611  29.254  1.00  0.00    -0.206 F 
ATOM     82  C   UNL A   1      43.624  35.801  27.400  1.00  0.00     0.060 A 
BRANCH  82  83
ATOM     83  S   UNL A   1      42.171  36.848  27.631  1.00  0.00     0.124 S 
ATOM     84  O   UNL A   1      41.094  35.863  27.593  1.00  0.00    -0.237 OA
ATOM     85  O   UNL A   1      42.427  37.457  28.933  1.00  0.00    -0.237 OA
ATOM     86  O   UNL A   1      42.225  37.762  26.495  1.00  0.00    -0.744 OA
ENDBRANCH  82  83
ENDBRANCH  61  75
BRANCH  62  87
ATOM     87  C   UNL A   1      53.748  28.192  25.542  1.00  0.00     0.058 A 
ATOM     88  C   UNL A   1      53.986  27.626  24.283  1.00  0.00     0.135 A 
ATOM     89  C   UNL A   1      54.660  27.904  26.572  1.00  0.00     0.135 A 
ATOM     90  F   UNL A   1      53.137  27.862  23.271  1.00  0.00    -0.206 F 
ATOM     91  C   UNL A   1      55.083  26.801  24.049  1.00  0.00     0.059 A 
ATOM     92  C   UNL A   1      55.775  27.102  26.357  1.00  0.00     0.059 A 
ATOM     93  F   UNL A   1      54.481  28.428  27.794  1.00  0.00    -0.206 F 
ATOM     94  C   UNL A   1      55.976  26.550  25.092  1.00  0.00     0.060 A 
BRANCH  94  95
ATOM     95  S   UNL A   1      57.430  25.532  24.762  1.00  0.00     0.124 S 
ATOM     96  O   UNL A   1      58.414  26.123  25.661  1.00  0.00    -0.237 OA
ATOM     97  O   UNL A   1      56.957  24.198  25.118  1.00  0.00    -0.237 OA
ATOM     98  O   UNL A   1      57.670  25.744  23.337  1.00  0.00    -0.744 OA
ENDBRANCH  94  95
ENDBRANCH  62  87
BRANCH  74  99
ATOM     99  C   UNL A   1      52.878  35.119  25.382  1.00  0.00     0.058 A 
ATOM    100  C   UNL A   1      53.646  35.689  26.410  1.00  0.00     0.135 A 
ATOM    101  C   UNL A   1      53.057  35.612  24.080  1.00  0.00     0.135 A 
ATOM    102  F   UNL A   1      53.509  35.260  27.673  1.00  0.00    -0.206 F 
ATOM    103  C   UNL A   1      54.542  36.723  26.158  1.00  0.00     0.059 A 
ATOM    104  C   UNL A   1      53.968  36.627  23.801  1.00  0.00     0.059 A 
ATOM    105  F   UNL A   1      52.356  35.096  23.058  1.00  0.00    -0.206 F 
ATOM    106  C   UNL A   1      54.698  37.184  24.848  1.00  0.00     0.060 A 
BRANCH 106 107
ATOM    107  S   UNL A   1      55.890  38.503  24.530  1.00  0.00     0.124 S 
ATOM    108  O   UNL A   1      55.349  39.589  25.340  1.00  0.00    -0.237 OA
ATOM    109  O   UNL A   1      57.139  37.918  25.007  1.00  0.00    -0.237 OA
ATOM    110  O   UNL A   1      55.807  38.695  23.086  1.00  0.00    -0.744 OA
ENDBRANCH 106 107
ENDBRANCH  74  99
ENDBRANCH  48  49
ENDBRANCH  41  43
ENDBRANCH  40  41
ENDBRANCH  39  40
ENDBRANCH  38  39
ENDBRANCH   1  38
TORSDOF 23
ENDMDL
