MODEL 1
REMARK VINA RESULT:     -10.4      0.000      0.000
REMARK SMILES C#CC[N@@H+](CC(=O)OCCOCCOC(=O)c1ccc(-c2c3nc(c(-c4c(F)cc(S(=O)(=O)[O-])cc4F)c4ccc([nH]4)c(-c4c(F)cc(S(=O)(=O)[O-])cc4F)c4nc(c(-c5c(F)cc(S(=O)(=O)[O-])cc5F)c5ccc2[nH]5)C=C4)C=C3)cc1)Cc1ccc(C(C)C)cc1
REMARK SMILES IDX 10 1 9 2 8 3 6 4 7 5 5 6 4 7 3 9 2 10 1 11 83 12 84 13 85 14
REMARK SMILES IDX 92 15 86 16 91 17 87 18 88 19 89 20 90 21 11 22 12 23 13 24
REMARK SMILES IDX 14 25 15 26 16 27 17 28 18 29 82 30 19 31 81 32 20 33 21 34
REMARK SMILES IDX 22 35 75 36 23 37 80 38 74 39 76 40 24 41 79 42 73 43 72 44
REMARK SMILES IDX 25 46 59 47 38 48 58 49 39 50 42 51 57 52 77 53 40 54 41 55
REMARK SMILES IDX 56 57 78 58 43 59 26 60 27 61 36 62 28 63 29 64 35 65 37 66
REMARK SMILES IDX 30 67 31 68 32 69 33 70 34 71 60 72 61 73 70 74 62 75 63 76
REMARK SMILES IDX 69 77 71 78 64 79 65 80 66 81 67 82 68 83 44 84 45 85 54 86
REMARK SMILES IDX 46 87 47 88 53 89 55 90 48 91 49 92 50 93 51 94 52 95
REMARK H PARENT 4 8 76 45 42 56
REMARK Flexibility Score: inf
ROOT
ATOM      1  C   UNL A   1      35.192  24.150  25.655  1.00  0.00     0.202 C 
ENDROOT
BRANCH   1   2
ATOM      2  C   UNL A   1      34.370  25.435  25.379  1.00  0.00     0.261 C 
BRANCH   2   3
ATOM      3  O   UNL A   1      34.096  25.836  24.037  1.00  0.00    -0.459 OA
BRANCH   3   4
ATOM      4  C   UNL A   1      33.465  24.936  23.244  1.00  0.00     0.361 C 
ATOM      5  O   UNL A   1      34.012  24.329  22.327  1.00  0.00    -0.245 OA
BRANCH   4   6
ATOM      6  C   UNL A   1      31.966  24.820  23.529  1.00  0.00     0.387 C 
BRANCH   6   7
ATOM      7  N   UNL A   1      31.512  24.327  24.846  1.00  0.00    -0.312 N 
ATOM      8  H   UNL A   1      32.183  24.802  25.449  1.00  0.00     0.349 HD
BRANCH   7   9
ATOM      9  C   UNL A   1      31.771  22.931  25.110  1.00  0.00     0.354 C 
BRANCH   9  10
ATOM     10  C   UNL A   1      31.976  22.066  23.877  1.00  0.00    -0.047 C 
ATOM     11  C   UNL A   1      32.151  21.323  22.820  1.00  0.00     0.010 C 
ENDBRANCH   9  10
ENDBRANCH   7   9
BRANCH   7  12
ATOM     12  C   UNL A   1      30.315  24.896  25.429  1.00  0.00     0.300 C 
BRANCH  12  13
ATOM     13  C   UNL A   1      29.981  26.276  24.948  1.00  0.00     0.006 A 
ATOM     14  C   UNL A   1      31.168  27.608  25.212  1.00  0.00     0.010 A 
ATOM     15  C   UNL A   1      28.545  26.576  23.890  1.00  0.00     0.010 A 
ATOM     16  C   UNL A   1      30.902  29.215  24.437  1.00  0.00     0.004 A 
ATOM     17  C   UNL A   1      28.298  28.169  23.120  1.00  0.00     0.004 A 
ATOM     18  C   UNL A   1      29.469  29.487  23.387  1.00  0.00    -0.045 A 
BRANCH  18  19
ATOM     19  C   UNL A   1      29.035  30.807  22.819  1.00  0.00     0.013 C 
ATOM     20  C   UNL A   1      28.945  30.765  21.303  1.00  0.00     0.012 C 
ATOM     21  C   UNL A   1      27.767  31.298  23.488  1.00  0.00     0.012 C 
ENDBRANCH  18  19
ENDBRANCH  12  13
ENDBRANCH   7  12
ENDBRANCH   6   7
ENDBRANCH   4   6
ENDBRANCH   3   4
ENDBRANCH   2   3
ENDBRANCH   1   2
BRANCH   1  22
ATOM     22  O   UNL A   1      36.445  23.761  25.082  1.00  0.00    -0.374 OA
BRANCH  22  23
ATOM     23  C   UNL A   1      37.211  22.466  25.447  1.00  0.00     0.202 C 
BRANCH  23  24
ATOM     24  C   UNL A   1      39.247  22.051  26.127  1.00  0.00     0.261 C 
BRANCH  24  25
ATOM     25  O   UNL A   1      40.601  22.889  25.771  1.00  0.00    -0.460 OA
BRANCH  25  26
ATOM     26  C   UNL A   1      41.547  23.110  26.710  1.00  0.00     0.338 C 
ATOM     27  O   UNL A   1      42.627  22.560  26.820  1.00  0.00    -0.246 OA
BRANCH  26  28
ATOM     28  C   UNL A   1      41.227  24.399  27.363  1.00  0.00     0.060 A 
ATOM     29  C   UNL A   1      42.175  25.429  27.234  1.00  0.00     0.016 A 
ATOM     30  C   UNL A   1      40.041  24.613  28.064  1.00  0.00     0.016 A 
ATOM     31  C   UNL A   1      41.956  26.671  27.808  1.00  0.00     0.010 A 
ATOM     32  C   UNL A   1      39.859  25.834  28.721  1.00  0.00     0.010 A 
ATOM     33  C   UNL A   1      40.839  26.840  28.626  1.00  0.00    -0.014 A 
BRANCH  33  34
ATOM     34  C   UNL A   1      40.885  27.924  29.626  1.00  0.00     0.031 A 
ATOM     35  C   UNL A   1      41.959  27.831  30.675  1.00  0.00     0.074 A 
ATOM     36  C   UNL A   1      40.043  28.966  29.560  1.00  0.00     0.049 A 
ATOM     37  N   UNL A   1      42.150  28.563  31.737  1.00  0.00    -0.248 NA
ATOM     38  C   UNL A   1      42.955  26.757  30.500  1.00  0.00     0.031 C 
ATOM     39  C   UNL A   1      39.048  29.181  28.510  1.00  0.00     0.029 A 
ATOM     40  N   UNL A   1      39.881  30.031  30.404  1.00  0.00    -0.354 N 
ATOM     41  C   UNL A   1      43.265  28.020  32.369  1.00  0.00     0.074 A 
ATOM     42  C   UNL A   1      43.706  26.896  31.579  1.00  0.00     0.031 C 
ATOM     43  C   UNL A   1      38.347  30.292  28.796  1.00  0.00     0.029 A 
ATOM     44  C   UNL A   1      38.814  30.830  30.071  1.00  0.00     0.049 A 
ATOM     45  H   UNL A   1      40.470  30.207  31.173  1.00  0.00     0.167 HD
ATOM     46  C   UNL A   1      43.855  28.430  33.515  1.00  0.00     0.037 A 
ATOM     47  C   UNL A   1      38.255  31.844  30.758  1.00  0.00     0.037 A 
ATOM     48  C   UNL A   1      43.376  29.553  34.274  1.00  0.00     0.049 A 
ATOM     49  C   UNL A   1      38.866  32.225  32.082  1.00  0.00     0.074 A 
ATOM     50  C   UNL A   1      43.876  30.077  35.451  1.00  0.00     0.029 A 
ATOM     51  N   UNL A   1      42.270  30.320  33.926  1.00  0.00    -0.354 N 
ATOM     52  N   UNL A   1      39.915  31.708  32.684  1.00  0.00    -0.248 NA
ATOM     53  C   UNL A   1      38.222  33.315  32.823  1.00  0.00     0.031 C 
ATOM     54  C   UNL A   1      43.032  31.120  35.848  1.00  0.00     0.029 A 
ATOM     55  C   UNL A   1      42.047  31.290  34.885  1.00  0.00     0.049 A 
ATOM     56  H   UNL A   1      41.725  30.191  33.117  1.00  0.00     0.167 HD
ATOM     57  C   UNL A   1      40.065  32.418  33.868  1.00  0.00     0.074 A 
ATOM     58  C   UNL A   1      39.013  33.418  33.883  1.00  0.00     0.031 C 
ATOM     59  C   UNL A   1      40.979  32.262  34.860  1.00  0.00     0.037 A 
BRANCH  46  60
ATOM     60  C   UNL A   1      45.023  27.632  34.033  1.00  0.00     0.058 A 
ATOM     61  C   UNL A   1      46.352  27.948  33.707  1.00  0.00     0.135 A 
ATOM     62  C   UNL A   1      44.807  26.536  34.884  1.00  0.00     0.135 A 
ATOM     63  F   UNL A   1      46.621  28.967  32.874  1.00  0.00    -0.206 F 
ATOM     64  C   UNL A   1      47.420  27.197  34.191  1.00  0.00     0.059 A 
ATOM     65  C   UNL A   1      45.861  25.790  35.405  1.00  0.00     0.059 A 
ATOM     66  F   UNL A   1      43.557  26.175  35.219  1.00  0.00    -0.206 F 
ATOM     67  C   UNL A   1      47.165  26.122  35.043  1.00  0.00     0.060 A 
BRANCH  67  68
ATOM     68  S   UNL A   1      48.564  25.173  35.680  1.00  0.00     0.124 S 
ATOM     69  O   UNL A   1      48.395  25.332  37.121  1.00  0.00    -0.237 OA
ATOM     70  O   UNL A   1      48.297  23.838  35.154  1.00  0.00    -0.237 OA
ATOM     71  O   UNL A   1      49.724  25.849  35.108  1.00  0.00    -0.744 OA
ENDBRANCH  67  68
ENDBRANCH  46  60
BRANCH  47  72
ATOM     72  C   UNL A   1      37.040  32.522  30.230  1.00  0.00     0.058 A 
ATOM     73  C   UNL A   1      35.755  32.118  30.619  1.00  0.00     0.135 A 
ATOM     74  C   UNL A   1      37.140  33.613  29.349  1.00  0.00     0.135 A 
ATOM     75  F   UNL A   1      35.604  31.077  31.450  1.00  0.00    -0.206 F 
ATOM     76  C   UNL A   1      34.615  32.766  30.154  1.00  0.00     0.059 A 
ATOM     77  C   UNL A   1      36.017  34.295  28.894  1.00  0.00     0.059 A 
ATOM     78  F   UNL A   1      38.346  34.049  28.950  1.00  0.00    -0.206 F 
ATOM     79  C   UNL A   1      34.757  33.860  29.297  1.00  0.00     0.060 A 
BRANCH  79  80
ATOM     80  S   UNL A   1      33.271  34.729  28.752  1.00  0.00     0.124 S 
ATOM     81  O   UNL A   1      32.670  33.752  27.852  1.00  0.00    -0.237 OA
ATOM     82  O   UNL A   1      32.570  34.952  30.014  1.00  0.00    -0.237 OA
ATOM     83  O   UNL A   1      33.799  35.933  28.117  1.00  0.00    -0.744 OA
ENDBRANCH  79  80
ENDBRANCH  47  72
BRANCH  59  84
ATOM     84  C   UNL A   1      40.881  33.200  36.029  1.00  0.00     0.058 A 
ATOM     85  C   UNL A   1      41.621  34.390  36.078  1.00  0.00     0.135 A 
ATOM     86  C   UNL A   1      39.988  32.934  37.080  1.00  0.00     0.135 A 
ATOM     87  F   UNL A   1      42.493  34.686  35.100  1.00  0.00    -0.206 F 
ATOM     88  C   UNL A   1      41.497  35.276  37.141  1.00  0.00     0.059 A 
ATOM     89  C   UNL A   1      39.822  33.821  38.136  1.00  0.00     0.059 A 
ATOM     90  F   UNL A   1      39.249  31.813  37.074  1.00  0.00    -0.206 F 
ATOM     91  C   UNL A   1      40.590  34.986  38.162  1.00  0.00     0.060 A 
BRANCH  91  92
ATOM     92  S   UNL A   1      40.410  36.168  39.513  1.00  0.00     0.124 S 
ATOM     93  O   UNL A   1      38.979  36.083  39.788  1.00  0.00    -0.237 OA
ATOM     94  O   UNL A   1      41.288  35.606  40.534  1.00  0.00    -0.237 OA
ATOM     95  O   UNL A   1      40.863  37.426  38.926  1.00  0.00    -0.744 OA
ENDBRANCH  91  92
ENDBRANCH  59  84
ENDBRANCH  33  34
ENDBRANCH  26  28
ENDBRANCH  25  26
ENDBRANCH  24  25
ENDBRANCH  23  24
ENDBRANCH  22  23
ENDBRANCH   1  22
TORSDOF 23
ENDMDL
MODEL 2
REMARK VINA RESULT:     -10.3      1.843      2.801
REMARK SMILES C#CC[N@@H+](CC(=O)OCCOCCOC(=O)c1ccc(-c2c3nc(c(-c4c(F)cc(S(=O)(=O)[O-])cc4F)c4ccc([nH]4)c(-c4c(F)cc(S(=O)(=O)[O-])cc4F)c4nc(c(-c5c(F)cc(S(=O)(=O)[O-])cc5F)c5ccc2[nH]5)C=C4)C=C3)cc1)Cc1ccc(C(C)C)cc1
REMARK SMILES IDX 10 1 9 2 8 3 6 4 7 5 5 6 4 7 3 9 2 10 1 11 83 12 84 13 85 14
REMARK SMILES IDX 92 15 86 16 91 17 87 18 88 19 89 20 90 21 11 22 12 23 13 24
REMARK SMILES IDX 14 25 15 26 16 27 17 28 18 29 82 30 19 31 81 32 20 33 21 34
REMARK SMILES IDX 22 35 75 36 23 37 80 38 74 39 76 40 24 41 79 42 73 43 72 44
REMARK SMILES IDX 25 46 59 47 38 48 58 49 39 50 42 51 57 52 77 53 40 54 41 55
REMARK SMILES IDX 56 57 78 58 43 59 26 60 27 61 36 62 28 63 29 64 35 65 37 66
REMARK SMILES IDX 30 67 31 68 32 69 33 70 34 71 60 72 61 73 70 74 62 75 63 76
REMARK SMILES IDX 69 77 71 78 64 79 65 80 66 81 67 82 68 83 44 84 45 85 54 86
REMARK SMILES IDX 46 87 47 88 53 89 55 90 48 91 49 92 50 93 51 94 52 95
REMARK H PARENT 4 8 76 45 42 56
REMARK Flexibility Score: inf
ROOT
ATOM      1  C   UNL A   1      36.859  22.986  25.123  1.00  0.00     0.202 C 
ENDROOT
BRANCH   1   2
ATOM      2  C   UNL A   1      35.393  23.283  25.529  1.00  0.00     0.261 C 
BRANCH   2   3
ATOM      3  O   UNL A   1      34.959  24.631  25.714  1.00  0.00    -0.459 OA
BRANCH   3   4
ATOM      4  C   UNL A   1      33.784  24.982  25.139  1.00  0.00     0.361 C 
ATOM      5  O   UNL A   1      33.661  25.909  24.343  1.00  0.00    -0.245 OA
BRANCH   4   6
ATOM      6  C   UNL A   1      32.589  24.180  25.658  1.00  0.00     0.387 C 
BRANCH   6   7
ATOM      7  N   UNL A   1      31.264  24.358  25.027  1.00  0.00    -0.312 N 
ATOM      8  H   UNL A   1      30.811  23.496  25.330  1.00  0.00     0.349 HD
BRANCH   7   9
ATOM      9  C   UNL A   1      31.242  24.247  23.588  1.00  0.00     0.354 C 
BRANCH   9  10
ATOM     10  C   UNL A   1      31.847  22.971  23.026  1.00  0.00    -0.047 C 
ATOM     11  C   UNL A   1      32.366  21.876  22.544  1.00  0.00     0.010 C 
ENDBRANCH   9  10
ENDBRANCH   7   9
BRANCH   7  12
ATOM     12  C   UNL A   1      30.322  25.276  25.631  1.00  0.00     0.300 C 
BRANCH  12  13
ATOM     13  C   UNL A   1      30.055  26.514  24.828  1.00  0.00     0.006 A 
ATOM     14  C   UNL A   1      28.516  26.642  23.897  1.00  0.00     0.010 A 
ATOM     15  C   UNL A   1      31.113  27.974  24.981  1.00  0.00     0.010 A 
ATOM     16  C   UNL A   1      28.060  28.206  23.123  1.00  0.00     0.004 A 
ATOM     17  C   UNL A   1      30.646  29.520  24.218  1.00  0.00     0.004 A 
ATOM     18  C   UNL A   1      29.127  29.643  23.292  1.00  0.00    -0.045 A 
BRANCH  18  19
ATOM     19  C   UNL A   1      28.961  30.949  22.571  1.00  0.00     0.013 C 
ATOM     20  C   UNL A   1      28.496  30.746  21.139  1.00  0.00     0.012 C 
ATOM     21  C   UNL A   1      28.089  31.903  23.362  1.00  0.00     0.012 C 
ENDBRANCH  18  19
ENDBRANCH  12  13
ENDBRANCH   7  12
ENDBRANCH   6   7
ENDBRANCH   4   6
ENDBRANCH   3   4
ENDBRANCH   2   3
ENDBRANCH   1   2
BRANCH   1  22
ATOM     22  O   UNL A   1      37.625  21.804  25.377  1.00  0.00    -0.374 OA
BRANCH  22  23
ATOM     23  C   UNL A   1      39.082  21.799  25.900  1.00  0.00     0.202 C 
BRANCH  23  24
ATOM     24  C   UNL A   1      40.653  20.281  25.995  1.00  0.00     0.261 C 
BRANCH  24  25
ATOM     25  O   UNL A   1      42.243  20.516  26.274  1.00  0.00    -0.460 OA
BRANCH  25  26
ATOM     26  C   UNL A   1      42.888  21.583  25.754  1.00  0.00     0.338 C 
ATOM     27  O   UNL A   1      43.407  21.675  24.657  1.00  0.00    -0.246 OA
BRANCH  26  28
ATOM     28  C   UNL A   1      42.532  22.759  26.579  1.00  0.00     0.060 A 
ATOM     29  C   UNL A   1      43.013  24.007  26.148  1.00  0.00     0.016 A 
ATOM     30  C   UNL A   1      41.744  22.662  27.726  1.00  0.00     0.016 A 
ATOM     31  C   UNL A   1      42.725  25.162  26.857  1.00  0.00     0.010 A 
ATOM     32  C   UNL A   1      41.528  23.811  28.491  1.00  0.00     0.010 A 
ATOM     33  C   UNL A   1      42.058  25.047  28.076  1.00  0.00    -0.014 A 
BRANCH  33  34
ATOM     34  C   UNL A   1      42.221  26.146  29.048  1.00  0.00     0.031 A 
ATOM     35  C   UNL A   1      43.404  26.062  29.972  1.00  0.00     0.074 A 
ATOM     36  C   UNL A   1      41.381  27.193  29.060  1.00  0.00     0.049 A 
ATOM     37  N   UNL A   1      43.716  26.808  30.994  1.00  0.00    -0.248 NA
ATOM     38  C   UNL A   1      44.370  24.979  29.703  1.00  0.00     0.031 C 
ATOM     39  C   UNL A   1      40.276  27.398  28.124  1.00  0.00     0.029 A 
ATOM     40  N   UNL A   1      41.320  28.271  29.900  1.00  0.00    -0.354 N 
ATOM     41  C   UNL A   1      44.892  26.268  31.506  1.00  0.00     0.074 A 
ATOM     42  C   UNL A   1      45.237  25.129  30.689  1.00  0.00     0.031 C 
ATOM     43  C   UNL A   1      39.617  28.518  28.470  1.00  0.00     0.029 A 
ATOM     44  C   UNL A   1      40.226  29.072  29.676  1.00  0.00     0.049 A 
ATOM     45  H   UNL A   1      41.992  28.454  30.595  1.00  0.00     0.167 HD
ATOM     46  C   UNL A   1      45.609  26.691  32.572  1.00  0.00     0.037 A 
ATOM     47  C   UNL A   1      39.752  30.100  30.405  1.00  0.00     0.037 A 
ATOM     48  C   UNL A   1      45.224  27.828  33.362  1.00  0.00     0.049 A 
ATOM     49  C   UNL A   1      40.510  30.497  31.646  1.00  0.00     0.074 A 
ATOM     50  C   UNL A   1      45.854  28.367  34.467  1.00  0.00     0.029 A 
ATOM     51  N   UNL A   1      44.090  28.597  33.128  1.00  0.00    -0.354 N 
ATOM     52  N   UNL A   1      41.616  29.982  32.135  1.00  0.00    -0.248 NA
ATOM     53  C   UNL A   1      39.958  31.602  32.438  1.00  0.00     0.031 C 
ATOM     54  C   UNL A   1      45.066  29.421  34.940  1.00  0.00     0.029 A 
ATOM     55  C   UNL A   1      43.979  29.583  34.091  1.00  0.00     0.049 A 
ATOM     56  H   UNL A   1      43.457  28.459  32.387  1.00  0.00     0.167 HD
ATOM     57  C   UNL A   1      41.902  30.709  33.284  1.00  0.00     0.074 A 
ATOM     58  C   UNL A   1      40.863  31.716  33.400  1.00  0.00     0.031 C 
ATOM     59  C   UNL A   1      42.921  30.562  34.170  1.00  0.00     0.037 A 
BRANCH  46  60
ATOM     60  C   UNL A   1      46.824  25.893  32.969  1.00  0.00     0.058 A 
ATOM     61  C   UNL A   1      48.104  26.174  32.466  1.00  0.00     0.135 A 
ATOM     62  C   UNL A   1      46.704  24.832  33.882  1.00  0.00     0.135 A 
ATOM     63  F   UNL A   1      48.278  27.158  31.567  1.00  0.00    -0.206 F 
ATOM     64  C   UNL A   1      49.216  25.424  32.839  1.00  0.00     0.059 A 
ATOM     65  C   UNL A   1      47.807  24.089  34.293  1.00  0.00     0.059 A 
ATOM     66  F   UNL A   1      45.502  24.505  34.385  1.00  0.00    -0.206 F 
ATOM     67  C   UNL A   1      49.058  24.385  33.758  1.00  0.00     0.060 A 
BRANCH  67  68
ATOM     68  S   UNL A   1      50.515  23.438  34.249  1.00  0.00     0.124 S 
ATOM     69  O   UNL A   1      50.564  23.698  35.684  1.00  0.00    -0.237 OA
ATOM     70  O   UNL A   1      50.145  22.080  33.864  1.00  0.00    -0.237 OA
ATOM     71  O   UNL A   1      51.592  24.036  33.467  1.00  0.00    -0.744 OA
ENDBRANCH  67  68
ENDBRANCH  46  60
BRANCH  47  72
ATOM     72  C   UNL A   1      38.490  30.778  30.005  1.00  0.00     0.058 A 
ATOM     73  C   UNL A   1      38.503  32.051  29.420  1.00  0.00     0.135 A 
ATOM     74  C   UNL A   1      37.242  30.150  30.170  1.00  0.00     0.135 A 
ATOM     75  F   UNL A   1      39.665  32.698  29.249  1.00  0.00    -0.206 F 
ATOM     76  C   UNL A   1      37.329  32.681  29.015  1.00  0.00     0.059 A 
ATOM     77  C   UNL A   1      36.059  30.746  29.746  1.00  0.00     0.059 A 
ATOM     78  F   UNL A   1      37.171  28.926  30.717  1.00  0.00    -0.206 F 
ATOM     79  C   UNL A   1      36.112  32.015  29.175  1.00  0.00     0.060 A 
BRANCH  79  80
ATOM     80  S   UNL A   1      34.604  32.818  28.588  1.00  0.00     0.124 S 
ATOM     81  O   UNL A   1      35.137  33.794  27.646  1.00  0.00    -0.237 OA
ATOM     82  O   UNL A   1      33.873  31.697  28.003  1.00  0.00    -0.237 OA
ATOM     83  O   UNL A   1      34.020  33.368  29.807  1.00  0.00    -0.744 OA
ENDBRANCH  79  80
ENDBRANCH  47  72
BRANCH  59  84
ATOM     84  C   UNL A   1      42.958  31.517  35.328  1.00  0.00     0.058 A 
ATOM     85  C   UNL A   1      42.316  31.225  36.540  1.00  0.00     0.135 A 
ATOM     86  C   UNL A   1      43.699  32.707  35.243  1.00  0.00     0.135 A 
ATOM     87  F   UNL A   1      41.588  30.103  36.667  1.00  0.00    -0.206 F 
ATOM     88  C   UNL A   1      42.386  32.092  37.623  1.00  0.00     0.059 A 
ATOM     89  C   UNL A   1      43.813  33.572  36.325  1.00  0.00     0.059 A 
ATOM     90  F   UNL A   1      44.343  33.026  34.109  1.00  0.00    -0.206 F 
ATOM     91  C   UNL A   1      43.143  33.260  37.508  1.00  0.00     0.060 A 
BRANCH  91  92
ATOM     92  S   UNL A   1      43.259  34.352  38.939  1.00  0.00     0.124 S 
ATOM     93  O   UNL A   1      41.908  34.902  38.999  1.00  0.00    -0.237 OA
ATOM     94  O   UNL A   1      43.616  33.425  40.008  1.00  0.00    -0.237 OA
ATOM     95  O   UNL A   1      44.305  35.298  38.560  1.00  0.00    -0.744 OA
ENDBRANCH  91  92
ENDBRANCH  59  84
ENDBRANCH  33  34
ENDBRANCH  26  28
ENDBRANCH  25  26
ENDBRANCH  24  25
ENDBRANCH  23  24
ENDBRANCH  22  23
ENDBRANCH   1  22
TORSDOF 23
ENDMDL
MODEL 3
REMARK VINA RESULT:      -9.9      1.717      8.595
REMARK SMILES C#CC[N@@H+](CC(=O)OCCOCCOC(=O)c1ccc(-c2c3nc(c(-c4c(F)cc(S(=O)(=O)[O-])cc4F)c4ccc([nH]4)c(-c4c(F)cc(S(=O)(=O)[O-])cc4F)c4nc(c(-c5c(F)cc(S(=O)(=O)[O-])cc5F)c5ccc2[nH]5)C=C4)C=C3)cc1)Cc1ccc(C(C)C)cc1
REMARK SMILES IDX 10 1 9 2 8 3 6 4 7 5 5 6 4 7 3 9 2 10 1 11 83 12 84 13 85 14
REMARK SMILES IDX 92 15 86 16 91 17 87 18 88 19 89 20 90 21 11 22 12 23 13 24
REMARK SMILES IDX 14 25 15 26 16 27 17 28 18 29 82 30 19 31 81 32 20 33 21 34
REMARK SMILES IDX 22 35 75 36 23 37 80 38 74 39 76 40 24 41 79 42 73 43 72 44
REMARK SMILES IDX 25 46 59 47 38 48 58 49 39 50 42 51 57 52 77 53 40 54 41 55
REMARK SMILES IDX 56 57 78 58 43 59 26 60 27 61 36 62 28 63 29 64 35 65 37 66
REMARK SMILES IDX 30 67 31 68 32 69 33 70 34 71 60 72 61 73 70 74 62 75 63 76
REMARK SMILES IDX 69 77 71 78 64 79 65 80 66 81 67 82 68 83 44 84 45 85 54 86
REMARK SMILES IDX 46 87 47 88 53 89 55 90 48 91 49 92 50 93 51 94 52 95
REMARK H PARENT 4 8 76 45 42 56
REMARK Flexibility Score: inf
ROOT
ATOM      1  C   UNL A   1      38.638  22.129  25.727  1.00  0.00     0.202 C 
ENDROOT
BRANCH   1   2
ATOM      2  C   UNL A   1      37.092  22.239  25.759  1.00  0.00     0.261 C 
BRANCH   2   3
ATOM      3  O   UNL A   1      36.287  21.154  25.298  1.00  0.00    -0.459 OA
BRANCH   3   4
ATOM      4  C   UNL A   1      35.008  21.105  25.743  1.00  0.00     0.361 C 
ATOM      5  O   UNL A   1      34.647  21.529  26.838  1.00  0.00    -0.245 OA
BRANCH   4   6
ATOM      6  C   UNL A   1      34.061  20.370  24.792  1.00  0.00     0.387 C 
BRANCH   6   7
ATOM      7  N   UNL A   1      32.885  21.079  24.246  1.00  0.00    -0.312 N 
ATOM      8  H   UNL A   1      32.364  20.287  23.871  1.00  0.00     0.349 HD
BRANCH   7   9
ATOM      9  C   UNL A   1      33.135  21.886  23.075  1.00  0.00     0.354 C 
BRANCH   9  10
ATOM     10  C   UNL A   1      34.099  23.044  23.280  1.00  0.00    -0.047 C 
ATOM     11  C   UNL A   1      34.926  24.037  23.455  1.00  0.00     0.010 C 
ENDBRANCH   9  10
ENDBRANCH   7   9
BRANCH   7  12
ATOM     12  C   UNL A   1      31.864  21.546  25.161  1.00  0.00     0.300 C 
BRANCH  12  13
ATOM     13  C   UNL A   1      31.576  23.015  25.078  1.00  0.00     0.006 A 
ATOM     14  C   UNL A   1      32.376  24.133  26.244  1.00  0.00     0.010 A 
ATOM     15  C   UNL A   1      30.656  23.710  23.684  1.00  0.00     0.010 A 
ATOM     16  C   UNL A   1      32.239  25.917  26.017  1.00  0.00     0.004 A 
ATOM     17  C   UNL A   1      30.535  25.478  23.465  1.00  0.00     0.004 A 
ATOM     18  C   UNL A   1      31.322  26.584  24.622  1.00  0.00    -0.045 A 
BRANCH  18  19
ATOM     19  C   UNL A   1      30.985  28.030  24.403  1.00  0.00     0.013 C 
ATOM     20  C   UNL A   1      32.186  28.820  23.912  1.00  0.00     0.012 C 
ATOM     21  C   UNL A   1      29.761  28.177  23.522  1.00  0.00     0.012 C 
ENDBRANCH  18  19
ENDBRANCH  12  13
ENDBRANCH   7  12
ENDBRANCH   6   7
ENDBRANCH   4   6
ENDBRANCH   3   4
ENDBRANCH   2   3
ENDBRANCH   1   2
BRANCH   1  22
ATOM     22  O   UNL A   1      39.472  21.184  26.405  1.00  0.00    -0.374 OA
BRANCH  22  23
ATOM     23  C   UNL A   1      41.010  21.307  26.536  1.00  0.00     0.202 C 
BRANCH  23  24
ATOM     24  C   UNL A   1      42.333  22.352  27.927  1.00  0.00     0.261 C 
BRANCH  24  25
ATOM     25  O   UNL A   1      43.160  23.733  27.662  1.00  0.00    -0.460 OA
BRANCH  25  26
ATOM     26  C   UNL A   1      42.643  24.712  26.887  1.00  0.00     0.338 C 
ATOM     27  O   UNL A   1      42.379  24.658  25.700  1.00  0.00    -0.246 OA
BRANCH  26  28
ATOM     28  C   UNL A   1      42.088  25.744  27.791  1.00  0.00     0.060 A 
ATOM     29  C   UNL A   1      42.910  26.848  28.076  1.00  0.00     0.016 A 
ATOM     30  C   UNL A   1      40.807  25.657  28.335  1.00  0.00     0.016 A 
ATOM     31  C   UNL A   1      42.470  27.864  28.908  1.00  0.00     0.010 A 
ATOM     32  C   UNL A   1      40.396  26.634  29.246  1.00  0.00     0.010 A 
ATOM     33  C   UNL A   1      41.248  27.709  29.562  1.00  0.00    -0.014 A 
BRANCH  33  34
ATOM     34  C   UNL A   1      41.035  28.481  30.801  1.00  0.00     0.031 A 
ATOM     35  C   UNL A   1      39.934  29.506  30.779  1.00  0.00     0.074 A 
ATOM     36  C   UNL A   1      41.755  28.234  31.906  1.00  0.00     0.049 A 
ATOM     37  N   UNL A   1      39.615  30.404  31.669  1.00  0.00    -0.248 NA
ATOM     38  C   UNL A   1      39.075  29.519  29.579  1.00  0.00     0.031 C 
ATOM     39  C   UNL A   1      42.764  27.183  32.038  1.00  0.00     0.029 A 
ATOM     40  N   UNL A   1      41.757  28.862  33.123  1.00  0.00    -0.354 N 
ATOM     41  C   UNL A   1      38.543  31.105  31.124  1.00  0.00     0.074 A 
ATOM     42  C   UNL A   1      38.268  30.536  29.827  1.00  0.00     0.031 C 
ATOM     43  C   UNL A   1      43.320  27.266  33.259  1.00  0.00     0.029 A 
ATOM     44  C   UNL A   1      42.739  28.404  33.967  1.00  0.00     0.049 A 
ATOM     45  H   UNL A   1      41.119  29.570  33.367  1.00  0.00     0.167 HD
ATOM     46  C   UNL A   1      37.860  32.138  31.668  1.00  0.00     0.037 A 
ATOM     47  C   UNL A   1      43.149  28.895  35.152  1.00  0.00     0.037 A 
ATOM     48  C   UNL A   1      38.174  32.677  32.963  1.00  0.00     0.049 A 
ATOM     49  C   UNL A   1      42.441  30.108  35.698  1.00  0.00     0.074 A 
ATOM     50  C   UNL A   1      37.567  33.721  33.635  1.00  0.00     0.029 A 
ATOM     51  N   UNL A   1      39.199  32.212  33.779  1.00  0.00    -0.354 N 
ATOM     52  N   UNL A   1      41.433  30.776  35.181  1.00  0.00    -0.248 NA
ATOM     53  C   UNL A   1      42.923  30.640  36.978  1.00  0.00     0.031 C 
ATOM     54  C   UNL A   1      38.268  33.928  34.828  1.00  0.00     0.029 A 
ATOM     55  C   UNL A   1      39.269  32.972  34.932  1.00  0.00     0.049 A 
ATOM     56  H   UNL A   1      39.791  31.455  33.566  1.00  0.00     0.167 HD
ATOM     57  C   UNL A   1      41.151  31.799  36.078  1.00  0.00     0.074 A 
ATOM     58  C   UNL A   1      42.080  31.643  37.182  1.00  0.00     0.031 C 
ATOM     59  C   UNL A   1      40.218  32.783  36.002  1.00  0.00     0.037 A 
BRANCH  46  60
ATOM     60  C   UNL A   1      36.770  32.775  30.847  1.00  0.00     0.058 A 
ATOM     61  C   UNL A   1      35.433  32.350  30.916  1.00  0.00     0.135 A 
ATOM     62  C   UNL A   1      37.068  33.841  29.982  1.00  0.00     0.135 A 
ATOM     63  F   UNL A   1      35.090  31.316  31.702  1.00  0.00    -0.206 F 
ATOM     64  C   UNL A   1      34.437  32.947  30.146  1.00  0.00     0.059 A 
ATOM     65  C   UNL A   1      36.084  34.472  29.227  1.00  0.00     0.059 A 
ATOM     66  F   UNL A   1      38.332  34.280  29.862  1.00  0.00    -0.206 F 
ATOM     67  C   UNL A   1      34.772  34.011  29.308  1.00  0.00     0.060 A 
BRANCH  67  68
ATOM     68  S   UNL A   1      33.464  34.788  28.335  1.00  0.00     0.124 S 
ATOM     69  O   UNL A   1      32.600  35.327  29.381  1.00  0.00    -0.237 OA
ATOM     70  O   UNL A   1      34.204  35.775  27.555  1.00  0.00    -0.237 OA
ATOM     71  O   UNL A   1      32.903  33.680  27.569  1.00  0.00    -0.744 OA
ENDBRANCH  67  68
ENDBRANCH  46  60
BRANCH  47  72
ATOM     72  C   UNL A   1      44.300  28.272  35.859  1.00  0.00     0.058 A 
ATOM     73  C   UNL A   1      44.108  27.251  36.800  1.00  0.00     0.135 A 
ATOM     74  C   UNL A   1      45.622  28.663  35.584  1.00  0.00     0.135 A 
ATOM     75  F   UNL A   1      42.866  26.848  37.107  1.00  0.00    -0.206 F 
ATOM     76  C   UNL A   1      45.180  26.642  37.445  1.00  0.00     0.059 A 
ATOM     77  C   UNL A   1      46.712  28.049  36.193  1.00  0.00     0.059 A 
ATOM     78  F   UNL A   1      45.866  29.630  34.685  1.00  0.00    -0.206 F 
ATOM     79  C   UNL A   1      46.480  27.043  37.128  1.00  0.00     0.060 A 
BRANCH  79  80
ATOM     80  S   UNL A   1      47.864  26.200  37.926  1.00  0.00     0.124 S 
ATOM     81  O   UNL A   1      47.862  24.914  37.239  1.00  0.00    -0.237 OA
ATOM     82  O   UNL A   1      48.979  27.089  37.615  1.00  0.00    -0.237 OA
ATOM     83  O   UNL A   1      47.471  26.167  39.332  1.00  0.00    -0.744 OA
ENDBRANCH  79  80
ENDBRANCH  47  72
BRANCH  59  84
ATOM     84  C   UNL A   1      40.158  33.752  37.148  1.00  0.00     0.058 A 
ATOM     85  C   UNL A   1      40.942  34.915  37.166  1.00  0.00     0.135 A 
ATOM     86  C   UNL A   1      39.259  33.546  38.207  1.00  0.00     0.135 A 
ATOM     87  F   UNL A   1      41.823  35.153  36.179  1.00  0.00    -0.206 F 
ATOM     88  C   UNL A   1      40.855  35.830  38.206  1.00  0.00     0.059 A 
ATOM     89  C   UNL A   1      39.129  34.465  39.240  1.00  0.00     0.059 A 
ATOM     90  F   UNL A   1      38.477  32.454  38.229  1.00  0.00    -0.206 F 
ATOM     91  C   UNL A   1      39.940  35.600  39.236  1.00  0.00     0.060 A 
BRANCH  91  92
ATOM     92  S   UNL A   1      39.808  36.821  40.557  1.00  0.00     0.124 S 
ATOM     93  O   UNL A   1      41.026  36.562  41.319  1.00  0.00    -0.237 OA
ATOM     94  O   UNL A   1      39.778  38.078  39.815  1.00  0.00    -0.237 OA
ATOM     95  O   UNL A   1      38.561  36.465  41.228  1.00  0.00    -0.744 OA
ENDBRANCH  91  92
ENDBRANCH  59  84
ENDBRANCH  33  34
ENDBRANCH  26  28
ENDBRANCH  25  26
ENDBRANCH  24  25
ENDBRANCH  23  24
ENDBRANCH  22  23
ENDBRANCH   1  22
TORSDOF 23
ENDMDL
