MODEL 1
REMARK VINA RESULT:     -12.5      0.000      0.000
REMARK SMILES CCC[C@@](C)(NC(=O)N1CCN(C)C(=O)C1(C)C)C(=O)OCCOCCOC(=O)c1ccc(-c2c3nc(c(-c4c(F)cc(S(=O)(=O)[O-])cc4F)c4ccc([nH]4)c(-c4c(F)cc(S(=O)(=O)[O-])cc4F)c4nc(c(-c5c(F)cc(S(=O)(=O)[O-])cc5F)c5ccc2[nH]5)C=C4)C=C3)cc1
REMARK SMILES IDX 25 1 24 2 23 3 22 4 21 5 19 6 20 7 4 8 5 9 3 10 2 11 1 12
REMARK SMILES IDX 6 13 7 14 8 16 9 17 10 18 16 19 11 20 14 21 17 22 18 23
REMARK SMILES IDX 12 24 15 25 13 26 26 27 27 28 28 29 29 30 30 31 31 32 95 33
REMARK SMILES IDX 32 34 94 35 33 36 34 37 35 38 88 39 36 40 93 41 87 42 89 43
REMARK SMILES IDX 37 44 92 45 86 46 85 47 38 49 72 50 51 51 71 52 52 53 55 54
REMARK SMILES IDX 70 55 90 56 53 57 54 58 69 60 91 61 56 62 39 63 40 64 49 65
REMARK SMILES IDX 41 66 42 67 48 68 50 69 43 70 44 71 45 72 46 73 47 74 73 75
REMARK SMILES IDX 74 76 83 77 75 78 76 79 82 80 84 81 77 82 78 83 79 84 80 85
REMARK SMILES IDX 81 86 57 87 58 88 67 89 59 90 60 91 66 92 68 93 61 94 62 95
REMARK SMILES IDX 63 96 64 97 65 98
REMARK H PARENT 6 15 89 48 55 59
REMARK Flexibility Score: inf
ROOT
ATOM      1  C   UNL A   1      37.709  20.880  24.760  1.00  0.00     0.202 C 
ENDROOT
BRANCH   1   2
ATOM      2  O   UNL A   1      36.320  20.108  25.045  1.00  0.00    -0.374 OA
BRANCH   2   3
ATOM      3  C   UNL A   1      34.505  19.572  24.529  1.00  0.00     0.202 C 
BRANCH   3   4
ATOM      4  C   UNL A   1      33.120  19.839  25.772  1.00  0.00     0.261 C 
BRANCH   4   5
ATOM      5  O   UNL A   1      33.227  20.974  27.039  1.00  0.00    -0.462 OA
BRANCH   5   6
ATOM      6  C   UNL A   1      32.930  22.328  27.452  1.00  0.00     0.331 C 
ATOM      7  O   UNL A   1      32.949  22.545  28.672  1.00  0.00    -0.249 OA
BRANCH   6   8
ATOM      8  C   UNL A   1      32.474  23.699  26.358  1.00  0.00     0.136 C 
ATOM      9  C   UNL A   1      33.923  24.168  25.847  1.00  0.00     0.047 C 
BRANCH   8  10
ATOM     10  C   UNL A   1      31.752  23.257  25.023  1.00  0.00     0.040 C 
BRANCH  10  11
ATOM     11  C   UNL A   1      32.450  23.493  23.664  1.00  0.00    -0.000 C 
ATOM     12  C   UNL A   1      32.409  22.302  22.729  1.00  0.00     0.004 C 
ENDBRANCH  10  11
ENDBRANCH   8  10
BRANCH   8  13
ATOM     13  N   UNL A   1      31.808  25.194  26.684  1.00  0.00    -0.322 N 
ATOM     14  C   UNL A   1      31.492  26.475  26.201  1.00  0.00     0.319 C 
ATOM     15  H   UNL A   1      31.507  25.166  27.621  1.00  0.00     0.166 HD
ATOM     16  O   UNL A   1      31.084  27.249  27.065  1.00  0.00    -0.249 OA
BRANCH  14  17
ATOM     17  N   UNL A   1      31.560  26.745  24.803  1.00  0.00    -0.309 N 
ATOM     18  C   UNL A   1      30.320  26.627  23.370  1.00  0.00     0.144 C 
ATOM     19  C   UNL A   1      32.383  28.043  24.795  1.00  0.00     0.118 C 
ATOM     20  C   UNL A   1      29.174  28.160  22.949  1.00  0.00     0.140 C 
ATOM     21  C   UNL A   1      31.076  29.697  24.874  1.00  0.00     0.247 C 
ATOM     22  C   UNL A   1      33.845  27.818  25.647  1.00  0.00     0.045 C 
ATOM     23  C   UNL A   1      33.416  27.312  23.493  1.00  0.00     0.045 C 
ATOM     24  N   UNL A   1      29.690  29.722  23.741  1.00  0.00    -0.342 N 
ATOM     25  O   UNL A   1      31.128  30.806  25.406  1.00  0.00    -0.272 OA
ATOM     26  C   UNL A   1      29.415  30.965  23.018  1.00  0.00     0.146 C 
ENDBRANCH  14  17
ENDBRANCH   8  13
ENDBRANCH   6   8
ENDBRANCH   5   6
ENDBRANCH   4   5
ENDBRANCH   3   4
ENDBRANCH   2   3
ENDBRANCH   1   2
BRANCH   1  27
ATOM     27  C   UNL A   1      38.884  21.539  25.847  1.00  0.00     0.261 C 
BRANCH  27  28
ATOM     28  O   UNL A   1      39.673  20.677  26.793  1.00  0.00    -0.460 OA
BRANCH  28  29
ATOM     29  C   UNL A   1      40.943  20.249  26.492  1.00  0.00     0.338 C 
ATOM     30  O   UNL A   1      41.189  19.223  25.873  1.00  0.00    -0.246 OA
BRANCH  29  31
ATOM     31  C   UNL A   1      41.948  21.394  26.540  1.00  0.00     0.060 A 
ATOM     32  C   UNL A   1      42.335  21.852  27.823  1.00  0.00     0.016 A 
ATOM     33  C   UNL A   1      42.559  21.986  25.434  1.00  0.00     0.016 A 
ATOM     34  C   UNL A   1      43.367  22.789  28.003  1.00  0.00     0.010 A 
ATOM     35  C   UNL A   1      43.491  23.046  25.615  1.00  0.00     0.010 A 
ATOM     36  C   UNL A   1      43.896  23.465  26.900  1.00  0.00    -0.014 A 
BRANCH  36  37
ATOM     37  C   UNL A   1      44.511  24.812  27.156  1.00  0.00     0.031 A 
ATOM     38  C   UNL A   1      43.552  25.903  27.599  1.00  0.00     0.074 A 
ATOM     39  C   UNL A   1      45.834  25.080  27.116  1.00  0.00     0.049 A 
ATOM     40  N   UNL A   1      43.776  27.157  27.896  1.00  0.00    -0.248 NA
ATOM     41  C   UNL A   1      42.143  25.501  27.750  1.00  0.00     0.031 C 
ATOM     42  C   UNL A   1      46.895  24.119  26.823  1.00  0.00     0.029 A 
ATOM     43  N   UNL A   1      46.515  26.261  27.335  1.00  0.00    -0.354 N 
ATOM     44  C   UNL A   1      42.540  27.683  28.265  1.00  0.00     0.074 A 
ATOM     45  C   UNL A   1      41.573  26.617  28.168  1.00  0.00     0.031 C 
ATOM     46  C   UNL A   1      48.086  24.752  26.857  1.00  0.00     0.029 A 
ATOM     47  C   UNL A   1      47.878  26.173  27.141  1.00  0.00     0.049 A 
ATOM     48  H   UNL A   1      46.066  27.095  27.606  1.00  0.00     0.167 HD
ATOM     49  C   UNL A   1      42.220  28.946  28.632  1.00  0.00     0.037 A 
ATOM     50  C   UNL A   1      48.836  27.129  27.164  1.00  0.00     0.037 A 
ATOM     51  C   UNL A   1      43.163  30.027  28.678  1.00  0.00     0.049 A 
ATOM     52  C   UNL A   1      48.446  28.558  27.479  1.00  0.00     0.074 A 
ATOM     53  C   UNL A   1      42.934  31.359  28.970  1.00  0.00     0.029 A 
ATOM     54  N   UNL A   1      44.518  29.900  28.410  1.00  0.00    -0.354 N 
ATOM     55  N   UNL A   1      47.264  29.047  27.776  1.00  0.00    -0.248 NA
ATOM     56  C   UNL A   1      49.519  29.566  27.459  1.00  0.00     0.031 C 
ATOM     57  C   UNL A   1      44.145  32.046  28.836  1.00  0.00     0.029 A 
ATOM     58  C   UNL A   1      45.138  31.131  28.520  1.00  0.00     0.049 A 
ATOM     59  H   UNL A   1      44.970  29.058  28.176  1.00  0.00     0.167 HD
ATOM     60  C   UNL A   1      47.456  30.408  28.007  1.00  0.00     0.074 A 
ATOM     61  C   UNL A   1      48.870  30.663  27.826  1.00  0.00     0.031 C 
ATOM     62  C   UNL A   1      46.549  31.361  28.341  1.00  0.00     0.037 A 
BRANCH  49  63
ATOM     63  C   UNL A   1      40.771  29.225  28.932  1.00  0.00     0.058 A 
ATOM     64  C   UNL A   1      39.819  29.394  27.913  1.00  0.00     0.135 A 
ATOM     65  C   UNL A   1      40.335  29.351  30.261  1.00  0.00     0.135 A 
ATOM     66  F   UNL A   1      40.188  29.321  26.624  1.00  0.00    -0.206 F 
ATOM     67  C   UNL A   1      38.493  29.706  28.202  1.00  0.00     0.059 A 
ATOM     68  C   UNL A   1      39.009  29.634  30.573  1.00  0.00     0.059 A 
ATOM     69  F   UNL A   1      41.207  29.217  31.274  1.00  0.00    -0.206 F 
ATOM     70  C   UNL A   1      38.099  29.826  29.535  1.00  0.00     0.060 A 
BRANCH  70  71
ATOM     71  S   UNL A   1      36.378  30.234  29.894  1.00  0.00     0.124 S 
ATOM     72  O   UNL A   1      35.707  29.761  28.687  1.00  0.00    -0.237 OA
ATOM     73  O   UNL A   1      36.121  29.461  31.105  1.00  0.00    -0.237 OA
ATOM     74  O   UNL A   1      36.402  31.683  30.072  1.00  0.00    -0.744 OA
ENDBRANCH  70  71
ENDBRANCH  49  63
BRANCH  50  75
ATOM     75  C   UNL A   1      50.258  26.793  26.844  1.00  0.00     0.058 A 
ATOM     76  C   UNL A   1      51.192  26.489  27.849  1.00  0.00     0.135 A 
ATOM     77  C   UNL A   1      50.723  26.802  25.519  1.00  0.00     0.135 A 
ATOM     78  F   UNL A   1      50.816  26.496  29.137  1.00  0.00    -0.206 F 
ATOM     79  C   UNL A   1      52.525  26.205  27.554  1.00  0.00     0.059 A 
ATOM     80  C   UNL A   1      52.044  26.496  25.196  1.00  0.00     0.059 A 
ATOM     81  F   UNL A   1      49.883  27.098  24.515  1.00  0.00    -0.206 F 
ATOM     82  C   UNL A   1      52.941  26.202  26.221  1.00  0.00     0.060 A 
BRANCH  82  83
ATOM     83  S   UNL A   1      54.651  25.755  25.842  1.00  0.00     0.124 S 
ATOM     84  O   UNL A   1      54.473  24.771  24.781  1.00  0.00    -0.237 OA
ATOM     85  O   UNL A   1      55.218  27.037  25.435  1.00  0.00    -0.237 OA
ATOM     86  O   UNL A   1      55.150  25.232  27.110  1.00  0.00    -0.744 OA
ENDBRANCH  82  83
ENDBRANCH  50  75
BRANCH  62  87
ATOM     87  C   UNL A   1      47.062  32.755  28.586  1.00  0.00     0.058 A 
ATOM     88  C   UNL A   1      47.192  33.694  27.551  1.00  0.00     0.135 A 
ATOM     89  C   UNL A   1      47.399  33.162  29.888  1.00  0.00     0.135 A 
ATOM     90  F   UNL A   1      46.878  33.358  26.291  1.00  0.00    -0.206 F 
ATOM     91  C   UNL A   1      47.682  34.975  27.791  1.00  0.00     0.059 A 
ATOM     92  C   UNL A   1      47.863  34.447  30.154  1.00  0.00     0.059 A 
ATOM     93  F   UNL A   1      47.274  32.310  30.918  1.00  0.00    -0.206 F 
ATOM     94  C   UNL A   1      48.022  35.338  29.095  1.00  0.00     0.060 A 
BRANCH  94  95
ATOM     95  S   UNL A   1      48.672  36.995  29.394  1.00  0.00     0.124 S 
ATOM     96  O   UNL A   1      49.570  37.167  28.256  1.00  0.00    -0.237 OA
ATOM     97  O   UNL A   1      47.464  37.815  29.377  1.00  0.00    -0.237 OA
ATOM     98  O   UNL A   1      49.323  36.876  30.695  1.00  0.00    -0.744 OA
ENDBRANCH  94  95
ENDBRANCH  62  87
ENDBRANCH  36  37
ENDBRANCH  29  31
ENDBRANCH  28  29
ENDBRANCH  27  28
ENDBRANCH   1  27
TORSDOF 21
ENDMDL
MODEL 2
REMARK VINA RESULT:     -12.4      6.024     10.650
REMARK SMILES CCC[C@@](C)(NC(=O)N1CCN(C)C(=O)C1(C)C)C(=O)OCCOCCOC(=O)c1ccc(-c2c3nc(c(-c4c(F)cc(S(=O)(=O)[O-])cc4F)c4ccc([nH]4)c(-c4c(F)cc(S(=O)(=O)[O-])cc4F)c4nc(c(-c5c(F)cc(S(=O)(=O)[O-])cc5F)c5ccc2[nH]5)C=C4)C=C3)cc1
REMARK SMILES IDX 25 1 24 2 23 3 22 4 21 5 19 6 20 7 4 8 5 9 3 10 2 11 1 12
REMARK SMILES IDX 6 13 7 14 8 16 9 17 10 18 16 19 11 20 14 21 17 22 18 23
REMARK SMILES IDX 12 24 15 25 13 26 26 27 27 28 28 29 29 30 30 31 31 32 95 33
REMARK SMILES IDX 32 34 94 35 33 36 34 37 35 38 88 39 36 40 93 41 87 42 89 43
REMARK SMILES IDX 37 44 92 45 86 46 85 47 38 49 72 50 51 51 71 52 52 53 55 54
REMARK SMILES IDX 70 55 90 56 53 57 54 58 69 60 91 61 56 62 39 63 40 64 49 65
REMARK SMILES IDX 41 66 42 67 48 68 50 69 43 70 44 71 45 72 46 73 47 74 73 75
REMARK SMILES IDX 74 76 83 77 75 78 76 79 82 80 84 81 77 82 78 83 79 84 80 85
REMARK SMILES IDX 81 86 57 87 58 88 67 89 59 90 60 91 66 92 68 93 61 94 62 95
REMARK SMILES IDX 63 96 64 97 65 98
REMARK H PARENT 6 15 89 48 55 59
REMARK Flexibility Score: inf
ROOT
ATOM      1  C   UNL A   1      40.332  21.307  26.156  1.00  0.00     0.202 C 
ENDROOT
BRANCH   1   2
ATOM      2  O   UNL A   1      38.835  21.060  25.604  1.00  0.00    -0.374 OA
BRANCH   2   3
ATOM      3  C   UNL A   1      37.143  21.708  24.851  1.00  0.00     0.202 C 
BRANCH   3   4
ATOM      4  C   UNL A   1      35.608  20.651  25.096  1.00  0.00     0.261 C 
BRANCH   4   5
ATOM      5  O   UNL A   1      34.339  21.099  26.142  1.00  0.00    -0.462 OA
BRANCH   5   6
ATOM      6  C   UNL A   1      33.583  22.203  26.691  1.00  0.00     0.331 C 
ATOM      7  O   UNL A   1      33.307  22.132  27.896  1.00  0.00    -0.249 OA
BRANCH   6   8
ATOM      8  C   UNL A   1      32.956  23.629  25.764  1.00  0.00     0.136 C 
ATOM      9  C   UNL A   1      34.330  24.256  25.216  1.00  0.00     0.047 C 
BRANCH   8  10
ATOM     10  C   UNL A   1      32.180  23.257  24.438  1.00  0.00     0.040 C 
BRANCH  10  11
ATOM     11  C   UNL A   1      32.932  22.548  23.288  1.00  0.00    -0.000 C 
ATOM     12  C   UNL A   1      32.320  21.228  22.867  1.00  0.00     0.004 C 
ENDBRANCH  10  11
ENDBRANCH   8  10
BRANCH   8  13
ATOM     13  N   UNL A   1      32.207  25.030  26.274  1.00  0.00    -0.322 N 
ATOM     14  C   UNL A   1      31.770  26.323  25.938  1.00  0.00     0.319 C 
ATOM     15  H   UNL A   1      31.968  24.891  27.218  1.00  0.00     0.166 HD
ATOM     16  O   UNL A   1      31.363  26.978  26.896  1.00  0.00    -0.249 OA
BRANCH  14  17
ATOM     17  N   UNL A   1      31.729  26.729  24.572  1.00  0.00    -0.309 N 
ATOM     18  C   UNL A   1      30.386  26.731  23.230  1.00  0.00     0.144 C 
ATOM     19  C   UNL A   1      32.539  28.034  24.631  1.00  0.00     0.118 C 
ATOM     20  C   UNL A   1      29.199  28.280  23.048  1.00  0.00     0.140 C 
ATOM     21  C   UNL A   1      31.228  29.652  24.968  1.00  0.00     0.247 C 
ATOM     22  C   UNL A   1      34.063  27.750  25.345  1.00  0.00     0.045 C 
ATOM     23  C   UNL A   1      33.476  27.449  23.190  1.00  0.00     0.045 C 
ATOM     24  N   UNL A   1      29.760  29.766  23.949  1.00  0.00    -0.342 N 
ATOM     25  O   UNL A   1      31.311  30.705  25.600  1.00  0.00    -0.272 OA
ATOM     26  C   UNL A   1      29.421  31.068  23.374  1.00  0.00     0.146 C 
ENDBRANCH  14  17
ENDBRANCH   8  13
ENDBRANCH   6   8
ENDBRANCH   5   6
ENDBRANCH   4   5
ENDBRANCH   3   4
ENDBRANCH   2   3
ENDBRANCH   1   2
BRANCH   1  27
ATOM     27  C   UNL A   1      41.135  22.760  26.644  1.00  0.00     0.261 C 
BRANCH  27  28
ATOM     28  O   UNL A   1      40.584  24.125  26.334  1.00  0.00    -0.460 OA
BRANCH  28  29
ATOM     29  C   UNL A   1      41.405  25.210  26.149  1.00  0.00     0.338 C 
ATOM     30  O   UNL A   1      41.702  25.664  25.053  1.00  0.00    -0.246 OA
BRANCH  29  31
ATOM     31  C   UNL A   1      41.479  26.077  27.401  1.00  0.00     0.060 A 
ATOM     32  C   UNL A   1      40.350  26.067  28.254  1.00  0.00     0.016 A 
ATOM     33  C   UNL A   1      42.584  26.827  27.805  1.00  0.00     0.016 A 
ATOM     34  C   UNL A   1      40.355  26.694  29.512  1.00  0.00     0.010 A 
ATOM     35  C   UNL A   1      42.530  27.589  29.006  1.00  0.00     0.010 A 
ATOM     36  C   UNL A   1      41.412  27.538  29.865  1.00  0.00    -0.014 A 
BRANCH  36  37
ATOM     37  C   UNL A   1      41.119  28.611  30.876  1.00  0.00     0.031 A 
ATOM     38  C   UNL A   1      42.033  28.647  32.087  1.00  0.00     0.074 A 
ATOM     39  C   UNL A   1      40.186  29.577  30.731  1.00  0.00     0.049 A 
ATOM     40  N   UNL A   1      42.037  29.448  33.121  1.00  0.00    -0.248 NA
ATOM     41  C   UNL A   1      43.112  27.644  32.111  1.00  0.00     0.031 C 
ATOM     42  C   UNL A   1      39.306  29.755  29.578  1.00  0.00     0.029 A 
ATOM     43  N   UNL A   1      39.829  30.611  31.575  1.00  0.00    -0.354 N 
ATOM     44  C   UNL A   1      43.113  29.042  33.908  1.00  0.00     0.074 A 
ATOM     45  C   UNL A   1      43.746  27.936  33.232  1.00  0.00     0.031 C 
ATOM     46  C   UNL A   1      38.499  30.812  29.796  1.00  0.00     0.029 A 
ATOM     47  C   UNL A   1      38.775  31.375  31.119  1.00  0.00     0.049 A 
ATOM     48  H   UNL A   1      40.288  30.787  32.429  1.00  0.00     0.167 HD
ATOM     49  C   UNL A   1      43.534  29.524  35.100  1.00  0.00     0.037 A 
ATOM     50  C   UNL A   1      38.100  32.388  31.711  1.00  0.00     0.037 A 
ATOM     51  C   UNL A   1      42.879  30.586  35.809  1.00  0.00     0.049 A 
ATOM     52  C   UNL A   1      38.520  32.850  33.091  1.00  0.00     0.074 A 
ATOM     53  C   UNL A   1      43.179  31.107  37.054  1.00  0.00     0.029 A 
ATOM     54  N   UNL A   1      41.777  31.284  35.335  1.00  0.00    -0.354 N 
ATOM     55  N   UNL A   1      39.508  32.421  33.841  1.00  0.00    -0.248 NA
ATOM     56  C   UNL A   1      37.732  33.931  33.705  1.00  0.00     0.031 C 
ATOM     57  C   UNL A   1      42.231  32.092  37.352  1.00  0.00     0.029 A 
ATOM     58  C   UNL A   1      41.378  32.225  36.266  1.00  0.00     0.049 A 
ATOM     59  H   UNL A   1      41.344  31.130  34.465  1.00  0.00     0.167 HD
ATOM     60  C   UNL A   1      39.479  33.197  34.998  1.00  0.00     0.074 A 
ATOM     61  C   UNL A   1      38.383  34.131  34.844  1.00  0.00     0.031 C 
ATOM     62  C   UNL A   1      40.286  33.147  36.089  1.00  0.00     0.037 A 
BRANCH  49  63
ATOM     63  C   UNL A   1      44.714  28.839  35.737  1.00  0.00     0.058 A 
ATOM     64  C   UNL A   1      46.036  29.229  35.466  1.00  0.00     0.135 A 
ATOM     65  C   UNL A   1      44.518  27.757  36.610  1.00  0.00     0.135 A 
ATOM     66  F   UNL A   1      46.283  30.233  34.610  1.00  0.00    -0.206 F 
ATOM     67  C   UNL A   1      47.121  28.553  36.019  1.00  0.00     0.059 A 
ATOM     68  C   UNL A   1      45.586  27.085  37.196  1.00  0.00     0.059 A 
ATOM     69  F   UNL A   1      43.276  27.331  36.890  1.00  0.00    -0.206 F 
ATOM     70  C   UNL A   1      46.885  27.481  36.881  1.00  0.00     0.060 A 
BRANCH  70  71
ATOM     71  S   UNL A   1      48.301  26.611  37.586  1.00  0.00     0.124 S 
ATOM     72  O   UNL A   1      48.422  27.258  38.889  1.00  0.00    -0.237 OA
ATOM     73  O   UNL A   1      47.837  25.227  37.606  1.00  0.00    -0.237 OA
ATOM     74  O   UNL A   1      49.378  26.894  36.643  1.00  0.00    -0.744 OA
ENDBRANCH  70  71
ENDBRANCH  49  63
BRANCH  50  75
ATOM     75  C   UNL A   1      36.925  33.021  31.034  1.00  0.00     0.058 A 
ATOM     76  C   UNL A   1      35.605  32.642  31.333  1.00  0.00     0.135 A 
ATOM     77  C   UNL A   1      37.102  34.002  30.045  1.00  0.00     0.135 A 
ATOM     78  F   UNL A   1      35.373  31.687  32.246  1.00  0.00    -0.206 F 
ATOM     79  C   UNL A   1      34.510  33.210  30.682  1.00  0.00     0.059 A 
ATOM     80  C   UNL A   1      36.023  34.604  29.398  1.00  0.00     0.059 A 
ATOM     81  F   UNL A   1      38.338  34.397  29.705  1.00  0.00    -0.206 F 
ATOM     82  C   UNL A   1      34.729  34.199  29.721  1.00  0.00     0.060 A 
BRANCH  82  83
ATOM     83  S   UNL A   1      33.302  34.987  28.939  1.00  0.00     0.124 S 
ATOM     84  O   UNL A   1      32.421  35.206  30.080  1.00  0.00    -0.237 OA
ATOM     85  O   UNL A   1      33.898  36.183  28.352  1.00  0.00    -0.237 OA
ATOM     86  O   UNL A   1      32.852  33.985  27.978  1.00  0.00    -0.744 OA
ENDBRANCH  82  83
ENDBRANCH  50  75
BRANCH  62  87
ATOM     87  C   UNL A   1      40.051  34.162  37.176  1.00  0.00     0.058 A 
ATOM     88  C   UNL A   1      40.800  35.345  37.266  1.00  0.00     0.135 A 
ATOM     89  C   UNL A   1      39.035  33.955  38.125  1.00  0.00     0.135 A 
ATOM     90  F   UNL A   1      41.778  35.594  36.381  1.00  0.00    -0.206 F 
ATOM     91  C   UNL A   1      40.581  36.267  38.286  1.00  0.00     0.059 A 
ATOM     92  C   UNL A   1      38.780  34.877  39.135  1.00  0.00     0.059 A 
ATOM     93  F   UNL A   1      38.274  32.850  38.072  1.00  0.00    -0.206 F 
ATOM     94  C   UNL A   1      39.573  36.019  39.220  1.00  0.00     0.060 A 
BRANCH  94  95
ATOM     95  S   UNL A   1      39.308  37.212  40.548  1.00  0.00     0.124 S 
ATOM     96  O   UNL A   1      38.199  37.998  40.018  1.00  0.00    -0.237 OA
ATOM     97  O   UNL A   1      38.990  36.353  41.685  1.00  0.00    -0.237 OA
ATOM     98  O   UNL A   1      40.587  37.910  40.638  1.00  0.00    -0.744 OA
ENDBRANCH  94  95
ENDBRANCH  62  87
ENDBRANCH  36  37
ENDBRANCH  29  31
ENDBRANCH  28  29
ENDBRANCH  27  28
ENDBRANCH   1  27
TORSDOF 21
ENDMDL
MODEL 3
REMARK VINA RESULT:     -12.4      5.673     10.422
REMARK SMILES CCC[C@@](C)(NC(=O)N1CCN(C)C(=O)C1(C)C)C(=O)OCCOCCOC(=O)c1ccc(-c2c3nc(c(-c4c(F)cc(S(=O)(=O)[O-])cc4F)c4ccc([nH]4)c(-c4c(F)cc(S(=O)(=O)[O-])cc4F)c4nc(c(-c5c(F)cc(S(=O)(=O)[O-])cc5F)c5ccc2[nH]5)C=C4)C=C3)cc1
REMARK SMILES IDX 25 1 24 2 23 3 22 4 21 5 19 6 20 7 4 8 5 9 3 10 2 11 1 12
REMARK SMILES IDX 6 13 7 14 8 16 9 17 10 18 16 19 11 20 14 21 17 22 18 23
REMARK SMILES IDX 12 24 15 25 13 26 26 27 27 28 28 29 29 30 30 31 31 32 95 33
REMARK SMILES IDX 32 34 94 35 33 36 34 37 35 38 88 39 36 40 93 41 87 42 89 43
REMARK SMILES IDX 37 44 92 45 86 46 85 47 38 49 72 50 51 51 71 52 52 53 55 54
REMARK SMILES IDX 70 55 90 56 53 57 54 58 69 60 91 61 56 62 39 63 40 64 49 65
REMARK SMILES IDX 41 66 42 67 48 68 50 69 43 70 44 71 45 72 46 73 47 74 73 75
REMARK SMILES IDX 74 76 83 77 75 78 76 79 82 80 84 81 77 82 78 83 79 84 80 85
REMARK SMILES IDX 81 86 57 87 58 88 67 89 59 90 60 91 66 92 68 93 61 94 62 95
REMARK SMILES IDX 63 96 64 97 65 98
REMARK H PARENT 6 15 89 48 55 59
REMARK Flexibility Score: inf
ROOT
ATOM      1  C   UNL A   1      42.190  20.789  26.240  1.00  0.00     0.202 C 
ENDROOT
BRANCH   1   2
ATOM      2  O   UNL A   1      40.641  21.242  26.207  1.00  0.00    -0.374 OA
BRANCH   2   3
ATOM      3  C   UNL A   1      39.226  22.581  26.446  1.00  0.00     0.202 C 
BRANCH   3   4
ATOM      4  C   UNL A   1      37.552  22.243  25.661  1.00  0.00     0.261 C 
BRANCH   4   5
ATOM      5  O   UNL A   1      36.137  23.080  26.115  1.00  0.00    -0.462 OA
BRANCH   5   6
ATOM      6  C   UNL A   1      34.707  23.187  25.929  1.00  0.00     0.331 C 
ATOM      7  O   UNL A   1      34.075  23.733  26.845  1.00  0.00    -0.249 OA
BRANCH   6   8
ATOM      8  C   UNL A   1      33.765  22.543  24.521  1.00  0.00     0.136 C 
ATOM      9  C   UNL A   1      34.756  22.904  23.309  1.00  0.00     0.047 C 
BRANCH   8  10
ATOM     10  C   UNL A   1      33.682  20.966  24.457  1.00  0.00     0.040 C 
BRANCH  10  11
ATOM     11  C   UNL A   1      32.329  20.286  24.147  1.00  0.00    -0.000 C 
ATOM     12  C   UNL A   1      32.359  19.357  22.951  1.00  0.00     0.004 C 
ENDBRANCH  10  11
ENDBRANCH   8  10
BRANCH   8  13
ATOM     13  N   UNL A   1      32.323  23.037  23.843  1.00  0.00    -0.322 N 
ATOM     14  C   UNL A   1      31.375  24.066  23.705  1.00  0.00     0.319 C 
ATOM     15  H   UNL A   1      31.992  22.279  23.308  1.00  0.00     0.166 HD
ATOM     16  O   UNL A   1      30.352  23.728  23.113  1.00  0.00    -0.249 OA
BRANCH  14  17
ATOM     17  N   UNL A   1      31.689  25.386  24.142  1.00  0.00    -0.309 N 
ATOM     18  C   UNL A   1      32.363  26.939  23.283  1.00  0.00     0.144 C 
ATOM     19  C   UNL A   1      30.510  25.670  25.086  1.00  0.00     0.118 C 
ATOM     20  C   UNL A   1      31.119  28.209  22.458  1.00  0.00     0.140 C 
ATOM     21  C   UNL A   1      28.953  26.588  23.998  1.00  0.00     0.247 C 
ATOM     22  C   UNL A   1      30.386  24.438  26.260  1.00  0.00     0.045 C 
ATOM     23  C   UNL A   1      31.710  26.261  26.313  1.00  0.00     0.045 C 
ATOM     24  N   UNL A   1      29.374  27.972  22.942  1.00  0.00    -0.342 N 
ATOM     25  O   UNL A   1      27.725  26.532  24.046  1.00  0.00    -0.272 OA
ATOM     26  C   UNL A   1      28.524  29.162  22.996  1.00  0.00     0.146 C 
ENDBRANCH  14  17
ENDBRANCH   8  13
ENDBRANCH   6   8
ENDBRANCH   5   6
ENDBRANCH   4   5
ENDBRANCH   3   4
ENDBRANCH   2   3
ENDBRANCH   1   2
BRANCH   1  27
ATOM     27  C   UNL A   1      43.644  21.709  26.050  1.00  0.00     0.261 C 
BRANCH  27  28
ATOM     28  O   UNL A   1      43.810  23.079  26.647  1.00  0.00    -0.460 OA
BRANCH  28  29
ATOM     29  C   UNL A   1      43.356  24.206  26.007  1.00  0.00     0.338 C 
ATOM     30  O   UNL A   1      43.164  24.275  24.800  1.00  0.00    -0.246 OA
BRANCH  29  31
ATOM     31  C   UNL A   1      42.645  25.150  26.969  1.00  0.00     0.060 A 
ATOM     32  C   UNL A   1      43.032  26.511  26.933  1.00  0.00     0.016 A 
ATOM     33  C   UNL A   1      41.608  24.798  27.833  1.00  0.00     0.016 A 
ATOM     34  C   UNL A   1      42.347  27.504  27.653  1.00  0.00     0.010 A 
ATOM     35  C   UNL A   1      41.018  25.780  28.678  1.00  0.00     0.010 A 
ATOM     36  C   UNL A   1      41.389  27.140  28.604  1.00  0.00    -0.014 A 
BRANCH  36  37
ATOM     37  C   UNL A   1      41.136  28.110  29.724  1.00  0.00     0.031 A 
ATOM     38  C   UNL A   1      42.087  28.021  30.903  1.00  0.00     0.074 A 
ATOM     39  C   UNL A   1      40.209  29.092  29.703  1.00  0.00     0.049 A 
ATOM     40  N   UNL A   1      42.130  28.716  32.011  1.00  0.00    -0.248 NA
ATOM     41  C   UNL A   1      43.157  27.014  30.795  1.00  0.00     0.031 C 
ATOM     42  C   UNL A   1      39.296  29.388  28.600  1.00  0.00     0.029 A 
ATOM     43  N   UNL A   1      39.887  30.039  30.655  1.00  0.00    -0.354 N 
ATOM     44  C   UNL A   1      43.225  28.228  32.720  1.00  0.00     0.074 A 
ATOM     45  C   UNL A   1      43.827  27.190  31.920  1.00  0.00     0.031 C 
ATOM     46  C   UNL A   1      38.506  30.424  28.947  1.00  0.00     0.029 A 
ATOM     47  C   UNL A   1      38.827  30.852  30.309  1.00  0.00     0.049 A 
ATOM     48  H   UNL A   1      40.373  30.128  31.507  1.00  0.00     0.167 HD
ATOM     49  C   UNL A   1      43.687  28.588  33.940  1.00  0.00     0.037 A 
ATOM     50  C   UNL A   1      38.179  31.806  31.018  1.00  0.00     0.037 A 
ATOM     51  C   UNL A   1      43.063  29.580  34.769  1.00  0.00     0.049 A 
ATOM     52  C   UNL A   1      38.645  32.127  32.423  1.00  0.00     0.074 A 
ATOM     53  C   UNL A   1      43.405  29.974  36.050  1.00  0.00     0.029 A 
ATOM     54  N   UNL A   1      41.954  30.327  34.401  1.00  0.00    -0.354 N 
ATOM     55  N   UNL A   1      39.652  31.620  33.097  1.00  0.00    -0.248 NA
ATOM     56  C   UNL A   1      37.887  33.147  33.165  1.00  0.00     0.031 C 
ATOM     57  C   UNL A   1      42.476  30.930  36.472  1.00  0.00     0.029 A 
ATOM     58  C   UNL A   1      41.592  31.174  35.432  1.00  0.00     0.049 A 
ATOM     59  H   UNL A   1      41.493  30.263  33.533  1.00  0.00     0.167 HD
ATOM     60  C   UNL A   1      39.665  32.279  34.325  1.00  0.00     0.074 A 
ATOM     61  C   UNL A   1      38.573  33.230  34.297  1.00  0.00     0.031 C 
ATOM     62  C   UNL A   1      40.504  32.117  35.380  1.00  0.00     0.037 A 
BRANCH  49  63
ATOM     63  C   UNL A   1      44.879  27.836  34.470  1.00  0.00     0.058 A 
ATOM     64  C   UNL A   1      46.193  28.290  34.270  1.00  0.00     0.135 A 
ATOM     65  C   UNL A   1      44.703  26.628  35.164  1.00  0.00     0.135 A 
ATOM     66  F   UNL A   1      46.422  29.419  33.580  1.00  0.00    -0.206 F 
ATOM     67  C   UNL A   1      47.290  27.558  34.717  1.00  0.00     0.059 A 
ATOM     68  C   UNL A   1      45.784  25.895  35.644  1.00  0.00     0.059 A 
ATOM     69  F   UNL A   1      43.469  26.140  35.367  1.00  0.00    -0.206 F 
ATOM     70  C   UNL A   1      47.075  26.361  35.401  1.00  0.00     0.060 A 
BRANCH  70  71
ATOM     71  S   UNL A   1      48.507  25.421  35.971  1.00  0.00     0.124 S 
ATOM     72  O   UNL A   1      49.607  26.176  35.379  1.00  0.00    -0.237 OA
ATOM     73  O   UNL A   1      48.383  25.515  37.422  1.00  0.00    -0.237 OA
ATOM     74  O   UNL A   1      48.285  24.092  35.411  1.00  0.00    -0.744 OA
ENDBRANCH  70  71
ENDBRANCH  49  63
BRANCH  50  75
ATOM     75  C   UNL A   1      36.990  32.510  30.444  1.00  0.00     0.058 A 
ATOM     76  C   UNL A   1      35.677  32.146  30.786  1.00  0.00     0.135 A 
ATOM     77  C   UNL A   1      37.145  33.547  29.509  1.00  0.00     0.135 A 
ATOM     78  F   UNL A   1      35.464  31.140  31.649  1.00  0.00    -0.206 F 
ATOM     79  C   UNL A   1      34.568  32.781  30.229  1.00  0.00     0.059 A 
ATOM     80  C   UNL A   1      36.053  34.216  28.958  1.00  0.00     0.059 A 
ATOM     81  F   UNL A   1      38.374  33.932  29.132  1.00  0.00    -0.206 F 
ATOM     82  C   UNL A   1      34.766  33.823  29.321  1.00  0.00     0.060 A 
BRANCH  82  83
ATOM     83  S   UNL A   1      33.325  34.694  28.664  1.00  0.00     0.124 S 
ATOM     84  O   UNL A   1      32.543  34.929  29.873  1.00  0.00    -0.237 OA
ATOM     85  O   UNL A   1      33.932  35.875  28.057  1.00  0.00    -0.237 OA
ATOM     86  O   UNL A   1      32.756  33.736  27.721  1.00  0.00    -0.744 OA
ENDBRANCH  82  83
ENDBRANCH  50  75
BRANCH  62  87
ATOM     87  C   UNL A   1      40.311  33.021  36.568  1.00  0.00     0.058 A 
ATOM     88  C   UNL A   1      41.076  34.184  36.751  1.00  0.00     0.135 A 
ATOM     89  C   UNL A   1      39.321  32.730  37.521  1.00  0.00     0.135 A 
ATOM     90  F   UNL A   1      42.031  34.511  35.867  1.00  0.00    -0.206 F 
ATOM     91  C   UNL A   1      40.896  35.002  37.864  1.00  0.00     0.059 A 
ATOM     92  C   UNL A   1      39.105  33.550  38.624  1.00  0.00     0.059 A 
ATOM     93  F   UNL A   1      38.547  31.642  37.383  1.00  0.00    -0.206 F 
ATOM     94  C   UNL A   1      39.913  34.671  38.798  1.00  0.00     0.060 A 
BRANCH  94  95
ATOM     95  S   UNL A   1      39.699  35.729  40.245  1.00  0.00     0.124 S 
ATOM     96  O   UNL A   1      38.889  34.880  41.111  1.00  0.00    -0.237 OA
ATOM     97  O   UNL A   1      41.075  35.950  40.680  1.00  0.00    -0.237 OA
ATOM     98  O   UNL A   1      39.022  36.906  39.707  1.00  0.00    -0.744 OA
ENDBRANCH  94  95
ENDBRANCH  62  87
ENDBRANCH  36  37
ENDBRANCH  29  31
ENDBRANCH  28  29
ENDBRANCH  27  28
ENDBRANCH   1  27
TORSDOF 21
ENDMDL
