MODEL 1
REMARK VINA RESULT:     -11.0      0.000      0.000
REMARK SMILES Cc1cccc(-c2cc(OCC(=O)OCCOCCOC(=O)c3ccc(-c4c5nc(c(-c6c(F)cc(S(=O)(=O)[O-])cc6F)c6ccc([nH]6)c(-c6c(F)cc(S(=O)(=O)[O-])cc6F)c6nc(c(-c7c(F)cc(S(=O)(=O)[O-])cc7F)c7ccc4[nH]7)C=C6)C=C5)cc3)ncn2)c1
REMARK SMILES IDX 17 1 16 2 15 3 14 4 12 5 13 6 11 7 10 8 9 9 7 10 8 11 91 12
REMARK SMILES IDX 90 13 89 14 6 15 1 16 2 17 3 18 92 19 4 20 5 21 18 22 19 23
REMARK SMILES IDX 20 24 21 25 22 26 23 27 24 28 88 29 25 30 87 31 26 32 27 33
REMARK SMILES IDX 28 34 81 35 29 36 86 37 80 38 82 39 30 40 85 41 79 42 78 43
REMARK SMILES IDX 31 45 65 46 44 47 64 48 45 49 48 50 63 51 83 52 46 53 47 54
REMARK SMILES IDX 62 56 84 57 49 58 32 59 33 60 42 61 34 62 35 63 41 64 43 65
REMARK SMILES IDX 36 66 37 67 38 68 39 69 40 70 66 71 67 72 76 73 68 74 69 75
REMARK SMILES IDX 75 76 77 77 70 78 71 79 72 80 73 81 74 82 50 83 51 84 60 85
REMARK SMILES IDX 52 86 53 87 59 88 61 89 54 90 55 91 56 92 57 93 58 94
REMARK H PARENT 82 44 48 55
REMARK Flexibility Score: inf
ROOT
ATOM      1  O   UNL A   1      32.359  29.121  27.278  1.00  0.00    -0.374 OA
ENDROOT
BRANCH   1   2
ATOM      2  C   UNL A   1      32.185  30.010  26.201  1.00  0.00     0.202 C 
BRANCH   2   3
ATOM      3  C   UNL A   1      31.928  31.348  26.820  1.00  0.00     0.261 C 
BRANCH   3   4
ATOM      4  O   UNL A   1      33.035  32.003  27.441  1.00  0.00    -0.461 OA
BRANCH   4   5
ATOM      5  C   UNL A   1      32.802  33.317  27.754  1.00  0.00     0.344 C 
ATOM      6  O   UNL A   1      31.886  34.005  27.360  1.00  0.00    -0.248 OA
BRANCH   5   7
ATOM      7  C   UNL A   1      33.911  33.887  28.629  1.00  0.00     0.353 C 
BRANCH   7   8
ATOM      8  O   UNL A   1      33.694  34.089  30.010  1.00  0.00    -0.466 OA
BRANCH   8   9
ATOM      9  C   UNL A   1      34.818  34.113  30.785  1.00  0.00     0.217 A 
ATOM     10  C   UNL A   1      37.088  33.777  31.285  1.00  0.00     0.077 A 
ATOM     11  C   UNL A   1      36.070  33.733  30.344  1.00  0.00     0.097 A 
ATOM     12  N   UNL A   1      36.872  34.185  32.555  1.00  0.00    -0.236 NA
ATOM     13  C   UNL A   1      35.615  34.534  32.867  1.00  0.00     0.226 A 
ATOM     14  N   UNL A   1      34.565  34.496  32.044  1.00  0.00    -0.202 NA
BRANCH  10  15
ATOM     15  C   UNL A   1      38.476  33.392  30.979  1.00  0.00     0.001 A 
ATOM     16  C   UNL A   1      41.996  34.875  31.258  1.00  0.00     0.044 C 
ATOM     17  C   UNL A   1      40.896  33.891  30.983  1.00  0.00    -0.050 A 
ATOM     18  C   UNL A   1      41.150  32.646  30.420  1.00  0.00     0.003 A 
ATOM     19  C   UNL A   1      39.565  34.240  31.246  1.00  0.00     0.013 A 
ATOM     20  C   UNL A   1      40.094  31.769  30.162  1.00  0.00     0.001 A 
ATOM     21  C   UNL A   1      38.771  32.137  30.440  1.00  0.00     0.010 A 
ENDBRANCH  10  15
ENDBRANCH   8   9
ENDBRANCH   7   8
ENDBRANCH   5   7
ENDBRANCH   4   5
ENDBRANCH   3   4
ENDBRANCH   2   3
ENDBRANCH   1   2
BRANCH   1  22
ATOM     22  C   UNL A   1      33.383  28.193  27.090  1.00  0.00     0.202 C 
BRANCH  22  23
ATOM     23  C   UNL A   1      34.648  29.006  26.862  1.00  0.00     0.261 C 
BRANCH  23  24
ATOM     24  O   UNL A   1      35.143  29.640  28.071  1.00  0.00    -0.460 OA
BRANCH  24  25
ATOM     25  C   UNL A   1      36.371  30.242  28.005  1.00  0.00     0.338 C 
ATOM     26  O   UNL A   1      36.531  31.449  27.914  1.00  0.00    -0.246 OA
BRANCH  25  27
ATOM     27  C   UNL A   1      37.466  29.296  28.337  1.00  0.00     0.060 A 
ATOM     28  C   UNL A   1      37.528  28.657  29.586  1.00  0.00     0.016 A 
ATOM     29  C   UNL A   1      38.531  29.190  27.443  1.00  0.00     0.016 A 
ATOM     30  C   UNL A   1      38.709  28.003  29.977  1.00  0.00     0.010 A 
ATOM     31  C   UNL A   1      39.721  28.646  27.873  1.00  0.00     0.010 A 
ATOM     32  C   UNL A   1      39.823  28.042  29.135  1.00  0.00    -0.014 A 
BRANCH  32  33
ATOM     33  C   UNL A   1      41.136  27.453  29.407  1.00  0.00     0.031 A 
ATOM     34  C   UNL A   1      41.403  26.088  28.894  1.00  0.00     0.074 A 
ATOM     35  C   UNL A   1      42.173  28.204  29.845  1.00  0.00     0.049 A 
ATOM     36  N   UNL A   1      42.440  25.401  29.213  1.00  0.00    -0.248 NA
ATOM     37  C   UNL A   1      40.537  25.387  27.949  1.00  0.00     0.031 C 
ATOM     38  C   UNL A   1      43.613  27.947  29.755  1.00  0.00     0.029 A 
ATOM     39  N   UNL A   1      42.157  29.450  30.480  1.00  0.00    -0.354 N 
ATOM     40  C   UNL A   1      42.557  24.364  28.319  1.00  0.00     0.074 A 
ATOM     41  C   UNL A   1      41.315  24.364  27.585  1.00  0.00     0.031 C 
ATOM     42  C   UNL A   1      44.260  28.777  30.599  1.00  0.00     0.029 A 
ATOM     43  C   UNL A   1      43.244  29.493  31.363  1.00  0.00     0.049 A 
ATOM     44  H   UNL A   1      41.500  30.168  30.334  1.00  0.00     0.167 HD
ATOM     45  C   UNL A   1      43.753  23.714  28.234  1.00  0.00     0.037 A 
ATOM     46  C   UNL A   1      43.020  29.496  32.706  1.00  0.00     0.037 A 
ATOM     47  C   UNL A   1      44.714  24.266  29.207  1.00  0.00     0.049 A 
ATOM     48  C   UNL A   1      43.508  28.196  33.299  1.00  0.00     0.074 A 
ATOM     49  C   UNL A   1      45.800  25.123  29.136  1.00  0.00     0.029 A 
ATOM     50  N   UNL A   1      44.381  24.217  30.552  1.00  0.00    -0.354 N 
ATOM     51  N   UNL A   1      44.082  27.270  32.578  1.00  0.00    -0.248 NA
ATOM     52  C   UNL A   1      43.376  27.791  34.692  1.00  0.00     0.031 C 
ATOM     53  C   UNL A   1      46.086  25.598  30.459  1.00  0.00     0.029 A 
ATOM     54  C   UNL A   1      45.188  25.018  31.338  1.00  0.00     0.049 A 
ATOM     55  H   UNL A   1      43.646  23.668  30.911  1.00  0.00     0.167 HD
ATOM     56  C   UNL A   1      44.355  26.174  33.321  1.00  0.00     0.074 A 
ATOM     57  C   UNL A   1      43.887  26.543  34.651  1.00  0.00     0.031 C 
ATOM     58  C   UNL A   1      44.931  25.061  32.777  1.00  0.00     0.037 A 
BRANCH  45  59
ATOM     59  C   UNL A   1      44.102  22.721  27.142  1.00  0.00     0.058 A 
ATOM     60  C   UNL A   1      43.294  21.588  26.913  1.00  0.00     0.135 A 
ATOM     61  C   UNL A   1      45.216  22.825  26.280  1.00  0.00     0.135 A 
ATOM     62  F   UNL A   1      42.166  21.381  27.608  1.00  0.00    -0.206 F 
ATOM     63  C   UNL A   1      43.600  20.609  25.962  1.00  0.00     0.059 A 
ATOM     64  C   UNL A   1      45.580  21.829  25.365  1.00  0.00     0.059 A 
ATOM     65  F   UNL A   1      45.970  23.932  26.241  1.00  0.00    -0.206 F 
ATOM     66  C   UNL A   1      44.758  20.725  25.206  1.00  0.00     0.060 A 
BRANCH  66  67
ATOM     67  S   UNL A   1      45.143  19.444  23.997  1.00  0.00     0.124 S 
ATOM     68  O   UNL A   1      44.517  19.964  22.785  1.00  0.00    -0.237 OA
ATOM     69  O   UNL A   1      46.601  19.446  24.010  1.00  0.00    -0.237 OA
ATOM     70  O   UNL A   1      44.513  18.250  24.554  1.00  0.00    -0.744 OA
ENDBRANCH  66  67
ENDBRANCH  45  59
BRANCH  46  71
ATOM     71  C   UNL A   1      41.839  30.342  33.098  1.00  0.00     0.058 A 
ATOM     72  C   UNL A   1      40.588  29.703  33.281  1.00  0.00     0.135 A 
ATOM     73  C   UNL A   1      41.975  31.607  33.689  1.00  0.00     0.135 A 
ATOM     74  F   UNL A   1      40.391  28.471  32.780  1.00  0.00    -0.206 F 
ATOM     75  C   UNL A   1      39.572  30.238  34.083  1.00  0.00     0.059 A 
ATOM     76  C   UNL A   1      40.974  32.157  34.510  1.00  0.00     0.059 A 
ATOM     77  F   UNL A   1      43.131  32.277  33.574  1.00  0.00    -0.206 F 
ATOM     78  C   UNL A   1      39.785  31.455  34.725  1.00  0.00     0.060 A 
BRANCH  78  79
ATOM     79  S   UNL A   1      38.636  31.985  36.046  1.00  0.00     0.124 S 
ATOM     80  O   UNL A   1      39.253  33.216  36.517  1.00  0.00    -0.237 OA
ATOM     81  O   UNL A   1      37.373  32.149  35.328  1.00  0.00    -0.237 OA
ATOM     82  O   UNL A   1      38.668  30.858  36.973  1.00  0.00    -0.744 OA
ENDBRANCH  78  79
ENDBRANCH  46  71
BRANCH  58  83
ATOM     83  C   UNL A   1      45.261  23.871  33.619  1.00  0.00     0.058 A 
ATOM     84  C   UNL A   1      46.549  23.671  34.137  1.00  0.00     0.135 A 
ATOM     85  C   UNL A   1      44.312  22.862  33.885  1.00  0.00     0.135 A 
ATOM     86  F   UNL A   1      47.555  24.506  33.829  1.00  0.00    -0.206 F 
ATOM     87  C   UNL A   1      46.836  22.615  34.991  1.00  0.00     0.059 A 
ATOM     88  C   UNL A   1      44.596  21.763  34.675  1.00  0.00     0.059 A 
ATOM     89  F   UNL A   1      43.054  22.923  33.427  1.00  0.00    -0.206 F 
ATOM     90  C   UNL A   1      45.844  21.679  35.271  1.00  0.00     0.060 A 
BRANCH  90  91
ATOM     91  S   UNL A   1      46.181  20.358  36.437  1.00  0.00     0.124 S 
ATOM     92  O   UNL A   1      45.344  19.274  35.934  1.00  0.00    -0.237 OA
ATOM     93  O   UNL A   1      47.619  20.186  36.261  1.00  0.00    -0.237 OA
ATOM     94  O   UNL A   1      45.765  20.924  37.717  1.00  0.00    -0.744 OA
ENDBRANCH  90  91
ENDBRANCH  58  83
ENDBRANCH  32  33
ENDBRANCH  25  27
ENDBRANCH  24  25
ENDBRANCH  23  24
ENDBRANCH  22  23
ENDBRANCH   1  22
TORSDOF 20
ENDMDL
MODEL 2
REMARK VINA RESULT:     -10.7      2.826      5.651
REMARK SMILES Cc1cccc(-c2cc(OCC(=O)OCCOCCOC(=O)c3ccc(-c4c5nc(c(-c6c(F)cc(S(=O)(=O)[O-])cc6F)c6ccc([nH]6)c(-c6c(F)cc(S(=O)(=O)[O-])cc6F)c6nc(c(-c7c(F)cc(S(=O)(=O)[O-])cc7F)c7ccc4[nH]7)C=C6)C=C5)cc3)ncn2)c1
REMARK SMILES IDX 17 1 16 2 15 3 14 4 12 5 13 6 11 7 10 8 9 9 7 10 8 11 91 12
REMARK SMILES IDX 90 13 89 14 6 15 1 16 2 17 3 18 92 19 4 20 5 21 18 22 19 23
REMARK SMILES IDX 20 24 21 25 22 26 23 27 24 28 88 29 25 30 87 31 26 32 27 33
REMARK SMILES IDX 28 34 81 35 29 36 86 37 80 38 82 39 30 40 85 41 79 42 78 43
REMARK SMILES IDX 31 45 65 46 44 47 64 48 45 49 48 50 63 51 83 52 46 53 47 54
REMARK SMILES IDX 62 56 84 57 49 58 32 59 33 60 42 61 34 62 35 63 41 64 43 65
REMARK SMILES IDX 36 66 37 67 38 68 39 69 40 70 66 71 67 72 76 73 68 74 69 75
REMARK SMILES IDX 75 76 77 77 70 78 71 79 72 80 73 81 74 82 50 83 51 84 60 85
REMARK SMILES IDX 52 86 53 87 59 88 61 89 54 90 55 91 56 92 57 93 58 94
REMARK H PARENT 82 44 48 55
REMARK Flexibility Score: inf
ROOT
ATOM      1  O   UNL A   1      33.851  29.011  25.651  1.00  0.00    -0.374 OA
ENDROOT
BRANCH   1   2
ATOM      2  C   UNL A   1      33.043  28.138  24.899  1.00  0.00     0.202 C 
BRANCH   2   3
ATOM      3  C   UNL A   1      31.679  28.225  25.508  1.00  0.00     0.261 C 
BRANCH   3   4
ATOM      4  O   UNL A   1      30.686  27.322  25.019  1.00  0.00    -0.461 OA
BRANCH   4   5
ATOM      5  C   UNL A   1      30.803  26.047  25.508  1.00  0.00     0.344 C 
ATOM      6  O   UNL A   1      31.045  25.728  26.651  1.00  0.00    -0.248 OA
BRANCH   5   7
ATOM      7  C   UNL A   1      30.675  25.011  24.398  1.00  0.00     0.353 C 
BRANCH   7   8
ATOM      8  O   UNL A   1      31.758  24.770  23.524  1.00  0.00    -0.466 OA
BRANCH   8   9
ATOM      9  C   UNL A   1      32.520  23.675  23.819  1.00  0.00     0.217 A 
ATOM     10  C   UNL A   1      34.456  22.524  24.484  1.00  0.00     0.077 A 
ATOM     11  C   UNL A   1      33.819  23.739  24.283  1.00  0.00     0.097 A 
ATOM     12  N   UNL A   1      33.835  21.344  24.256  1.00  0.00    -0.236 NA
ATOM     13  C   UNL A   1      32.572  21.408  23.811  1.00  0.00     0.226 A 
ATOM     14  N   UNL A   1      31.886  22.524  23.558  1.00  0.00    -0.202 NA
BRANCH  10  15
ATOM     15  C   UNL A   1      35.844  22.418  24.962  1.00  0.00     0.001 A 
ATOM     16  C   UNL A   1      38.619  19.785  25.168  1.00  0.00     0.044 C 
ATOM     17  C   UNL A   1      37.914  21.107  25.282  1.00  0.00    -0.050 A 
ATOM     18  C   UNL A   1      38.524  22.216  25.853  1.00  0.00     0.003 A 
ATOM     19  C   UNL A   1      36.586  21.228  24.853  1.00  0.00     0.013 A 
ATOM     20  C   UNL A   1      37.824  23.421  25.957  1.00  0.00     0.001 A 
ATOM     21  C   UNL A   1      36.499  23.522  25.515  1.00  0.00     0.010 A 
ENDBRANCH  10  15
ENDBRANCH   8   9
ENDBRANCH   7   8
ENDBRANCH   5   7
ENDBRANCH   4   5
ENDBRANCH   3   4
ENDBRANCH   2   3
ENDBRANCH   1   2
BRANCH   1  22
ATOM     22  C   UNL A   1      33.160  30.084  26.212  1.00  0.00     0.202 C 
BRANCH  22  23
ATOM     23  C   UNL A   1      34.052  30.626  27.317  1.00  0.00     0.261 C 
BRANCH  23  24
ATOM     24  O   UNL A   1      35.213  29.791  27.573  1.00  0.00    -0.460 OA
BRANCH  24  25
ATOM     25  C   UNL A   1      36.392  30.428  27.853  1.00  0.00     0.338 C 
ATOM     26  O   UNL A   1      36.487  31.632  28.039  1.00  0.00    -0.246 OA
BRANCH  25  27
ATOM     27  C   UNL A   1      37.474  29.465  28.181  1.00  0.00     0.060 A 
ATOM     28  C   UNL A   1      37.503  28.786  29.409  1.00  0.00     0.016 A 
ATOM     29  C   UNL A   1      38.558  29.379  27.308  1.00  0.00     0.016 A 
ATOM     30  C   UNL A   1      38.670  28.112  29.806  1.00  0.00     0.010 A 
ATOM     31  C   UNL A   1      39.735  28.814  27.748  1.00  0.00     0.010 A 
ATOM     32  C   UNL A   1      39.803  28.170  28.992  1.00  0.00    -0.014 A 
BRANCH  32  33
ATOM     33  C   UNL A   1      41.106  27.563  29.275  1.00  0.00     0.031 A 
ATOM     34  C   UNL A   1      41.351  26.186  28.785  1.00  0.00     0.074 A 
ATOM     35  C   UNL A   1      42.155  28.304  29.702  1.00  0.00     0.049 A 
ATOM     36  N   UNL A   1      42.376  25.487  29.116  1.00  0.00    -0.248 NA
ATOM     37  C   UNL A   1      40.474  25.485  27.850  1.00  0.00     0.031 C 
ATOM     38  C   UNL A   1      43.591  28.021  29.619  1.00  0.00     0.029 A 
ATOM     39  N   UNL A   1      42.159  29.560  30.318  1.00  0.00    -0.354 N 
ATOM     40  C   UNL A   1      42.477  24.434  28.239  1.00  0.00     0.074 A 
ATOM     41  C   UNL A   1      41.235  24.443  27.503  1.00  0.00     0.031 C 
ATOM     42  C   UNL A   1      44.251  28.854  30.450  1.00  0.00     0.029 A 
ATOM     43  C   UNL A   1      43.246  29.599  31.201  1.00  0.00     0.049 A 
ATOM     44  H   UNL A   1      41.514  30.286  30.159  1.00  0.00     0.167 HD
ATOM     45  C   UNL A   1      43.662  23.763  28.166  1.00  0.00     0.037 A 
ATOM     46  C   UNL A   1      43.020  29.627  32.544  1.00  0.00     0.037 A 
ATOM     47  C   UNL A   1      44.630  24.314  29.131  1.00  0.00     0.049 A 
ATOM     48  C   UNL A   1      43.486  28.329  33.158  1.00  0.00     0.074 A 
ATOM     49  C   UNL A   1      45.731  25.151  29.048  1.00  0.00     0.029 A 
ATOM     50  N   UNL A   1      44.295  24.292  30.476  1.00  0.00    -0.354 N 
ATOM     51  N   UNL A   1      44.045  27.382  32.453  1.00  0.00    -0.248 NA
ATOM     52  C   UNL A   1      43.346  27.948  34.558  1.00  0.00     0.031 C 
ATOM     53  C   UNL A   1      46.024  25.643  30.364  1.00  0.00     0.029 A 
ATOM     54  C   UNL A   1      45.115  25.092  31.251  1.00  0.00     0.049 A 
ATOM     55  H   UNL A   1      43.550  23.762  30.843  1.00  0.00     0.167 HD
ATOM     56  C   UNL A   1      44.299  26.294  33.214  1.00  0.00     0.074 A 
ATOM     57  C   UNL A   1      43.835  26.692  34.537  1.00  0.00     0.031 C 
ATOM     58  C   UNL A   1      44.857  25.162  32.689  1.00  0.00     0.037 A 
BRANCH  45  59
ATOM     59  C   UNL A   1      43.995  22.747  27.090  1.00  0.00     0.058 A 
ATOM     60  C   UNL A   1      43.200  21.595  26.916  1.00  0.00     0.135 A 
ATOM     61  C   UNL A   1      45.081  22.846  26.193  1.00  0.00     0.135 A 
ATOM     62  F   UNL A   1      42.097  21.388  27.649  1.00  0.00    -0.206 F 
ATOM     63  C   UNL A   1      43.495  20.596  25.982  1.00  0.00     0.059 A 
ATOM     64  C   UNL A   1      45.435  21.832  25.294  1.00  0.00     0.059 A 
ATOM     65  F   UNL A   1      45.815  23.963  26.102  1.00  0.00    -0.206 F 
ATOM     66  C   UNL A   1      44.628  20.710  25.189  1.00  0.00     0.060 A 
BRANCH  66  67
ATOM     67  S   UNL A   1      44.999  19.404  24.003  1.00  0.00     0.124 S 
ATOM     68  O   UNL A   1      44.292  18.260  24.571  1.00  0.00    -0.237 OA
ATOM     69  O   UNL A   1      44.439  19.948  22.771  1.00  0.00    -0.237 OA
ATOM     70  O   UNL A   1      46.456  19.312  24.043  1.00  0.00    -0.744 OA
ENDBRANCH  66  67
ENDBRANCH  45  59
BRANCH  46  71
ATOM     71  C   UNL A   1      41.853  30.499  32.921  1.00  0.00     0.058 A 
ATOM     72  C   UNL A   1      40.606  29.877  33.173  1.00  0.00     0.135 A 
ATOM     73  C   UNL A   1      42.010  31.794  33.437  1.00  0.00     0.135 A 
ATOM     74  F   UNL A   1      40.391  28.620  32.746  1.00  0.00    -0.206 F 
ATOM     75  C   UNL A   1      39.614  30.460  33.971  1.00  0.00     0.059 A 
ATOM     76  C   UNL A   1      41.033  32.394  34.253  1.00  0.00     0.059 A 
ATOM     77  F   UNL A   1      43.164  32.451  33.253  1.00  0.00    -0.206 F 
ATOM     78  C   UNL A   1      39.848  31.710  34.539  1.00  0.00     0.060 A 
BRANCH  78  79
ATOM     79  S   UNL A   1      38.738  32.317  35.860  1.00  0.00     0.124 S 
ATOM     80  O   UNL A   1      38.832  33.761  35.704  1.00  0.00    -0.237 OA
ATOM     81  O   UNL A   1      37.451  31.727  35.494  1.00  0.00    -0.237 OA
ATOM     82  O   UNL A   1      39.340  31.762  37.068  1.00  0.00    -0.744 OA
ENDBRANCH  78  79
ENDBRANCH  46  71
BRANCH  58  83
ATOM     83  C   UNL A   1      45.166  23.981  33.550  1.00  0.00     0.058 A 
ATOM     84  C   UNL A   1      44.226  22.963  33.768  1.00  0.00     0.135 A 
ATOM     85  C   UNL A   1      46.394  23.860  34.233  1.00  0.00     0.135 A 
ATOM     86  F   UNL A   1      42.982  23.054  33.270  1.00  0.00    -0.206 F 
ATOM     87  C   UNL A   1      44.540  21.823  34.494  1.00  0.00     0.059 A 
ATOM     88  C   UNL A   1      46.702  22.766  35.021  1.00  0.00     0.059 A 
ATOM     89  F   UNL A   1      47.366  24.777  34.127  1.00  0.00    -0.206 F 
ATOM     90  C   UNL A   1      45.791  21.725  35.097  1.00  0.00     0.060 A 
BRANCH  90  91
ATOM     91  S   UNL A   1      46.236  20.221  35.968  1.00  0.00     0.124 S 
ATOM     92  O   UNL A   1      45.488  19.202  35.238  1.00  0.00    -0.237 OA
ATOM     93  O   UNL A   1      47.683  20.204  35.780  1.00  0.00    -0.237 OA
ATOM     94  O   UNL A   1      45.779  20.472  37.332  1.00  0.00    -0.744 OA
ENDBRANCH  90  91
ENDBRANCH  58  83
ENDBRANCH  32  33
ENDBRANCH  25  27
ENDBRANCH  24  25
ENDBRANCH  23  24
ENDBRANCH  22  23
ENDBRANCH   1  22
TORSDOF 20
ENDMDL
MODEL 3
REMARK VINA RESULT:     -10.6      4.473      7.586
REMARK SMILES Cc1cccc(-c2cc(OCC(=O)OCCOCCOC(=O)c3ccc(-c4c5nc(c(-c6c(F)cc(S(=O)(=O)[O-])cc6F)c6ccc([nH]6)c(-c6c(F)cc(S(=O)(=O)[O-])cc6F)c6nc(c(-c7c(F)cc(S(=O)(=O)[O-])cc7F)c7ccc4[nH]7)C=C6)C=C5)cc3)ncn2)c1
REMARK SMILES IDX 17 1 16 2 15 3 14 4 12 5 13 6 11 7 10 8 9 9 7 10 8 11 91 12
REMARK SMILES IDX 90 13 89 14 6 15 1 16 2 17 3 18 92 19 4 20 5 21 18 22 19 23
REMARK SMILES IDX 20 24 21 25 22 26 23 27 24 28 88 29 25 30 87 31 26 32 27 33
REMARK SMILES IDX 28 34 81 35 29 36 86 37 80 38 82 39 30 40 85 41 79 42 78 43
REMARK SMILES IDX 31 45 65 46 44 47 64 48 45 49 48 50 63 51 83 52 46 53 47 54
REMARK SMILES IDX 62 56 84 57 49 58 32 59 33 60 42 61 34 62 35 63 41 64 43 65
REMARK SMILES IDX 36 66 37 67 38 68 39 69 40 70 66 71 67 72 76 73 68 74 69 75
REMARK SMILES IDX 75 76 77 77 70 78 71 79 72 80 73 81 74 82 50 83 51 84 60 85
REMARK SMILES IDX 52 86 53 87 59 88 61 89 54 90 55 91 56 92 57 93 58 94
REMARK H PARENT 82 44 48 55
REMARK Flexibility Score: inf
ROOT
ATOM      1  O   UNL A   1      32.922  28.301  24.989  1.00  0.00    -0.374 OA
ENDROOT
BRANCH   1   2
ATOM      2  C   UNL A   1      31.717  27.581  24.875  1.00  0.00     0.202 C 
BRANCH   2   3
ATOM      3  C   UNL A   1      32.067  26.321  24.148  1.00  0.00     0.261 C 
BRANCH   3   4
ATOM      4  O   UNL A   1      33.455  26.055  23.936  1.00  0.00    -0.461 OA
BRANCH   4   5
ATOM      5  C   UNL A   1      33.731  25.464  22.731  1.00  0.00     0.344 C 
ATOM      6  O   UNL A   1      33.762  26.005  21.648  1.00  0.00    -0.248 OA
BRANCH   5   7
ATOM      7  C   UNL A   1      33.924  23.960  22.879  1.00  0.00     0.353 C 
BRANCH   7   8
ATOM      8  O   UNL A   1      34.296  23.411  24.127  1.00  0.00    -0.466 OA
BRANCH   8   9
ATOM      9  C   UNL A   1      33.573  22.327  24.532  1.00  0.00     0.217 A 
ATOM     10  C   UNL A   1      33.155  20.048  24.919  1.00  0.00     0.077 A 
ATOM     11  C   UNL A   1      34.047  21.029  24.515  1.00  0.00     0.097 A 
ATOM     12  N   UNL A   1      31.899  20.344  25.324  1.00  0.00    -0.236 NA
ATOM     13  C   UNL A   1      31.553  21.639  25.301  1.00  0.00     0.226 A 
ATOM     14  N   UNL A   1      32.327  22.650  24.901  1.00  0.00    -0.202 NA
BRANCH  10  15
ATOM     15  C   UNL A   1      33.500  18.617  24.946  1.00  0.00     0.001 A 
ATOM     16  C   UNL A   1      31.943  15.308  26.086  1.00  0.00     0.044 C 
ATOM     17  C   UNL A   1      32.918  16.275  25.479  1.00  0.00    -0.050 A 
ATOM     18  C   UNL A   1      34.144  15.859  24.974  1.00  0.00     0.003 A 
ATOM     19  C   UNL A   1      32.623  17.644  25.459  1.00  0.00     0.013 A 
ATOM     20  C   UNL A   1      35.030  16.796  24.437  1.00  0.00     0.001 A 
ATOM     21  C   UNL A   1      34.711  18.160  24.420  1.00  0.00     0.010 A 
ENDBRANCH  10  15
ENDBRANCH   8   9
ENDBRANCH   7   8
ENDBRANCH   5   7
ENDBRANCH   4   5
ENDBRANCH   3   4
ENDBRANCH   2   3
ENDBRANCH   1   2
BRANCH   1  22
ATOM     22  C   UNL A   1      32.757  29.686  25.004  1.00  0.00     0.202 C 
BRANCH  22  23
ATOM     23  C   UNL A   1      32.156  30.022  26.359  1.00  0.00     0.261 C 
BRANCH  23  24
ATOM     24  O   UNL A   1      33.075  29.801  27.461  1.00  0.00    -0.460 OA
BRANCH  24  25
ATOM     25  C   UNL A   1      34.047  30.744  27.664  1.00  0.00     0.338 C 
ATOM     26  O   UNL A   1      33.834  31.946  27.678  1.00  0.00    -0.246 OA
BRANCH  25  27
ATOM     27  C   UNL A   1      35.315  30.134  28.140  1.00  0.00     0.060 A 
ATOM     28  C   UNL A   1      35.474  29.720  29.472  1.00  0.00     0.016 A 
ATOM     29  C   UNL A   1      36.408  30.140  27.274  1.00  0.00     0.016 A 
ATOM     30  C   UNL A   1      36.757  29.420  29.960  1.00  0.00     0.010 A 
ATOM     31  C   UNL A   1      37.673  29.954  27.783  1.00  0.00     0.010 A 
ATOM     32  C   UNL A   1      37.863  29.585  29.124  1.00  0.00    -0.014 A 
BRANCH  32  33
ATOM     33  C   UNL A   1      39.264  29.358  29.484  1.00  0.00     0.031 A 
ATOM     34  C   UNL A   1      39.898  28.093  29.045  1.00  0.00     0.074 A 
ATOM     35  C   UNL A   1      40.050  30.363  29.939  1.00  0.00     0.049 A 
ATOM     36  N   UNL A   1      41.054  27.703  29.444  1.00  0.00    -0.248 NA
ATOM     37  C   UNL A   1      39.293  27.166  28.090  1.00  0.00     0.031 C 
ATOM     38  C   UNL A   1      41.511  30.478  29.931  1.00  0.00     0.029 A 
ATOM     39  N   UNL A   1      39.682  31.581  30.518  1.00  0.00    -0.354 N 
ATOM     40  C   UNL A   1      41.482  26.704  28.602  1.00  0.00     0.074 A 
ATOM     41  C   UNL A   1      40.325  26.365  27.809  1.00  0.00     0.031 C 
ATOM     42  C   UNL A   1      41.877  31.471  30.768  1.00  0.00     0.029 A 
ATOM     43  C   UNL A   1      40.670  31.926  31.450  1.00  0.00     0.049 A 
ATOM     44  H   UNL A   1      38.875  32.103  30.309  1.00  0.00     0.167 HD
ATOM     45  C   UNL A   1      42.806  26.378  28.604  1.00  0.00     0.037 A 
ATOM     46  C   UNL A   1      40.374  31.912  32.779  1.00  0.00     0.037 A 
ATOM     47  C   UNL A   1      43.538  27.185  29.597  1.00  0.00     0.049 A 
ATOM     48  C   UNL A   1      41.140  30.798  33.451  1.00  0.00     0.074 A 
ATOM     49  C   UNL A   1      44.374  28.289  29.543  1.00  0.00     0.029 A 
ATOM     50  N   UNL A   1      43.151  27.093  30.926  1.00  0.00    -0.354 N 
ATOM     51  N   UNL A   1      41.971  30.028  32.800  1.00  0.00    -0.248 NA
ATOM     52  C   UNL A   1      41.035  30.414  34.853  1.00  0.00     0.031 C 
ATOM     53  C   UNL A   1      44.453  28.861  30.856  1.00  0.00     0.029 A 
ATOM     54  C   UNL A   1      43.681  28.096  31.715  1.00  0.00     0.049 A 
ATOM     55  H   UNL A   1      42.558  26.386  31.272  1.00  0.00     0.167 HD
ATOM     56  C   UNL A   1      42.469  29.060  33.602  1.00  0.00     0.074 A 
ATOM     57  C   UNL A   1      41.846  29.337  34.891  1.00  0.00     0.031 C 
ATOM     58  C   UNL A   1      43.338  28.115  33.136  1.00  0.00     0.037 A 
BRANCH  45  59
ATOM     59  C   UNL A   1      43.457  25.475  27.574  1.00  0.00     0.058 A 
ATOM     60  C   UNL A   1      43.272  24.077  27.620  1.00  0.00     0.135 A 
ATOM     61  C   UNL A   1      44.276  25.918  26.512  1.00  0.00     0.135 A 
ATOM     62  F   UNL A   1      42.471  23.508  28.532  1.00  0.00    -0.206 F 
ATOM     63  C   UNL A   1      43.896  23.193  26.735  1.00  0.00     0.059 A 
ATOM     64  C   UNL A   1      44.962  25.052  25.653  1.00  0.00     0.059 A 
ATOM     65  F   UNL A   1      44.396  27.220  26.217  1.00  0.00    -0.206 F 
ATOM     66  C   UNL A   1      44.759  23.686  25.766  1.00  0.00     0.060 A 
BRANCH  66  67
ATOM     67  S   UNL A   1      45.566  22.527  24.645  1.00  0.00     0.124 S 
ATOM     68  O   UNL A   1      46.439  23.403  23.870  1.00  0.00    -0.237 OA
ATOM     69  O   UNL A   1      46.235  21.625  25.576  1.00  0.00    -0.237 OA
ATOM     70  O   UNL A   1      44.453  21.945  23.898  1.00  0.00    -0.744 OA
ENDBRANCH  66  67
ENDBRANCH  45  59
BRANCH  46  71
ATOM     71  C   UNL A   1      38.997  32.440  33.076  1.00  0.00     0.058 A 
ATOM     72  C   UNL A   1      38.778  33.835  32.972  1.00  0.00     0.135 A 
ATOM     73  C   UNL A   1      37.851  31.632  33.038  1.00  0.00     0.135 A 
ATOM     74  F   UNL A   1      39.827  34.675  32.961  1.00  0.00    -0.206 F 
ATOM     75  C   UNL A   1      37.512  34.390  32.742  1.00  0.00     0.059 A 
ATOM     76  C   UNL A   1      36.572  32.165  32.793  1.00  0.00     0.059 A 
ATOM     77  F   UNL A   1      37.970  30.299  33.119  1.00  0.00    -0.206 F 
ATOM     78  C   UNL A   1      36.413  33.543  32.619  1.00  0.00     0.060 A 
BRANCH  78  79
ATOM     79  S   UNL A   1      34.839  34.206  31.963  1.00  0.00     0.124 S 
ATOM     80  O   UNL A   1      35.038  34.108  30.525  1.00  0.00    -0.237 OA
ATOM     81  O   UNL A   1      33.847  33.291  32.524  1.00  0.00    -0.237 OA
ATOM     82  O   UNL A   1      34.802  35.556  32.515  1.00  0.00    -0.744 OA
ENDBRANCH  78  79
ENDBRANCH  46  71
BRANCH  58  83
ATOM     83  C   UNL A   1      43.909  27.075  34.044  1.00  0.00     0.058 A 
ATOM     84  C   UNL A   1      45.292  26.953  34.245  1.00  0.00     0.135 A 
ATOM     85  C   UNL A   1      43.093  26.127  34.695  1.00  0.00     0.135 A 
ATOM     86  F   UNL A   1      46.159  27.721  33.566  1.00  0.00    -0.206 F 
ATOM     87  C   UNL A   1      45.820  26.046  35.154  1.00  0.00     0.059 A 
ATOM     88  C   UNL A   1      43.603  25.168  35.551  1.00  0.00     0.059 A 
ATOM     89  F   UNL A   1      41.759  26.122  34.567  1.00  0.00    -0.206 F 
ATOM     90  C   UNL A   1      44.963  25.174  35.819  1.00  0.00     0.060 A 
BRANCH  90  91
ATOM     91  S   UNL A   1      45.626  24.056  37.056  1.00  0.00     0.124 S 
ATOM     92  O   UNL A   1      44.765  24.313  38.206  1.00  0.00    -0.237 OA
ATOM     93  O   UNL A   1      45.440  22.766  36.399  1.00  0.00    -0.237 OA
ATOM     94  O   UNL A   1      47.010  24.497  37.202  1.00  0.00    -0.744 OA
ENDBRANCH  90  91
ENDBRANCH  58  83
ENDBRANCH  32  33
ENDBRANCH  25  27
ENDBRANCH  24  25
ENDBRANCH  23  24
ENDBRANCH  22  23
ENDBRANCH   1  22
TORSDOF 20
ENDMDL
