MODEL 1
REMARK VINA RESULT:     -10.7      0.000      0.000
REMARK SMILES CCCCCCNC(=O)Nc1cccc(-c2ccc([C@@H](C)C(=O)OCCOCCOC(=O)c3ccc(-c4c5nc(c(-c6c(F)cc(S(=O)(=O)[O-])cc6F)c6ccc([nH]6)c(-c6c(F)cc(S(=O)(=O)[O-])cc6F)c6nc(c(-c7c(F)cc(S(=O)(=O)[O-])cc7F)c7ccc4[nH]7)C=C6)C=C5)cc3)cc2F)c1
REMARK SMILES IDX 25 1 24 2 22 3 23 4 20 5 21 6 19 7 16 8 17 9 100 10 18 11
REMARK SMILES IDX 99 12 101 13 15 14 11 15 12 16 102 17 13 18 14 19 10 20 7 21
REMARK SMILES IDX 8 22 9 24 6 26 5 27 4 28 3 29 2 30 1 31 26 32 27 33 28 34
REMARK SMILES IDX 29 35 30 36 31 37 32 38 33 39 34 40 98 41 35 42 97 43 36 44
REMARK SMILES IDX 37 45 38 46 91 47 39 48 96 49 90 50 92 51 40 52 95 53 89 54
REMARK SMILES IDX 88 55 41 57 75 58 54 59 74 60 55 61 58 62 73 63 93 64 56 65
REMARK SMILES IDX 57 66 72 68 94 69 59 70 42 71 43 72 52 73 44 74 45 75 51 76
REMARK SMILES IDX 53 77 46 78 47 79 48 80 49 81 50 82 76 83 77 84 86 85 78 86
REMARK SMILES IDX 79 87 85 88 87 89 80 90 81 91 82 92 83 93 84 94 60 95 61 96
REMARK SMILES IDX 70 97 62 98 63 99 69 100 71 101 64 102 65 103 66 104 67 105
REMARK SMILES IDX 68 106
REMARK H PARENT 7 23 10 25 92 56 58 67
REMARK Flexibility Score: inf
ROOT
ATOM      1  C   UNL A   1      37.095  20.738  24.654  1.00  0.00     0.261 C 
ENDROOT
BRANCH   1   2
ATOM      2  O   UNL A   1      35.875  20.709  25.410  1.00  0.00    -0.463 OA
BRANCH   2   3
ATOM      3  C   UNL A   1      34.943  19.834  24.948  1.00  0.00     0.313 C 
ATOM      4  O   UNL A   1      35.189  18.689  24.574  1.00  0.00    -0.252 OA
BRANCH   3   5
ATOM      5  C   UNL A   1      33.537  20.397  24.872  1.00  0.00     0.126 C 
ATOM      6  C   UNL A   1      32.761  19.632  23.800  1.00  0.00     0.025 C 
BRANCH   5   7
ATOM      7  C   UNL A   1      33.345  21.903  24.737  1.00  0.00    -0.031 A 
ATOM      8  C   UNL A   1      33.457  24.743  24.432  1.00  0.00     0.018 A 
ATOM      9  C   UNL A   1      33.265  24.147  25.691  1.00  0.00     0.012 A 
ATOM     10  C   UNL A   1      33.500  23.885  23.326  1.00  0.00     0.131 A 
ATOM     11  C   UNL A   1      33.207  22.752  25.843  1.00  0.00     0.005 A 
ATOM     12  C   UNL A   1      33.444  22.496  23.468  1.00  0.00     0.044 A 
ATOM     13  F   UNL A   1      33.665  24.381  22.089  1.00  0.00    -0.206 F 
BRANCH   8  14
ATOM     14  C   UNL A   1      33.675  26.197  24.298  1.00  0.00    -0.013 A 
ATOM     15  C   UNL A   1      34.044  28.409  25.274  1.00  0.00     0.043 A 
ATOM     16  C   UNL A   1      34.036  28.986  24.006  1.00  0.00     0.026 A 
ATOM     17  C   UNL A   1      33.810  27.033  25.418  1.00  0.00     0.035 A 
ATOM     18  C   UNL A   1      33.910  28.177  22.881  1.00  0.00     0.003 A 
ATOM     19  C   UNL A   1      33.746  26.796  23.027  1.00  0.00     0.009 A 
BRANCH  15  20
ATOM     20  N   UNL A   1      34.318  29.244  26.367  1.00  0.00    -0.308 N 
ATOM     21  N   UNL A   1      32.423  30.645  26.505  1.00  0.00    -0.338 N 
ATOM     22  C   UNL A   1      33.733  30.405  26.747  1.00  0.00     0.319 C 
ATOM     23  H   UNL A   1      32.147  31.582  26.624  1.00  0.00     0.165 HD
ATOM     24  O   UNL A   1      34.372  31.223  27.410  1.00  0.00    -0.249 OA
ATOM     25  H   UNL A   1      35.049  28.938  26.950  1.00  0.00     0.171 HD
BRANCH  21  26
ATOM     26  C   UNL A   1      31.356  29.742  26.099  1.00  0.00     0.117 C 
BRANCH  26  27
ATOM     27  C   UNL A   1      30.808  30.027  24.703  1.00  0.00     0.021 C 
BRANCH  27  28
ATOM     28  C   UNL A   1      30.414  28.805  23.877  1.00  0.00     0.002 C 
BRANCH  28  29
ATOM     29  C   UNL A   1      30.340  29.021  22.366  1.00  0.00    -0.000 C 
BRANCH  29  30
ATOM     30  C   UNL A   1      29.461  30.180  21.908  1.00  0.00    -0.003 C 
ATOM     31  C   UNL A   1      27.976  29.943  22.109  1.00  0.00     0.004 C 
ENDBRANCH  29  30
ENDBRANCH  28  29
ENDBRANCH  27  28
ENDBRANCH  26  27
ENDBRANCH  21  26
ENDBRANCH  15  20
ENDBRANCH   8  14
ENDBRANCH   5   7
ENDBRANCH   3   5
ENDBRANCH   2   3
ENDBRANCH   1   2
BRANCH   1  32
ATOM     32  C   UNL A   1      38.363  20.444  25.466  1.00  0.00     0.202 C 
BRANCH  32  33
ATOM     33  O   UNL A   1      39.036  21.512  26.117  1.00  0.00    -0.374 OA
BRANCH  33  34
ATOM     34  C   UNL A   1      40.342  21.306  26.644  1.00  0.00     0.202 C 
BRANCH  34  35
ATOM     35  C   UNL A   1      41.306  22.489  26.797  1.00  0.00     0.261 C 
BRANCH  35  36
ATOM     36  O   UNL A   1      40.734  23.780  26.525  1.00  0.00    -0.460 OA
BRANCH  36  37
ATOM     37  C   UNL A   1      41.604  24.804  26.683  1.00  0.00     0.338 C 
ATOM     38  O   UNL A   1      42.679  24.930  26.097  1.00  0.00    -0.246 OA
BRANCH  37  39
ATOM     39  C   UNL A   1      41.119  25.842  27.612  1.00  0.00     0.060 A 
ATOM     40  C   UNL A   1      41.987  26.916  27.847  1.00  0.00     0.016 A 
ATOM     41  C   UNL A   1      39.947  25.704  28.363  1.00  0.00     0.016 A 
ATOM     42  C   UNL A   1      41.727  27.810  28.878  1.00  0.00     0.010 A 
ATOM     43  C   UNL A   1      39.688  26.607  29.405  1.00  0.00     0.010 A 
ATOM     44  C   UNL A   1      40.595  27.641  29.685  1.00  0.00    -0.014 A 
BRANCH  44  45
ATOM     45  C   UNL A   1      40.411  28.565  30.826  1.00  0.00     0.031 A 
ATOM     46  C   UNL A   1      41.286  28.457  32.044  1.00  0.00     0.074 A 
ATOM     47  C   UNL A   1      39.528  29.572  30.703  1.00  0.00     0.049 A 
ATOM     48  N   UNL A   1      41.344  29.239  33.091  1.00  0.00    -0.248 NA
ATOM     49  C   UNL A   1      42.229  27.329  32.085  1.00  0.00     0.031 C 
ATOM     50  C   UNL A   1      38.667  29.794  29.539  1.00  0.00     0.029 A 
ATOM     51  N   UNL A   1      39.222  30.603  31.550  1.00  0.00    -0.354 N 
ATOM     52  C   UNL A   1      42.349  28.720  33.900  1.00  0.00     0.074 A 
ATOM     53  C   UNL A   1      42.847  27.530  33.242  1.00  0.00     0.031 C 
ATOM     54  C   UNL A   1      37.927  30.894  29.749  1.00  0.00     0.029 A 
ATOM     55  C   UNL A   1      38.248  31.440  31.064  1.00  0.00     0.049 A 
ATOM     56  H   UNL A   1      39.657  30.732  32.423  1.00  0.00     0.167 HD
ATOM     57  C   UNL A   1      42.820  29.205  35.074  1.00  0.00     0.037 A 
ATOM     58  C   UNL A   1      37.676  32.523  31.623  1.00  0.00     0.037 A 
ATOM     59  C   UNL A   1      42.297  30.378  35.730  1.00  0.00     0.049 A 
ATOM     60  C   UNL A   1      38.159  32.990  32.967  1.00  0.00     0.074 A 
ATOM     61  C   UNL A   1      42.683  30.938  36.935  1.00  0.00     0.029 A 
ATOM     62  N   UNL A   1      41.272  31.169  35.233  1.00  0.00    -0.354 N 
ATOM     63  N   UNL A   1      39.114  32.492  33.717  1.00  0.00    -0.248 NA
ATOM     64  C   UNL A   1      37.497  34.170  33.538  1.00  0.00     0.031 C 
ATOM     65  C   UNL A   1      41.867  32.048  37.185  1.00  0.00     0.029 A 
ATOM     66  C   UNL A   1      41.001  32.203  36.114  1.00  0.00     0.049 A 
ATOM     67  H   UNL A   1      40.805  31.019  34.380  1.00  0.00     0.167 HD
ATOM     68  C   UNL A   1      39.184  33.312  34.836  1.00  0.00     0.074 A 
ATOM     69  C   UNL A   1      38.183  34.345  34.659  1.00  0.00     0.031 C 
ATOM     70  C   UNL A   1      40.003  33.222  35.913  1.00  0.00     0.037 A 
BRANCH  57  71
ATOM     71  C   UNL A   1      43.956  28.475  35.738  1.00  0.00     0.058 A 
ATOM     72  C   UNL A   1      45.293  28.812  35.473  1.00  0.00     0.135 A 
ATOM     73  C   UNL A   1      43.710  27.487  36.704  1.00  0.00     0.135 A 
ATOM     74  F   UNL A   1      45.585  29.738  34.547  1.00  0.00    -0.206 F 
ATOM     75  C   UNL A   1      46.346  28.194  36.141  1.00  0.00     0.059 A 
ATOM     76  C   UNL A   1      44.747  26.869  37.400  1.00  0.00     0.059 A 
ATOM     77  F   UNL A   1      42.451  27.124  36.993  1.00  0.00    -0.206 F 
ATOM     78  C   UNL A   1      46.062  27.226  37.106  1.00  0.00     0.060 A 
BRANCH  78  79
ATOM     79  S   UNL A   1      47.438  26.457  37.990  1.00  0.00     0.124 S 
ATOM     80  O   UNL A   1      47.281  25.057  37.611  1.00  0.00    -0.237 OA
ATOM     81  O   UNL A   1      48.596  27.141  37.421  1.00  0.00    -0.237 OA
ATOM     82  O   UNL A   1      47.158  26.763  39.388  1.00  0.00    -0.744 OA
ENDBRANCH  78  79
ENDBRANCH  57  71
BRANCH  58  83
ATOM     83  C   UNL A   1      36.570  33.222  30.919  1.00  0.00     0.058 A 
ATOM     84  C   UNL A   1      36.816  34.063  29.824  1.00  0.00     0.135 A 
ATOM     85  C   UNL A   1      35.240  33.059  31.336  1.00  0.00     0.135 A 
ATOM     86  F   UNL A   1      38.072  34.250  29.391  1.00  0.00    -0.206 F 
ATOM     87  C   UNL A   1      35.784  34.739  29.182  1.00  0.00     0.059 A 
ATOM     88  C   UNL A   1      34.189  33.703  30.695  1.00  0.00     0.059 A 
ATOM     89  F   UNL A   1      34.951  32.249  32.366  1.00  0.00    -0.206 F 
ATOM     90  C   UNL A   1      34.474  34.556  29.628  1.00  0.00     0.060 A 
BRANCH  90  91
ATOM     91  S   UNL A   1      33.132  35.414  28.777  1.00  0.00     0.124 S 
ATOM     92  O   UNL A   1      32.499  34.318  28.053  1.00  0.00    -0.237 OA
ATOM     93  O   UNL A   1      32.368  35.973  29.888  1.00  0.00    -0.237 OA
ATOM     94  O   UNL A   1      33.835  36.394  27.955  1.00  0.00    -0.744 OA
ENDBRANCH  90  91
ENDBRANCH  58  83
BRANCH  70  95
ATOM     95  C   UNL A   1      39.864  34.285  36.966  1.00  0.00     0.058 A 
ATOM     96  C   UNL A   1      38.941  34.162  38.016  1.00  0.00     0.135 A 
ATOM     97  C   UNL A   1      40.682  35.424  36.937  1.00  0.00     0.135 A 
ATOM     98  F   UNL A   1      38.132  33.092  38.082  1.00  0.00    -0.206 F 
ATOM     99  C   UNL A   1      38.815  35.148  38.988  1.00  0.00     0.059 A 
ATOM    100  C   UNL A   1      40.589  36.412  37.912  1.00  0.00     0.059 A 
ATOM    101  F   UNL A   1      41.587  35.584  35.958  1.00  0.00    -0.206 F 
ATOM    102  C   UNL A   1      39.641  36.271  38.925  1.00  0.00     0.060 A 
BRANCH 102 103
ATOM    103  S   UNL A   1      39.481  37.537  40.201  1.00  0.00     0.124 S 
ATOM    104  O   UNL A   1      38.967  36.758  41.323  1.00  0.00    -0.237 OA
ATOM    105  O   UNL A   1      40.852  38.019  40.341  1.00  0.00    -0.237 OA
ATOM    106  O   UNL A   1      38.545  38.492  39.616  1.00  0.00    -0.744 OA
ENDBRANCH 102 103
ENDBRANCH  70  95
ENDBRANCH  44  45
ENDBRANCH  37  39
ENDBRANCH  36  37
ENDBRANCH  35  36
ENDBRANCH  34  35
ENDBRANCH  33  34
ENDBRANCH  32  33
ENDBRANCH   1  32
TORSDOF 25
ENDMDL
MODEL 2
REMARK VINA RESULT:     -10.7      1.207      8.056
REMARK SMILES CCCCCCNC(=O)Nc1cccc(-c2ccc([C@@H](C)C(=O)OCCOCCOC(=O)c3ccc(-c4c5nc(c(-c6c(F)cc(S(=O)(=O)[O-])cc6F)c6ccc([nH]6)c(-c6c(F)cc(S(=O)(=O)[O-])cc6F)c6nc(c(-c7c(F)cc(S(=O)(=O)[O-])cc7F)c7ccc4[nH]7)C=C6)C=C5)cc3)cc2F)c1
REMARK SMILES IDX 25 1 24 2 22 3 23 4 20 5 21 6 19 7 16 8 17 9 100 10 18 11
REMARK SMILES IDX 99 12 101 13 15 14 11 15 12 16 102 17 13 18 14 19 10 20 7 21
REMARK SMILES IDX 8 22 9 24 6 26 5 27 4 28 3 29 2 30 1 31 26 32 27 33 28 34
REMARK SMILES IDX 29 35 30 36 31 37 32 38 33 39 34 40 98 41 35 42 97 43 36 44
REMARK SMILES IDX 37 45 38 46 91 47 39 48 96 49 90 50 92 51 40 52 95 53 89 54
REMARK SMILES IDX 88 55 41 57 75 58 54 59 74 60 55 61 58 62 73 63 93 64 56 65
REMARK SMILES IDX 57 66 72 68 94 69 59 70 42 71 43 72 52 73 44 74 45 75 51 76
REMARK SMILES IDX 53 77 46 78 47 79 48 80 49 81 50 82 76 83 77 84 86 85 78 86
REMARK SMILES IDX 79 87 85 88 87 89 80 90 81 91 82 92 83 93 84 94 60 95 61 96
REMARK SMILES IDX 70 97 62 98 63 99 69 100 71 101 64 102 65 103 66 104 67 105
REMARK SMILES IDX 68 106
REMARK H PARENT 7 23 10 25 92 56 58 67
REMARK Flexibility Score: inf
ROOT
ATOM      1  C   UNL A   1      36.794  21.678  24.652  1.00  0.00     0.261 C 
ENDROOT
BRANCH   1   2
ATOM      2  O   UNL A   1      35.676  21.526  25.540  1.00  0.00    -0.463 OA
BRANCH   2   3
ATOM      3  C   UNL A   1      34.783  20.571  25.168  1.00  0.00     0.313 C 
ATOM      4  O   UNL A   1      35.088  19.434  24.814  1.00  0.00    -0.252 OA
BRANCH   3   5
ATOM      5  C   UNL A   1      33.337  21.029  25.169  1.00  0.00     0.126 C 
ATOM      6  C   UNL A   1      32.494  19.992  24.428  1.00  0.00     0.025 C 
BRANCH   5   7
ATOM      7  C   UNL A   1      33.006  22.447  24.716  1.00  0.00    -0.031 A 
ATOM      8  C   UNL A   1      32.857  25.162  23.835  1.00  0.00     0.018 A 
ATOM      9  C   UNL A   1      32.647  24.815  25.180  1.00  0.00     0.012 A 
ATOM     10  C   UNL A   1      33.053  24.109  22.932  1.00  0.00     0.131 A 
ATOM     11  C   UNL A   1      32.717  23.482  25.616  1.00  0.00     0.005 A 
ATOM     12  C   UNL A   1      33.125  22.779  23.357  1.00  0.00     0.044 A 
ATOM     13  F   UNL A   1      33.244  24.359  21.627  1.00  0.00    -0.206 F 
BRANCH   8  14
ATOM     14  C   UNL A   1      32.939  26.574  23.410  1.00  0.00    -0.013 A 
ATOM     15  C   UNL A   1      31.882  28.693  22.797  1.00  0.00     0.043 A 
ATOM     16  C   UNL A   1      33.130  29.259  22.544  1.00  0.00     0.026 A 
ATOM     17  C   UNL A   1      31.788  27.344  23.174  1.00  0.00     0.035 A 
ATOM     18  C   UNL A   1      34.283  28.516  22.777  1.00  0.00     0.003 A 
ATOM     19  C   UNL A   1      34.187  27.193  23.219  1.00  0.00     0.009 A 
BRANCH  15  20
ATOM     20  N   UNL A   1      30.756  29.523  22.687  1.00  0.00    -0.308 N 
ATOM     21  N   UNL A   1      30.407  30.308  24.885  1.00  0.00    -0.338 N 
ATOM     22  C   UNL A   1      29.941  30.021  23.647  1.00  0.00     0.319 C 
ATOM     23  H   UNL A   1      29.709  30.460  25.562  1.00  0.00     0.165 HD
ATOM     24  O   UNL A   1      28.777  30.312  23.370  1.00  0.00    -0.249 OA
ATOM     25  H   UNL A   1      30.522  29.784  21.767  1.00  0.00     0.171 HD
BRANCH  21  26
ATOM     26  C   UNL A   1      31.772  30.429  25.378  1.00  0.00     0.117 C 
BRANCH  26  27
ATOM     27  C   UNL A   1      31.920  30.100  26.860  1.00  0.00     0.021 C 
BRANCH  27  28
ATOM     28  C   UNL A   1      32.698  28.828  27.189  1.00  0.00     0.002 C 
BRANCH  28  29
ATOM     29  C   UNL A   1      34.092  28.724  26.574  1.00  0.00    -0.000 C 
BRANCH  29  30
ATOM     30  C   UNL A   1      35.245  29.141  27.481  1.00  0.00    -0.003 C 
ATOM     31  C   UNL A   1      35.351  30.641  27.692  1.00  0.00     0.004 C 
ENDBRANCH  29  30
ENDBRANCH  28  29
ENDBRANCH  27  28
ENDBRANCH  26  27
ENDBRANCH  21  26
ENDBRANCH  15  20
ENDBRANCH   8  14
ENDBRANCH   5   7
ENDBRANCH   3   5
ENDBRANCH   2   3
ENDBRANCH   1   2
BRANCH   1  32
ATOM     32  C   UNL A   1      38.138  21.208  25.222  1.00  0.00     0.202 C 
BRANCH  32  33
ATOM     33  O   UNL A   1      38.732  21.932  26.290  1.00  0.00    -0.374 OA
BRANCH  33  34
ATOM     34  C   UNL A   1      40.126  21.794  26.545  1.00  0.00     0.202 C 
BRANCH  34  35
ATOM     35  C   UNL A   1      41.056  23.007  26.416  1.00  0.00     0.261 C 
BRANCH  35  36
ATOM     36  O   UNL A   1      40.394  24.284  26.404  1.00  0.00    -0.460 OA
BRANCH  36  37
ATOM     37  C   UNL A   1      41.236  25.331  26.250  1.00  0.00     0.338 C 
ATOM     38  O   UNL A   1      41.791  25.657  25.201  1.00  0.00    -0.246 OA
BRANCH  37  39
ATOM     39  C   UNL A   1      41.402  26.130  27.478  1.00  0.00     0.060 A 
ATOM     40  C   UNL A   1      40.399  25.994  28.446  1.00  0.00     0.016 A 
ATOM     41  C   UNL A   1      42.395  27.106  27.624  1.00  0.00     0.016 A 
ATOM     42  C   UNL A   1      40.339  26.874  29.518  1.00  0.00     0.010 A 
ATOM     43  C   UNL A   1      42.332  27.995  28.706  1.00  0.00     0.010 A 
ATOM     44  C   UNL A   1      41.284  27.901  29.637  1.00  0.00    -0.014 A 
BRANCH  44  45
ATOM     45  C   UNL A   1      41.125  28.868  30.746  1.00  0.00     0.031 A 
ATOM     46  C   UNL A   1      40.060  29.928  30.688  1.00  0.00     0.074 A 
ATOM     47  C   UNL A   1      41.871  28.706  31.853  1.00  0.00     0.049 A 
ATOM     48  N   UNL A   1      39.701  30.790  31.603  1.00  0.00    -0.248 NA
ATOM     49  C   UNL A   1      39.287  30.022  29.439  1.00  0.00     0.031 C 
ATOM     50  C   UNL A   1      42.897  27.676  32.029  1.00  0.00     0.029 A 
ATOM     51  N   UNL A   1      41.871  29.388  33.040  1.00  0.00    -0.354 N 
ATOM     52  C   UNL A   1      38.642  31.507  31.059  1.00  0.00     0.074 A 
ATOM     53  C   UNL A   1      38.442  31.007  29.715  1.00  0.00     0.031 C 
ATOM     54  C   UNL A   1      43.430  27.797  33.255  1.00  0.00     0.029 A 
ATOM     55  C   UNL A   1      42.797  28.920  33.940  1.00  0.00     0.049 A 
ATOM     56  H   UNL A   1      41.266  30.141  33.230  1.00  0.00     0.167 HD
ATOM     57  C   UNL A   1      37.898  32.481  31.637  1.00  0.00     0.037 A 
ATOM     58  C   UNL A   1      43.103  29.356  35.176  1.00  0.00     0.037 A 
ATOM     59  C   UNL A   1      38.126  32.986  32.968  1.00  0.00     0.049 A 
ATOM     60  C   UNL A   1      42.318  30.495  35.763  1.00  0.00     0.074 A 
ATOM     61  C   UNL A   1      37.449  33.989  33.639  1.00  0.00     0.029 A 
ATOM     62  N   UNL A   1      39.110  32.524  33.830  1.00  0.00    -0.354 N 
ATOM     63  N   UNL A   1      41.315  31.160  35.237  1.00  0.00    -0.248 NA
ATOM     64  C   UNL A   1      42.696  30.940  37.110  1.00  0.00     0.031 C 
ATOM     65  C   UNL A   1      38.046  34.159  34.893  1.00  0.00     0.029 A 
ATOM     66  C   UNL A   1      39.069  33.232  35.019  1.00  0.00     0.049 A 
ATOM     67  H   UNL A   1      39.745  31.800  33.628  1.00  0.00     0.167 HD
ATOM     68  C   UNL A   1      40.926  32.083  36.200  1.00  0.00     0.074 A 
ATOM     69  C   UNL A   1      41.794  31.884  37.343  1.00  0.00     0.031 C 
ATOM     70  C   UNL A   1      39.940  33.012  36.146  1.00  0.00     0.037 A 
BRANCH  57  71
ATOM     71  C   UNL A   1      36.767  33.075  30.842  1.00  0.00     0.058 A 
ATOM     72  C   UNL A   1      36.999  34.053  29.862  1.00  0.00     0.135 A 
ATOM     73  C   UNL A   1      35.452  32.607  31.002  1.00  0.00     0.135 A 
ATOM     74  F   UNL A   1      38.233  34.546  29.680  1.00  0.00    -0.206 F 
ATOM     75  C   UNL A   1      35.967  34.549  29.070  1.00  0.00     0.059 A 
ATOM     76  C   UNL A   1      34.408  33.075  30.207  1.00  0.00     0.059 A 
ATOM     77  F   UNL A   1      35.175  31.675  31.926  1.00  0.00    -0.206 F 
ATOM     78  C   UNL A   1      34.675  34.050  29.247  1.00  0.00     0.060 A 
BRANCH  78  79
ATOM     79  S   UNL A   1      33.354  34.679  28.189  1.00  0.00     0.124 S 
ATOM     80  O   UNL A   1      34.114  35.259  27.087  1.00  0.00    -0.237 OA
ATOM     81  O   UNL A   1      32.604  33.467  27.871  1.00  0.00    -0.237 OA
ATOM     82  O   UNL A   1      32.659  35.636  29.043  1.00  0.00    -0.744 OA
ENDBRANCH  78  79
ENDBRANCH  57  71
BRANCH  58  83
ATOM     83  C   UNL A   1      44.216  28.723  35.929  1.00  0.00     0.058 A 
ATOM     84  C   UNL A   1      45.541  29.158  35.782  1.00  0.00     0.135 A 
ATOM     85  C   UNL A   1      43.968  27.662  36.814  1.00  0.00     0.135 A 
ATOM     86  F   UNL A   1      45.826  30.168  34.946  1.00  0.00    -0.206 F 
ATOM     87  C   UNL A   1      46.586  28.547  36.467  1.00  0.00     0.059 A 
ATOM     88  C   UNL A   1      44.992  27.052  37.528  1.00  0.00     0.059 A 
ATOM     89  F   UNL A   1      42.715  27.222  37.005  1.00  0.00    -0.206 F 
ATOM     90  C   UNL A   1      46.301  27.491  37.335  1.00  0.00     0.060 A 
BRANCH  90  91
ATOM     91  S   UNL A   1      47.656  26.716  38.242  1.00  0.00     0.124 S 
ATOM     92  O   UNL A   1      48.462  26.174  37.155  1.00  0.00    -0.237 OA
ATOM     93  O   UNL A   1      48.232  27.847  38.965  1.00  0.00    -0.237 OA
ATOM     94  O   UNL A   1      46.975  25.732  39.077  1.00  0.00    -0.744 OA
ENDBRANCH  90  91
ENDBRANCH  58  83
BRANCH  70  95
ATOM     95  C   UNL A   1      39.734  33.860  37.368  1.00  0.00     0.058 A 
ATOM     96  C   UNL A   1      40.405  35.082  37.535  1.00  0.00     0.135 A 
ATOM     97  C   UNL A   1      38.837  33.457  38.369  1.00  0.00     0.135 A 
ATOM     98  F   UNL A   1      41.278  35.506  36.607  1.00  0.00    -0.206 F 
ATOM     99  C   UNL A   1      40.212  35.864  38.669  1.00  0.00     0.059 A 
ATOM    100  C   UNL A   1      38.612  34.235  39.501  1.00  0.00     0.059 A 
ATOM    101  F   UNL A   1      38.165  32.301  38.251  1.00  0.00    -0.206 F 
ATOM    102  C   UNL A   1      39.316  35.430  39.648  1.00  0.00     0.060 A 
BRANCH 102 103
ATOM    103  S   UNL A   1      39.061  36.461  41.107  1.00  0.00     0.124 S 
ATOM    104  O   UNL A   1      40.391  36.451  41.707  1.00  0.00    -0.237 OA
ATOM    105  O   UNL A   1      38.639  37.731  40.525  1.00  0.00    -0.237 OA
ATOM    106  O   UNL A   1      38.029  35.746  41.851  1.00  0.00    -0.744 OA
ENDBRANCH 102 103
ENDBRANCH  70  95
ENDBRANCH  44  45
ENDBRANCH  37  39
ENDBRANCH  36  37
ENDBRANCH  35  36
ENDBRANCH  34  35
ENDBRANCH  33  34
ENDBRANCH  32  33
ENDBRANCH   1  32
TORSDOF 25
ENDMDL
MODEL 3
REMARK VINA RESULT:     -10.5      1.305      2.004
REMARK SMILES CCCCCCNC(=O)Nc1cccc(-c2ccc([C@@H](C)C(=O)OCCOCCOC(=O)c3ccc(-c4c5nc(c(-c6c(F)cc(S(=O)(=O)[O-])cc6F)c6ccc([nH]6)c(-c6c(F)cc(S(=O)(=O)[O-])cc6F)c6nc(c(-c7c(F)cc(S(=O)(=O)[O-])cc7F)c7ccc4[nH]7)C=C6)C=C5)cc3)cc2F)c1
REMARK SMILES IDX 25 1 24 2 22 3 23 4 20 5 21 6 19 7 16 8 17 9 100 10 18 11
REMARK SMILES IDX 99 12 101 13 15 14 11 15 12 16 102 17 13 18 14 19 10 20 7 21
REMARK SMILES IDX 8 22 9 24 6 26 5 27 4 28 3 29 2 30 1 31 26 32 27 33 28 34
REMARK SMILES IDX 29 35 30 36 31 37 32 38 33 39 34 40 98 41 35 42 97 43 36 44
REMARK SMILES IDX 37 45 38 46 91 47 39 48 96 49 90 50 92 51 40 52 95 53 89 54
REMARK SMILES IDX 88 55 41 57 75 58 54 59 74 60 55 61 58 62 73 63 93 64 56 65
REMARK SMILES IDX 57 66 72 68 94 69 59 70 42 71 43 72 52 73 44 74 45 75 51 76
REMARK SMILES IDX 53 77 46 78 47 79 48 80 49 81 50 82 76 83 77 84 86 85 78 86
REMARK SMILES IDX 79 87 85 88 87 89 80 90 81 91 82 92 83 93 84 94 60 95 61 96
REMARK SMILES IDX 70 97 62 98 63 99 69 100 71 101 64 102 65 103 66 104 67 105
REMARK SMILES IDX 68 106
REMARK H PARENT 7 23 10 25 92 56 58 67
REMARK Flexibility Score: inf
ROOT
ATOM      1  C   UNL A   1      36.967  20.376  24.635  1.00  0.00     0.261 C 
ENDROOT
BRANCH   1   2
ATOM      2  O   UNL A   1      35.796  19.624  24.987  1.00  0.00    -0.463 OA
BRANCH   2   3
ATOM      3  C   UNL A   1      34.650  20.354  25.046  1.00  0.00     0.313 C 
ATOM      4  O   UNL A   1      33.657  20.145  24.352  1.00  0.00    -0.252 OA
BRANCH   3   5
ATOM      5  C   UNL A   1      34.695  21.516  26.019  1.00  0.00     0.126 C 
ATOM      6  C   UNL A   1      33.644  21.286  27.105  1.00  0.00     0.025 C 
BRANCH   5   7
ATOM      7  C   UNL A   1      34.641  22.941  25.479  1.00  0.00    -0.031 A 
ATOM      8  C   UNL A   1      34.073  25.536  24.424  1.00  0.00     0.018 A 
ATOM      9  C   UNL A   1      34.663  24.535  23.633  1.00  0.00     0.012 A 
ATOM     10  C   UNL A   1      33.860  25.232  25.775  1.00  0.00     0.131 A 
ATOM     11  C   UNL A   1      34.946  23.260  24.150  1.00  0.00     0.005 A 
ATOM     12  C   UNL A   1      34.137  23.965  26.297  1.00  0.00     0.044 A 
ATOM     13  F   UNL A   1      33.315  26.142  26.598  1.00  0.00    -0.206 F 
BRANCH   8  14
ATOM     14  C   UNL A   1      33.634  26.817  23.837  1.00  0.00    -0.013 A 
ATOM     15  C   UNL A   1      32.263  28.842  23.891  1.00  0.00     0.043 A 
ATOM     16  C   UNL A   1      32.776  29.240  22.659  1.00  0.00     0.026 A 
ATOM     17  C   UNL A   1      32.650  27.613  24.447  1.00  0.00     0.035 A 
ATOM     18  C   UNL A   1      33.756  28.471  22.039  1.00  0.00     0.003 A 
ATOM     19  C   UNL A   1      34.189  27.281  22.631  1.00  0.00     0.009 A 
BRANCH  15  20
ATOM     20  N   UNL A   1      31.385  29.719  24.545  1.00  0.00    -0.308 N 
ATOM     21  N   UNL A   1      29.434  29.672  23.217  1.00  0.00    -0.338 N 
ATOM     22  C   UNL A   1      30.239  30.296  24.107  1.00  0.00     0.319 C 
ATOM     23  H   UNL A   1      28.751  30.248  22.805  1.00  0.00     0.165 HD
ATOM     24  O   UNL A   1      29.867  31.363  24.596  1.00  0.00    -0.249 OA
ATOM     25  H   UNL A   1      31.641  29.952  25.466  1.00  0.00     0.171 HD
BRANCH  21  26
ATOM     26  C   UNL A   1      29.414  28.287  22.768  1.00  0.00     0.117 C 
BRANCH  26  27
ATOM     27  C   UNL A   1      28.552  27.373  23.634  1.00  0.00     0.021 C 
BRANCH  27  28
ATOM     28  C   UNL A   1      28.984  25.910  23.699  1.00  0.00     0.002 C 
BRANCH  28  29
ATOM     29  C   UNL A   1      30.269  25.630  24.475  1.00  0.00    -0.000 C 
BRANCH  29  30
ATOM     30  C   UNL A   1      30.549  24.163  24.780  1.00  0.00    -0.003 C 
ATOM     31  C   UNL A   1      31.150  23.395  23.616  1.00  0.00     0.004 C 
ENDBRANCH  29  30
ENDBRANCH  28  29
ENDBRANCH  27  28
ENDBRANCH  26  27
ENDBRANCH  21  26
ENDBRANCH  15  20
ENDBRANCH   8  14
ENDBRANCH   5   7
ENDBRANCH   3   5
ENDBRANCH   2   3
ENDBRANCH   1   2
BRANCH   1  32
ATOM     32  C   UNL A   1      38.283  19.811  25.183  1.00  0.00     0.202 C 
BRANCH  32  33
ATOM     33  O   UNL A   1      39.247  20.699  25.730  1.00  0.00    -0.374 OA
BRANCH  33  34
ATOM     34  C   UNL A   1      38.858  22.015  26.109  1.00  0.00     0.202 C 
BRANCH  34  35
ATOM     35  C   UNL A   1      39.924  23.064  26.450  1.00  0.00     0.261 C 
BRANCH  35  36
ATOM     36  O   UNL A   1      39.474  24.430  26.398  1.00  0.00    -0.460 OA
BRANCH  36  37
ATOM     37  C   UNL A   1      40.481  25.332  26.367  1.00  0.00     0.338 C 
ATOM     38  O   UNL A   1      41.195  25.579  25.396  1.00  0.00    -0.246 OA
BRANCH  37  39
ATOM     39  C   UNL A   1      40.630  26.081  27.629  1.00  0.00     0.060 A 
ATOM     40  C   UNL A   1      39.592  25.941  28.558  1.00  0.00     0.016 A 
ATOM     41  C   UNL A   1      41.645  27.021  27.843  1.00  0.00     0.016 A 
ATOM     42  C   UNL A   1      39.522  26.783  29.661  1.00  0.00     0.010 A 
ATOM     43  C   UNL A   1      41.572  27.871  28.955  1.00  0.00     0.010 A 
ATOM     44  C   UNL A   1      40.491  27.776  29.847  1.00  0.00    -0.014 A 
BRANCH  44  45
ATOM     45  C   UNL A   1      40.323  28.707  30.986  1.00  0.00     0.031 A 
ATOM     46  C   UNL A   1      41.210  28.601  32.195  1.00  0.00     0.074 A 
ATOM     47  C   UNL A   1      39.443  29.716  30.868  1.00  0.00     0.049 A 
ATOM     48  N   UNL A   1      41.284  29.386  33.238  1.00  0.00    -0.248 NA
ATOM     49  C   UNL A   1      42.150  27.468  32.231  1.00  0.00     0.031 C 
ATOM     50  C   UNL A   1      38.571  29.937  29.712  1.00  0.00     0.029 A 
ATOM     51  N   UNL A   1      39.150  30.752  31.713  1.00  0.00    -0.354 N 
ATOM     52  C   UNL A   1      42.295  28.867  34.038  1.00  0.00     0.074 A 
ATOM     53  C   UNL A   1      42.781  27.672  33.380  1.00  0.00     0.031 C 
ATOM     54  C   UNL A   1      37.837  31.040  29.925  1.00  0.00     0.029 A 
ATOM     55  C   UNL A   1      38.175  31.592  31.234  1.00  0.00     0.049 A 
ATOM     56  H   UNL A   1      39.596  30.883  32.581  1.00  0.00     0.167 HD
ATOM     57  C   UNL A   1      42.781  29.355  35.205  1.00  0.00     0.037 A 
ATOM     58  C   UNL A   1      37.613  32.679  31.794  1.00  0.00     0.037 A 
ATOM     59  C   UNL A   1      42.270  30.533  35.860  1.00  0.00     0.049 A 
ATOM     60  C   UNL A   1      38.113  33.151  33.130  1.00  0.00     0.074 A 
ATOM     61  C   UNL A   1      42.671  31.098  37.059  1.00  0.00     0.029 A 
ATOM     62  N   UNL A   1      41.242  31.327  35.371  1.00  0.00    -0.354 N 
ATOM     63  N   UNL A   1      39.074  32.652  33.872  1.00  0.00    -0.248 NA
ATOM     64  C   UNL A   1      37.462  34.336  33.703  1.00  0.00     0.031 C 
ATOM     65  C   UNL A   1      41.862  32.212  37.312  1.00  0.00     0.029 A 
ATOM     66  C   UNL A   1      40.985  32.366  36.250  1.00  0.00     0.049 A 
ATOM     67  H   UNL A   1      40.765  31.175  34.523  1.00  0.00     0.167 HD
ATOM     68  C   UNL A   1      39.159  33.477  34.987  1.00  0.00     0.074 A 
ATOM     69  C   UNL A   1      38.160  34.513  34.816  1.00  0.00     0.031 C 
ATOM     70  C   UNL A   1      39.989  33.388  36.055  1.00  0.00     0.037 A 
BRANCH  57  71
ATOM     71  C   UNL A   1      43.921  28.624  35.859  1.00  0.00     0.058 A 
ATOM     72  C   UNL A   1      45.253  29.020  35.658  1.00  0.00     0.135 A 
ATOM     73  C   UNL A   1      43.680  27.570  36.756  1.00  0.00     0.135 A 
ATOM     74  F   UNL A   1      45.540  30.010  34.800  1.00  0.00    -0.206 F 
ATOM     75  C   UNL A   1      46.305  28.397  36.322  1.00  0.00     0.059 A 
ATOM     76  C   UNL A   1      44.716  26.945  37.445  1.00  0.00     0.059 A 
ATOM     77  F   UNL A   1      42.426  27.150  36.981  1.00  0.00    -0.206 F 
ATOM     78  C   UNL A   1      46.027  27.363  37.217  1.00  0.00     0.060 A 
BRANCH  78  79
ATOM     79  S   UNL A   1      47.401  26.587  38.096  1.00  0.00     0.124 S 
ATOM     80  O   UNL A   1      46.907  26.590  39.469  1.00  0.00    -0.237 OA
ATOM     81  O   UNL A   1      47.482  25.277  37.456  1.00  0.00    -0.237 OA
ATOM     82  O   UNL A   1      48.523  27.481  37.832  1.00  0.00    -0.744 OA
ENDBRANCH  78  79
ENDBRANCH  57  71
BRANCH  58  83
ATOM     83  C   UNL A   1      36.503  33.379  31.098  1.00  0.00     0.058 A 
ATOM     84  C   UNL A   1      36.729  34.145  29.946  1.00  0.00     0.135 A 
ATOM     85  C   UNL A   1      35.188  33.294  31.583  1.00  0.00     0.135 A 
ATOM     86  F   UNL A   1      37.969  34.257  29.447  1.00  0.00    -0.206 F 
ATOM     87  C   UNL A   1      35.694  34.823  29.311  1.00  0.00     0.059 A 
ATOM     88  C   UNL A   1      34.134  33.942  30.951  1.00  0.00     0.059 A 
ATOM     89  F   UNL A   1      34.917  32.557  32.672  1.00  0.00    -0.206 F 
ATOM     90  C   UNL A   1      34.400  34.718  29.824  1.00  0.00     0.060 A 
BRANCH  90  91
ATOM     91  S   UNL A   1      33.053  35.578  28.983  1.00  0.00     0.124 S 
ATOM     92  O   UNL A   1      32.536  34.529  28.113  1.00  0.00    -0.237 OA
ATOM     93  O   UNL A   1      32.193  35.970  30.095  1.00  0.00    -0.237 OA
ATOM     94  O   UNL A   1      33.733  36.681  28.310  1.00  0.00    -0.744 OA
ENDBRANCH  90  91
ENDBRANCH  58  83
BRANCH  70  95
ATOM     95  C   UNL A   1      39.866  34.456  37.105  1.00  0.00     0.058 A 
ATOM     96  C   UNL A   1      39.042  34.290  38.228  1.00  0.00     0.135 A 
ATOM     97  C   UNL A   1      40.602  35.646  36.996  1.00  0.00     0.135 A 
ATOM     98  F   UNL A   1      38.313  33.171  38.371  1.00  0.00    -0.206 F 
ATOM     99  C   UNL A   1      38.930  35.281  39.197  1.00  0.00     0.059 A 
ATOM    100  C   UNL A   1      40.523  36.641  37.965  1.00  0.00     0.059 A 
ATOM    101  F   UNL A   1      41.412  35.849  35.945  1.00  0.00    -0.206 F 
ATOM    102  C   UNL A   1      39.672  36.455  39.054  1.00  0.00     0.060 A 
BRANCH 102 103
ATOM    103  S   UNL A   1      39.532  37.728  40.326  1.00  0.00     0.124 S 
ATOM    104  O   UNL A   1      40.916  38.174  40.447  1.00  0.00    -0.237 OA
ATOM    105  O   UNL A   1      38.610  38.682  39.717  1.00  0.00    -0.237 OA
ATOM    106  O   UNL A   1      39.002  37.002  41.476  1.00  0.00    -0.744 OA
ENDBRANCH 102 103
ENDBRANCH  70  95
ENDBRANCH  44  45
ENDBRANCH  37  39
ENDBRANCH  36  37
ENDBRANCH  35  36
ENDBRANCH  34  35
ENDBRANCH  33  34
ENDBRANCH  32  33
ENDBRANCH   1  32
TORSDOF 25
ENDMDL
