MODEL 1
REMARK VINA RESULT:     -10.0      0.000      0.000
REMARK SMILES Cn1cc(CNC(=O)Cn2ccc(C(=O)OCCOCCOC(=O)c3ccc(-c4c5nc(c(-c6c(F)cc(S(=O)(=O)[O-])cc6F)c6ccc([nH]6)c(-c6c(F)cc(S(=O)(=O)[O-])cc6F)c6nc(c(-c7c(F)cc(S(=O)(=O)[O-])cc7F)c7ccc4[nH]7)C=C6)C=C5)cc3)n2)cn1
REMARK SMILES IDX 18 1 17 2 16 3 14 4 15 5 13 6 10 7 11 8 91 9 12 10 9 11 7 12
REMARK SMILES IDX 6 13 8 15 5 16 4 17 1 18 2 19 3 20 93 21 92 22 19 23 20 24
REMARK SMILES IDX 21 25 22 26 23 27 24 28 25 29 26 30 90 31 27 32 89 33 28 34
REMARK SMILES IDX 29 35 30 36 83 37 31 38 88 39 82 40 84 41 32 42 87 43 81 44
REMARK SMILES IDX 80 45 33 47 67 48 46 49 66 50 47 51 50 52 65 53 85 54 48 55
REMARK SMILES IDX 49 56 64 58 86 59 51 60 34 61 35 62 44 63 36 64 37 65 43 66
REMARK SMILES IDX 45 67 38 68 39 69 40 70 41 71 42 72 68 73 69 74 78 75 70 76
REMARK SMILES IDX 71 77 77 78 79 79 72 80 73 81 74 82 75 83 76 84 52 85 53 86
REMARK SMILES IDX 62 87 54 88 55 89 61 90 63 91 56 92 57 93 58 94 59 95 60 96
REMARK H PARENT 6 14 84 46 50 57
REMARK Flexibility Score: inf
ROOT
ATOM      1  C   UNL A   1      42.798  18.672  25.854  1.00  0.00     0.202 C 
ENDROOT
BRANCH   1   2
ATOM      2  C   UNL A   1      44.201  18.840  25.269  1.00  0.00     0.261 C 
BRANCH   2   3
ATOM      3  O   UNL A   1      44.508  20.214  24.986  1.00  0.00    -0.458 OA
BRANCH   3   4
ATOM      4  C   UNL A   1      45.804  20.585  25.221  1.00  0.00     0.358 C 
ATOM      5  O   UNL A   1      46.742  19.801  25.312  1.00  0.00    -0.244 OA
BRANCH   4   6
ATOM      6  C   UNL A   1      45.956  22.049  25.223  1.00  0.00     0.170 A 
ATOM      7  N   UNL A   1      46.350  24.002  25.988  1.00  0.00    -0.262 N 
ATOM      8  C   UNL A   1      46.262  24.176  24.639  1.00  0.00     0.110 A 
ATOM      9  N   UNL A   1      46.123  22.732  26.372  1.00  0.00    -0.165 NA
ATOM     10  C   UNL A   1      46.025  22.929  24.110  1.00  0.00     0.057 A 
BRANCH   7  11
ATOM     11  C   UNL A   1      46.620  24.997  27.010  1.00  0.00     0.243 C 
BRANCH  11  12
ATOM     12  C   UNL A   1      45.397  25.791  27.394  1.00  0.00     0.241 C 
ATOM     13  N   UNL A   1      45.186  26.137  28.696  1.00  0.00    -0.350 N 
ATOM     14  H   UNL A   1      44.384  26.681  28.872  1.00  0.00     0.163 HD
ATOM     15  O   UNL A   1      44.590  26.174  26.546  1.00  0.00    -0.273 OA
BRANCH  13  16
ATOM     16  C   UNL A   1      45.989  25.809  29.855  1.00  0.00     0.155 C 
BRANCH  16  17
ATOM     17  C   UNL A   1      45.209  24.893  30.717  1.00  0.00     0.009 A 
ATOM     18  C   UNL A   1      43.816  23.487  33.728  1.00  0.00     0.173 C 
ATOM     19  N   UNL A   1      44.247  23.880  32.410  1.00  0.00    -0.275 N 
ATOM     20  C   UNL A   1      45.092  24.901  32.092  1.00  0.00     0.113 A 
ATOM     21  N   UNL A   1      43.798  23.203  31.339  1.00  0.00    -0.181 NA
ATOM     22  C   UNL A   1      44.380  23.821  30.310  1.00  0.00     0.140 A 
ENDBRANCH  16  17
ENDBRANCH  13  16
ENDBRANCH  11  12
ENDBRANCH   7  11
ENDBRANCH   4   6
ENDBRANCH   3   4
ENDBRANCH   2   3
ENDBRANCH   1   2
BRANCH   1  23
ATOM     23  O   UNL A   1      42.484  19.388  27.048  1.00  0.00    -0.374 OA
BRANCH  23  24
ATOM     24  C   UNL A   1      41.145  19.803  27.301  1.00  0.00     0.202 C 
BRANCH  24  25
ATOM     25  C   UNL A   1      40.505  20.810  26.355  1.00  0.00     0.261 C 
BRANCH  25  26
ATOM     26  O   UNL A   1      41.028  22.115  26.537  1.00  0.00    -0.460 OA
BRANCH  26  27
ATOM     27  C   UNL A   1      40.075  23.076  26.631  1.00  0.00     0.338 C 
ATOM     28  O   UNL A   1      38.882  22.949  26.453  1.00  0.00    -0.246 OA
BRANCH  27  29
ATOM     29  C   UNL A   1      40.748  24.363  26.836  1.00  0.00     0.060 A 
ATOM     30  C   UNL A   1      41.648  24.409  27.900  1.00  0.00     0.016 A 
ATOM     31  C   UNL A   1      40.226  25.522  26.240  1.00  0.00     0.016 A 
ATOM     32  C   UNL A   1      41.804  25.608  28.551  1.00  0.00     0.010 A 
ATOM     33  C   UNL A   1      40.375  26.716  26.898  1.00  0.00     0.010 A 
ATOM     34  C   UNL A   1      41.072  26.711  28.100  1.00  0.00    -0.014 A 
BRANCH  34  35
ATOM     35  C   UNL A   1      41.133  27.923  28.880  1.00  0.00     0.031 A 
ATOM     36  C   UNL A   1      42.218  28.809  28.419  1.00  0.00     0.074 A 
ATOM     37  C   UNL A   1      40.252  28.212  29.853  1.00  0.00     0.049 A 
ATOM     38  N   UNL A   1      43.371  28.963  28.973  1.00  0.00    -0.248 NA
ATOM     39  C   UNL A   1      42.118  29.372  27.065  1.00  0.00     0.031 C 
ATOM     40  C   UNL A   1      39.013  27.522  30.215  1.00  0.00     0.029 A 
ATOM     41  N   UNL A   1      40.260  29.283  30.687  1.00  0.00    -0.354 N 
ATOM     42  C   UNL A   1      44.045  29.865  28.163  1.00  0.00     0.074 A 
ATOM     43  C   UNL A   1      43.345  29.871  26.906  1.00  0.00     0.031 C 
ATOM     44  C   UNL A   1      38.281  28.323  31.026  1.00  0.00     0.029 A 
ATOM     45  C   UNL A   1      39.053  29.513  31.340  1.00  0.00     0.049 A 
ATOM     46  H   UNL A   1      41.055  29.850  30.819  1.00  0.00     0.167 HD
ATOM     47  C   UNL A   1      44.936  30.744  28.696  1.00  0.00     0.037 A 
ATOM     48  C   UNL A   1      38.729  30.663  31.988  1.00  0.00     0.037 A 
ATOM     49  C   UNL A   1      45.321  30.340  30.028  1.00  0.00     0.049 A 
ATOM     50  C   UNL A   1      40.020  31.334  32.334  1.00  0.00     0.074 A 
ATOM     51  C   UNL A   1      45.901  29.204  30.560  1.00  0.00     0.029 A 
ATOM     52  N   UNL A   1      44.730  30.991  31.087  1.00  0.00    -0.354 N 
ATOM     53  N   UNL A   1      40.880  30.834  33.184  1.00  0.00    -0.248 NA
ATOM     54  C   UNL A   1      40.588  32.252  31.352  1.00  0.00     0.031 C 
ATOM     55  C   UNL A   1      45.214  28.979  31.788  1.00  0.00     0.029 A 
ATOM     56  C   UNL A   1      44.322  30.035  31.983  1.00  0.00     0.049 A 
ATOM     57  H   UNL A   1      44.619  31.965  31.184  1.00  0.00     0.167 HD
ATOM     58  C   UNL A   1      42.123  31.022  32.594  1.00  0.00     0.074 A 
ATOM     59  C   UNL A   1      41.883  31.952  31.490  1.00  0.00     0.031 C 
ATOM     60  C   UNL A   1      43.173  30.185  32.851  1.00  0.00     0.037 A 
BRANCH  47  61
ATOM     61  C   UNL A   1      45.137  32.147  28.186  1.00  0.00     0.058 A 
ATOM     62  C   UNL A   1      46.430  32.547  27.797  1.00  0.00     0.135 A 
ATOM     63  C   UNL A   1      44.192  33.191  28.323  1.00  0.00     0.135 A 
ATOM     64  F   UNL A   1      47.407  31.640  27.635  1.00  0.00    -0.206 F 
ATOM     65  C   UNL A   1      46.781  33.887  27.642  1.00  0.00     0.059 A 
ATOM     66  C   UNL A   1      44.505  34.527  28.117  1.00  0.00     0.059 A 
ATOM     67  F   UNL A   1      42.944  32.989  28.759  1.00  0.00    -0.206 F 
ATOM     68  C   UNL A   1      45.812  34.870  27.821  1.00  0.00     0.060 A 
BRANCH  68  69
ATOM     69  S   UNL A   1      46.280  36.603  27.722  1.00  0.00     0.124 S 
ATOM     70  O   UNL A   1      47.568  36.517  27.043  1.00  0.00    -0.237 OA
ATOM     71  O   UNL A   1      45.180  37.165  26.946  1.00  0.00    -0.237 OA
ATOM     72  O   UNL A   1      46.329  37.018  29.121  1.00  0.00    -0.744 OA
ENDBRANCH  68  69
ENDBRANCH  47  61
BRANCH  48  73
ATOM     73  C   UNL A   1      37.422  31.382  31.936  1.00  0.00     0.058 A 
ATOM     74  C   UNL A   1      36.751  31.785  33.107  1.00  0.00     0.135 A 
ATOM     75  C   UNL A   1      36.930  31.929  30.732  1.00  0.00     0.135 A 
ATOM     76  F   UNL A   1      37.160  31.337  34.304  1.00  0.00    -0.206 F 
ATOM     77  C   UNL A   1      35.692  32.705  33.088  1.00  0.00     0.059 A 
ATOM     78  C   UNL A   1      35.873  32.837  30.687  1.00  0.00     0.059 A 
ATOM     79  F   UNL A   1      37.523  31.670  29.557  1.00  0.00    -0.206 F 
ATOM     80  C   UNL A   1      35.273  33.242  31.870  1.00  0.00     0.060 A 
BRANCH  80  81
ATOM     81  S   UNL A   1      34.032  34.559  31.842  1.00  0.00     0.124 S 
ATOM     82  O   UNL A   1      34.799  35.709  32.309  1.00  0.00    -0.237 OA
ATOM     83  O   UNL A   1      33.637  34.583  30.438  1.00  0.00    -0.237 OA
ATOM     84  O   UNL A   1      33.007  34.078  32.764  1.00  0.00    -0.744 OA
ENDBRANCH  80  81
ENDBRANCH  48  73
BRANCH  60  85
ATOM     85  C   UNL A   1      43.058  29.194  33.982  1.00  0.00     0.058 A 
ATOM     86  C   UNL A   1      43.262  29.501  35.341  1.00  0.00     0.135 A 
ATOM     87  C   UNL A   1      42.542  27.923  33.688  1.00  0.00     0.135 A 
ATOM     88  F   UNL A   1      43.645  30.729  35.719  1.00  0.00    -0.206 F 
ATOM     89  C   UNL A   1      43.008  28.571  36.352  1.00  0.00     0.059 A 
ATOM     90  C   UNL A   1      42.249  26.993  34.680  1.00  0.00     0.059 A 
ATOM     91  F   UNL A   1      42.259  27.590  32.417  1.00  0.00    -0.206 F 
ATOM     92  C   UNL A   1      42.501  27.317  36.011  1.00  0.00     0.060 A 
BRANCH  92  93
ATOM     93  S   UNL A   1      42.117  26.130  37.317  1.00  0.00     0.124 S 
ATOM     94  O   UNL A   1      42.297  24.854  36.633  1.00  0.00    -0.237 OA
ATOM     95  O   UNL A   1      43.112  26.449  38.337  1.00  0.00    -0.237 OA
ATOM     96  O   UNL A   1      40.739  26.453  37.679  1.00  0.00    -0.744 OA
ENDBRANCH  92  93
ENDBRANCH  60  85
ENDBRANCH  34  35
ENDBRANCH  27  29
ENDBRANCH  26  27
ENDBRANCH  25  26
ENDBRANCH  24  25
ENDBRANCH  23  24
ENDBRANCH   1  23
TORSDOF 21
ENDMDL
MODEL 2
REMARK VINA RESULT:      -9.5      4.776     11.075
REMARK SMILES Cn1cc(CNC(=O)Cn2ccc(C(=O)OCCOCCOC(=O)c3ccc(-c4c5nc(c(-c6c(F)cc(S(=O)(=O)[O-])cc6F)c6ccc([nH]6)c(-c6c(F)cc(S(=O)(=O)[O-])cc6F)c6nc(c(-c7c(F)cc(S(=O)(=O)[O-])cc7F)c7ccc4[nH]7)C=C6)C=C5)cc3)n2)cn1
REMARK SMILES IDX 18 1 17 2 16 3 14 4 15 5 13 6 10 7 11 8 91 9 12 10 9 11 7 12
REMARK SMILES IDX 6 13 8 15 5 16 4 17 1 18 2 19 3 20 93 21 92 22 19 23 20 24
REMARK SMILES IDX 21 25 22 26 23 27 24 28 25 29 26 30 90 31 27 32 89 33 28 34
REMARK SMILES IDX 29 35 30 36 83 37 31 38 88 39 82 40 84 41 32 42 87 43 81 44
REMARK SMILES IDX 80 45 33 47 67 48 46 49 66 50 47 51 50 52 65 53 85 54 48 55
REMARK SMILES IDX 49 56 64 58 86 59 51 60 34 61 35 62 44 63 36 64 37 65 43 66
REMARK SMILES IDX 45 67 38 68 39 69 40 70 41 71 42 72 68 73 69 74 78 75 70 76
REMARK SMILES IDX 71 77 77 78 79 79 72 80 73 81 74 82 75 83 76 84 52 85 53 86
REMARK SMILES IDX 62 87 54 88 55 89 61 90 63 91 56 92 57 93 58 94 59 95 60 96
REMARK H PARENT 6 14 84 46 50 57
REMARK Flexibility Score: inf
ROOT
ATOM      1  C   UNL A   1      30.929  29.329  24.274  1.00  0.00     0.202 C 
ENDROOT
BRANCH   1   2
ATOM      2  C   UNL A   1      31.800  28.862  23.106  1.00  0.00     0.261 C 
BRANCH   2   3
ATOM      3  O   UNL A   1      31.753  27.438  22.931  1.00  0.00    -0.458 OA
BRANCH   3   4
ATOM      4  C   UNL A   1      32.786  26.743  23.500  1.00  0.00     0.358 C 
ATOM      5  O   UNL A   1      33.788  27.262  23.977  1.00  0.00    -0.244 OA
BRANCH   4   6
ATOM      6  C   UNL A   1      32.488  25.304  23.586  1.00  0.00     0.170 A 
ATOM      7  N   UNL A   1      31.719  23.482  24.386  1.00  0.00    -0.262 N 
ATOM      8  C   UNL A   1      32.120  23.157  23.124  1.00  0.00     0.110 A 
ATOM      9  N   UNL A   1      31.972  24.764  24.707  1.00  0.00    -0.165 NA
ATOM     10  C   UNL A   1      32.608  24.317  22.571  1.00  0.00     0.057 A 
BRANCH   7  11
ATOM     11  C   UNL A   1      31.103  22.626  25.384  1.00  0.00     0.243 C 
BRANCH  11  12
ATOM     12  C   UNL A   1      31.741  22.755  26.743  1.00  0.00     0.241 C 
ATOM     13  N   UNL A   1      32.832  22.001  27.063  1.00  0.00    -0.350 N 
ATOM     14  H   UNL A   1      33.215  22.158  27.956  1.00  0.00     0.163 HD
ATOM     15  O   UNL A   1      31.322  23.564  27.573  1.00  0.00    -0.273 OA
BRANCH  13  16
ATOM     16  C   UNL A   1      33.499  20.999  26.259  1.00  0.00     0.155 C 
BRANCH  16  17
ATOM     17  C   UNL A   1      34.853  21.493  25.928  1.00  0.00     0.009 A 
ATOM     18  C   UNL A   1      37.695  23.707  25.854  1.00  0.00     0.173 C 
ATOM     19  N   UNL A   1      36.697  22.671  25.758  1.00  0.00    -0.275 N 
ATOM     20  C   UNL A   1      35.435  22.696  26.272  1.00  0.00     0.113 A 
ATOM     21  N   UNL A   1      36.987  21.534  25.103  1.00  0.00    -0.181 NA
ATOM     22  C   UNL A   1      35.868  20.816  25.209  1.00  0.00     0.140 A 
ENDBRANCH  16  17
ENDBRANCH  13  16
ENDBRANCH  11  12
ENDBRANCH   7  11
ENDBRANCH   4   6
ENDBRANCH   3   4
ENDBRANCH   2   3
ENDBRANCH   1   2
BRANCH   1  23
ATOM     23  O   UNL A   1      31.540  29.434  25.558  1.00  0.00    -0.374 OA
BRANCH  23  24
ATOM     24  C   UNL A   1      32.759  30.157  25.713  1.00  0.00     0.202 C 
BRANCH  24  25
ATOM     25  C   UNL A   1      33.273  30.420  27.121  1.00  0.00     0.261 C 
BRANCH  25  26
ATOM     26  O   UNL A   1      34.686  30.321  27.197  1.00  0.00    -0.460 OA
BRANCH  26  27
ATOM     27  C   UNL A   1      35.276  31.383  27.800  1.00  0.00     0.338 C 
ATOM     28  O   UNL A   1      35.105  32.558  27.553  1.00  0.00    -0.246 OA
BRANCH  27  29
ATOM     29  C   UNL A   1      36.298  30.872  28.719  1.00  0.00     0.060 A 
ATOM     30  C   UNL A   1      37.353  31.743  28.992  1.00  0.00     0.016 A 
ATOM     31  C   UNL A   1      36.375  29.494  28.976  1.00  0.00     0.016 A 
ATOM     32  C   UNL A   1      38.583  31.193  29.254  1.00  0.00     0.010 A 
ATOM     33  C   UNL A   1      37.606  28.946  29.227  1.00  0.00     0.010 A 
ATOM     34  C   UNL A   1      38.703  29.799  29.254  1.00  0.00    -0.014 A 
BRANCH  34  35
ATOM     35  C   UNL A   1      40.025  29.238  29.386  1.00  0.00     0.031 A 
ATOM     36  C   UNL A   1      40.409  29.084  30.801  1.00  0.00     0.074 A 
ATOM     37  C   UNL A   1      40.763  28.848  28.332  1.00  0.00     0.049 A 
ATOM     38  N   UNL A   1      41.192  29.857  31.473  1.00  0.00    -0.248 NA
ATOM     39  C   UNL A   1      39.639  28.140  31.624  1.00  0.00     0.031 C 
ATOM     40  C   UNL A   1      40.379  28.734  26.924  1.00  0.00     0.029 A 
ATOM     41  N   UNL A   1      42.035  28.376  28.341  1.00  0.00    -0.354 N 
ATOM     42  C   UNL A   1      41.217  29.322  32.753  1.00  0.00     0.074 A 
ATOM     43  C   UNL A   1      40.072  28.457  32.845  1.00  0.00     0.031 C 
ATOM     44  C   UNL A   1      41.314  28.007  26.268  1.00  0.00     0.029 A 
ATOM     45  C   UNL A   1      42.414  27.721  27.173  1.00  0.00     0.049 A 
ATOM     46  H   UNL A   1      42.641  28.488  29.110  1.00  0.00     0.167 HD
ATOM     47  C   UNL A   1      42.338  29.410  33.518  1.00  0.00     0.037 A 
ATOM     48  C   UNL A   1      43.511  26.928  27.049  1.00  0.00     0.037 A 
ATOM     49  C   UNL A   1      43.245  30.401  32.989  1.00  0.00     0.049 A 
ATOM     50  C   UNL A   1      44.455  27.337  28.135  1.00  0.00     0.074 A 
ATOM     51  C   UNL A   1      43.144  31.754  32.723  1.00  0.00     0.029 A 
ATOM     52  N   UNL A   1      44.322  29.954  32.258  1.00  0.00    -0.354 N 
ATOM     53  N   UNL A   1      45.032  28.511  28.176  1.00  0.00    -0.248 NA
ATOM     54  C   UNL A   1      44.331  26.668  29.426  1.00  0.00     0.031 C 
ATOM     55  C   UNL A   1      43.834  31.940  31.490  1.00  0.00     0.029 A 
ATOM     56  C   UNL A   1      44.392  30.716  31.119  1.00  0.00     0.049 A 
ATOM     57  H   UNL A   1      44.931  29.220  32.506  1.00  0.00     0.167 HD
ATOM     58  C   UNL A   1      44.950  28.909  29.504  1.00  0.00     0.074 A 
ATOM     59  C   UNL A   1      44.556  27.706  30.238  1.00  0.00     0.031 C 
ATOM     60  C   UNL A   1      44.908  30.229  29.857  1.00  0.00     0.037 A 
BRANCH  47  61
ATOM     61  C   UNL A   1      42.783  28.338  34.480  1.00  0.00     0.058 A 
ATOM     62  C   UNL A   1      43.027  28.692  35.821  1.00  0.00     0.135 A 
ATOM     63  C   UNL A   1      43.244  27.058  34.093  1.00  0.00     0.135 A 
ATOM     64  F   UNL A   1      42.631  29.883  36.297  1.00  0.00    -0.206 F 
ATOM     65  C   UNL A   1      43.753  27.874  36.686  1.00  0.00     0.059 A 
ATOM     66  C   UNL A   1      43.917  26.205  34.955  1.00  0.00     0.059 A 
ATOM     67  F   UNL A   1      43.159  26.603  32.838  1.00  0.00    -0.206 F 
ATOM     68  C   UNL A   1      44.206  26.639  36.236  1.00  0.00     0.060 A 
BRANCH  68  69
ATOM     69  S   UNL A   1      45.227  25.624  37.314  1.00  0.00     0.124 S 
ATOM     70  O   UNL A   1      44.395  25.545  38.509  1.00  0.00    -0.237 OA
ATOM     71  O   UNL A   1      45.353  24.396  36.536  1.00  0.00    -0.237 OA
ATOM     72  O   UNL A   1      46.453  26.404  37.447  1.00  0.00    -0.744 OA
ENDBRANCH  68  69
ENDBRANCH  47  61
BRANCH  48  73
ATOM     73  C   UNL A   1      43.591  25.612  26.351  1.00  0.00     0.058 A 
ATOM     74  C   UNL A   1      44.552  25.361  25.352  1.00  0.00     0.135 A 
ATOM     75  C   UNL A   1      42.900  24.480  26.832  1.00  0.00     0.135 A 
ATOM     76  F   UNL A   1      45.277  26.371  24.847  1.00  0.00    -0.206 F 
ATOM     77  C   UNL A   1      44.839  24.066  24.895  1.00  0.00     0.059 A 
ATOM     78  C   UNL A   1      43.162  23.185  26.386  1.00  0.00     0.059 A 
ATOM     79  F   UNL A   1      42.005  24.582  27.826  1.00  0.00    -0.206 F 
ATOM     80  C   UNL A   1      44.150  22.979  25.435  1.00  0.00     0.060 A 
BRANCH  80  81
ATOM     81  S   UNL A   1      44.630  21.292  24.990  1.00  0.00     0.124 S 
ATOM     82  O   UNL A   1      46.008  21.233  25.465  1.00  0.00    -0.237 OA
ATOM     83  O   UNL A   1      43.664  20.489  25.732  1.00  0.00    -0.237 OA
ATOM     84  O   UNL A   1      44.470  21.267  23.538  1.00  0.00    -0.744 OA
ENDBRANCH  80  81
ENDBRANCH  48  73
BRANCH  60  85
ATOM     85  C   UNL A   1      45.209  31.274  28.811  1.00  0.00     0.058 A 
ATOM     86  C   UNL A   1      44.279  31.764  27.875  1.00  0.00     0.135 A 
ATOM     87  C   UNL A   1      46.446  31.933  28.883  1.00  0.00     0.135 A 
ATOM     88  F   UNL A   1      43.034  31.269  27.818  1.00  0.00    -0.206 F 
ATOM     89  C   UNL A   1      44.584  32.828  27.022  1.00  0.00     0.059 A 
ATOM     90  C   UNL A   1      46.759  33.015  28.067  1.00  0.00     0.059 A 
ATOM     91  F   UNL A   1      47.354  31.559  29.801  1.00  0.00    -0.206 F 
ATOM     92  C   UNL A   1      45.829  33.449  27.126  1.00  0.00     0.060 A 
BRANCH  92  93
ATOM     93  S   UNL A   1      46.208  34.860  26.065  1.00  0.00     0.124 S 
ATOM     94  O   UNL A   1      45.447  35.932  26.699  1.00  0.00    -0.237 OA
ATOM     95  O   UNL A   1      47.660  34.960  26.179  1.00  0.00    -0.237 OA
ATOM     96  O   UNL A   1      45.721  34.442  24.753  1.00  0.00    -0.744 OA
ENDBRANCH  92  93
ENDBRANCH  60  85
ENDBRANCH  34  35
ENDBRANCH  27  29
ENDBRANCH  26  27
ENDBRANCH  25  26
ENDBRANCH  24  25
ENDBRANCH  23  24
ENDBRANCH   1  23
TORSDOF 21
ENDMDL
MODEL 3
REMARK VINA RESULT:      -9.4      3.266      5.221
REMARK SMILES Cn1cc(CNC(=O)Cn2ccc(C(=O)OCCOCCOC(=O)c3ccc(-c4c5nc(c(-c6c(F)cc(S(=O)(=O)[O-])cc6F)c6ccc([nH]6)c(-c6c(F)cc(S(=O)(=O)[O-])cc6F)c6nc(c(-c7c(F)cc(S(=O)(=O)[O-])cc7F)c7ccc4[nH]7)C=C6)C=C5)cc3)n2)cn1
REMARK SMILES IDX 18 1 17 2 16 3 14 4 15 5 13 6 10 7 11 8 91 9 12 10 9 11 7 12
REMARK SMILES IDX 6 13 8 15 5 16 4 17 1 18 2 19 3 20 93 21 92 22 19 23 20 24
REMARK SMILES IDX 21 25 22 26 23 27 24 28 25 29 26 30 90 31 27 32 89 33 28 34
REMARK SMILES IDX 29 35 30 36 83 37 31 38 88 39 82 40 84 41 32 42 87 43 81 44
REMARK SMILES IDX 80 45 33 47 67 48 46 49 66 50 47 51 50 52 65 53 85 54 48 55
REMARK SMILES IDX 49 56 64 58 86 59 51 60 34 61 35 62 44 63 36 64 37 65 43 66
REMARK SMILES IDX 45 67 38 68 39 69 40 70 41 71 42 72 68 73 69 74 78 75 70 76
REMARK SMILES IDX 71 77 77 78 79 79 72 80 73 81 74 82 75 83 76 84 52 85 53 86
REMARK SMILES IDX 62 87 54 88 55 89 61 90 63 91 56 92 57 93 58 94 59 95 60 96
REMARK H PARENT 6 14 84 46 50 57
REMARK Flexibility Score: inf
ROOT
ATOM      1  C   UNL A   1      43.695  18.680  25.739  1.00  0.00     0.202 C 
ENDROOT
BRANCH   1   2
ATOM      2  C   UNL A   1      42.392  18.677  26.541  1.00  0.00     0.261 C 
BRANCH   2   3
ATOM      3  O   UNL A   1      41.302  19.253  25.804  1.00  0.00    -0.458 OA
BRANCH   3   4
ATOM      4  C   UNL A   1      40.554  20.173  26.487  1.00  0.00     0.358 C 
ATOM      5  O   UNL A   1      40.955  20.806  27.457  1.00  0.00    -0.244 OA
BRANCH   4   6
ATOM      6  C   UNL A   1      39.255  20.405  25.837  1.00  0.00     0.170 A 
ATOM      7  N   UNL A   1      37.671  21.482  24.896  1.00  0.00    -0.262 N 
ATOM      8  C   UNL A   1      37.334  20.170  24.734  1.00  0.00     0.110 A 
ATOM      9  N   UNL A   1      38.805  21.652  25.600  1.00  0.00    -0.165 NA
ATOM     10  C   UNL A   1      38.346  19.445  25.317  1.00  0.00     0.057 A 
BRANCH   7  11
ATOM     11  C   UNL A   1      36.956  22.659  24.437  1.00  0.00     0.243 C 
BRANCH  11  12
ATOM     12  C   UNL A   1      36.455  23.521  25.569  1.00  0.00     0.241 C 
ATOM     13  N   UNL A   1      35.116  23.655  25.787  1.00  0.00    -0.350 N 
ATOM     14  H   UNL A   1      34.861  24.208  26.561  1.00  0.00     0.163 HD
ATOM     15  O   UNL A   1      37.237  24.084  26.337  1.00  0.00    -0.273 OA
BRANCH  13  16
ATOM     16  C   UNL A   1      34.020  23.090  25.029  1.00  0.00     0.155 C 
BRANCH  16  17
ATOM     17  C   UNL A   1      32.764  23.337  25.771  1.00  0.00     0.009 A 
ATOM     18  C   UNL A   1      29.536  22.671  27.224  1.00  0.00     0.173 C 
ATOM     19  N   UNL A   1      30.806  23.154  26.744  1.00  0.00    -0.275 N 
ATOM     20  C   UNL A   1      31.710  22.473  25.985  1.00  0.00     0.113 A 
ATOM     21  N   UNL A   1      31.193  24.405  27.046  1.00  0.00    -0.181 NA
ATOM     22  C   UNL A   1      32.385  24.516  26.458  1.00  0.00     0.140 A 
ENDBRANCH  16  17
ENDBRANCH  13  16
ENDBRANCH  11  12
ENDBRANCH   7  11
ENDBRANCH   4   6
ENDBRANCH   3   4
ENDBRANCH   2   3
ENDBRANCH   1   2
BRANCH   1  23
ATOM     23  O   UNL A   1      43.864  19.692  24.748  1.00  0.00    -0.374 OA
BRANCH  23  24
ATOM     24  C   UNL A   1      45.080  20.433  24.685  1.00  0.00     0.202 C 
BRANCH  24  25
ATOM     25  C   UNL A   1      45.214  21.684  25.542  1.00  0.00     0.261 C 
BRANCH  25  26
ATOM     26  O   UNL A   1      43.974  22.071  26.112  1.00  0.00    -0.460 OA
BRANCH  26  27
ATOM     27  C   UNL A   1      43.269  22.939  25.345  1.00  0.00     0.338 C 
ATOM     28  O   UNL A   1      43.368  23.112  24.149  1.00  0.00    -0.246 OA
BRANCH  27  29
ATOM     29  C   UNL A   1      42.454  23.771  26.236  1.00  0.00     0.060 A 
ATOM     30  C   UNL A   1      41.708  24.771  25.611  1.00  0.00     0.016 A 
ATOM     31  C   UNL A   1      42.720  23.781  27.614  1.00  0.00     0.016 A 
ATOM     32  C   UNL A   1      41.473  25.926  26.316  1.00  0.00     0.010 A 
ATOM     33  C   UNL A   1      42.493  24.939  28.313  1.00  0.00     0.010 A 
ATOM     34  C   UNL A   1      41.973  26.025  27.619  1.00  0.00    -0.014 A 
BRANCH  34  35
ATOM     35  C   UNL A   1      41.846  27.293  28.293  1.00  0.00     0.031 A 
ATOM     36  C   UNL A   1      42.993  28.174  28.011  1.00  0.00     0.074 A 
ATOM     37  C   UNL A   1      40.768  27.627  29.024  1.00  0.00     0.049 A 
ATOM     38  N   UNL A   1      43.994  28.406  28.790  1.00  0.00    -0.248 NA
ATOM     39  C   UNL A   1      43.186  28.631  26.626  1.00  0.00     0.031 C 
ATOM     40  C   UNL A   1      39.489  26.929  29.161  1.00  0.00     0.029 A 
ATOM     41  N   UNL A   1      40.578  28.758  29.751  1.00  0.00    -0.354 N 
ATOM     42  C   UNL A   1      44.817  29.264  28.076  1.00  0.00     0.074 A 
ATOM     43  C   UNL A   1      44.411  29.154  26.700  1.00  0.00     0.031 C 
ATOM     44  C   UNL A   1      38.586  27.766  29.725  1.00  0.00     0.029 A 
ATOM     45  C   UNL A   1      39.254  28.999  30.103  1.00  0.00     0.049 A 
ATOM     46  H   UNL A   1      41.316  29.358  30.007  1.00  0.00     0.167 HD
ATOM     47  C   UNL A   1      45.558  30.207  28.719  1.00  0.00     0.037 A 
ATOM     48  C   UNL A   1      38.779  30.185  30.571  1.00  0.00     0.037 A 
ATOM     49  C   UNL A   1      45.646  29.917  30.131  1.00  0.00     0.049 A 
ATOM     50  C   UNL A   1      39.954  30.919  31.136  1.00  0.00     0.074 A 
ATOM     51  C   UNL A   1      46.109  28.842  30.866  1.00  0.00     0.029 A 
ATOM     52  N   UNL A   1      44.827  30.627  30.979  1.00  0.00    -0.354 N 
ATOM     53  N   UNL A   1      40.612  30.511  32.190  1.00  0.00    -0.248 NA
ATOM     54  C   UNL A   1      40.712  31.777  30.231  1.00  0.00     0.031 C 
ATOM     55  C   UNL A   1      45.172  28.690  31.928  1.00  0.00     0.029 A 
ATOM     56  C   UNL A   1      44.245  29.729  31.838  1.00  0.00     0.049 A 
ATOM     57  H   UNL A   1      44.685  31.602  30.971  1.00  0.00     0.167 HD
ATOM     58  C   UNL A   1      41.952  30.692  31.873  1.00  0.00     0.074 A 
ATOM     59  C   UNL A   1      41.949  31.528  30.672  1.00  0.00     0.031 C 
ATOM     60  C   UNL A   1      42.931  29.909  32.419  1.00  0.00     0.037 A 
BRANCH  47  61
ATOM     61  C   UNL A   1      45.847  31.574  28.154  1.00  0.00     0.058 A 
ATOM     62  C   UNL A   1      47.175  32.043  28.165  1.00  0.00     0.135 A 
ATOM     63  C   UNL A   1      44.861  32.545  27.865  1.00  0.00     0.135 A 
ATOM     64  F   UNL A   1      48.194  31.207  28.426  1.00  0.00    -0.206 F 
ATOM     65  C   UNL A   1      47.491  33.389  27.990  1.00  0.00     0.059 A 
ATOM     66  C   UNL A   1      45.159  33.879  27.630  1.00  0.00     0.059 A 
ATOM     67  F   UNL A   1      43.550  32.280  27.891  1.00  0.00    -0.206 F 
ATOM     68  C   UNL A   1      46.471  34.301  27.739  1.00  0.00     0.060 A 
BRANCH  68  69
ATOM     69  S   UNL A   1      46.860  36.052  27.611  1.00  0.00     0.124 S 
ATOM     70  O   UNL A   1      46.101  36.599  28.729  1.00  0.00    -0.237 OA
ATOM     71  O   UNL A   1      48.311  36.047  27.761  1.00  0.00    -0.237 OA
ATOM     72  O   UNL A   1      46.374  36.407  26.282  1.00  0.00    -0.744 OA
ENDBRANCH  68  69
ENDBRANCH  47  61
BRANCH  48  73
ATOM     73  C   UNL A   1      37.507  30.857  30.177  1.00  0.00     0.058 A 
ATOM     74  C   UNL A   1      36.646  31.430  31.134  1.00  0.00     0.135 A 
ATOM     75  C   UNL A   1      37.236  31.191  28.833  1.00  0.00     0.135 A 
ATOM     76  F   UNL A   1      36.837  31.191  32.440  1.00  0.00    -0.206 F 
ATOM     77  C   UNL A   1      35.613  32.311  30.781  1.00  0.00     0.059 A 
ATOM     78  C   UNL A   1      36.209  32.056  28.459  1.00  0.00     0.059 A 
ATOM     79  F   UNL A   1      38.022  30.758  27.837  1.00  0.00    -0.206 F 
ATOM     80  C   UNL A   1      35.415  32.635  29.438  1.00  0.00     0.060 A 
BRANCH  80  81
ATOM     81  S   UNL A   1      34.207  33.903  28.982  1.00  0.00     0.124 S 
ATOM     82  O   UNL A   1      33.581  34.202  30.265  1.00  0.00    -0.237 OA
ATOM     83  O   UNL A   1      35.055  34.952  28.424  1.00  0.00    -0.237 OA
ATOM     84  O   UNL A   1      33.351  33.222  28.015  1.00  0.00    -0.744 OA
ENDBRANCH  80  81
ENDBRANCH  48  73
BRANCH  60  85
ATOM     85  C   UNL A   1      42.583  29.003  33.574  1.00  0.00     0.058 A 
ATOM     86  C   UNL A   1      42.138  27.674  33.444  1.00  0.00     0.135 A 
ATOM     87  C   UNL A   1      42.886  29.449  34.869  1.00  0.00     0.135 A 
ATOM     88  F   UNL A   1      41.933  27.130  32.236  1.00  0.00    -0.206 F 
ATOM     89  C   UNL A   1      41.961  26.845  34.556  1.00  0.00     0.059 A 
ATOM     90  C   UNL A   1      42.750  28.631  35.986  1.00  0.00     0.059 A 
ATOM     91  F   UNL A   1      43.380  30.684  35.056  1.00  0.00    -0.206 F 
ATOM     92  C   UNL A   1      42.271  27.334  35.825  1.00  0.00     0.060 A 
BRANCH  92  93
ATOM     93  S   UNL A   1      42.098  26.250  37.259  1.00  0.00     0.124 S 
ATOM     94  O   UNL A   1      42.296  24.930  36.671  1.00  0.00    -0.237 OA
ATOM     95  O   UNL A   1      43.163  26.719  38.141  1.00  0.00    -0.237 OA
ATOM     96  O   UNL A   1      40.743  26.524  37.733  1.00  0.00    -0.744 OA
ENDBRANCH  92  93
ENDBRANCH  60  85
ENDBRANCH  34  35
ENDBRANCH  27  29
ENDBRANCH  26  27
ENDBRANCH  25  26
ENDBRANCH  24  25
ENDBRANCH  23  24
ENDBRANCH   1  23
TORSDOF 21
ENDMDL
