MODEL 1
REMARK VINA RESULT:     -11.5      0.000      0.000
REMARK SMILES Cc1cc(C)cc(-c2ccc([C@@H](C)C(=O)OCCOCCOC(=O)c3ccc(-c4c5nc(c(-c6c(F)cc(S(=O)(=O)[O-])cc6F)c6ccc([nH]6)c(-c6c(F)cc(S(=O)(=O)[O-])cc6F)c6nc(c(-c7c(F)cc(S(=O)(=O)[O-])cc7F)c7ccc4[nH]7)C=C6)C=C5)cc3)cc2F)c1
REMARK SMILES IDX 20 1 19 2 18 3 17 4 16 5 14 6 15 7 12 8 13 9 11 10 8 11 9 12
REMARK SMILES IDX 92 13 10 14 91 15 93 16 7 17 1 18 2 19 3 20 94 21 4 22 5 23
REMARK SMILES IDX 6 24 21 25 22 26 23 27 24 28 25 29 26 30 90 31 27 32 89 33
REMARK SMILES IDX 28 34 29 35 30 36 83 37 31 38 88 39 82 40 84 41 32 42 87 43
REMARK SMILES IDX 81 44 80 45 33 47 67 48 46 49 66 50 47 51 50 52 65 53 85 54
REMARK SMILES IDX 48 55 49 56 64 58 86 59 51 60 34 61 35 62 44 63 36 64 37 65
REMARK SMILES IDX 43 66 45 67 38 68 39 69 40 70 41 71 42 72 68 73 69 74 78 75
REMARK SMILES IDX 70 76 71 77 77 78 79 79 72 80 73 81 74 82 75 83 76 84 52 85
REMARK SMILES IDX 53 86 62 87 54 88 55 89 61 90 63 91 56 92 57 93 58 94 59 95
REMARK SMILES IDX 60 96
REMARK H PARENT 84 46 50 57
REMARK Flexibility Score: inf
ROOT
ATOM      1  C   UNL A   1      34.047  32.090  28.007  1.00  0.00     0.202 C 
ENDROOT
BRANCH   1   2
ATOM      2  O   UNL A   1      34.365  30.870  27.335  1.00  0.00    -0.374 OA
BRANCH   2   3
ATOM      3  C   UNL A   1      33.306  29.928  27.157  1.00  0.00     0.202 C 
BRANCH   3   4
ATOM      4  C   UNL A   1      32.300  30.244  26.047  1.00  0.00     0.261 C 
BRANCH   4   5
ATOM      5  O   UNL A   1      31.744  29.044  25.482  1.00  0.00    -0.463 OA
BRANCH   5   6
ATOM      6  C   UNL A   1      32.071  28.788  24.189  1.00  0.00     0.313 C 
ATOM      7  O   UNL A   1      31.333  28.995  23.230  1.00  0.00    -0.252 OA
BRANCH   6   8
ATOM      8  C   UNL A   1      33.451  28.173  24.014  1.00  0.00     0.126 C 
ATOM      9  C   UNL A   1      34.081  28.708  22.729  1.00  0.00     0.025 C 
BRANCH   8  10
ATOM     10  C   UNL A   1      33.575  26.657  24.126  1.00  0.00    -0.031 A 
ATOM     11  C   UNL A   1      34.075  23.859  24.419  1.00  0.00     0.017 A 
ATOM     12  C   UNL A   1      33.931  24.447  23.152  1.00  0.00     0.012 A 
ATOM     13  C   UNL A   1      33.907  24.692  25.532  1.00  0.00     0.131 A 
ATOM     14  C   UNL A   1      33.685  25.822  23.006  1.00  0.00     0.005 A 
ATOM     15  C   UNL A   1      33.664  26.062  25.395  1.00  0.00     0.044 A 
ATOM     16  F   UNL A   1      34.024  24.197  26.774  1.00  0.00    -0.206 F 
BRANCH  11  17
ATOM     17  C   UNL A   1      34.447  22.440  24.560  1.00  0.00    -0.015 A 
ATOM     18  C   UNL A   1      37.561  20.252  24.959  1.00  0.00     0.044 C 
ATOM     19  C   UNL A   1      36.130  20.681  24.810  1.00  0.00    -0.050 A 
ATOM     20  C   UNL A   1      35.118  19.713  24.797  1.00  0.00     0.006 A 
ATOM     21  C   UNL A   1      35.787  22.036  24.687  1.00  0.00     0.012 A 
ATOM     22  C   UNL A   1      33.777  20.084  24.662  1.00  0.00    -0.050 A 
ATOM     23  C   UNL A   1      32.708  19.031  24.647  1.00  0.00     0.044 C 
ATOM     24  C   UNL A   1      33.454  21.443  24.550  1.00  0.00     0.012 A 
ENDBRANCH  11  17
ENDBRANCH   8  10
ENDBRANCH   6   8
ENDBRANCH   5   6
ENDBRANCH   4   5
ENDBRANCH   3   4
ENDBRANCH   2   3
ENDBRANCH   1   2
BRANCH   1  25
ATOM     25  C   UNL A   1      34.816  32.383  29.301  1.00  0.00     0.261 C 
BRANCH  25  26
ATOM     26  O   UNL A   1      36.194  31.972  29.226  1.00  0.00    -0.460 OA
BRANCH  26  27
ATOM     27  C   UNL A   1      36.572  31.069  30.160  1.00  0.00     0.338 C 
ATOM     28  O   UNL A   1      35.950  30.739  31.163  1.00  0.00    -0.246 OA
BRANCH  27  29
ATOM     29  C   UNL A   1      37.790  30.365  29.719  1.00  0.00     0.060 A 
ATOM     30  C   UNL A   1      38.728  30.016  30.700  1.00  0.00     0.016 A 
ATOM     31  C   UNL A   1      38.048  30.112  28.370  1.00  0.00     0.016 A 
ATOM     32  C   UNL A   1      39.945  29.448  30.332  1.00  0.00     0.010 A 
ATOM     33  C   UNL A   1      39.276  29.551  28.002  1.00  0.00     0.010 A 
ATOM     34  C   UNL A   1      40.242  29.243  28.978  1.00  0.00    -0.014 A 
BRANCH  34  35
ATOM     35  C   UNL A   1      41.606  28.815  28.581  1.00  0.00     0.031 A 
ATOM     36  C   UNL A   1      42.710  29.835  28.533  1.00  0.00     0.074 A 
ATOM     37  C   UNL A   1      41.862  27.527  28.291  1.00  0.00     0.049 A 
ATOM     38  N   UNL A   1      43.956  29.688  28.166  1.00  0.00    -0.248 NA
ATOM     39  C   UNL A   1      42.366  31.202  28.962  1.00  0.00     0.031 C 
ATOM     40  C   UNL A   1      40.887  26.440  28.350  1.00  0.00     0.029 A 
ATOM     41  N   UNL A   1      43.022  26.916  27.883  1.00  0.00    -0.354 N 
ATOM     42  C   UNL A   1      44.544  30.938  28.312  1.00  0.00     0.074 A 
ATOM     43  C   UNL A   1      43.514  31.839  28.781  1.00  0.00     0.031 C 
ATOM     44  C   UNL A   1      41.487  25.295  27.980  1.00  0.00     0.029 A 
ATOM     45  C   UNL A   1      42.878  25.575  27.624  1.00  0.00     0.049 A 
ATOM     46  H   UNL A   1      43.877  27.395  27.785  1.00  0.00     0.167 HD
ATOM     47  C   UNL A   1      45.829  31.298  28.084  1.00  0.00     0.037 A 
ATOM     48  C   UNL A   1      43.757  24.679  27.131  1.00  0.00     0.037 A 
ATOM     49  C   UNL A   1      46.852  30.395  27.624  1.00  0.00     0.049 A 
ATOM     50  C   UNL A   1      45.161  25.121  26.805  1.00  0.00     0.074 A 
ATOM     51  C   UNL A   1      48.188  30.664  27.386  1.00  0.00     0.029 A 
ATOM     52  N   UNL A   1      46.653  29.055  27.327  1.00  0.00    -0.354 N 
ATOM     53  N   UNL A   1      45.706  26.303  26.959  1.00  0.00    -0.248 NA
ATOM     54  C   UNL A   1      46.064  24.112  26.234  1.00  0.00     0.031 C 
ATOM     55  C   UNL A   1      48.788  29.499  26.898  1.00  0.00     0.029 A 
ATOM     56  C   UNL A   1      47.836  28.492  26.877  1.00  0.00     0.049 A 
ATOM     57  H   UNL A   1      45.799  28.576  27.421  1.00  0.00     0.167 HD
ATOM     58  C   UNL A   1      47.020  26.177  26.519  1.00  0.00     0.074 A 
ATOM     59  C   UNL A   1      47.191  24.801  26.102  1.00  0.00     0.031 C 
ATOM     60  C   UNL A   1      47.994  27.118  26.465  1.00  0.00     0.037 A 
BRANCH  47  61
ATOM     61  C   UNL A   1      46.210  32.733  28.311  1.00  0.00     0.058 A 
ATOM     62  C   UNL A   1      46.137  33.662  27.262  1.00  0.00     0.135 A 
ATOM     63  C   UNL A   1      46.717  33.174  29.544  1.00  0.00     0.135 A 
ATOM     64  F   UNL A   1      45.653  33.294  26.065  1.00  0.00    -0.206 F 
ATOM     65  C   UNL A   1      46.570  34.974  27.419  1.00  0.00     0.059 A 
ATOM     66  C   UNL A   1      47.135  34.489  29.732  1.00  0.00     0.059 A 
ATOM     67  F   UNL A   1      46.785  32.331  30.586  1.00  0.00    -0.206 F 
ATOM     68  C   UNL A   1      47.073  35.377  28.657  1.00  0.00     0.060 A 
BRANCH  68  69
ATOM     69  S   UNL A   1      47.615  37.088  28.851  1.00  0.00     0.124 S 
ATOM     70  O   UNL A   1      47.796  37.505  27.466  1.00  0.00    -0.237 OA
ATOM     71  O   UNL A   1      46.485  37.689  29.554  1.00  0.00    -0.237 OA
ATOM     72  O   UNL A   1      48.838  36.968  29.639  1.00  0.00    -0.744 OA
ENDBRANCH  68  69
ENDBRANCH  47  61
BRANCH  48  73
ATOM     73  C   UNL A   1      43.324  23.275  26.899  1.00  0.00     0.058 A 
ATOM     74  C   UNL A   1      43.129  22.392  27.973  1.00  0.00     0.135 A 
ATOM     75  C   UNL A   1      43.125  22.782  25.601  1.00  0.00     0.135 A 
ATOM     76  F   UNL A   1      43.307  22.815  29.234  1.00  0.00    -0.206 F 
ATOM     77  C   UNL A   1      42.788  21.061  27.767  1.00  0.00     0.059 A 
ATOM     78  C   UNL A   1      42.760  21.459  25.371  1.00  0.00     0.059 A 
ATOM     79  F   UNL A   1      43.282  23.595  24.545  1.00  0.00    -0.206 F 
ATOM     80  C   UNL A   1      42.613  20.601  26.461  1.00  0.00     0.060 A 
BRANCH  80  81
ATOM     81  S   UNL A   1      42.198  18.861  26.216  1.00  0.00     0.124 S 
ATOM     82  O   UNL A   1      40.803  18.953  25.796  1.00  0.00    -0.237 OA
ATOM     83  O   UNL A   1      43.147  18.462  25.183  1.00  0.00    -0.237 OA
ATOM     84  O   UNL A   1      42.421  18.272  27.532  1.00  0.00    -0.744 OA
ENDBRANCH  80  81
ENDBRANCH  48  73
BRANCH  60  85
ATOM     85  C   UNL A   1      49.344  26.708  25.947  1.00  0.00     0.058 A 
ATOM     86  C   UNL A   1      50.291  26.126  26.806  1.00  0.00     0.135 A 
ATOM     87  C   UNL A   1      49.738  26.991  24.630  1.00  0.00     0.135 A 
ATOM     88  F   UNL A   1      49.966  25.840  28.076  1.00  0.00    -0.206 F 
ATOM     89  C   UNL A   1      51.591  25.866  26.385  1.00  0.00     0.059 A 
ATOM     90  C   UNL A   1      51.027  26.716  24.180  1.00  0.00     0.059 A 
ATOM     91  F   UNL A   1      48.867  27.536  23.766  1.00  0.00    -0.206 F 
ATOM     92  C   UNL A   1      51.952  26.173  25.072  1.00  0.00     0.060 A 
BRANCH  92  93
ATOM     93  S   UNL A   1      53.648  25.843  24.548  1.00  0.00     0.124 S 
ATOM     94  O   UNL A   1      54.401  26.794  25.359  1.00  0.00    -0.237 OA
ATOM     95  O   UNL A   1      53.813  24.438  24.901  1.00  0.00    -0.237 OA
ATOM     96  O   UNL A   1      53.621  26.124  23.115  1.00  0.00    -0.744 OA
ENDBRANCH  92  93
ENDBRANCH  60  85
ENDBRANCH  34  35
ENDBRANCH  27  29
ENDBRANCH  26  27
ENDBRANCH  25  26
ENDBRANCH   1  25
TORSDOF 19
ENDMDL
MODEL 2
REMARK VINA RESULT:     -11.4      6.387     12.422
REMARK SMILES Cc1cc(C)cc(-c2ccc([C@@H](C)C(=O)OCCOCCOC(=O)c3ccc(-c4c5nc(c(-c6c(F)cc(S(=O)(=O)[O-])cc6F)c6ccc([nH]6)c(-c6c(F)cc(S(=O)(=O)[O-])cc6F)c6nc(c(-c7c(F)cc(S(=O)(=O)[O-])cc7F)c7ccc4[nH]7)C=C6)C=C5)cc3)cc2F)c1
REMARK SMILES IDX 20 1 19 2 18 3 17 4 16 5 14 6 15 7 12 8 13 9 11 10 8 11 9 12
REMARK SMILES IDX 92 13 10 14 91 15 93 16 7 17 1 18 2 19 3 20 94 21 4 22 5 23
REMARK SMILES IDX 6 24 21 25 22 26 23 27 24 28 25 29 26 30 90 31 27 32 89 33
REMARK SMILES IDX 28 34 29 35 30 36 83 37 31 38 88 39 82 40 84 41 32 42 87 43
REMARK SMILES IDX 81 44 80 45 33 47 67 48 46 49 66 50 47 51 50 52 65 53 85 54
REMARK SMILES IDX 48 55 49 56 64 58 86 59 51 60 34 61 35 62 44 63 36 64 37 65
REMARK SMILES IDX 43 66 45 67 38 68 39 69 40 70 41 71 42 72 68 73 69 74 78 75
REMARK SMILES IDX 70 76 71 77 77 78 79 79 72 80 73 81 74 82 75 83 76 84 52 85
REMARK SMILES IDX 53 86 62 87 54 88 55 89 61 90 63 91 56 92 57 93 58 94 59 95
REMARK SMILES IDX 60 96
REMARK H PARENT 84 46 50 57
REMARK Flexibility Score: inf
ROOT
ATOM      1  C   UNL A   1      40.502  21.228  26.331  1.00  0.00     0.202 C 
ENDROOT
BRANCH   1   2
ATOM      2  O   UNL A   1      39.132  21.577  26.535  1.00  0.00    -0.374 OA
BRANCH   2   3
ATOM      3  C   UNL A   1      38.276  21.557  25.393  1.00  0.00     0.202 C 
BRANCH   3   4
ATOM      4  C   UNL A   1      37.162  22.607  25.365  1.00  0.00     0.261 C 
BRANCH   4   5
ATOM      5  O   UNL A   1      36.000  22.126  24.667  1.00  0.00    -0.463 OA
BRANCH   5   6
ATOM      6  C   UNL A   1      34.909  21.869  25.434  1.00  0.00     0.313 C 
ATOM      7  O   UNL A   1      34.203  20.870  25.329  1.00  0.00    -0.252 OA
BRANCH   6   8
ATOM      8  C   UNL A   1      34.596  22.965  26.441  1.00  0.00     0.126 C 
ATOM      9  C   UNL A   1      34.034  22.332  27.713  1.00  0.00     0.025 C 
BRANCH   8  10
ATOM     10  C   UNL A   1      33.756  24.148  25.970  1.00  0.00    -0.031 A 
ATOM     11  C   UNL A   1      32.364  26.531  25.229  1.00  0.00     0.017 A 
ATOM     12  C   UNL A   1      31.817  25.619  26.148  1.00  0.00     0.012 A 
ATOM     13  C   UNL A   1      33.593  26.192  24.651  1.00  0.00     0.131 A 
ATOM     14  C   UNL A   1      32.500  24.448  26.513  1.00  0.00     0.005 A 
ATOM     15  C   UNL A   1      34.280  25.029  25.010  1.00  0.00     0.044 A 
ATOM     16  F   UNL A   1      34.173  27.012  23.760  1.00  0.00    -0.206 F 
BRANCH  11  17
ATOM     17  C   UNL A   1      31.695  27.812  24.940  1.00  0.00    -0.015 A 
ATOM     18  C   UNL A   1      29.259  29.344  22.420  1.00  0.00     0.044 C 
ATOM     19  C   UNL A   1      30.200  29.190  23.578  1.00  0.00    -0.050 A 
ATOM     20  C   UNL A   1      30.460  30.288  24.407  1.00  0.00     0.006 A 
ATOM     21  C   UNL A   1      30.824  27.962  23.849  1.00  0.00     0.012 A 
ATOM     22  C   UNL A   1      31.331  30.172  25.495  1.00  0.00    -0.050 A 
ATOM     23  C   UNL A   1      31.599  31.362  26.368  1.00  0.00     0.044 C 
ATOM     24  C   UNL A   1      31.936  28.934  25.754  1.00  0.00     0.012 A 
ENDBRANCH  11  17
ENDBRANCH   8  10
ENDBRANCH   6   8
ENDBRANCH   5   6
ENDBRANCH   4   5
ENDBRANCH   3   4
ENDBRANCH   2   3
ENDBRANCH   1   2
BRANCH   1  25
ATOM     25  C   UNL A   1      41.506  22.386  26.279  1.00  0.00     0.261 C 
BRANCH  25  26
ATOM     26  O   UNL A   1      40.922  23.637  26.683  1.00  0.00    -0.460 OA
BRANCH  26  27
ATOM     27  C   UNL A   1      41.733  24.714  26.554  1.00  0.00     0.338 C 
ATOM     28  O   UNL A   1      42.597  24.890  25.703  1.00  0.00    -0.246 OA
BRANCH  27  29
ATOM     29  C   UNL A   1      41.317  25.776  27.488  1.00  0.00     0.060 A 
ATOM     30  C   UNL A   1      42.112  26.927  27.556  1.00  0.00     0.016 A 
ATOM     31  C   UNL A   1      40.215  25.624  28.332  1.00  0.00     0.016 A 
ATOM     32  C   UNL A   1      41.832  27.916  28.496  1.00  0.00     0.010 A 
ATOM     33  C   UNL A   1      39.942  26.614  29.283  1.00  0.00     0.010 A 
ATOM     34  C   UNL A   1      40.765  27.751  29.389  1.00  0.00    -0.014 A 
BRANCH  34  35
ATOM     35  C   UNL A   1      40.586  28.711  30.506  1.00  0.00     0.031 A 
ATOM     36  C   UNL A   1      41.451  28.584  31.729  1.00  0.00     0.074 A 
ATOM     37  C   UNL A   1      39.678  29.700  30.419  1.00  0.00     0.049 A 
ATOM     38  N   UNL A   1      41.427  29.282  32.835  1.00  0.00    -0.248 NA
ATOM     39  C   UNL A   1      42.486  27.536  31.700  1.00  0.00     0.031 C 
ATOM     40  C   UNL A   1      38.817  29.955  29.265  1.00  0.00     0.029 A 
ATOM     41  N   UNL A   1      39.327  30.672  31.322  1.00  0.00    -0.354 N 
ATOM     42  C   UNL A   1      42.434  28.757  33.635  1.00  0.00     0.074 A 
ATOM     43  C   UNL A   1      43.038  27.668  32.898  1.00  0.00     0.031 C 
ATOM     44  C   UNL A   1      38.027  31.008  29.535  1.00  0.00     0.029 A 
ATOM     45  C   UNL A   1      38.302  31.480  30.892  1.00  0.00     0.049 A 
ATOM     46  H   UNL A   1      39.768  30.781  32.195  1.00  0.00     0.167 HD
ATOM     47  C   UNL A   1      42.823  29.155  34.869  1.00  0.00     0.037 A 
ATOM     48  C   UNL A   1      37.641  32.470  31.527  1.00  0.00     0.037 A 
ATOM     49  C   UNL A   1      42.223  30.244  35.594  1.00  0.00     0.049 A 
ATOM     50  C   UNL A   1      38.037  32.841  32.933  1.00  0.00     0.074 A 
ATOM     51  C   UNL A   1      42.567  30.734  36.842  1.00  0.00     0.029 A 
ATOM     52  N   UNL A   1      41.155  31.005  35.144  1.00  0.00    -0.354 N 
ATOM     53  N   UNL A   1      38.999  32.344  33.673  1.00  0.00    -0.248 NA
ATOM     54  C   UNL A   1      37.258  33.899  33.591  1.00  0.00     0.031 C 
ATOM     55  C   UNL A   1      41.675  31.761  37.168  1.00  0.00     0.029 A 
ATOM     56  C   UNL A   1      40.806  31.942  36.104  1.00  0.00     0.049 A 
ATOM     57  H   UNL A   1      40.712  30.896  34.273  1.00  0.00     0.167 HD
ATOM     58  C   UNL A   1      38.950  33.038  34.878  1.00  0.00     0.074 A 
ATOM     59  C   UNL A   1      37.872  33.998  34.764  1.00  0.00     0.031 C 
ATOM     60  C   UNL A   1      39.729  32.892  35.977  1.00  0.00     0.037 A 
BRANCH  47  61
ATOM     61  C   UNL A   1      43.944  28.404  35.530  1.00  0.00     0.058 A 
ATOM     62  C   UNL A   1      45.280  28.755  35.277  1.00  0.00     0.135 A 
ATOM     63  C   UNL A   1      43.703  27.294  36.355  1.00  0.00     0.135 A 
ATOM     64  F   UNL A   1      45.565  29.814  34.501  1.00  0.00    -0.206 F 
ATOM     65  C   UNL A   1      46.337  28.021  35.801  1.00  0.00     0.059 A 
ATOM     66  C   UNL A   1      44.746  26.558  36.909  1.00  0.00     0.059 A 
ATOM     67  F   UNL A   1      42.444  26.932  36.647  1.00  0.00    -0.206 F 
ATOM     68  C   UNL A   1      46.061  26.920  36.613  1.00  0.00     0.060 A 
BRANCH  68  69
ATOM     69  S   UNL A   1      47.445  25.987  37.300  1.00  0.00     0.124 S 
ATOM     70  O   UNL A   1      46.852  25.409  38.500  1.00  0.00    -0.237 OA
ATOM     71  O   UNL A   1      47.745  25.048  36.223  1.00  0.00    -0.237 OA
ATOM     72  O   UNL A   1      48.462  27.009  37.529  1.00  0.00    -0.744 OA
ENDBRANCH  68  69
ENDBRANCH  47  61
BRANCH  48  73
ATOM     73  C   UNL A   1      36.522  33.165  30.839  1.00  0.00     0.058 A 
ATOM     74  C   UNL A   1      36.767  34.096  29.818  1.00  0.00     0.135 A 
ATOM     75  C   UNL A   1      35.188  32.937  31.210  1.00  0.00     0.135 A 
ATOM     76  F   UNL A   1      38.025  34.350  29.427  1.00  0.00    -0.206 F 
ATOM     77  C   UNL A   1      35.734  34.801  29.211  1.00  0.00     0.059 A 
ATOM     78  C   UNL A   1      34.135  33.613  30.601  1.00  0.00     0.059 A 
ATOM     79  F   UNL A   1      34.903  32.042  32.169  1.00  0.00    -0.206 F 
ATOM     80  C   UNL A   1      34.421  34.558  29.615  1.00  0.00     0.060 A 
BRANCH  80  81
ATOM     81  S   UNL A   1      33.097  35.506  28.835  1.00  0.00     0.124 S 
ATOM     82  O   UNL A   1      32.414  34.470  28.066  1.00  0.00    -0.237 OA
ATOM     83  O   UNL A   1      32.370  36.025  29.988  1.00  0.00    -0.237 OA
ATOM     84  O   UNL A   1      33.815  36.503  28.048  1.00  0.00    -0.744 OA
ENDBRANCH  80  81
ENDBRANCH  48  73
BRANCH  60  85
ATOM     85  C   UNL A   1      39.464  33.789  37.155  1.00  0.00     0.058 A 
ATOM     86  C   UNL A   1      40.105  35.034  37.262  1.00  0.00     0.135 A 
ATOM     87  C   UNL A   1      38.662  33.369  38.227  1.00  0.00     0.135 A 
ATOM     88  F   UNL A   1      40.887  35.480  36.267  1.00  0.00    -0.206 F 
ATOM     89  C   UNL A   1      39.984  35.818  38.404  1.00  0.00     0.059 A 
ATOM     90  C   UNL A   1      38.506  34.149  39.370  1.00  0.00     0.059 A 
ATOM     91  F   UNL A   1      38.018  32.192  38.168  1.00  0.00    -0.206 F 
ATOM     92  C   UNL A   1      39.189  35.363  39.458  1.00  0.00     0.060 A 
BRANCH  92  93
ATOM     93  S   UNL A   1      39.056  36.386  40.939  1.00  0.00     0.124 S 
ATOM     94  O   UNL A   1      37.984  35.715  41.668  1.00  0.00    -0.237 OA
ATOM     95  O   UNL A   1      40.389  36.266  41.518  1.00  0.00    -0.237 OA
ATOM     96  O   UNL A   1      38.726  37.706  40.411  1.00  0.00    -0.744 OA
ENDBRANCH  92  93
ENDBRANCH  60  85
ENDBRANCH  34  35
ENDBRANCH  27  29
ENDBRANCH  26  27
ENDBRANCH  25  26
ENDBRANCH   1  25
TORSDOF 19
ENDMDL
MODEL 3
REMARK VINA RESULT:     -11.4      6.423     12.095
REMARK SMILES Cc1cc(C)cc(-c2ccc([C@@H](C)C(=O)OCCOCCOC(=O)c3ccc(-c4c5nc(c(-c6c(F)cc(S(=O)(=O)[O-])cc6F)c6ccc([nH]6)c(-c6c(F)cc(S(=O)(=O)[O-])cc6F)c6nc(c(-c7c(F)cc(S(=O)(=O)[O-])cc7F)c7ccc4[nH]7)C=C6)C=C5)cc3)cc2F)c1
REMARK SMILES IDX 20 1 19 2 18 3 17 4 16 5 14 6 15 7 12 8 13 9 11 10 8 11 9 12
REMARK SMILES IDX 92 13 10 14 91 15 93 16 7 17 1 18 2 19 3 20 94 21 4 22 5 23
REMARK SMILES IDX 6 24 21 25 22 26 23 27 24 28 25 29 26 30 90 31 27 32 89 33
REMARK SMILES IDX 28 34 29 35 30 36 83 37 31 38 88 39 82 40 84 41 32 42 87 43
REMARK SMILES IDX 81 44 80 45 33 47 67 48 46 49 66 50 47 51 50 52 65 53 85 54
REMARK SMILES IDX 48 55 49 56 64 58 86 59 51 60 34 61 35 62 44 63 36 64 37 65
REMARK SMILES IDX 43 66 45 67 38 68 39 69 40 70 41 71 42 72 68 73 69 74 78 75
REMARK SMILES IDX 70 76 71 77 77 78 79 79 72 80 73 81 74 82 75 83 76 84 52 85
REMARK SMILES IDX 53 86 62 87 54 88 55 89 61 90 63 91 56 92 57 93 58 94 59 95
REMARK SMILES IDX 60 96
REMARK H PARENT 84 46 50 57
REMARK Flexibility Score: inf
ROOT
ATOM      1  C   UNL A   1      46.201  24.253  25.028  1.00  0.00     0.202 C 
ENDROOT
BRANCH   1   2
ATOM      2  O   UNL A   1      45.757  23.550  23.868  1.00  0.00    -0.374 OA
BRANCH   2   3
ATOM      3  C   UNL A   1      45.152  22.272  24.069  1.00  0.00     0.202 C 
BRANCH   3   4
ATOM      4  C   UNL A   1      44.269  22.131  25.312  1.00  0.00     0.261 C 
BRANCH   4   5
ATOM      5  O   UNL A   1      42.873  22.106  24.968  1.00  0.00    -0.463 OA
BRANCH   5   6
ATOM      6  C   UNL A   1      42.042  21.552  25.889  1.00  0.00     0.313 C 
ATOM      7  O   UNL A   1      41.865  20.345  26.031  1.00  0.00    -0.252 OA
BRANCH   6   8
ATOM      8  C   UNL A   1      41.296  22.572  26.735  1.00  0.00     0.126 C 
ATOM      9  C   UNL A   1      41.633  22.347  28.208  1.00  0.00     0.025 C 
BRANCH   8  10
ATOM     10  C   UNL A   1      39.796  22.727  26.506  1.00  0.00    -0.031 A 
ATOM     11  C   UNL A   1      37.040  22.998  25.801  1.00  0.00     0.017 A 
ATOM     12  C   UNL A   1      37.776  24.082  26.307  1.00  0.00     0.012 A 
ATOM     13  C   UNL A   1      37.700  21.767  25.711  1.00  0.00     0.131 A 
ATOM     14  C   UNL A   1      39.130  23.951  26.654  1.00  0.00     0.005 A 
ATOM     15  C   UNL A   1      39.048  21.628  26.052  1.00  0.00     0.044 A 
ATOM     16  F   UNL A   1      37.057  20.685  25.242  1.00  0.00    -0.206 F 
BRANCH  11  17
ATOM     17  C   UNL A   1      35.654  23.174  25.331  1.00  0.00    -0.015 A 
ATOM     18  C   UNL A   1      33.669  23.365  22.066  1.00  0.00     0.044 C 
ATOM     19  C   UNL A   1      34.011  23.365  23.527  1.00  0.00    -0.050 A 
ATOM     20  C   UNL A   1      32.995  23.542  24.474  1.00  0.00     0.006 A 
ATOM     21  C   UNL A   1      35.333  23.187  23.963  1.00  0.00     0.012 A 
ATOM     22  C   UNL A   1      33.285  23.545  25.842  1.00  0.00    -0.050 A 
ATOM     23  C   UNL A   1      32.182  23.740  26.840  1.00  0.00     0.044 C 
ATOM     24  C   UNL A   1      34.610  23.355  26.257  1.00  0.00     0.012 A 
ENDBRANCH  11  17
ENDBRANCH   8  10
ENDBRANCH   6   8
ENDBRANCH   5   6
ENDBRANCH   4   5
ENDBRANCH   3   4
ENDBRANCH   2   3
ENDBRANCH   1   2
BRANCH   1  25
ATOM     25  C   UNL A   1      45.444  25.536  25.387  1.00  0.00     0.261 C 
BRANCH  25  26
ATOM     26  O   UNL A   1      44.428  25.314  26.382  1.00  0.00    -0.460 OA
BRANCH  26  27
ATOM     27  C   UNL A   1      43.194  25.759  26.048  1.00  0.00     0.338 C 
ATOM     28  O   UNL A   1      42.538  25.446  25.062  1.00  0.00    -0.246 OA
BRANCH  27  29
ATOM     29  C   UNL A   1      42.631  26.564  27.148  1.00  0.00     0.060 A 
ATOM     30  C   UNL A   1      43.101  27.875  27.298  1.00  0.00     0.016 A 
ATOM     31  C   UNL A   1      41.715  26.030  28.057  1.00  0.00     0.016 A 
ATOM     32  C   UNL A   1      42.688  28.645  28.382  1.00  0.00     0.010 A 
ATOM     33  C   UNL A   1      41.310  26.802  29.152  1.00  0.00     0.010 A 
ATOM     34  C   UNL A   1      41.816  28.103  29.336  1.00  0.00    -0.014 A 
BRANCH  34  35
ATOM     35  C   UNL A   1      41.528  28.855  30.581  1.00  0.00     0.031 A 
ATOM     36  C   UNL A   1      40.370  29.814  30.608  1.00  0.00     0.074 A 
ATOM     37  C   UNL A   1      42.275  28.665  31.684  1.00  0.00     0.049 A 
ATOM     38  N   UNL A   1      39.975  30.606  31.571  1.00  0.00    -0.248 NA
ATOM     39  C   UNL A   1      39.544  29.887  29.391  1.00  0.00     0.031 C 
ATOM     40  C   UNL A   1      43.390  27.727  31.795  1.00  0.00     0.029 A 
ATOM     41  N   UNL A   1      42.210  29.258  32.920  1.00  0.00    -0.354 N 
ATOM     42  C   UNL A   1      38.861  31.274  31.078  1.00  0.00     0.074 A 
ATOM     43  C   UNL A   1      38.655  30.812  29.722  1.00  0.00     0.031 C 
ATOM     44  C   UNL A   1      43.914  27.816  33.029  1.00  0.00     0.029 A 
ATOM     45  C   UNL A   1      43.194  28.841  33.784  1.00  0.00     0.049 A 
ATOM     46  H   UNL A   1      41.523  29.920  33.165  1.00  0.00     0.167 HD
ATOM     47  C   UNL A   1      38.078  32.185  31.704  1.00  0.00     0.037 A 
ATOM     48  C   UNL A   1      43.497  29.256  35.031  1.00  0.00     0.037 A 
ATOM     49  C   UNL A   1      38.284  32.635  33.055  1.00  0.00     0.049 A 
ATOM     50  C   UNL A   1      42.662  30.330  35.678  1.00  0.00     0.074 A 
ATOM     51  C   UNL A   1      37.528  33.538  33.782  1.00  0.00     0.029 A 
ATOM     52  N   UNL A   1      39.321  32.224  33.880  1.00  0.00    -0.354 N 
ATOM     53  N   UNL A   1      41.605  30.946  35.204  1.00  0.00    -0.248 NA
ATOM     54  C   UNL A   1      43.061  30.771  37.022  1.00  0.00     0.031 C 
ATOM     55  C   UNL A   1      38.136  33.711  35.029  1.00  0.00     0.029 A 
ATOM     56  C   UNL A   1      39.243  32.880  35.098  1.00  0.00     0.049 A 
ATOM     57  H   UNL A   1      40.009  31.565  33.636  1.00  0.00     0.167 HD
ATOM     58  C   UNL A   1      41.204  31.834  36.197  1.00  0.00     0.074 A 
ATOM     59  C   UNL A   1      42.126  31.670  37.302  1.00  0.00     0.031 C 
ATOM     60  C   UNL A   1      40.167  32.707  36.191  1.00  0.00     0.037 A 
BRANCH  47  61
ATOM     61  C   UNL A   1      36.929  32.772  30.935  1.00  0.00     0.058 A 
ATOM     62  C   UNL A   1      37.151  33.783  29.988  1.00  0.00     0.135 A 
ATOM     63  C   UNL A   1      35.602  32.388  31.186  1.00  0.00     0.135 A 
ATOM     64  F   UNL A   1      38.402  34.182  29.705  1.00  0.00    -0.206 F 
ATOM     65  C   UNL A   1      36.098  34.409  29.330  1.00  0.00     0.059 A 
ATOM     66  C   UNL A   1      34.533  32.984  30.523  1.00  0.00     0.059 A 
ATOM     67  F   UNL A   1      35.338  31.409  32.066  1.00  0.00    -0.206 F 
ATOM     68  C   UNL A   1      34.791  34.006  29.608  1.00  0.00     0.060 A 
BRANCH  68  69
ATOM     69  S   UNL A   1      33.436  34.815  28.732  1.00  0.00     0.124 S 
ATOM     70  O   UNL A   1      34.095  35.992  28.179  1.00  0.00    -0.237 OA
ATOM     71  O   UNL A   1      33.042  33.792  27.767  1.00  0.00    -0.237 OA
ATOM     72  O   UNL A   1      32.460  35.076  29.787  1.00  0.00    -0.744 OA
ENDBRANCH  68  69
ENDBRANCH  47  61
BRANCH  48  73
ATOM     73  C   UNL A   1      44.661  28.661  35.740  1.00  0.00     0.058 A 
ATOM     74  C   UNL A   1      45.955  29.176  35.565  1.00  0.00     0.135 A 
ATOM     75  C   UNL A   1      44.507  27.549  36.581  1.00  0.00     0.135 A 
ATOM     76  F   UNL A   1      46.155  30.239  34.770  1.00  0.00    -0.206 F 
ATOM     77  C   UNL A   1      47.060  28.590  36.171  1.00  0.00     0.059 A 
ATOM     78  C   UNL A   1      45.595  26.958  37.217  1.00  0.00     0.059 A 
ATOM     79  F   UNL A   1      43.286  27.033  36.793  1.00  0.00    -0.206 F 
ATOM     80  C   UNL A   1      46.871  27.476  36.989  1.00  0.00     0.060 A 
BRANCH  80  81
ATOM     81  S   UNL A   1      48.324  26.712  37.742  1.00  0.00     0.124 S 
ATOM     82  O   UNL A   1      49.312  27.778  37.611  1.00  0.00    -0.237 OA
ATOM     83  O   UNL A   1      47.859  26.439  39.098  1.00  0.00    -0.237 OA
ATOM     84  O   UNL A   1      48.555  25.534  36.912  1.00  0.00    -0.744 OA
ENDBRANCH  80  81
ENDBRANCH  48  73
BRANCH  60  85
ATOM     85  C   UNL A   1      39.951  33.556  37.413  1.00  0.00     0.058 A 
ATOM     86  C   UNL A   1      38.988  33.197  38.369  1.00  0.00     0.135 A 
ATOM     87  C   UNL A   1      40.620  34.778  37.581  1.00  0.00     0.135 A 
ATOM     88  F   UNL A   1      38.317  32.041  38.253  1.00  0.00    -0.206 F 
ATOM     89  C   UNL A   1      38.674  34.035  39.434  1.00  0.00     0.059 A 
ATOM     90  C   UNL A   1      40.340  35.621  38.653  1.00  0.00     0.059 A 
ATOM     91  F   UNL A   1      41.559  35.161  36.700  1.00  0.00    -0.206 F 
ATOM     92  C   UNL A   1      39.349  35.250  39.563  1.00  0.00     0.060 A 
BRANCH  92  93
ATOM     93  S   UNL A   1      38.917  36.333  40.941  1.00  0.00     0.124 S 
ATOM     94  O   UNL A   1      38.540  37.561  40.249  1.00  0.00    -0.237 OA
ATOM     95  O   UNL A   1      37.827  35.602  41.578  1.00  0.00    -0.237 OA
ATOM     96  O   UNL A   1      40.152  36.403  41.717  1.00  0.00    -0.744 OA
ENDBRANCH  92  93
ENDBRANCH  60  85
ENDBRANCH  34  35
ENDBRANCH  27  29
ENDBRANCH  26  27
ENDBRANCH  25  26
ENDBRANCH   1  25
TORSDOF 19
ENDMDL
