MODEL 1
REMARK VINA RESULT:     -11.0      0.000      0.000
REMARK SMILES COc1cc(C)cc2c1O[C@H](C(F)(F)F)C(C(=O)OCCOCCOC(=O)c1ccc(-c3c4nc(c(-c5c(F)cc(S(=O)(=O)[O-])cc5F)c5ccc([nH]5)c(-c5c(F)cc(S(=O)(=O)[O-])cc5F)c5nc(c(-c6c(F)cc(S(=O)(=O)[O-])cc6F)c6ccc3[nH]6)C=C5)C=C4)cc1)=C2
REMARK SMILES IDX 23 1 22 2 21 3 20 4 19 5 17 6 18 7 16 8 3 9 4 10 9 11 5 12
REMARK SMILES IDX 8 13 10 14 6 15 7 16 94 17 11 18 2 19 1 20 12 21 13 22 14 23
REMARK SMILES IDX 15 24 24 25 25 26 26 27 27 28 28 29 29 30 93 31 30 32 92 33
REMARK SMILES IDX 31 34 32 35 33 36 86 37 34 38 91 39 85 40 87 41 35 42 90 43
REMARK SMILES IDX 84 44 83 45 36 47 70 48 49 49 69 50 50 51 53 52 68 53 88 54
REMARK SMILES IDX 51 55 52 56 67 58 89 59 54 60 37 61 38 62 47 63 39 64 40 65
REMARK SMILES IDX 46 66 48 67 41 68 42 69 43 70 44 71 45 72 71 73 72 74 81 75
REMARK SMILES IDX 73 76 74 77 80 78 82 79 75 80 76 81 77 82 78 83 79 84 55 85
REMARK SMILES IDX 56 86 65 87 57 88 58 89 64 90 66 91 59 92 60 93 61 94 62 95
REMARK SMILES IDX 63 96
REMARK H PARENT 87 46 53 57
REMARK Flexibility Score: inf
ROOT
ATOM      1  C   UNL A   1      34.522  32.725  28.325  1.00  0.00     0.202 C 
ENDROOT
BRANCH   1   2
ATOM      2  O   UNL A   1      33.507  32.017  27.615  1.00  0.00    -0.374 OA
BRANCH   2   3
ATOM      3  C   UNL A   1      33.761  30.668  27.229  1.00  0.00     0.202 C 
BRANCH   3   4
ATOM      4  C   UNL A   1      32.560  29.733  27.054  1.00  0.00     0.261 C 
BRANCH   4   5
ATOM      5  O   UNL A   1      32.942  28.445  26.551  1.00  0.00    -0.460 OA
BRANCH   5   6
ATOM      6  C   UNL A   1      32.043  27.463  26.793  1.00  0.00     0.338 C 
ATOM      7  O   UNL A   1      31.040  27.543  27.484  1.00  0.00    -0.246 OA
BRANCH   6   8
ATOM      8  C   UNL A   1      32.359  26.281  25.970  1.00  0.00     0.087 C 
ATOM      9  C   UNL A   1      33.574  23.284  23.340  1.00  0.00     0.161 A 
ATOM     10  C   UNL A   1      34.914  22.876  23.349  1.00  0.00     0.054 A 
ATOM     11  C   UNL A   1      33.126  24.215  24.289  1.00  0.00     0.169 A 
ATOM     12  C   UNL A   1      35.803  23.366  24.316  1.00  0.00    -0.047 A 
ATOM     13  C   UNL A   1      34.016  24.728  25.235  1.00  0.00     0.021 A 
ATOM     14  O   UNL A   1      31.802  24.565  24.255  1.00  0.00    -0.471 OA
ATOM     15  C   UNL A   1      37.248  22.963  24.325  1.00  0.00     0.044 C 
ATOM     16  C   UNL A   1      35.341  24.284  25.265  1.00  0.00     0.015 A 
ATOM     17  C   UNL A   1      33.594  25.789  26.128  1.00  0.00     0.027 C 
ATOM     18  C   UNL A   1      31.348  25.721  25.008  1.00  0.00     0.316 C 
BRANCH   9  19
ATOM     19  O   UNL A   1      32.664  22.905  22.387  1.00  0.00    -0.493 OA
ATOM     20  C   UNL A   1      32.113  21.603  22.519  1.00  0.00     0.278 C 
ENDBRANCH   9  19
BRANCH  18  21
ATOM     21  C   UNL A   1      30.822  26.771  24.019  1.00  0.00     0.430 C 
ATOM     22  F   UNL A   1      29.679  27.341  24.466  1.00  0.00    -0.167 F 
ATOM     23  F   UNL A   1      31.713  27.773  23.836  1.00  0.00    -0.167 F 
ATOM     24  F   UNL A   1      30.566  26.231  22.804  1.00  0.00    -0.167 F 
ENDBRANCH  18  21
ENDBRANCH   6   8
ENDBRANCH   5   6
ENDBRANCH   4   5
ENDBRANCH   3   4
ENDBRANCH   2   3
ENDBRANCH   1   2
BRANCH   1  25
ATOM     25  C   UNL A   1      34.822  32.327  29.776  1.00  0.00     0.261 C 
BRANCH  25  26
ATOM     26  O   UNL A   1      36.226  32.183  30.045  1.00  0.00    -0.460 OA
BRANCH  26  27
ATOM     27  C   UNL A   1      36.556  31.094  30.784  1.00  0.00     0.338 C 
ATOM     28  O   UNL A   1      35.869  30.542  31.632  1.00  0.00    -0.246 OA
BRANCH  27  29
ATOM     29  C   UNL A   1      37.814  30.526  30.271  1.00  0.00     0.060 A 
ATOM     30  C   UNL A   1      38.054  30.427  28.900  1.00  0.00     0.016 A 
ATOM     31  C   UNL A   1      38.785  30.116  31.196  1.00  0.00     0.016 A 
ATOM     32  C   UNL A   1      39.282  29.934  28.456  1.00  0.00     0.010 A 
ATOM     33  C   UNL A   1      40.011  29.625  30.749  1.00  0.00     0.010 A 
ATOM     34  C   UNL A   1      40.275  29.546  29.376  1.00  0.00    -0.014 A 
BRANCH  34  35
ATOM     35  C   UNL A   1      41.631  29.182  28.894  1.00  0.00     0.031 A 
ATOM     36  C   UNL A   1      42.749  30.179  28.868  1.00  0.00     0.074 A 
ATOM     37  C   UNL A   1      41.836  27.926  28.456  1.00  0.00     0.049 A 
ATOM     38  N   UNL A   1      44.006  29.993  28.554  1.00  0.00    -0.248 NA
ATOM     39  C   UNL A   1      42.416  31.564  29.229  1.00  0.00     0.031 C 
ATOM     40  C   UNL A   1      40.807  26.887  28.386  1.00  0.00     0.029 A 
ATOM     41  N   UNL A   1      42.969  27.307  27.994  1.00  0.00    -0.354 N 
ATOM     42  C   UNL A   1      44.621  31.230  28.691  1.00  0.00     0.074 A 
ATOM     43  C   UNL A   1      43.585  32.171  29.069  1.00  0.00     0.031 C 
ATOM     44  C   UNL A   1      41.363  25.750  27.944  1.00  0.00     0.029 A 
ATOM     45  C   UNL A   1      42.778  25.985  27.669  1.00  0.00     0.049 A 
ATOM     46  H   UNL A   1      43.836  27.764  27.905  1.00  0.00     0.167 HD
ATOM     47  C   UNL A   1      45.930  31.544  28.533  1.00  0.00     0.037 A 
ATOM     48  C   UNL A   1      43.642  25.062  27.203  1.00  0.00     0.037 A 
ATOM     49  C   UNL A   1      46.946  30.599  28.138  1.00  0.00     0.049 A 
ATOM     50  C   UNL A   1      45.083  25.437  27.009  1.00  0.00     0.074 A 
ATOM     51  C   UNL A   1      48.308  30.808  28.004  1.00  0.00     0.029 A 
ATOM     52  N   UNL A   1      46.713  29.276  27.785  1.00  0.00    -0.354 N 
ATOM     53  N   UNL A   1      45.670  26.589  27.236  1.00  0.00    -0.248 NA
ATOM     54  C   UNL A   1      45.981  24.390  26.505  1.00  0.00     0.031 C 
ATOM     55  C   UNL A   1      48.886  29.634  27.510  1.00  0.00     0.029 A 
ATOM     56  C   UNL A   1      47.898  28.670  27.396  1.00  0.00     0.049 A 
ATOM     57  H   UNL A   1      45.833  28.833  27.809  1.00  0.00     0.167 HD
ATOM     58  C   UNL A   1      47.010  26.404  26.911  1.00  0.00     0.074 A 
ATOM     59  C   UNL A   1      47.148  25.023  26.492  1.00  0.00     0.031 C 
ATOM     60  C   UNL A   1      48.028  27.298  26.959  1.00  0.00     0.037 A 
BRANCH  47  61
ATOM     61  C   UNL A   1      46.341  32.972  28.777  1.00  0.00     0.058 A 
ATOM     62  C   UNL A   1      46.740  33.419  30.048  1.00  0.00     0.135 A 
ATOM     63  C   UNL A   1      46.375  33.898  27.722  1.00  0.00     0.135 A 
ATOM     64  F   UNL A   1      46.723  32.581  31.097  1.00  0.00    -0.206 F 
ATOM     65  C   UNL A   1      47.117  34.741  30.271  1.00  0.00     0.059 A 
ATOM     66  C   UNL A   1      46.778  35.217  27.915  1.00  0.00     0.059 A 
ATOM     67  F   UNL A   1      46.012  33.527  26.484  1.00  0.00    -0.206 F 
ATOM     68  C   UNL A   1      47.130  35.633  29.198  1.00  0.00     0.060 A 
BRANCH  68  69
ATOM     69  S   UNL A   1      47.601  37.348  29.511  1.00  0.00     0.124 S 
ATOM     70  O   UNL A   1      48.993  37.196  29.925  1.00  0.00    -0.237 OA
ATOM     71  O   UNL A   1      47.391  37.970  28.208  1.00  0.00    -0.237 OA
ATOM     72  O   UNL A   1      46.679  37.769  30.560  1.00  0.00    -0.744 OA
ENDBRANCH  68  69
ENDBRANCH  47  61
BRANCH  48  73
ATOM     73  C   UNL A   1      43.148  23.686  26.934  1.00  0.00     0.058 A 
ATOM     74  C   UNL A   1      43.043  23.200  25.624  1.00  0.00     0.135 A 
ATOM     75  C   UNL A   1      42.864  22.801  27.988  1.00  0.00     0.135 A 
ATOM     76  F   UNL A   1      43.296  24.012  24.587  1.00  0.00    -0.206 F 
ATOM     77  C   UNL A   1      42.690  21.880  25.365  1.00  0.00     0.059 A 
ATOM     78  C   UNL A   1      42.534  21.470  27.754  1.00  0.00     0.059 A 
ATOM     79  F   UNL A   1      42.966  23.215  29.261  1.00  0.00    -0.206 F 
ATOM     80  C   UNL A   1      42.455  21.018  26.437  1.00  0.00     0.060 A 
BRANCH  80  81
ATOM     81  S   UNL A   1      42.108  19.281  26.087  1.00  0.00     0.124 S 
ATOM     82  O   UNL A   1      42.632  18.628  27.279  1.00  0.00    -0.237 OA
ATOM     83  O   UNL A   1      40.654  19.286  25.949  1.00  0.00    -0.237 OA
ATOM     84  O   UNL A   1      42.846  19.031  24.853  1.00  0.00    -0.744 OA
ENDBRANCH  80  81
ENDBRANCH  48  73
BRANCH  60  85
ATOM     85  C   UNL A   1      49.396  26.824  26.544  1.00  0.00     0.058 A 
ATOM     86  C   UNL A   1      50.241  26.144  27.435  1.00  0.00     0.135 A 
ATOM     87  C   UNL A   1      49.838  26.985  25.220  1.00  0.00     0.135 A 
ATOM     88  F   UNL A   1      49.873  25.969  28.715  1.00  0.00    -0.206 F 
ATOM     89  C   UNL A   1      51.480  25.653  27.033  1.00  0.00     0.059 A 
ATOM     90  C   UNL A   1      51.060  26.476  24.788  1.00  0.00     0.059 A 
ATOM     91  F   UNL A   1      49.068  27.621  24.322  1.00  0.00    -0.206 F 
ATOM     92  C   UNL A   1      51.877  25.817  25.706  1.00  0.00     0.060 A 
BRANCH  92  93
ATOM     93  S   UNL A   1      53.467  25.134  25.191  1.00  0.00     0.124 S 
ATOM     94  O   UNL A   1      53.254  23.704  25.394  1.00  0.00    -0.237 OA
ATOM     95  O   UNL A   1      53.557  25.570  23.801  1.00  0.00    -0.237 OA
ATOM     96  O   UNL A   1      54.421  25.760  26.102  1.00  0.00    -0.744 OA
ENDBRANCH  92  93
ENDBRANCH  60  85
ENDBRANCH  34  35
ENDBRANCH  27  29
ENDBRANCH  26  27
ENDBRANCH  25  26
ENDBRANCH   1  25
TORSDOF 19
ENDMDL
MODEL 2
REMARK VINA RESULT:     -11.0      6.144     11.777
REMARK SMILES COc1cc(C)cc2c1O[C@H](C(F)(F)F)C(C(=O)OCCOCCOC(=O)c1ccc(-c3c4nc(c(-c5c(F)cc(S(=O)(=O)[O-])cc5F)c5ccc([nH]5)c(-c5c(F)cc(S(=O)(=O)[O-])cc5F)c5nc(c(-c6c(F)cc(S(=O)(=O)[O-])cc6F)c6ccc3[nH]6)C=C5)C=C4)cc1)=C2
REMARK SMILES IDX 23 1 22 2 21 3 20 4 19 5 17 6 18 7 16 8 3 9 4 10 9 11 5 12
REMARK SMILES IDX 8 13 10 14 6 15 7 16 94 17 11 18 2 19 1 20 12 21 13 22 14 23
REMARK SMILES IDX 15 24 24 25 25 26 26 27 27 28 28 29 29 30 93 31 30 32 92 33
REMARK SMILES IDX 31 34 32 35 33 36 86 37 34 38 91 39 85 40 87 41 35 42 90 43
REMARK SMILES IDX 84 44 83 45 36 47 70 48 49 49 69 50 50 51 53 52 68 53 88 54
REMARK SMILES IDX 51 55 52 56 67 58 89 59 54 60 37 61 38 62 47 63 39 64 40 65
REMARK SMILES IDX 46 66 48 67 41 68 42 69 43 70 44 71 45 72 71 73 72 74 81 75
REMARK SMILES IDX 73 76 74 77 80 78 82 79 75 80 76 81 77 82 78 83 79 84 55 85
REMARK SMILES IDX 56 86 65 87 57 88 58 89 64 90 66 91 59 92 60 93 61 94 62 95
REMARK SMILES IDX 63 96
REMARK H PARENT 87 46 53 57
REMARK Flexibility Score: inf
ROOT
ATOM      1  C   UNL A   1      39.913  21.754  26.651  1.00  0.00     0.202 C 
ENDROOT
BRANCH   1   2
ATOM      2  O   UNL A   1      38.680  22.224  26.110  1.00  0.00    -0.374 OA
BRANCH   2   3
ATOM      3  C   UNL A   1      37.971  21.384  25.202  1.00  0.00     0.202 C 
BRANCH   3   4
ATOM      4  C   UNL A   1      36.978  22.043  24.238  1.00  0.00     0.261 C 
BRANCH   4   5
ATOM      5  O   UNL A   1      36.465  23.281  24.749  1.00  0.00    -0.460 OA
BRANCH   5   6
ATOM      6  C   UNL A   1      35.303  23.163  25.432  1.00  0.00     0.338 C 
ATOM      7  O   UNL A   1      35.065  22.386  26.345  1.00  0.00    -0.246 OA
BRANCH   6   8
ATOM      8  C   UNL A   1      34.370  24.228  25.021  1.00  0.00     0.087 C 
ATOM      9  C   UNL A   1      31.440  27.108  24.319  1.00  0.00     0.161 A 
ATOM     10  C   UNL A   1      31.339  28.199  25.191  1.00  0.00     0.054 A 
ATOM     11  C   UNL A   1      32.486  26.187  24.479  1.00  0.00     0.169 A 
ATOM     12  C   UNL A   1      32.290  28.396  26.203  1.00  0.00    -0.047 A 
ATOM     13  C   UNL A   1      33.418  26.362  25.504  1.00  0.00     0.021 A 
ATOM     14  O   UNL A   1      32.556  25.149  23.587  1.00  0.00    -0.471 OA
ATOM     15  C   UNL A   1      32.183  29.542  27.164  1.00  0.00     0.044 C 
ATOM     16  C   UNL A   1      33.335  27.477  26.343  1.00  0.00     0.015 A 
ATOM     17  C   UNL A   1      34.416  25.344  25.759  1.00  0.00     0.027 C 
ATOM     18  C   UNL A   1      33.425  24.021  23.870  1.00  0.00     0.316 C 
BRANCH   9  19
ATOM     19  O   UNL A   1      30.513  26.811  23.353  1.00  0.00    -0.493 OA
ATOM     20  C   UNL A   1      29.248  26.355  23.807  1.00  0.00     0.278 C 
ENDBRANCH   9  19
BRANCH  18  21
ATOM     21  C   UNL A   1      32.556  22.765  24.030  1.00  0.00     0.430 C 
ATOM     22  F   UNL A   1      33.227  21.650  23.659  1.00  0.00    -0.167 F 
ATOM     23  F   UNL A   1      32.178  22.584  25.317  1.00  0.00    -0.167 F 
ATOM     24  F   UNL A   1      31.430  22.836  23.283  1.00  0.00    -0.167 F 
ENDBRANCH  18  21
ENDBRANCH   6   8
ENDBRANCH   5   6
ENDBRANCH   4   5
ENDBRANCH   3   4
ENDBRANCH   2   3
ENDBRANCH   1   2
BRANCH   1  25
ATOM     25  C   UNL A   1      41.188  22.568  26.397  1.00  0.00     0.261 C 
BRANCH  25  26
ATOM     26  O   UNL A   1      40.945  23.979  26.283  1.00  0.00    -0.460 OA
BRANCH  26  27
ATOM     27  C   UNL A   1      42.030  24.764  26.506  1.00  0.00     0.338 C 
ATOM     28  O   UNL A   1      43.077  24.772  25.876  1.00  0.00    -0.246 OA
BRANCH  27  29
ATOM     29  C   UNL A   1      41.690  25.780  27.517  1.00  0.00     0.060 A 
ATOM     30  C   UNL A   1      40.586  25.621  28.355  1.00  0.00     0.016 A 
ATOM     31  C   UNL A   1      42.525  26.899  27.641  1.00  0.00     0.016 A 
ATOM     32  C   UNL A   1      40.332  26.581  29.338  1.00  0.00     0.010 A 
ATOM     33  C   UNL A   1      42.269  27.855  28.623  1.00  0.00     0.010 A 
ATOM     34  C   UNL A   1      41.180  27.695  29.490  1.00  0.00    -0.014 A 
BRANCH  34  35
ATOM     35  C   UNL A   1      40.996  28.615  30.640  1.00  0.00     0.031 A 
ATOM     36  C   UNL A   1      41.879  28.550  31.848  1.00  0.00     0.074 A 
ATOM     37  C   UNL A   1      39.992  29.510  30.584  1.00  0.00     0.049 A 
ATOM     38  N   UNL A   1      41.896  29.337  32.894  1.00  0.00    -0.248 NA
ATOM     39  C   UNL A   1      42.861  27.458  31.897  1.00  0.00     0.031 C 
ATOM     40  C   UNL A   1      39.037  29.628  29.481  1.00  0.00     0.029 A 
ATOM     41  N   UNL A   1      39.611  30.491  31.464  1.00  0.00    -0.354 N 
ATOM     42  C   UNL A   1      42.899  28.848  33.722  1.00  0.00     0.074 A 
ATOM     43  C   UNL A   1      43.432  27.664  33.078  1.00  0.00     0.031 C 
ATOM     44  C   UNL A   1      38.202  30.647  29.733  1.00  0.00     0.029 A 
ATOM     45  C   UNL A   1      38.540  31.233  31.027  1.00  0.00     0.049 A 
ATOM     46  H   UNL A   1      40.060  30.648  32.325  1.00  0.00     0.167 HD
ATOM     47  C   UNL A   1      43.341  29.352  34.900  1.00  0.00     0.037 A 
ATOM     48  C   UNL A   1      37.900  32.272  31.598  1.00  0.00     0.037 A 
ATOM     49  C   UNL A   1      42.785  30.522  35.538  1.00  0.00     0.049 A 
ATOM     50  C   UNL A   1      38.388  32.800  32.917  1.00  0.00     0.074 A 
ATOM     51  C   UNL A   1      43.200  31.143  36.704  1.00  0.00     0.029 A 
ATOM     52  N   UNL A   1      41.681  31.231  35.084  1.00  0.00    -0.354 N 
ATOM     53  N   UNL A   1      39.400  32.386  33.644  1.00  0.00    -0.248 NA
ATOM     54  C   UNL A   1      37.657  33.936  33.491  1.00  0.00     0.031 C 
ATOM     55  C   UNL A   1      42.310  32.183  36.988  1.00  0.00     0.029 A 
ATOM     56  C   UNL A   1      41.377  32.257  35.966  1.00  0.00     0.049 A 
ATOM     57  H   UNL A   1      41.187  31.035  34.254  1.00  0.00     0.167 HD
ATOM     58  C   UNL A   1      39.434  33.218  34.758  1.00  0.00     0.074 A 
ATOM     59  C   UNL A   1      38.354  34.171  34.597  1.00  0.00     0.031 C 
ATOM     60  C   UNL A   1      40.286  33.192  35.813  1.00  0.00     0.037 A 
BRANCH  47  61
ATOM     61  C   UNL A   1      44.474  28.637  35.586  1.00  0.00     0.058 A 
ATOM     62  C   UNL A   1      45.817  28.923  35.286  1.00  0.00     0.135 A 
ATOM     63  C   UNL A   1      44.220  27.681  36.582  1.00  0.00     0.135 A 
ATOM     64  F   UNL A   1      46.121  29.824  34.338  1.00  0.00    -0.206 F 
ATOM     65  C   UNL A   1      46.863  28.259  35.919  1.00  0.00     0.059 A 
ATOM     66  C   UNL A   1      45.251  27.026  37.251  1.00  0.00     0.059 A 
ATOM     67  F   UNL A   1      42.958  27.371  36.916  1.00  0.00    -0.206 F 
ATOM     68  C   UNL A   1      46.569  27.309  36.899  1.00  0.00     0.060 A 
BRANCH  68  69
ATOM     69  S   UNL A   1      47.939  26.442  37.694  1.00  0.00     0.124 S 
ATOM     70  O   UNL A   1      48.802  27.554  38.081  1.00  0.00    -0.237 OA
ATOM     71  O   UNL A   1      47.272  25.746  38.789  1.00  0.00    -0.237 OA
ATOM     72  O   UNL A   1      48.461  25.585  36.635  1.00  0.00    -0.744 OA
ENDBRANCH  68  69
ENDBRANCH  47  61
BRANCH  48  73
ATOM     73  C   UNL A   1      36.754  32.892  30.884  1.00  0.00     0.058 A 
ATOM     74  C   UNL A   1      35.435  32.664  31.301  1.00  0.00     0.135 A 
ATOM     75  C   UNL A   1      36.962  33.798  29.831  1.00  0.00     0.135 A 
ATOM     76  F   UNL A   1      35.188  31.800  32.297  1.00  0.00    -0.206 F 
ATOM     77  C   UNL A   1      34.362  33.325  30.713  1.00  0.00     0.059 A 
ATOM     78  C   UNL A   1      35.907  34.490  29.244  1.00  0.00     0.059 A 
ATOM     79  F   UNL A   1      38.207  34.061  29.406  1.00  0.00    -0.206 F 
ATOM     80  C   UNL A   1      34.610  34.250  29.697  1.00  0.00     0.060 A 
BRANCH  80  81
ATOM     81  S   UNL A   1      33.219  35.182  29.020  1.00  0.00     0.124 S 
ATOM     82  O   UNL A   1      33.894  36.318  28.407  1.00  0.00    -0.237 OA
ATOM     83  O   UNL A   1      32.630  34.215  28.098  1.00  0.00    -0.237 OA
ATOM     84  O   UNL A   1      32.412  35.486  30.197  1.00  0.00    -0.744 OA
ENDBRANCH  80  81
ENDBRANCH  48  73
BRANCH  60  85
ATOM     85  C   UNL A   1      40.091  34.222  36.894  1.00  0.00     0.058 A 
ATOM     86  C   UNL A   1      40.661  35.502  36.802  1.00  0.00     0.135 A 
ATOM     87  C   UNL A   1      39.266  33.953  37.998  1.00  0.00     0.135 A 
ATOM     88  F   UNL A   1      41.465  35.811  35.772  1.00  0.00    -0.206 F 
ATOM     89  C   UNL A   1      40.430  36.473  37.772  1.00  0.00     0.059 A 
ATOM     90  C   UNL A   1      38.997  34.919  38.966  1.00  0.00     0.059 A 
ATOM     91  F   UNL A   1      38.689  32.748  38.135  1.00  0.00    -0.206 F 
ATOM     92  C   UNL A   1      39.591  36.175  38.847  1.00  0.00     0.060 A 
BRANCH  92  93
ATOM     93  S   UNL A   1      39.268  37.461  40.071  1.00  0.00     0.124 S 
ATOM     94  O   UNL A   1      38.720  36.684  41.179  1.00  0.00    -0.237 OA
ATOM     95  O   UNL A   1      40.596  38.024  40.288  1.00  0.00    -0.237 OA
ATOM     96  O   UNL A   1      38.320  38.344  39.398  1.00  0.00    -0.744 OA
ENDBRANCH  92  93
ENDBRANCH  60  85
ENDBRANCH  34  35
ENDBRANCH  27  29
ENDBRANCH  26  27
ENDBRANCH  25  26
ENDBRANCH   1  25
TORSDOF 19
ENDMDL
MODEL 3
REMARK VINA RESULT:     -10.9      1.267      2.035
REMARK SMILES COc1cc(C)cc2c1O[C@H](C(F)(F)F)C(C(=O)OCCOCCOC(=O)c1ccc(-c3c4nc(c(-c5c(F)cc(S(=O)(=O)[O-])cc5F)c5ccc([nH]5)c(-c5c(F)cc(S(=O)(=O)[O-])cc5F)c5nc(c(-c6c(F)cc(S(=O)(=O)[O-])cc6F)c6ccc3[nH]6)C=C5)C=C4)cc1)=C2
REMARK SMILES IDX 23 1 22 2 21 3 20 4 19 5 17 6 18 7 16 8 3 9 4 10 9 11 5 12
REMARK SMILES IDX 8 13 10 14 6 15 7 16 94 17 11 18 2 19 1 20 12 21 13 22 14 23
REMARK SMILES IDX 15 24 24 25 25 26 26 27 27 28 28 29 29 30 93 31 30 32 92 33
REMARK SMILES IDX 31 34 32 35 33 36 86 37 34 38 91 39 85 40 87 41 35 42 90 43
REMARK SMILES IDX 84 44 83 45 36 47 70 48 49 49 69 50 50 51 53 52 68 53 88 54
REMARK SMILES IDX 51 55 52 56 67 58 89 59 54 60 37 61 38 62 47 63 39 64 40 65
REMARK SMILES IDX 46 66 48 67 41 68 42 69 43 70 44 71 45 72 71 73 72 74 81 75
REMARK SMILES IDX 73 76 74 77 80 78 82 79 75 80 76 81 77 82 78 83 79 84 55 85
REMARK SMILES IDX 56 86 65 87 57 88 58 89 64 90 66 91 59 92 60 93 61 94 62 95
REMARK SMILES IDX 63 96
REMARK H PARENT 87 46 53 57
REMARK Flexibility Score: inf
ROOT
ATOM      1  C   UNL A   1      34.724  33.071  29.064  1.00  0.00     0.202 C 
ENDROOT
BRANCH   1   2
ATOM      2  O   UNL A   1      33.960  32.260  28.174  1.00  0.00    -0.374 OA
BRANCH   2   3
ATOM      3  C   UNL A   1      34.335  30.896  28.004  1.00  0.00     0.202 C 
BRANCH   3   4
ATOM      4  C   UNL A   1      33.914  30.191  26.710  1.00  0.00     0.261 C 
BRANCH   4   5
ATOM      5  O   UNL A   1      32.663  29.502  26.847  1.00  0.00    -0.460 OA
BRANCH   5   6
ATOM      6  C   UNL A   1      31.841  29.622  25.778  1.00  0.00     0.338 C 
ATOM      7  O   UNL A   1      31.422  30.660  25.289  1.00  0.00    -0.246 OA
BRANCH   6   8
ATOM      8  C   UNL A   1      31.623  28.300  25.163  1.00  0.00     0.087 C 
ATOM      9  C   UNL A   1      31.439  24.389  23.734  1.00  0.00     0.161 A 
ATOM     10  C   UNL A   1      31.069  23.363  24.612  1.00  0.00     0.054 A 
ATOM     11  C   UNL A   1      31.404  25.723  24.170  1.00  0.00     0.169 A 
ATOM     12  C   UNL A   1      30.634  23.658  25.912  1.00  0.00    -0.047 A 
ATOM     13  C   UNL A   1      31.001  26.017  25.474  1.00  0.00     0.021 A 
ATOM     14  O   UNL A   1      31.753  26.692  23.268  1.00  0.00    -0.471 OA
ATOM     15  C   UNL A   1      30.260  22.571  26.877  1.00  0.00     0.044 C 
ATOM     16  C   UNL A   1      30.591  24.992  26.331  1.00  0.00     0.015 A 
ATOM     17  C   UNL A   1      31.093  27.375  25.972  1.00  0.00     0.027 C 
ATOM     18  C   UNL A   1      32.014  28.042  23.735  1.00  0.00     0.316 C 
BRANCH   9  19
ATOM     19  O   UNL A   1      31.940  24.177  22.476  1.00  0.00    -0.493 OA
ATOM     20  C   UNL A   1      33.279  23.711  22.396  1.00  0.00     0.278 C 
ENDBRANCH   9  19
BRANCH  18  21
ATOM     21  C   UNL A   1      33.484  28.380  23.450  1.00  0.00     0.430 C 
ATOM     22  F   UNL A   1      33.936  27.730  22.352  1.00  0.00    -0.167 F 
ATOM     23  F   UNL A   1      33.655  29.703  23.218  1.00  0.00    -0.167 F 
ATOM     24  F   UNL A   1      34.287  28.044  24.486  1.00  0.00    -0.167 F 
ENDBRANCH  18  21
ENDBRANCH   6   8
ENDBRANCH   5   6
ENDBRANCH   4   5
ENDBRANCH   3   4
ENDBRANCH   2   3
ENDBRANCH   1   2
BRANCH   1  25
ATOM     25  C   UNL A   1      35.109  32.501  30.436  1.00  0.00     0.261 C 
BRANCH  25  26
ATOM     26  O   UNL A   1      36.494  32.133  30.527  1.00  0.00    -0.460 OA
BRANCH  26  27
ATOM     27  C   UNL A   1      36.723  30.908  31.064  1.00  0.00     0.338 C 
ATOM     28  O   UNL A   1      35.974  30.266  31.787  1.00  0.00    -0.246 OA
BRANCH  27  29
ATOM     29  C   UNL A   1      37.953  30.346  30.478  1.00  0.00     0.060 A 
ATOM     30  C   UNL A   1      38.144  30.318  29.097  1.00  0.00     0.016 A 
ATOM     31  C   UNL A   1      38.945  29.870  31.346  1.00  0.00     0.016 A 
ATOM     32  C   UNL A   1      39.348  29.828  28.584  1.00  0.00     0.010 A 
ATOM     33  C   UNL A   1      40.146  29.382  30.832  1.00  0.00     0.010 A 
ATOM     34  C   UNL A   1      40.363  29.374  29.448  1.00  0.00    -0.014 A 
BRANCH  34  35
ATOM     35  C   UNL A   1      41.695  29.013  28.900  1.00  0.00     0.031 A 
ATOM     36  C   UNL A   1      42.805  30.016  28.809  1.00  0.00     0.074 A 
ATOM     37  C   UNL A   1      41.884  27.755  28.462  1.00  0.00     0.049 A 
ATOM     38  N   UNL A   1      44.045  29.833  28.433  1.00  0.00    -0.248 NA
ATOM     39  C   UNL A   1      42.482  31.402  29.175  1.00  0.00     0.031 C 
ATOM     40  C   UNL A   1      40.859  26.710  28.454  1.00  0.00     0.029 A 
ATOM     41  N   UNL A   1      42.996  27.138  27.949  1.00  0.00    -0.354 N 
ATOM     42  C   UNL A   1      44.659  31.076  28.530  1.00  0.00     0.074 A 
ATOM     43  C   UNL A   1      43.638  32.014  28.952  1.00  0.00     0.031 C 
ATOM     44  C   UNL A   1      41.399  25.571  27.994  1.00  0.00     0.029 A 
ATOM     45  C   UNL A   1      42.797  25.812  27.645  1.00  0.00     0.049 A 
ATOM     46  H   UNL A   1      43.855  27.599  27.813  1.00  0.00     0.167 HD
ATOM     47  C   UNL A   1      45.956  31.395  28.303  1.00  0.00     0.037 A 
ATOM     48  C   UNL A   1      43.641  24.890  27.144  1.00  0.00     0.037 A 
ATOM     49  C   UNL A   1      46.957  30.452  27.864  1.00  0.00     0.049 A 
ATOM     50  C   UNL A   1      45.069  25.271  26.874  1.00  0.00     0.074 A 
ATOM     51  C   UNL A   1      48.309  30.667  27.660  1.00  0.00     0.029 A 
ATOM     52  N   UNL A   1      46.713  29.125  27.534  1.00  0.00    -0.354 N 
ATOM     53  N   UNL A   1      45.660  26.427  27.061  1.00  0.00    -0.248 NA
ATOM     54  C   UNL A   1      45.946  24.225  26.333  1.00  0.00     0.031 C 
ATOM     55  C   UNL A   1      48.868  29.493  27.146  1.00  0.00     0.029 A 
ATOM     56  C   UNL A   1      47.880  28.522  27.091  1.00  0.00     0.049 A 
ATOM     57  H   UNL A   1      45.839  28.677  27.607  1.00  0.00     0.167 HD
ATOM     58  C   UNL A   1      46.983  26.247  26.670  1.00  0.00     0.074 A 
ATOM     59  C   UNL A   1      47.108  24.864  26.256  1.00  0.00     0.031 C 
ATOM     60  C   UNL A   1      47.996  27.148  26.659  1.00  0.00     0.037 A 
BRANCH  47  61
ATOM     61  C   UNL A   1      46.371  32.827  28.514  1.00  0.00     0.058 A 
ATOM     62  C   UNL A   1      46.822  33.290  29.761  1.00  0.00     0.135 A 
ATOM     63  C   UNL A   1      46.354  33.743  27.448  1.00  0.00     0.135 A 
ATOM     64  F   UNL A   1      46.855  32.462  30.818  1.00  0.00    -0.206 F 
ATOM     65  C   UNL A   1      47.202  34.615  29.954  1.00  0.00     0.059 A 
ATOM     66  C   UNL A   1      46.759  35.065  27.610  1.00  0.00     0.059 A 
ATOM     67  F   UNL A   1      45.940  33.357  26.231  1.00  0.00    -0.206 F 
ATOM     68  C   UNL A   1      47.165  35.496  28.872  1.00  0.00     0.060 A 
BRANCH  68  69
ATOM     69  S   UNL A   1      47.640  37.216  29.147  1.00  0.00     0.124 S 
ATOM     70  O   UNL A   1      48.961  37.255  28.525  1.00  0.00    -0.237 OA
ATOM     71  O   UNL A   1      46.588  37.944  28.447  1.00  0.00    -0.237 OA
ATOM     72  O   UNL A   1      47.630  37.345  30.600  1.00  0.00    -0.744 OA
ENDBRANCH  68  69
ENDBRANCH  47  61
BRANCH  48  73
ATOM     73  C   UNL A   1      43.143  23.509  26.912  1.00  0.00     0.058 A 
ATOM     74  C   UNL A   1      42.899  23.038  25.614  1.00  0.00     0.135 A 
ATOM     75  C   UNL A   1      42.992  22.606  27.977  1.00  0.00     0.135 A 
ATOM     76  F   UNL A   1      43.022  23.867  24.567  1.00  0.00    -0.206 F 
ATOM     77  C   UNL A   1      42.541  21.715  25.376  1.00  0.00     0.059 A 
ATOM     78  C   UNL A   1      42.659  21.272  27.762  1.00  0.00     0.059 A 
ATOM     79  F   UNL A   1      43.229  23.005  29.236  1.00  0.00    -0.206 F 
ATOM     80  C   UNL A   1      42.441  20.836  26.456  1.00  0.00     0.060 A 
BRANCH  80  81
ATOM     81  S   UNL A   1      42.084  19.097  26.121  1.00  0.00     0.124 S 
ATOM     82  O   UNL A   1      40.668  19.146  25.780  1.00  0.00    -0.237 OA
ATOM     83  O   UNL A   1      42.997  18.810  25.018  1.00  0.00    -0.237 OA
ATOM     84  O   UNL A   1      42.408  18.437  27.381  1.00  0.00    -0.744 OA
ENDBRANCH  80  81
ENDBRANCH  48  73
BRANCH  60  85
ATOM     85  C   UNL A   1      49.344  26.677  26.178  1.00  0.00     0.058 A 
ATOM     86  C   UNL A   1      49.809  26.973  24.887  1.00  0.00     0.135 A 
ATOM     87  C   UNL A   1      50.211  25.987  27.042  1.00  0.00     0.135 A 
ATOM     88  F   UNL A   1      49.020  27.624  24.017  1.00  0.00    -0.206 F 
ATOM     89  C   UNL A   1      51.079  26.590  24.465  1.00  0.00     0.059 A 
ATOM     90  C   UNL A   1      51.496  25.620  26.651  1.00  0.00     0.059 A 
ATOM     91  F   UNL A   1      49.821  25.682  28.291  1.00  0.00    -0.206 F 
ATOM     92  C   UNL A   1      51.918  25.920  25.356  1.00  0.00     0.060 A 
BRANCH  92  93
ATOM     93  S   UNL A   1      53.578  25.472  24.806  1.00  0.00     0.124 S 
ATOM     94  O   UNL A   1      54.400  26.439  25.527  1.00  0.00    -0.237 OA
ATOM     95  O   UNL A   1      53.690  24.087  25.254  1.00  0.00    -0.237 OA
ATOM     96  O   UNL A   1      53.521  25.656  23.359  1.00  0.00    -0.744 OA
ENDBRANCH  92  93
ENDBRANCH  60  85
ENDBRANCH  34  35
ENDBRANCH  27  29
ENDBRANCH  26  27
ENDBRANCH  25  26
ENDBRANCH   1  25
TORSDOF 19
ENDMDL
