MODEL 1
REMARK VINA RESULT:     -10.3      0.000      0.000
REMARK SMILES O=C(OCCOCCOC(=O)[C@@H](F)Oc1ccc(F)c(Cl)c1)c1ccc(-c2c3nc(c(-c4c(F)cc(S(=O)(=O)[O-])cc4F)c4ccc([nH]4)c(-c4c(F)cc(S(=O)(=O)[O-])cc4F)c4nc(c(-c5c(F)cc(S(=O)(=O)[O-])cc5F)c5ccc2[nH]5)C=C4)C=C3)cc1
REMARK SMILES IDX 5 1 4 2 3 3 2 4 1 5 23 6 24 7 88 8 25 9 87 10 26 11 27 12
REMARK SMILES IDX 28 13 81 14 29 15 86 16 80 17 82 18 30 19 85 20 79 21 78 22
REMARK SMILES IDX 31 24 65 25 44 26 64 27 45 28 48 29 63 30 83 31 46 32 47 33
REMARK SMILES IDX 62 35 84 36 49 37 32 38 33 39 42 40 34 41 35 42 41 43 43 44
REMARK SMILES IDX 36 45 37 46 38 47 39 48 40 49 66 50 67 51 76 52 68 53 69 54
REMARK SMILES IDX 75 55 77 56 70 57 71 58 72 59 73 60 74 61 50 62 51 63 60 64
REMARK SMILES IDX 52 65 53 66 59 67 61 68 54 69 55 70 56 71 57 72 58 73 6 74
REMARK SMILES IDX 7 75 8 76 9 77 10 78 11 79 12 80 13 81 14 82 15 83 16 84
REMARK SMILES IDX 22 85 17 86 20 87 18 88 21 89 19 90
REMARK H PARENT 82 23 48 34
REMARK Flexibility Score: inf
ROOT
ATOM      1  C   UNL A   1      33.292  33.831  28.126  1.00  0.00     0.202 C 
ENDROOT
BRANCH   1   2
ATOM      2  C   UNL A   1      34.291  32.681  28.340  1.00  0.00     0.261 C 
BRANCH   2   3
ATOM      3  O   UNL A   1      33.851  31.460  27.718  1.00  0.00    -0.460 OA
BRANCH   3   4
ATOM      4  C   UNL A   1      34.436  30.238  27.707  1.00  0.00     0.338 C 
ATOM      5  O   UNL A   1      33.761  29.282  27.321  1.00  0.00    -0.246 OA
BRANCH   4   6
ATOM      6  C   UNL A   1      35.820  29.952  28.209  1.00  0.00     0.060 A 
ATOM      7  C   UNL A   1      36.131  29.444  29.470  1.00  0.00     0.016 A 
ATOM      8  C   UNL A   1      36.882  30.121  27.299  1.00  0.00     0.016 A 
ATOM      9  C   UNL A   1      37.415  29.066  29.814  1.00  0.00     0.010 A 
ATOM     10  C   UNL A   1      38.194  29.775  27.645  1.00  0.00     0.010 A 
ATOM     11  C   UNL A   1      38.450  29.242  28.909  1.00  0.00    -0.014 A 
BRANCH  11  12
ATOM     12  C   UNL A   1      39.799  29.023  29.441  1.00  0.00     0.031 A 
ATOM     13  C   UNL A   1      40.197  29.834  30.633  1.00  0.00     0.074 A 
ATOM     14  C   UNL A   1      40.512  27.971  29.008  1.00  0.00     0.049 A 
ATOM     15  N   UNL A   1      41.301  29.802  31.321  1.00  0.00    -0.248 NA
ATOM     16  C   UNL A   1      39.193  30.788  31.142  1.00  0.00     0.031 C 
ATOM     17  C   UNL A   1      40.076  27.025  27.975  1.00  0.00     0.029 A 
ATOM     18  N   UNL A   1      41.725  27.488  29.411  1.00  0.00    -0.354 N 
ATOM     19  C   UNL A   1      41.134  30.740  32.332  1.00  0.00     0.074 A 
ATOM     20  C   UNL A   1      39.824  31.323  32.175  1.00  0.00     0.031 C 
ATOM     21  C   UNL A   1      41.012  26.071  27.831  1.00  0.00     0.029 A 
ATOM     22  C   UNL A   1      42.132  26.374  28.715  1.00  0.00     0.049 A 
ATOM     23  H   UNL A   1      42.258  27.898  30.130  1.00  0.00     0.167 HD
ATOM     24  C   UNL A   1      42.018  31.082  33.295  1.00  0.00     0.037 A 
ATOM     25  C   UNL A   1      43.302  25.711  28.773  1.00  0.00     0.037 A 
ATOM     26  C   UNL A   1      43.320  30.485  33.394  1.00  0.00     0.049 A 
ATOM     27  C   UNL A   1      44.328  26.210  29.757  1.00  0.00     0.074 A 
ATOM     28  C   UNL A   1      44.358  30.805  34.246  1.00  0.00     0.029 A 
ATOM     29  N   UNL A   1      43.759  29.435  32.594  1.00  0.00    -0.354 N 
ATOM     30  N   UNL A   1      44.213  27.170  30.647  1.00  0.00    -0.248 NA
ATOM     31  C   UNL A   1      45.641  25.559  29.738  1.00  0.00     0.031 C 
ATOM     32  C   UNL A   1      45.443  29.982  33.925  1.00  0.00     0.029 A 
ATOM     33  C   UNL A   1      45.061  29.108  32.916  1.00  0.00     0.049 A 
ATOM     34  H   UNL A   1      43.221  28.992  31.900  1.00  0.00     0.167 HD
ATOM     35  C   UNL A   1      45.433  27.227  31.310  1.00  0.00     0.074 A 
ATOM     36  C   UNL A   1      46.264  26.190  30.725  1.00  0.00     0.031 C 
ATOM     37  C   UNL A   1      45.838  28.054  32.306  1.00  0.00     0.037 A 
BRANCH  24  38
ATOM     38  C   UNL A   1      41.625  32.200  34.217  1.00  0.00     0.058 A 
ATOM     39  C   UNL A   1      41.052  31.966  35.478  1.00  0.00     0.135 A 
ATOM     40  C   UNL A   1      41.783  33.534  33.808  1.00  0.00     0.135 A 
ATOM     41  F   UNL A   1      40.838  30.710  35.901  1.00  0.00    -0.206 F 
ATOM     42  C   UNL A   1      40.627  33.015  36.289  1.00  0.00     0.059 A 
ATOM     43  C   UNL A   1      41.388  34.599  34.612  1.00  0.00     0.059 A 
ATOM     44  F   UNL A   1      42.303  33.814  32.603  1.00  0.00    -0.206 F 
ATOM     45  C   UNL A   1      40.797  34.328  35.845  1.00  0.00     0.060 A 
BRANCH  45  46
ATOM     46  S   UNL A   1      40.230  35.677  36.902  1.00  0.00     0.124 S 
ATOM     47  O   UNL A   1      39.225  35.006  37.719  1.00  0.00    -0.237 OA
ATOM     48  O   UNL A   1      41.453  36.065  37.595  1.00  0.00    -0.237 OA
ATOM     49  O   UNL A   1      39.712  36.659  35.953  1.00  0.00    -0.744 OA
ENDBRANCH  45  46
ENDBRANCH  24  38
BRANCH  25  50
ATOM     50  C   UNL A   1      43.582  24.578  27.848  1.00  0.00     0.058 A 
ATOM     51  C   UNL A   1      43.207  23.262  28.159  1.00  0.00     0.135 A 
ATOM     52  C   UNL A   1      44.247  24.789  26.628  1.00  0.00     0.135 A 
ATOM     53  F   UNL A   1      42.576  23.000  29.315  1.00  0.00    -0.206 F 
ATOM     54  C   UNL A   1      43.495  22.198  27.307  1.00  0.00     0.059 A 
ATOM     55  C   UNL A   1      44.520  23.747  25.746  1.00  0.00     0.059 A 
ATOM     56  F   UNL A   1      44.626  26.026  26.272  1.00  0.00    -0.206 F 
ATOM     57  C   UNL A   1      44.151  22.452  26.100  1.00  0.00     0.060 A 
BRANCH  57  58
ATOM     58  S   UNL A   1      44.501  21.069  24.992  1.00  0.00     0.124 S 
ATOM     59  O   UNL A   1      43.344  20.210  25.218  1.00  0.00    -0.237 OA
ATOM     60  O   UNL A   1      44.563  21.728  23.691  1.00  0.00    -0.237 OA
ATOM     61  O   UNL A   1      45.775  20.554  25.487  1.00  0.00    -0.744 OA
ENDBRANCH  57  58
ENDBRANCH  25  50
BRANCH  37  62
ATOM     62  C   UNL A   1      47.221  27.841  32.844  1.00  0.00     0.058 A 
ATOM     63  C   UNL A   1      48.323  28.552  32.347  1.00  0.00     0.135 A 
ATOM     64  C   UNL A   1      47.426  26.968  33.925  1.00  0.00     0.135 A 
ATOM     65  F   UNL A   1      48.175  29.392  31.310  1.00  0.00    -0.206 F 
ATOM     66  C   UNL A   1      49.590  28.390  32.892  1.00  0.00     0.059 A 
ATOM     67  C   UNL A   1      48.678  26.816  34.507  1.00  0.00     0.059 A 
ATOM     68  F   UNL A   1      46.397  26.277  34.442  1.00  0.00    -0.206 F 
ATOM     69  C   UNL A   1      49.755  27.524  33.977  1.00  0.00     0.060 A 
BRANCH  69  70
ATOM     70  S   UNL A   1      51.395  27.364  34.708  1.00  0.00     0.124 S 
ATOM     71  O   UNL A   1      51.253  26.131  35.476  1.00  0.00    -0.237 OA
ATOM     72  O   UNL A   1      52.255  27.284  33.532  1.00  0.00    -0.237 OA
ATOM     73  O   UNL A   1      51.535  28.583  35.498  1.00  0.00    -0.744 OA
ENDBRANCH  69  70
ENDBRANCH  37  62
ENDBRANCH  11  12
ENDBRANCH   4   6
ENDBRANCH   3   4
ENDBRANCH   2   3
ENDBRANCH   1   2
BRANCH   1  74
ATOM     74  O   UNL A   1      33.173  34.742  29.221  1.00  0.00    -0.374 OA
BRANCH  74  75
ATOM     75  C   UNL A   1      33.082  36.127  28.869  1.00  0.00     0.202 C 
BRANCH  75  76
ATOM     76  C   UNL A   1      33.266  36.971  30.114  1.00  0.00     0.261 C 
BRANCH  76  77
ATOM     77  O   UNL A   1      32.259  36.543  31.036  1.00  0.00    -0.458 OA
BRANCH  77  78
ATOM     78  C   UNL A   1      32.492  36.734  32.364  1.00  0.00     0.381 C 
ATOM     79  O   UNL A   1      31.634  36.917  33.220  1.00  0.00    -0.244 OA
BRANCH  78  80
ATOM     80  C   UNL A   1      34.000  36.751  32.623  1.00  0.00     0.461 C 
ATOM     81  F   UNL A   1      34.505  38.025  32.711  1.00  0.00    -0.189 F 
BRANCH  80  82
ATOM     82  O   UNL A   1      34.434  36.008  33.770  1.00  0.00    -0.451 OA
BRANCH  82  83
ATOM     83  C   UNL A   1      34.886  34.757  33.446  1.00  0.00     0.125 A 
ATOM     84  C   UNL A   1      34.458  34.115  32.281  1.00  0.00     0.050 A 
ATOM     85  C   UNL A   1      35.837  34.158  34.269  1.00  0.00     0.070 A 
ATOM     86  C   UNL A   1      34.868  32.811  32.012  1.00  0.00     0.044 A 
ATOM     87  C   UNL A   1      36.295  32.876  33.964  1.00  0.00     0.080 A 
ATOM     88  C   UNL A   1      35.786  32.197  32.857  1.00  0.00     0.142 A 
ATOM     89  Cl  UNL A   1      37.499  32.148  34.956  1.00  0.00    -0.081 Cl
ATOM     90  F   UNL A   1      36.183  30.948  32.573  1.00  0.00    -0.205 F 
ENDBRANCH  82  83
ENDBRANCH  80  82
ENDBRANCH  78  80
ENDBRANCH  77  78
ENDBRANCH  76  77
ENDBRANCH  75  76
ENDBRANCH  74  75
ENDBRANCH   1  74
TORSDOF 19
ENDMDL
MODEL 2
REMARK VINA RESULT:     -10.1      3.597     11.718
REMARK SMILES O=C(OCCOCCOC(=O)[C@@H](F)Oc1ccc(F)c(Cl)c1)c1ccc(-c2c3nc(c(-c4c(F)cc(S(=O)(=O)[O-])cc4F)c4ccc([nH]4)c(-c4c(F)cc(S(=O)(=O)[O-])cc4F)c4nc(c(-c5c(F)cc(S(=O)(=O)[O-])cc5F)c5ccc2[nH]5)C=C4)C=C3)cc1
REMARK SMILES IDX 5 1 4 2 3 3 2 4 1 5 23 6 24 7 88 8 25 9 87 10 26 11 27 12
REMARK SMILES IDX 28 13 81 14 29 15 86 16 80 17 82 18 30 19 85 20 79 21 78 22
REMARK SMILES IDX 31 24 65 25 44 26 64 27 45 28 48 29 63 30 83 31 46 32 47 33
REMARK SMILES IDX 62 35 84 36 49 37 32 38 33 39 42 40 34 41 35 42 41 43 43 44
REMARK SMILES IDX 36 45 37 46 38 47 39 48 40 49 66 50 67 51 76 52 68 53 69 54
REMARK SMILES IDX 75 55 77 56 70 57 71 58 72 59 73 60 74 61 50 62 51 63 60 64
REMARK SMILES IDX 52 65 53 66 59 67 61 68 54 69 55 70 56 71 57 72 58 73 6 74
REMARK SMILES IDX 7 75 8 76 9 77 10 78 11 79 12 80 13 81 14 82 15 83 16 84
REMARK SMILES IDX 22 85 17 86 20 87 18 88 21 89 19 90
REMARK H PARENT 82 23 48 34
REMARK Flexibility Score: inf
ROOT
ATOM      1  C   UNL A   1      39.234  22.031  26.137  1.00  0.00     0.202 C 
ENDROOT
BRANCH   1   2
ATOM      2  C   UNL A   1      39.093  23.537  26.414  1.00  0.00     0.261 C 
BRANCH   2   3
ATOM      3  O   UNL A   1      40.372  24.192  26.507  1.00  0.00    -0.460 OA
BRANCH   3   4
ATOM      4  C   UNL A   1      40.671  25.512  26.455  1.00  0.00     0.338 C 
ATOM      5  O   UNL A   1      41.032  25.975  25.372  1.00  0.00    -0.246 OA
BRANCH   4   6
ATOM      6  C   UNL A   1      40.672  26.432  27.639  1.00  0.00     0.060 A 
ATOM      7  C   UNL A   1      39.821  26.329  28.740  1.00  0.00     0.016 A 
ATOM      8  C   UNL A   1      41.675  27.420  27.688  1.00  0.00     0.016 A 
ATOM      9  C   UNL A   1      39.973  27.119  29.862  1.00  0.00     0.010 A 
ATOM     10  C   UNL A   1      41.819  28.251  28.804  1.00  0.00     0.010 A 
ATOM     11  C   UNL A   1      40.962  28.089  29.893  1.00  0.00    -0.014 A 
BRANCH  11  12
ATOM     12  C   UNL A   1      40.901  29.019  31.025  1.00  0.00     0.031 A 
ATOM     13  C   UNL A   1      39.816  30.048  30.999  1.00  0.00     0.074 A 
ATOM     14  C   UNL A   1      41.638  28.769  32.120  1.00  0.00     0.049 A 
ATOM     15  N   UNL A   1      39.512  30.950  31.887  1.00  0.00    -0.248 NA
ATOM     16  C   UNL A   1      38.926  30.034  29.821  1.00  0.00     0.031 C 
ATOM     17  C   UNL A   1      42.574  27.649  32.268  1.00  0.00     0.029 A 
ATOM     18  N   UNL A   1      41.683  29.403  33.329  1.00  0.00    -0.354 N 
ATOM     19  C   UNL A   1      38.411  31.621  31.371  1.00  0.00     0.074 A 
ATOM     20  C   UNL A   1      38.093  31.023  30.097  1.00  0.00     0.031 C 
ATOM     21  C   UNL A   1      43.097  27.677  33.505  1.00  0.00     0.029 A 
ATOM     22  C   UNL A   1      42.579  28.845  34.209  1.00  0.00     0.049 A 
ATOM     23  H   UNL A   1      41.127  30.186  33.550  1.00  0.00     0.167 HD
ATOM     24  C   UNL A   1      37.741  32.655  31.925  1.00  0.00     0.037 A 
ATOM     25  C   UNL A   1      42.955  29.270  35.431  1.00  0.00     0.037 A 
ATOM     26  C   UNL A   1      38.113  33.227  33.188  1.00  0.00     0.049 A 
ATOM     27  C   UNL A   1      42.294  30.516  35.959  1.00  0.00     0.074 A 
ATOM     28  C   UNL A   1      37.598  34.342  33.821  1.00  0.00     0.029 A 
ATOM     29  N   UNL A   1      39.111  32.717  34.012  1.00  0.00    -0.354 N 
ATOM     30  N   UNL A   1      41.321  31.219  35.425  1.00  0.00    -0.248 NA
ATOM     31  C   UNL A   1      42.787  31.040  37.237  1.00  0.00     0.031 C 
ATOM     32  C   UNL A   1      38.322  34.534  35.003  1.00  0.00     0.029 A 
ATOM     33  C   UNL A   1      39.245  33.505  35.137  1.00  0.00     0.049 A 
ATOM     34  H   UNL A   1      39.644  31.913  33.819  1.00  0.00     0.167 HD
ATOM     35  C   UNL A   1      41.068  32.259  36.311  1.00  0.00     0.074 A 
ATOM     36  C   UNL A   1      41.984  32.080  37.423  1.00  0.00     0.031 C 
ATOM     37  C   UNL A   1      40.169  33.271  36.221  1.00  0.00     0.037 A 
BRANCH  24  38
ATOM     38  C   UNL A   1      36.634  33.265  31.114  1.00  0.00     0.058 A 
ATOM     39  C   UNL A   1      36.879  33.985  29.933  1.00  0.00     0.135 A 
ATOM     40  C   UNL A   1      35.306  33.169  31.556  1.00  0.00     0.135 A 
ATOM     41  F   UNL A   1      38.135  34.145  29.487  1.00  0.00    -0.206 F 
ATOM     42  C   UNL A   1      35.849  34.606  29.234  1.00  0.00     0.059 A 
ATOM     43  C   UNL A   1      34.256  33.761  30.861  1.00  0.00     0.059 A 
ATOM     44  F   UNL A   1      35.018  32.513  32.692  1.00  0.00    -0.206 F 
ATOM     45  C   UNL A   1      34.540  34.490  29.708  1.00  0.00     0.060 A 
BRANCH  45  46
ATOM     46  S   UNL A   1      33.215  35.312  28.797  1.00  0.00     0.124 S 
ATOM     47  O   UNL A   1      33.967  36.255  27.975  1.00  0.00    -0.237 OA
ATOM     48  O   UNL A   1      32.595  34.203  28.082  1.00  0.00    -0.237 OA
ATOM     49  O   UNL A   1      32.399  35.911  29.850  1.00  0.00    -0.744 OA
ENDBRANCH  45  46
ENDBRANCH  24  38
BRANCH  25  50
ATOM     50  C   UNL A   1      44.031  28.566  36.183  1.00  0.00     0.058 A 
ATOM     51  C   UNL A   1      45.380  28.929  36.054  1.00  0.00     0.135 A 
ATOM     52  C   UNL A   1      43.729  27.499  37.048  1.00  0.00     0.135 A 
ATOM     53  F   UNL A   1      45.728  29.935  35.237  1.00  0.00    -0.206 F 
ATOM     54  C   UNL A   1      46.389  28.251  36.736  1.00  0.00     0.059 A 
ATOM     55  C   UNL A   1      44.715  26.826  37.762  1.00  0.00     0.059 A 
ATOM     56  F   UNL A   1      42.456  27.110  37.218  1.00  0.00    -0.206 F 
ATOM     57  C   UNL A   1      46.045  27.200  37.590  1.00  0.00     0.060 A 
BRANCH  57  58
ATOM     58  S   UNL A   1      47.357  26.343  38.486  1.00  0.00     0.124 S 
ATOM     59  O   UNL A   1      48.078  25.689  37.400  1.00  0.00    -0.237 OA
ATOM     60  O   UNL A   1      48.052  27.446  39.142  1.00  0.00    -0.237 OA
ATOM     61  O   UNL A   1      46.625  25.452  39.383  1.00  0.00    -0.744 OA
ENDBRANCH  57  58
ENDBRANCH  25  50
BRANCH  37  62
ATOM     62  C   UNL A   1      40.112  34.230  37.372  1.00  0.00     0.058 A 
ATOM     63  C   UNL A   1      40.881  35.403  37.393  1.00  0.00     0.135 A 
ATOM     64  C   UNL A   1      39.216  34.005  38.430  1.00  0.00     0.135 A 
ATOM     65  F   UNL A   1      41.756  35.657  36.406  1.00  0.00    -0.206 F 
ATOM     66  C   UNL A   1      40.777  36.315  38.435  1.00  0.00     0.059 A 
ATOM     67  C   UNL A   1      39.072  34.919  39.465  1.00  0.00     0.059 A 
ATOM     68  F   UNL A   1      38.450  32.902  38.445  1.00  0.00    -0.206 F 
ATOM     69  C   UNL A   1      39.864  36.066  39.464  1.00  0.00     0.060 A 
BRANCH  69  70
ATOM     70  S   UNL A   1      39.702  37.283  40.784  1.00  0.00     0.124 S 
ATOM     71  O   UNL A   1      38.939  36.536  41.778  1.00  0.00    -0.237 OA
ATOM     72  O   UNL A   1      41.093  37.559  41.127  1.00  0.00    -0.237 OA
ATOM     73  O   UNL A   1      38.990  38.385  40.144  1.00  0.00    -0.744 OA
ENDBRANCH  69  70
ENDBRANCH  37  62
ENDBRANCH  11  12
ENDBRANCH   4   6
ENDBRANCH   3   4
ENDBRANCH   2   3
ENDBRANCH   1   2
BRANCH   1  74
ATOM     74  O   UNL A   1      40.426  21.429  26.647  1.00  0.00    -0.374 OA
BRANCH  74  75
ATOM     75  C   UNL A   1      40.567  20.026  26.400  1.00  0.00     0.202 C 
BRANCH  75  76
ATOM     76  C   UNL A   1      42.026  19.639  26.540  1.00  0.00     0.261 C 
BRANCH  76  77
ATOM     77  O   UNL A   1      42.465  19.265  25.231  1.00  0.00    -0.458 OA
BRANCH  77  78
ATOM     78  C   UNL A   1      43.806  19.238  24.995  1.00  0.00     0.381 C 
ATOM     79  O   UNL A   1      44.435  18.279  24.563  1.00  0.00    -0.244 OA
BRANCH  78  80
ATOM     80  C   UNL A   1      44.427  20.573  25.412  1.00  0.00     0.461 C 
ATOM     81  F   UNL A   1      45.799  20.531  25.433  1.00  0.00    -0.189 F 
BRANCH  80  82
ATOM     82  O   UNL A   1      44.016  21.709  24.639  1.00  0.00    -0.451 OA
BRANCH  82  83
ATOM     83  C   UNL A   1      44.175  22.889  25.314  1.00  0.00     0.125 A 
ATOM     84  C   UNL A   1      44.752  24.002  24.696  1.00  0.00     0.050 A 
ATOM     85  C   UNL A   1      43.686  22.983  26.615  1.00  0.00     0.070 A 
ATOM     86  C   UNL A   1      44.975  25.167  25.425  1.00  0.00     0.044 A 
ATOM     87  C   UNL A   1      43.856  24.174  27.324  1.00  0.00     0.080 A 
ATOM     88  C   UNL A   1      44.526  25.247  26.738  1.00  0.00     0.142 A 
ATOM     89  Cl  UNL A   1      43.219  24.307  28.918  1.00  0.00    -0.081 Cl
ATOM     90  F   UNL A   1      44.734  26.383  27.420  1.00  0.00    -0.205 F 
ENDBRANCH  82  83
ENDBRANCH  80  82
ENDBRANCH  78  80
ENDBRANCH  77  78
ENDBRANCH  76  77
ENDBRANCH  75  76
ENDBRANCH  74  75
ENDBRANCH   1  74
TORSDOF 19
ENDMDL
MODEL 3
REMARK VINA RESULT:      -9.8      4.091     12.319
REMARK SMILES O=C(OCCOCCOC(=O)[C@@H](F)Oc1ccc(F)c(Cl)c1)c1ccc(-c2c3nc(c(-c4c(F)cc(S(=O)(=O)[O-])cc4F)c4ccc([nH]4)c(-c4c(F)cc(S(=O)(=O)[O-])cc4F)c4nc(c(-c5c(F)cc(S(=O)(=O)[O-])cc5F)c5ccc2[nH]5)C=C4)C=C3)cc1
REMARK SMILES IDX 5 1 4 2 3 3 2 4 1 5 23 6 24 7 88 8 25 9 87 10 26 11 27 12
REMARK SMILES IDX 28 13 81 14 29 15 86 16 80 17 82 18 30 19 85 20 79 21 78 22
REMARK SMILES IDX 31 24 65 25 44 26 64 27 45 28 48 29 63 30 83 31 46 32 47 33
REMARK SMILES IDX 62 35 84 36 49 37 32 38 33 39 42 40 34 41 35 42 41 43 43 44
REMARK SMILES IDX 36 45 37 46 38 47 39 48 40 49 66 50 67 51 76 52 68 53 69 54
REMARK SMILES IDX 75 55 77 56 70 57 71 58 72 59 73 60 74 61 50 62 51 63 60 64
REMARK SMILES IDX 52 65 53 66 59 67 61 68 54 69 55 70 56 71 57 72 58 73 6 74
REMARK SMILES IDX 7 75 8 76 9 77 10 78 11 79 12 80 13 81 14 82 15 83 16 84
REMARK SMILES IDX 22 85 17 86 20 87 18 88 21 89 19 90
REMARK H PARENT 82 23 48 34
REMARK Flexibility Score: inf
ROOT
ATOM      1  C   UNL A   1      40.932  19.817  26.286  1.00  0.00     0.202 C 
ENDROOT
BRANCH   1   2
ATOM      2  C   UNL A   1      40.742  21.340  26.184  1.00  0.00     0.261 C 
BRANCH   2   3
ATOM      3  O   UNL A   1      39.375  21.731  26.409  1.00  0.00    -0.460 OA
BRANCH   3   4
ATOM      4  C   UNL A   1      38.801  22.955  26.312  1.00  0.00     0.338 C 
ATOM      5  O   UNL A   1      37.754  23.046  25.669  1.00  0.00    -0.246 OA
BRANCH   4   6
ATOM      6  C   UNL A   1      39.391  24.218  26.862  1.00  0.00     0.060 A 
ATOM      7  C   UNL A   1      40.075  25.179  26.117  1.00  0.00     0.016 A 
ATOM      8  C   UNL A   1      39.152  24.503  28.221  1.00  0.00     0.016 A 
ATOM      9  C   UNL A   1      40.464  26.389  26.659  1.00  0.00     0.010 A 
ATOM     10  C   UNL A   1      39.571  25.710  28.793  1.00  0.00     0.010 A 
ATOM     11  C   UNL A   1      40.225  26.652  27.999  1.00  0.00    -0.014 A 
BRANCH  11  12
ATOM     12  C   UNL A   1      40.869  27.858  28.531  1.00  0.00     0.031 A 
ATOM     13  C   UNL A   1      42.347  27.980  28.332  1.00  0.00     0.074 A 
ATOM     14  C   UNL A   1      40.105  28.882  28.944  1.00  0.00     0.049 A 
ATOM     15  N   UNL A   1      43.144  28.956  28.659  1.00  0.00    -0.248 NA
ATOM     16  C   UNL A   1      43.010  26.862  27.634  1.00  0.00     0.031 C 
ATOM     17  C   UNL A   1      38.638  28.881  28.970  1.00  0.00     0.029 A 
ATOM     18  N   UNL A   1      40.445  30.133  29.374  1.00  0.00    -0.354 N 
ATOM     19  C   UNL A   1      44.404  28.564  28.223  1.00  0.00     0.074 A 
ATOM     20  C   UNL A   1      44.269  27.267  27.605  1.00  0.00     0.031 C 
ATOM     21  C   UNL A   1      38.207  30.083  29.391  1.00  0.00     0.029 A 
ATOM     22  C   UNL A   1      39.364  30.909  29.718  1.00  0.00     0.049 A 
ATOM     23  H   UNL A   1      41.376  30.450  29.431  1.00  0.00     0.167 HD
ATOM     24  C   UNL A   1      45.567  29.239  28.349  1.00  0.00     0.037 A 
ATOM     25  C   UNL A   1      39.334  32.135  30.274  1.00  0.00     0.037 A 
ATOM     26  C   UNL A   1      45.650  30.519  28.993  1.00  0.00     0.049 A 
ATOM     27  C   UNL A   1      40.659  32.802  30.539  1.00  0.00     0.074 A 
ATOM     28  C   UNL A   1      46.771  31.270  29.290  1.00  0.00     0.029 A 
ATOM     29  N   UNL A   1      44.548  31.237  29.448  1.00  0.00    -0.354 N 
ATOM     30  N   UNL A   1      41.865  32.387  30.224  1.00  0.00    -0.248 NA
ATOM     31  C   UNL A   1      40.628  34.085  31.247  1.00  0.00     0.031 C 
ATOM     32  C   UNL A   1      46.349  32.418  29.970  1.00  0.00     0.029 A 
ATOM     33  C   UNL A   1      44.962  32.412  30.043  1.00  0.00     0.049 A 
ATOM     34  H   UNL A   1      43.612  30.947  29.359  1.00  0.00     0.167 HD
ATOM     35  C   UNL A   1      42.739  33.368  30.677  1.00  0.00     0.074 A 
ATOM     36  C   UNL A   1      41.916  34.404  31.274  1.00  0.00     0.031 C 
ATOM     37  C   UNL A   1      44.093  33.415  30.613  1.00  0.00     0.037 A 
BRANCH  24  38
ATOM     38  C   UNL A   1      46.813  28.549  27.873  1.00  0.00     0.058 A 
ATOM     39  C   UNL A   1      47.320  28.727  26.576  1.00  0.00     0.135 A 
ATOM     40  C   UNL A   1      47.485  27.653  28.720  1.00  0.00     0.135 A 
ATOM     41  F   UNL A   1      46.692  29.539  25.710  1.00  0.00    -0.206 F 
ATOM     42  C   UNL A   1      48.434  28.023  26.127  1.00  0.00     0.059 A 
ATOM     43  C   UNL A   1      48.615  26.956  28.302  1.00  0.00     0.059 A 
ATOM     44  F   UNL A   1      47.029  27.427  29.962  1.00  0.00    -0.206 F 
ATOM     45  C   UNL A   1      49.073  27.137  26.998  1.00  0.00     0.060 A 
BRANCH  45  46
ATOM     46  S   UNL A   1      50.509  26.222  26.400  1.00  0.00     0.124 S 
ATOM     47  O   UNL A   1      50.135  25.966  25.013  1.00  0.00    -0.237 OA
ATOM     48  O   UNL A   1      51.592  27.178  26.597  1.00  0.00    -0.237 OA
ATOM     49  O   UNL A   1      50.548  25.046  27.265  1.00  0.00    -0.744 OA
ENDBRANCH  45  46
ENDBRANCH  24  38
BRANCH  25  50
ATOM     50  C   UNL A   1      38.042  32.762  30.667  1.00  0.00     0.058 A 
ATOM     51  C   UNL A   1      37.517  32.619  31.960  1.00  0.00     0.135 A 
ATOM     52  C   UNL A   1      37.294  33.514  29.745  1.00  0.00     0.135 A 
ATOM     53  F   UNL A   1      38.184  31.904  32.879  1.00  0.00    -0.206 F 
ATOM     54  C   UNL A   1      36.293  33.180  32.319  1.00  0.00     0.059 A 
ATOM     55  C   UNL A   1      36.083  34.110  30.088  1.00  0.00     0.059 A 
ATOM     56  F   UNL A   1      37.746  33.692  28.495  1.00  0.00    -0.206 F 
ATOM     57  C   UNL A   1      35.584  33.926  31.375  1.00  0.00     0.060 A 
BRANCH  57  58
ATOM     58  S   UNL A   1      34.009  34.669  31.856  1.00  0.00     0.124 S 
ATOM     59  O   UNL A   1      33.299  34.705  30.583  1.00  0.00    -0.237 OA
ATOM     60  O   UNL A   1      33.509  33.716  32.841  1.00  0.00    -0.237 OA
ATOM     61  O   UNL A   1      34.402  35.969  32.395  1.00  0.00    -0.744 OA
ENDBRANCH  57  58
ENDBRANCH  25  50
BRANCH  37  62
ATOM     62  C   UNL A   1      44.755  34.641  31.166  1.00  0.00     0.058 A 
ATOM     63  C   UNL A   1      44.928  35.798  30.393  1.00  0.00     0.135 A 
ATOM     64  C   UNL A   1      45.149  34.678  32.514  1.00  0.00     0.135 A 
ATOM     65  F   UNL A   1      44.572  35.807  29.098  1.00  0.00    -0.206 F 
ATOM     66  C   UNL A   1      45.489  36.948  30.932  1.00  0.00     0.059 A 
ATOM     67  C   UNL A   1      45.681  35.828  33.082  1.00  0.00     0.059 A 
ATOM     68  F   UNL A   1      44.990  33.598  33.296  1.00  0.00    -0.206 F 
ATOM     69  C   UNL A   1      45.856  36.954  32.280  1.00  0.00     0.060 A 
BRANCH  69  70
ATOM     70  S   UNL A   1      46.534  38.471  32.981  1.00  0.00     0.124 S 
ATOM     71  O   UNL A   1      46.580  38.142  34.402  1.00  0.00    -0.237 OA
ATOM     72  O   UNL A   1      47.827  38.573  32.311  1.00  0.00    -0.237 OA
ATOM     73  O   UNL A   1      45.557  39.487  32.603  1.00  0.00    -0.744 OA
ENDBRANCH  69  70
ENDBRANCH  37  62
ENDBRANCH  11  12
ENDBRANCH   4   6
ENDBRANCH   3   4
ENDBRANCH   2   3
ENDBRANCH   1   2
BRANCH   1  74
ATOM     74  O   UNL A   1      41.819  19.251  25.318  1.00  0.00    -0.374 OA
BRANCH  74  75
ATOM     75  C   UNL A   1      43.035  18.702  25.838  1.00  0.00     0.202 C 
BRANCH  75  76
ATOM     76  C   UNL A   1      44.196  19.155  24.976  1.00  0.00     0.261 C 
BRANCH  76  77
ATOM     77  O   UNL A   1      44.652  20.388  25.540  1.00  0.00    -0.458 OA
BRANCH  77  78
ATOM     78  C   UNL A   1      45.479  21.164  24.785  1.00  0.00     0.381 C 
ATOM     79  O   UNL A   1      46.677  20.969  24.609  1.00  0.00    -0.244 OA
BRANCH  78  80
ATOM     80  C   UNL A   1      44.700  22.361  24.236  1.00  0.00     0.461 C 
ATOM     81  F   UNL A   1      43.347  22.247  24.442  1.00  0.00    -0.189 F 
BRANCH  80  82
ATOM     82  O   UNL A   1      45.128  23.643  24.715  1.00  0.00    -0.451 OA
BRANCH  82  83
ATOM     83  C   UNL A   1      45.085  23.736  26.080  1.00  0.00     0.125 A 
ATOM     84  C   UNL A   1      46.187  24.194  26.807  1.00  0.00     0.050 A 
ATOM     85  C   UNL A   1      43.893  23.428  26.732  1.00  0.00     0.070 A 
ATOM     86  C   UNL A   1      46.149  24.205  28.199  1.00  0.00     0.044 A 
ATOM     87  C   UNL A   1      43.837  23.499  28.124  1.00  0.00     0.080 A 
ATOM     88  C   UNL A   1      44.972  23.857  28.852  1.00  0.00     0.142 A 
ATOM     89  Cl  UNL A   1      42.355  23.157  28.931  1.00  0.00    -0.081 Cl
ATOM     90  F   UNL A   1      44.947  23.890  30.192  1.00  0.00    -0.205 F 
ENDBRANCH  82  83
ENDBRANCH  80  82
ENDBRANCH  78  80
ENDBRANCH  77  78
ENDBRANCH  76  77
ENDBRANCH  75  76
ENDBRANCH  74  75
ENDBRANCH   1  74
TORSDOF 19
ENDMDL
