MODEL 1
REMARK VINA RESULT:     -11.6      0.000      0.000
REMARK SMILES COc1ccccc1[C@@H]1C[N@@H+](Cc2cc3c(cc2C)OCO3)C[C@H]1C(=O)OCCOCCOC(=O)c1ccc(-c2c3nc(c(-c4c(F)cc(S(=O)(=O)[O-])cc4F)c4ccc([nH]4)c(-c4c(F)cc(S(=O)(=O)[O-])cc4F)c4nc(c(-c5c(F)cc(S(=O)(=O)[O-])cc5F)c5ccc2[nH]5)C=C4)C=C3)cc1
REMARK SMILES IDX 31 1 30 2 29 3 28 4 27 5 25 6 26 7 24 8 9 9 10 10 11 11
REMARK SMILES IDX 23 12 8 14 3 15 4 16 5 17 7 18 6 19 2 20 1 21 12 22 13 23
REMARK SMILES IDX 14 24 18 25 15 26 17 27 19 28 16 29 22 30 20 31 21 32 32 33
REMARK SMILES IDX 33 34 34 35 35 36 36 37 37 38 101 39 38 40 100 41 39 42
REMARK SMILES IDX 40 43 41 44 94 45 42 46 99 47 93 48 95 49 43 50 98 51 92 52
REMARK SMILES IDX 91 53 44 55 78 56 57 57 77 58 58 59 61 60 76 61 96 62 59 63
REMARK SMILES IDX 60 64 75 66 97 67 62 68 45 69 46 70 55 71 47 72 48 73 54 74
REMARK SMILES IDX 56 75 49 76 50 77 51 78 52 79 53 80 79 81 80 82 89 83 81 84
REMARK SMILES IDX 82 85 88 86 90 87 83 88 84 89 85 90 86 91 87 92 63 93 64 94
REMARK SMILES IDX 73 95 65 96 66 97 72 98 74 99 67 100 68 101 69 102 70 103
REMARK SMILES IDX 71 104
REMARK H PARENT 11 13 95 54 61 65
REMARK Flexibility Score: inf
ROOT
ATOM      1  C   UNL A   1      40.097  21.876  26.813  1.00  0.00     0.202 C 
ENDROOT
BRANCH   1   2
ATOM      2  O   UNL A   1      39.049  21.632  25.883  1.00  0.00    -0.374 OA
BRANCH   2   3
ATOM      3  C   UNL A   1      37.998  22.598  25.825  1.00  0.00     0.202 C 
BRANCH   3   4
ATOM      4  C   UNL A   1      36.685  22.123  25.198  1.00  0.00     0.261 C 
BRANCH   4   5
ATOM      5  O   UNL A   1      35.764  21.570  26.165  1.00  0.00    -0.463 OA
BRANCH   5   6
ATOM      6  C   UNL A   1      34.659  22.346  26.324  1.00  0.00     0.315 C 
ATOM      7  O   UNL A   1      34.410  22.963  27.358  1.00  0.00    -0.252 OA
BRANCH   6   8
ATOM      8  C   UNL A   1      33.802  22.525  25.084  1.00  0.00     0.167 C 
ATOM      9  C   UNL A   1      32.484  21.763  24.939  1.00  0.00     0.098 C 
ATOM     10  C   UNL A   1      31.443  22.817  24.509  1.00  0.00     0.272 C 
ATOM     11  N   UNL A   1      31.966  24.128  24.868  1.00  0.00    -0.330 N 
ATOM     12  C   UNL A   1      33.419  24.010  24.984  1.00  0.00     0.278 C 
ATOM     13  H   UNL A   1      31.740  24.778  24.114  1.00  0.00     0.348 HD
BRANCH   9  14
ATOM     14  C   UNL A   1      32.387  20.552  24.008  1.00  0.00     0.004 A 
ATOM     15  C   UNL A   1      32.496  19.182  24.321  1.00  0.00     0.122 A 
ATOM     16  C   UNL A   1      32.371  18.217  23.300  1.00  0.00     0.047 A 
ATOM     17  C   UNL A   1      32.144  18.578  21.972  1.00  0.00     0.004 A 
ATOM     18  C   UNL A   1      32.195  20.884  22.639  1.00  0.00     0.008 A 
ATOM     19  C   UNL A   1      32.054  19.918  21.641  1.00  0.00     0.001 A 
BRANCH  15  20
ATOM     20  O   UNL A   1      32.515  18.618  25.569  1.00  0.00    -0.496 OA
ATOM     21  C   UNL A   1      32.834  17.238  25.698  1.00  0.00     0.278 C 
ENDBRANCH  15  20
ENDBRANCH   9  14
BRANCH  11  22
ATOM     22  C   UNL A   1      31.284  24.846  25.959  1.00  0.00     0.299 C 
BRANCH  22  23
ATOM     23  C   UNL A   1      31.333  26.360  25.906  1.00  0.00     0.013 A 
ATOM     24  C   UNL A   1      32.021  26.998  26.951  1.00  0.00     0.060 A 
ATOM     25  C   UNL A   1      30.818  27.139  24.821  1.00  0.00    -0.038 A 
ATOM     26  C   UNL A   1      32.386  28.295  26.756  1.00  0.00     0.166 A 
ATOM     27  C   UNL A   1      31.093  28.512  24.748  1.00  0.00     0.054 A 
ATOM     28  C   UNL A   1      30.112  26.579  23.620  1.00  0.00     0.045 C 
ATOM     29  C   UNL A   1      31.952  29.022  25.674  1.00  0.00     0.166 A 
ATOM     30  O   UNL A   1      33.375  28.930  27.439  1.00  0.00    -0.454 OA
ATOM     31  O   UNL A   1      32.637  30.181  25.526  1.00  0.00    -0.454 OA
ATOM     32  C   UNL A   1      33.719  29.871  26.413  1.00  0.00     0.468 C 
ENDBRANCH  22  23
ENDBRANCH  11  22
ENDBRANCH   6   8
ENDBRANCH   5   6
ENDBRANCH   4   5
ENDBRANCH   3   4
ENDBRANCH   2   3
ENDBRANCH   1   2
BRANCH   1  33
ATOM     33  C   UNL A   1      41.308  22.680  26.320  1.00  0.00     0.261 C 
BRANCH  33  34
ATOM     34  O   UNL A   1      41.133  24.098  26.274  1.00  0.00    -0.460 OA
BRANCH  34  35
ATOM     35  C   UNL A   1      42.257  24.833  26.504  1.00  0.00     0.338 C 
ATOM     36  O   UNL A   1      43.330  24.749  25.956  1.00  0.00    -0.246 OA
BRANCH  35  37
ATOM     37  C   UNL A   1      41.899  25.833  27.529  1.00  0.00     0.060 A 
ATOM     38  C   UNL A   1      40.755  25.631  28.309  1.00  0.00     0.016 A 
ATOM     39  C   UNL A   1      42.753  26.910  27.782  1.00  0.00     0.016 A 
ATOM     40  C   UNL A   1      40.475  26.492  29.378  1.00  0.00     0.010 A 
ATOM     41  C   UNL A   1      42.483  27.755  28.866  1.00  0.00     0.010 A 
ATOM     42  C   UNL A   1      41.340  27.555  29.677  1.00  0.00    -0.014 A 
BRANCH  42  43
ATOM     43  C   UNL A   1      40.983  28.579  30.700  1.00  0.00     0.031 A 
ATOM     44  C   UNL A   1      41.748  28.533  31.997  1.00  0.00     0.074 A 
ATOM     45  C   UNL A   1      40.020  29.510  30.530  1.00  0.00     0.049 A 
ATOM     46  N   UNL A   1      41.609  29.258  33.074  1.00  0.00    -0.248 NA
ATOM     47  C   UNL A   1      42.796  27.501  32.097  1.00  0.00     0.031 C 
ATOM     48  C   UNL A   1      39.178  29.675  29.345  1.00  0.00     0.029 A 
ATOM     49  N   UNL A   1      39.573  30.497  31.383  1.00  0.00    -0.354 N 
ATOM     50  C   UNL A   1      42.552  28.770  33.968  1.00  0.00     0.074 A 
ATOM     51  C   UNL A   1      43.177  27.622  33.355  1.00  0.00     0.031 C 
ATOM     52  C   UNL A   1      38.310  30.684  29.551  1.00  0.00     0.029 A 
ATOM     53  C   UNL A   1      38.530  31.246  30.883  1.00  0.00     0.049 A 
ATOM     54  H   UNL A   1      39.966  30.654  32.271  1.00  0.00     0.167 HD
ATOM     55  C   UNL A   1      42.924  29.263  35.170  1.00  0.00     0.037 A 
ATOM     56  C   UNL A   1      37.838  32.266  31.436  1.00  0.00     0.037 A 
ATOM     57  C   UNL A   1      42.337  30.415  35.784  1.00  0.00     0.049 A 
ATOM     58  C   UNL A   1      38.232  32.775  32.805  1.00  0.00     0.074 A 
ATOM     59  C   UNL A   1      42.658  31.002  36.993  1.00  0.00     0.029 A 
ATOM     60  N   UNL A   1      41.308  31.160  35.229  1.00  0.00    -0.354 N 
ATOM     61  N   UNL A   1      39.179  32.345  33.605  1.00  0.00    -0.248 NA
ATOM     62  C   UNL A   1      37.480  33.924  33.337  1.00  0.00     0.031 C 
ATOM     63  C   UNL A   1      41.803  32.092  37.184  1.00  0.00     0.029 A 
ATOM     64  C   UNL A   1      40.976  32.201  36.076  1.00  0.00     0.049 A 
ATOM     65  H   UNL A   1      40.880  30.975  34.363  1.00  0.00     0.167 HD
ATOM     66  C   UNL A   1      39.164  33.196  34.708  1.00  0.00     0.074 A 
ATOM     67  C   UNL A   1      38.116  34.165  34.476  1.00  0.00     0.031 C 
ATOM     68  C   UNL A   1      39.953  33.180  35.811  1.00  0.00     0.037 A 
BRANCH  55  69
ATOM     69  C   UNL A   1      44.047  28.549  35.860  1.00  0.00     0.058 A 
ATOM     70  C   UNL A   1      43.791  27.523  36.786  1.00  0.00     0.135 A 
ATOM     71  C   UNL A   1      45.379  28.931  35.647  1.00  0.00     0.135 A 
ATOM     72  F   UNL A   1      42.528  27.149  37.050  1.00  0.00    -0.206 F 
ATOM     73  C   UNL A   1      44.815  26.933  37.515  1.00  0.00     0.059 A 
ATOM     74  C   UNL A   1      46.422  28.333  36.344  1.00  0.00     0.059 A 
ATOM     75  F   UNL A   1      45.671  29.915  34.782  1.00  0.00    -0.206 F 
ATOM     76  C   UNL A   1      46.128  27.351  37.292  1.00  0.00     0.060 A 
BRANCH  76  77
ATOM     77  S   UNL A   1      47.444  26.600  38.267  1.00  0.00     0.124 S 
ATOM     78  O   UNL A   1      47.090  27.033  39.615  1.00  0.00    -0.237 OA
ATOM     79  O   UNL A   1      47.267  25.178  37.991  1.00  0.00    -0.237 OA
ATOM     80  O   UNL A   1      48.656  27.197  37.715  1.00  0.00    -0.744 OA
ENDBRANCH  76  77
ENDBRANCH  55  69
BRANCH  56  81
ATOM     81  C   UNL A   1      36.710  32.916  30.705  1.00  0.00     0.058 A 
ATOM     82  C   UNL A   1      36.945  33.875  29.708  1.00  0.00     0.135 A 
ATOM     83  C   UNL A   1      35.374  32.644  31.038  1.00  0.00     0.135 A 
ATOM     84  F   UNL A   1      38.205  34.188  29.364  1.00  0.00    -0.206 F 
ATOM     85  C   UNL A   1      35.904  34.561  29.086  1.00  0.00     0.059 A 
ATOM     86  C   UNL A   1      34.312  33.301  30.416  1.00  0.00     0.059 A 
ATOM     87  F   UNL A   1      35.089  31.737  31.984  1.00  0.00    -0.206 F 
ATOM     88  C   UNL A   1      34.589  34.270  29.451  1.00  0.00     0.060 A 
BRANCH  88  89
ATOM     89  S   UNL A   1      33.244  35.155  28.630  1.00  0.00     0.124 S 
ATOM     90  O   UNL A   1      32.468  35.634  29.769  1.00  0.00    -0.237 OA
ATOM     91  O   UNL A   1      33.963  36.175  27.874  1.00  0.00    -0.237 OA
ATOM     92  O   UNL A   1      32.606  34.121  27.821  1.00  0.00    -0.744 OA
ENDBRANCH  88  89
ENDBRANCH  56  81
BRANCH  68  93
ATOM     93  C   UNL A   1      39.769  34.268  36.831  1.00  0.00     0.058 A 
ATOM     94  C   UNL A   1      38.928  34.104  37.941  1.00  0.00     0.135 A 
ATOM     95  C   UNL A   1      40.525  35.449  36.746  1.00  0.00     0.135 A 
ATOM     96  F   UNL A   1      38.184  32.994  38.068  1.00  0.00    -0.206 F 
ATOM     97  C   UNL A   1      38.837  35.079  38.929  1.00  0.00     0.059 A 
ATOM     98  C   UNL A   1      40.467  36.425  37.735  1.00  0.00     0.059 A 
ATOM     99  F   UNL A   1      41.355  35.648  35.710  1.00  0.00    -0.206 F 
ATOM    100  C   UNL A   1      39.615  36.234  38.821  1.00  0.00     0.060 A 
BRANCH 100 101
ATOM    101  S   UNL A   1      39.538  37.460  40.144  1.00  0.00     0.124 S 
ATOM    102  O   UNL A   1      39.058  36.656  41.263  1.00  0.00    -0.237 OA
ATOM    103  O   UNL A   1      40.923  37.912  40.235  1.00  0.00    -0.237 OA
ATOM    104  O   UNL A   1      38.596  38.452  39.633  1.00  0.00    -0.744 OA
ENDBRANCH 100 101
ENDBRANCH  68  93
ENDBRANCH  42  43
ENDBRANCH  35  37
ENDBRANCH  34  35
ENDBRANCH  33  34
ENDBRANCH   1  33
TORSDOF 21
ENDMDL
MODEL 2
REMARK VINA RESULT:     -11.5      0.652      7.907
REMARK SMILES COc1ccccc1[C@@H]1C[N@@H+](Cc2cc3c(cc2C)OCO3)C[C@H]1C(=O)OCCOCCOC(=O)c1ccc(-c2c3nc(c(-c4c(F)cc(S(=O)(=O)[O-])cc4F)c4ccc([nH]4)c(-c4c(F)cc(S(=O)(=O)[O-])cc4F)c4nc(c(-c5c(F)cc(S(=O)(=O)[O-])cc5F)c5ccc2[nH]5)C=C4)C=C3)cc1
REMARK SMILES IDX 31 1 30 2 29 3 28 4 27 5 25 6 26 7 24 8 9 9 10 10 11 11
REMARK SMILES IDX 23 12 8 14 3 15 4 16 5 17 7 18 6 19 2 20 1 21 12 22 13 23
REMARK SMILES IDX 14 24 18 25 15 26 17 27 19 28 16 29 22 30 20 31 21 32 32 33
REMARK SMILES IDX 33 34 34 35 35 36 36 37 37 38 101 39 38 40 100 41 39 42
REMARK SMILES IDX 40 43 41 44 94 45 42 46 99 47 93 48 95 49 43 50 98 51 92 52
REMARK SMILES IDX 91 53 44 55 78 56 57 57 77 58 58 59 61 60 76 61 96 62 59 63
REMARK SMILES IDX 60 64 75 66 97 67 62 68 45 69 46 70 55 71 47 72 48 73 54 74
REMARK SMILES IDX 56 75 49 76 50 77 51 78 52 79 53 80 79 81 80 82 89 83 81 84
REMARK SMILES IDX 82 85 88 86 90 87 83 88 84 89 85 90 86 91 87 92 63 93 64 94
REMARK SMILES IDX 73 95 65 96 66 97 72 98 74 99 67 100 68 101 69 102 70 103
REMARK SMILES IDX 71 104
REMARK H PARENT 11 13 95 54 61 65
REMARK Flexibility Score: inf
ROOT
ATOM      1  C   UNL A   1      39.961  22.572  26.737  1.00  0.00     0.202 C 
ENDROOT
BRANCH   1   2
ATOM      2  O   UNL A   1      39.023  21.973  25.850  1.00  0.00    -0.374 OA
BRANCH   2   3
ATOM      3  C   UNL A   1      37.719  22.555  25.800  1.00  0.00     0.202 C 
BRANCH   3   4
ATOM      4  C   UNL A   1      36.600  21.648  25.282  1.00  0.00     0.261 C 
BRANCH   4   5
ATOM      5  O   UNL A   1      35.551  21.432  26.251  1.00  0.00    -0.463 OA
BRANCH   5   6
ATOM      6  C   UNL A   1      34.656  22.456  26.277  1.00  0.00     0.315 C 
ATOM      7  O   UNL A   1      34.626  23.303  27.169  1.00  0.00    -0.252 OA
BRANCH   6   8
ATOM      8  C   UNL A   1      33.770  22.581  25.051  1.00  0.00     0.167 C 
ATOM      9  C   UNL A   1      32.476  21.773  24.949  1.00  0.00     0.098 C 
ATOM     10  C   UNL A   1      31.392  22.783  24.519  1.00  0.00     0.272 C 
ATOM     11  N   UNL A   1      31.878  24.118  24.841  1.00  0.00    -0.330 N 
ATOM     12  C   UNL A   1      33.336  24.050  24.930  1.00  0.00     0.278 C 
ATOM     13  H   UNL A   1      31.616  24.744  24.079  1.00  0.00     0.348 HD
BRANCH   9  14
ATOM     14  C   UNL A   1      32.401  20.540  24.043  1.00  0.00     0.004 A 
ATOM     15  C   UNL A   1      32.559  19.181  24.383  1.00  0.00     0.122 A 
ATOM     16  C   UNL A   1      32.447  18.192  23.384  1.00  0.00     0.047 A 
ATOM     17  C   UNL A   1      32.187  18.518  22.052  1.00  0.00     0.004 A 
ATOM     18  C   UNL A   1      32.177  20.838  22.672  1.00  0.00     0.008 A 
ATOM     19  C   UNL A   1      32.049  19.848  21.696  1.00  0.00     0.001 A 
BRANCH  15  20
ATOM     20  O   UNL A   1      32.615  18.644  25.641  1.00  0.00    -0.496 OA
ATOM     21  C   UNL A   1      32.634  17.229  25.787  1.00  0.00     0.278 C 
ENDBRANCH  15  20
ENDBRANCH   9  14
BRANCH  11  22
ATOM     22  C   UNL A   1      31.193  24.835  25.931  1.00  0.00     0.299 C 
BRANCH  22  23
ATOM     23  C   UNL A   1      31.264  26.348  25.893  1.00  0.00     0.013 A 
ATOM     24  C   UNL A   1      31.958  26.966  26.947  1.00  0.00     0.060 A 
ATOM     25  C   UNL A   1      30.764  27.145  24.814  1.00  0.00    -0.038 A 
ATOM     26  C   UNL A   1      32.342  28.260  26.766  1.00  0.00     0.166 A 
ATOM     27  C   UNL A   1      31.059  28.515  24.755  1.00  0.00     0.054 A 
ATOM     28  C   UNL A   1      30.054  26.607  23.605  1.00  0.00     0.045 C 
ATOM     29  C   UNL A   1      31.922  29.003  25.690  1.00  0.00     0.166 A 
ATOM     30  O   UNL A   1      33.337  28.874  27.458  1.00  0.00    -0.454 OA
ATOM     31  O   UNL A   1      32.624  30.154  25.555  1.00  0.00    -0.454 OA
ATOM     32  C   UNL A   1      33.698  29.820  26.442  1.00  0.00     0.468 C 
ENDBRANCH  22  23
ENDBRANCH  11  22
ENDBRANCH   6   8
ENDBRANCH   5   6
ENDBRANCH   4   5
ENDBRANCH   3   4
ENDBRANCH   2   3
ENDBRANCH   1   2
BRANCH   1  33
ATOM     33  C   UNL A   1      41.392  22.775  26.221  1.00  0.00     0.261 C 
BRANCH  33  34
ATOM     34  O   UNL A   1      42.141  23.809  26.863  1.00  0.00    -0.460 OA
BRANCH  34  35
ATOM     35  C   UNL A   1      41.919  25.069  26.393  1.00  0.00     0.338 C 
ATOM     36  O   UNL A   1      41.794  25.428  25.247  1.00  0.00    -0.246 OA
BRANCH  35  37
ATOM     37  C   UNL A   1      41.785  25.939  27.579  1.00  0.00     0.060 A 
ATOM     38  C   UNL A   1      42.669  27.010  27.742  1.00  0.00     0.016 A 
ATOM     39  C   UNL A   1      40.721  25.751  28.466  1.00  0.00     0.016 A 
ATOM     40  C   UNL A   1      42.472  27.929  28.781  1.00  0.00     0.010 A 
ATOM     41  C   UNL A   1      40.513  26.684  29.490  1.00  0.00     0.010 A 
ATOM     42  C   UNL A   1      41.387  27.784  29.659  1.00  0.00    -0.014 A 
BRANCH  42  43
ATOM     43  C   UNL A   1      41.247  28.647  30.866  1.00  0.00     0.031 A 
ATOM     44  C   UNL A   1      40.167  29.696  30.826  1.00  0.00     0.074 A 
ATOM     45  C   UNL A   1      42.035  28.547  31.959  1.00  0.00     0.049 A 
ATOM     46  N   UNL A   1      39.862  30.613  31.704  1.00  0.00    -0.248 NA
ATOM     47  C   UNL A   1      39.338  29.728  29.608  1.00  0.00     0.031 C 
ATOM     48  C   UNL A   1      43.134  27.600  32.147  1.00  0.00     0.029 A 
ATOM     49  N   UNL A   1      42.035  29.277  33.128  1.00  0.00    -0.354 N 
ATOM     50  C   UNL A   1      38.807  31.321  31.141  1.00  0.00     0.074 A 
ATOM     51  C   UNL A   1      38.601  30.804  29.809  1.00  0.00     0.031 C 
ATOM     52  C   UNL A   1      43.712  27.818  33.345  1.00  0.00     0.029 A 
ATOM     53  C   UNL A   1      43.024  28.919  34.019  1.00  0.00     0.049 A 
ATOM     54  H   UNL A   1      41.384  29.992  33.312  1.00  0.00     0.167 HD
ATOM     55  C   UNL A   1      38.027  32.274  31.697  1.00  0.00     0.037 A 
ATOM     56  C   UNL A   1      43.335  29.420  35.234  1.00  0.00     0.037 A 
ATOM     57  C   UNL A   1      38.198  32.781  33.024  1.00  0.00     0.049 A 
ATOM     58  C   UNL A   1      42.483  30.523  35.823  1.00  0.00     0.074 A 
ATOM     59  C   UNL A   1      37.446  33.735  33.683  1.00  0.00     0.029 A 
ATOM     60  N   UNL A   1      39.189  32.368  33.899  1.00  0.00    -0.354 N 
ATOM     61  N   UNL A   1      41.442  31.129  35.303  1.00  0.00    -0.248 NA
ATOM     62  C   UNL A   1      42.833  30.993  37.173  1.00  0.00     0.031 C 
ATOM     63  C   UNL A   1      38.001  33.920  34.953  1.00  0.00     0.029 A 
ATOM     64  C   UNL A   1      39.074  33.054  35.094  1.00  0.00     0.049 A 
ATOM     65  H   UNL A   1      39.872  31.688  33.700  1.00  0.00     0.167 HD
ATOM     66  C   UNL A   1      40.989  32.016  36.278  1.00  0.00     0.074 A 
ATOM     67  C   UNL A   1      41.867  31.870  37.417  1.00  0.00     0.031 C 
ATOM     68  C   UNL A   1      39.936  32.868  36.234  1.00  0.00     0.037 A 
BRANCH  55  69
ATOM     69  C   UNL A   1      36.902  32.786  30.848  1.00  0.00     0.058 A 
ATOM     70  C   UNL A   1      37.102  33.847  29.948  1.00  0.00     0.135 A 
ATOM     71  C   UNL A   1      35.609  32.263  30.979  1.00  0.00     0.135 A 
ATOM     72  F   UNL A   1      38.317  34.404  29.816  1.00  0.00    -0.206 F 
ATOM     73  C   UNL A   1      36.045  34.404  29.241  1.00  0.00     0.059 A 
ATOM     74  C   UNL A   1      34.542  32.787  30.259  1.00  0.00     0.059 A 
ATOM     75  F   UNL A   1      35.368  31.258  31.836  1.00  0.00    -0.206 F 
ATOM     76  C   UNL A   1      34.766  33.871  29.410  1.00  0.00     0.060 A 
BRANCH  76  77
ATOM     77  S   UNL A   1      33.397  34.625  28.511  1.00  0.00     0.124 S 
ATOM     78  O   UNL A   1      32.507  35.004  29.603  1.00  0.00    -0.237 OA
ATOM     79  O   UNL A   1      34.050  35.730  27.814  1.00  0.00    -0.237 OA
ATOM     80  O   UNL A   1      32.918  33.544  27.656  1.00  0.00    -0.744 OA
ENDBRANCH  76  77
ENDBRANCH  55  69
BRANCH  56  81
ATOM     81  C   UNL A   1      44.488  28.882  36.017  1.00  0.00     0.058 A 
ATOM     82  C   UNL A   1      44.315  27.844  36.945  1.00  0.00     0.135 A 
ATOM     83  C   UNL A   1      45.769  29.443  35.903  1.00  0.00     0.135 A 
ATOM     84  F   UNL A   1      43.106  27.286  37.108  1.00  0.00    -0.206 F 
ATOM     85  C   UNL A   1      45.360  27.399  37.752  1.00  0.00     0.059 A 
ATOM     86  C   UNL A   1      46.837  29.001  36.684  1.00  0.00     0.059 A 
ATOM     87  F   UNL A   1      45.992  30.438  35.031  1.00  0.00    -0.206 F 
ATOM     88  C   UNL A   1      46.618  27.988  37.617  1.00  0.00     0.060 A 
BRANCH  88  89
ATOM     89  S   UNL A   1      47.971  27.394  38.660  1.00  0.00     0.124 S 
ATOM     90  O   UNL A   1      47.710  25.960  38.694  1.00  0.00    -0.237 OA
ATOM     91  O   UNL A   1      49.147  27.811  37.904  1.00  0.00    -0.237 OA
ATOM     92  O   UNL A   1      47.761  28.105  39.918  1.00  0.00    -0.744 OA
ENDBRANCH  88  89
ENDBRANCH  56  81
BRANCH  68  93
ATOM     93  C   UNL A   1      39.624  33.673  37.464  1.00  0.00     0.058 A 
ATOM     94  C   UNL A   1      38.753  33.200  38.455  1.00  0.00     0.135 A 
ATOM     95  C   UNL A   1      40.288  34.889  37.697  1.00  0.00     0.135 A 
ATOM     96  F   UNL A   1      38.094  32.044  38.280  1.00  0.00    -0.206 F 
ATOM     97  C   UNL A   1      38.544  33.908  39.634  1.00  0.00     0.059 A 
ATOM     98  C   UNL A   1      40.112  35.602  38.878  1.00  0.00     0.059 A 
ATOM     99  F   UNL A   1      41.143  35.379  36.785  1.00  0.00    -0.206 F 
ATOM    100  C   UNL A   1      39.233  35.106  39.839  1.00  0.00     0.060 A 
BRANCH 100 101
ATOM    101  S   UNL A   1      39.006  35.982  41.402  1.00  0.00     0.124 S 
ATOM    102  O   UNL A   1      40.184  35.558  42.151  1.00  0.00    -0.237 OA
ATOM    103  O   UNL A   1      38.991  37.379  40.980  1.00  0.00    -0.237 OA
ATOM    104  O   UNL A   1      37.730  35.470  41.895  1.00  0.00    -0.744 OA
ENDBRANCH 100 101
ENDBRANCH  68  93
ENDBRANCH  42  43
ENDBRANCH  35  37
ENDBRANCH  34  35
ENDBRANCH  33  34
ENDBRANCH   1  33
TORSDOF 21
ENDMDL
MODEL 3
REMARK VINA RESULT:     -11.4      6.334     11.550
REMARK SMILES COc1ccccc1[C@@H]1C[N@@H+](Cc2cc3c(cc2C)OCO3)C[C@H]1C(=O)OCCOCCOC(=O)c1ccc(-c2c3nc(c(-c4c(F)cc(S(=O)(=O)[O-])cc4F)c4ccc([nH]4)c(-c4c(F)cc(S(=O)(=O)[O-])cc4F)c4nc(c(-c5c(F)cc(S(=O)(=O)[O-])cc5F)c5ccc2[nH]5)C=C4)C=C3)cc1
REMARK SMILES IDX 31 1 30 2 29 3 28 4 27 5 25 6 26 7 24 8 9 9 10 10 11 11
REMARK SMILES IDX 23 12 8 14 3 15 4 16 5 17 7 18 6 19 2 20 1 21 12 22 13 23
REMARK SMILES IDX 14 24 18 25 15 26 17 27 19 28 16 29 22 30 20 31 21 32 32 33
REMARK SMILES IDX 33 34 34 35 35 36 36 37 37 38 101 39 38 40 100 41 39 42
REMARK SMILES IDX 40 43 41 44 94 45 42 46 99 47 93 48 95 49 43 50 98 51 92 52
REMARK SMILES IDX 91 53 44 55 78 56 57 57 77 58 58 59 61 60 76 61 96 62 59 63
REMARK SMILES IDX 60 64 75 66 97 67 62 68 45 69 46 70 55 71 47 72 48 73 54 74
REMARK SMILES IDX 56 75 49 76 50 77 51 78 52 79 53 80 79 81 80 82 89 83 81 84
REMARK SMILES IDX 82 85 88 86 90 87 83 88 84 89 85 90 86 91 87 92 63 93 64 94
REMARK SMILES IDX 73 95 65 96 66 97 72 98 74 99 67 100 68 101 69 102 70 103
REMARK SMILES IDX 71 104
REMARK H PARENT 11 13 95 54 61 65
REMARK Flexibility Score: inf
ROOT
ATOM      1  C   UNL A   1      33.422  30.507  27.281  1.00  0.00     0.202 C 
ENDROOT
BRANCH   1   2
ATOM      2  O   UNL A   1      33.588  29.617  26.184  1.00  0.00    -0.374 OA
BRANCH   2   3
ATOM      3  C   UNL A   1      34.121  28.323  26.475  1.00  0.00     0.202 C 
BRANCH   3   4
ATOM      4  C   UNL A   1      33.125  27.162  26.425  1.00  0.00     0.261 C 
BRANCH   4   5
ATOM      5  O   UNL A   1      33.593  26.050  25.630  1.00  0.00    -0.463 OA
BRANCH   5   6
ATOM      6  C   UNL A   1      32.829  24.937  25.803  1.00  0.00     0.315 C 
ATOM      7  O   UNL A   1      33.055  24.092  26.667  1.00  0.00    -0.252 OA
BRANCH   6   8
ATOM      8  C   UNL A   1      31.578  24.864  24.947  1.00  0.00     0.167 C 
ATOM      9  C   UNL A   1      31.565  25.472  23.545  1.00  0.00     0.098 C 
ATOM     10  C   UNL A   1      30.965  24.385  22.629  1.00  0.00     0.272 C 
ATOM     11  N   UNL A   1      31.099  23.107  23.314  1.00  0.00    -0.330 N 
ATOM     12  C   UNL A   1      31.231  23.380  24.744  1.00  0.00     0.278 C 
ATOM     13  H   UNL A   1      30.247  22.568  23.152  1.00  0.00     0.348 HD
BRANCH   9  14
ATOM     14  C   UNL A   1      30.849  26.800  23.282  1.00  0.00     0.004 A 
ATOM     15  C   UNL A   1      31.367  27.994  22.740  1.00  0.00     0.122 A 
ATOM     16  C   UNL A   1      30.525  29.114  22.579  1.00  0.00     0.047 A 
ATOM     17  C   UNL A   1      29.180  29.081  22.947  1.00  0.00     0.004 A 
ATOM     18  C   UNL A   1      29.486  26.816  23.683  1.00  0.00     0.008 A 
ATOM     19  C   UNL A   1      28.658  27.926  23.500  1.00  0.00     0.001 A 
BRANCH  15  20
ATOM     20  O   UNL A   1      32.585  28.169  22.138  1.00  0.00    -0.496 OA
ATOM     21  C   UNL A   1      33.709  28.508  22.939  1.00  0.00     0.278 C 
ENDBRANCH  15  20
ENDBRANCH   9  14
BRANCH  11  22
ATOM     22  C   UNL A   1      32.055  22.139  22.747  1.00  0.00     0.299 C 
BRANCH  22  23
ATOM     23  C   UNL A   1      33.349  21.941  23.511  1.00  0.00     0.013 A 
ATOM     24  C   UNL A   1      34.359  22.889  23.282  1.00  0.00     0.060 A 
ATOM     25  C   UNL A   1      33.545  20.926  24.501  1.00  0.00    -0.038 A 
ATOM     26  C   UNL A   1      35.373  22.951  24.189  1.00  0.00     0.166 A 
ATOM     27  C   UNL A   1      34.690  20.945  25.312  1.00  0.00     0.054 A 
ATOM     28  C   UNL A   1      32.529  19.888  24.882  1.00  0.00     0.045 C 
ATOM     29  C   UNL A   1      35.518  22.019  25.187  1.00  0.00     0.166 A 
ATOM     30  O   UNL A   1      36.184  24.026  24.367  1.00  0.00    -0.454 OA
ATOM     31  O   UNL A   1      36.411  22.409  26.128  1.00  0.00    -0.454 OA
ATOM     32  C   UNL A   1      36.489  23.788  25.748  1.00  0.00     0.468 C 
ENDBRANCH  22  23
ENDBRANCH  11  22
ENDBRANCH   6   8
ENDBRANCH   5   6
ENDBRANCH   4   5
ENDBRANCH   3   4
ENDBRANCH   2   3
ENDBRANCH   1   2
BRANCH   1  33
ATOM     33  C   UNL A   1      34.688  31.136  27.880  1.00  0.00     0.261 C 
BRANCH  33  34
ATOM     34  O   UNL A   1      35.696  30.217  28.304  1.00  0.00    -0.460 OA
BRANCH  34  35
ATOM     35  C   UNL A   1      36.377  30.575  29.429  1.00  0.00     0.338 C 
ATOM     36  O   UNL A   1      35.932  30.993  30.470  1.00  0.00    -0.246 OA
BRANCH  35  37
ATOM     37  C   UNL A   1      37.800  30.285  29.164  1.00  0.00     0.060 A 
ATOM     38  C   UNL A   1      38.681  30.150  30.243  1.00  0.00     0.016 A 
ATOM     39  C   UNL A   1      38.233  30.046  27.857  1.00  0.00     0.016 A 
ATOM     40  C   UNL A   1      40.001  29.738  30.022  1.00  0.00     0.010 A 
ATOM     41  C   UNL A   1      39.547  29.611  27.641  1.00  0.00     0.010 A 
ATOM     42  C   UNL A   1      40.446  29.452  28.722  1.00  0.00    -0.014 A 
BRANCH  42  43
ATOM     43  C   UNL A   1      41.883  29.171  28.441  1.00  0.00     0.031 A 
ATOM     44  C   UNL A   1      42.239  27.747  28.100  1.00  0.00     0.074 A 
ATOM     45  C   UNL A   1      42.857  30.105  28.493  1.00  0.00     0.049 A 
ATOM     46  N   UNL A   1      43.407  27.213  27.868  1.00  0.00    -0.248 NA
ATOM     47  C   UNL A   1      41.117  26.793  28.044  1.00  0.00     0.031 C 
ATOM     48  C   UNL A   1      42.681  31.519  28.825  1.00  0.00     0.029 A 
ATOM     49  N   UNL A   1      44.214  29.991  28.276  1.00  0.00    -0.354 N 
ATOM     50  C   UNL A   1      43.154  25.867  27.636  1.00  0.00     0.074 A 
ATOM     51  C   UNL A   1      41.746  25.646  27.865  1.00  0.00     0.031 C 
ATOM     52  C   UNL A   1      43.880  32.134  28.809  1.00  0.00     0.029 A 
ATOM     53  C   UNL A   1      44.917  31.162  28.462  1.00  0.00     0.049 A 
ATOM     54  H   UNL A   1      44.644  29.146  28.012  1.00  0.00     0.167 HD
ATOM     55  C   UNL A   1      43.996  24.902  27.207  1.00  0.00     0.037 A 
ATOM     56  C   UNL A   1      46.239  31.419  28.360  1.00  0.00     0.037 A 
ATOM     57  C   UNL A   1      45.388  25.106  26.948  1.00  0.00     0.049 A 
ATOM     58  C   UNL A   1      47.178  30.315  27.926  1.00  0.00     0.074 A 
ATOM     59  C   UNL A   1      46.321  24.192  26.492  1.00  0.00     0.029 A 
ATOM     60  N   UNL A   1      46.049  26.312  27.117  1.00  0.00    -0.354 N 
ATOM     61  N   UNL A   1      46.906  29.063  27.640  1.00  0.00    -0.248 NA
ATOM     62  C   UNL A   1      48.601  30.663  27.778  1.00  0.00     0.031 C 
ATOM     63  C   UNL A   1      47.557  24.842  26.411  1.00  0.00     0.029 A 
ATOM     64  C   UNL A   1      47.382  26.167  26.781  1.00  0.00     0.049 A 
ATOM     65  H   UNL A   1      45.631  27.146  27.430  1.00  0.00     0.167 HD
ATOM     66  C   UNL A   1      48.111  28.492  27.236  1.00  0.00     0.074 A 
ATOM     67  C   UNL A   1      49.114  29.531  27.316  1.00  0.00     0.031 C 
ATOM     68  C   UNL A   1      48.361  27.223  26.830  1.00  0.00     0.037 A 
BRANCH  55  69
ATOM     69  C   UNL A   1      43.389  23.552  26.967  1.00  0.00     0.058 A 
ATOM     70  C   UNL A   1      43.176  22.657  28.029  1.00  0.00     0.135 A 
ATOM     71  C   UNL A   1      43.079  23.125  25.669  1.00  0.00     0.135 A 
ATOM     72  F   UNL A   1      43.493  23.009  29.286  1.00  0.00    -0.206 F 
ATOM     73  C   UNL A   1      42.721  21.364  27.805  1.00  0.00     0.059 A 
ATOM     74  C   UNL A   1      42.594  21.845  25.426  1.00  0.00     0.059 A 
ATOM     75  F   UNL A   1      43.278  23.941  24.621  1.00  0.00    -0.206 F 
ATOM     76  C   UNL A   1      42.441  20.965  26.498  1.00  0.00     0.060 A 
BRANCH  76  77
ATOM     77  S   UNL A   1      41.882  19.274  26.218  1.00  0.00     0.124 S 
ATOM     78  O   UNL A   1      42.245  18.637  27.480  1.00  0.00    -0.237 OA
ATOM     79  O   UNL A   1      40.451  19.451  25.986  1.00  0.00    -0.237 OA
ATOM     80  O   UNL A   1      42.655  18.851  25.056  1.00  0.00    -0.744 OA
ENDBRANCH  76  77
ENDBRANCH  55  69
BRANCH  56  81
ATOM     81  C   UNL A   1      46.783  32.781  28.640  1.00  0.00     0.058 A 
ATOM     82  C   UNL A   1      46.919  33.734  27.619  1.00  0.00     0.135 A 
ATOM     83  C   UNL A   1      47.242  33.132  29.919  1.00  0.00     0.135 A 
ATOM     84  F   UNL A   1      46.514  33.443  26.373  1.00  0.00    -0.206 F 
ATOM     85  C   UNL A   1      47.515  34.973  27.844  1.00  0.00     0.059 A 
ATOM     86  C   UNL A   1      47.823  34.374  30.176  1.00  0.00     0.059 A 
ATOM     87  F   UNL A   1      47.138  32.260  30.933  1.00  0.00    -0.206 F 
ATOM     88  C   UNL A   1      47.968  35.282  29.127  1.00  0.00     0.060 A 
BRANCH  88  89
ATOM     89  S   UNL A   1      48.728  36.898  29.414  1.00  0.00     0.124 S 
ATOM     90  O   UNL A   1      49.338  37.171  28.117  1.00  0.00    -0.237 OA
ATOM     91  O   UNL A   1      47.576  37.722  29.763  1.00  0.00    -0.237 OA
ATOM     92  O   UNL A   1      49.660  36.641  30.509  1.00  0.00    -0.744 OA
ENDBRANCH  88  89
ENDBRANCH  56  81
BRANCH  68  93
ATOM     93  C   UNL A   1      49.753  26.884  26.380  1.00  0.00     0.058 A 
ATOM     94  C   UNL A   1      50.665  26.234  27.224  1.00  0.00     0.135 A 
ATOM     95  C   UNL A   1      50.142  27.123  25.051  1.00  0.00     0.135 A 
ATOM     96  F   UNL A   1      50.342  25.984  28.502  1.00  0.00    -0.206 F 
ATOM     97  C   UNL A   1      51.919  25.840  26.768  1.00  0.00     0.059 A 
ATOM     98  C   UNL A   1      51.381  26.715  24.568  1.00  0.00     0.059 A 
ATOM     99  F   UNL A   1      49.300  27.729  24.198  1.00  0.00    -0.206 F 
ATOM    100  C   UNL A   1      52.266  26.079  25.437  1.00  0.00     0.060 A 
BRANCH 100 101
ATOM    101  S   UNL A   1      53.870  25.502  24.839  1.00  0.00     0.124 S 
ATOM    102  O   UNL A   1      54.785  26.193  25.741  1.00  0.00    -0.237 OA
ATOM    103  O   UNL A   1      53.771  24.057  25.021  1.00  0.00    -0.237 OA
ATOM    104  O   UNL A   1      53.896  25.952  23.450  1.00  0.00    -0.744 OA
ENDBRANCH 100 101
ENDBRANCH  68  93
ENDBRANCH  42  43
ENDBRANCH  35  37
ENDBRANCH  34  35
ENDBRANCH  33  34
ENDBRANCH   1  33
TORSDOF 21
ENDMDL
