MODEL 1
REMARK VINA RESULT:     -10.7      0.000      0.000
REMARK SMILES CCOC(=O)C1=NN(c2ccc(OC(F)(F)F)cc2)[C@@](C)(C(=O)OCCOCCOC(=O)c2ccc(-c3c4nc(c(-c5c(F)cc(S(=O)(=O)[O-])cc5F)c5ccc([nH]5)c(-c5c(F)cc(S(=O)(=O)[O-])cc5F)c5nc(c(-c6c(F)cc(S(=O)(=O)[O-])cc6F)c6ccc3[nH]6)C=C5)C=C4)cc2)C1
REMARK SMILES IDX 27 1 26 2 25 3 24 4 22 5 23 6 20 7 6 8 7 9 99 10 8 11 21 12
REMARK SMILES IDX 4 13 5 14 3 15 2 16 1 17 9 18 10 19 19 20 11 21 18 22 12 23
REMARK SMILES IDX 13 24 14 25 15 26 16 27 17 28 28 29 29 30 30 31 31 32 32 33
REMARK SMILES IDX 33 34 34 35 98 36 35 37 97 38 36 39 37 40 38 41 91 42 39 43
REMARK SMILES IDX 96 44 90 45 92 46 40 47 95 48 89 49 88 50 41 52 75 53 54 54
REMARK SMILES IDX 74 55 55 56 58 57 73 58 93 59 56 60 57 61 72 63 94 64 59 65
REMARK SMILES IDX 42 66 43 67 52 68 44 69 45 70 51 71 53 72 46 73 47 74 48 75
REMARK SMILES IDX 49 76 50 77 76 78 77 79 86 80 78 81 79 82 85 83 87 84 80 85
REMARK SMILES IDX 81 86 82 87 83 88 84 89 60 90 61 91 70 92 62 93 63 94 69 95
REMARK SMILES IDX 71 96 64 97 65 98 66 99 67 100 68 101
REMARK H PARENT 92 51 58 62
REMARK Flexibility Score: inf
ROOT
ATOM      1  O   UNL A   1      37.109  22.566  25.026  1.00  0.00    -0.374 OA
ENDROOT
BRANCH   1   2
ATOM      2  C   UNL A   1      35.729  22.617  24.669  1.00  0.00     0.202 C 
BRANCH   2   3
ATOM      3  C   UNL A   1      35.230  23.916  24.028  1.00  0.00     0.261 C 
BRANCH   3   4
ATOM      4  O   UNL A   1      33.963  24.349  24.558  1.00  0.00    -0.461 OA
BRANCH   4   5
ATOM      5  C   UNL A   1      32.985  24.557  23.637  1.00  0.00     0.334 C 
ATOM      6  O   UNL A   1      33.074  24.217  22.458  1.00  0.00    -0.249 OA
BRANCH   5   7
ATOM      7  C   UNL A   1      31.741  25.301  24.165  1.00  0.00     0.163 C 
ATOM      8  C   UNL A   1      30.865  24.087  25.916  1.00  0.00     0.149 C 
ATOM      9  N   UNL A   1      31.504  25.045  26.513  1.00  0.00    -0.169 NA
ATOM     10  C   UNL A   1      30.664  24.232  24.448  1.00  0.00     0.108 C 
ATOM     11  N   UNL A   1      31.900  25.905  25.515  1.00  0.00    -0.248 N 
ATOM     12  C   UNL A   1      31.295  26.238  23.051  1.00  0.00     0.050 C 
BRANCH   8  13
ATOM     13  C   UNL A   1      30.347  22.871  26.622  1.00  0.00     0.354 C 
ATOM     14  O   UNL A   1      29.706  22.971  27.655  1.00  0.00    -0.245 OA
BRANCH  13  15
ATOM     15  O   UNL A   1      30.709  21.751  25.974  1.00  0.00    -0.461 OA
BRANCH  15  16
ATOM     16  C   UNL A   1      32.118  21.625  25.733  1.00  0.00     0.230 C 
ATOM     17  C   UNL A   1      32.422  20.360  24.950  1.00  0.00     0.049 C 
ENDBRANCH  15  16
ENDBRANCH  13  15
ENDBRANCH   8  13
BRANCH  11  18
ATOM     18  C   UNL A   1      32.339  27.169  25.883  1.00  0.00     0.061 A 
ATOM     19  C   UNL A   1      31.640  27.920  26.841  1.00  0.00     0.032 A 
ATOM     20  C   UNL A   1      33.422  27.808  25.270  1.00  0.00     0.032 A 
ATOM     21  C   UNL A   1      32.046  29.211  27.209  1.00  0.00     0.049 A 
ATOM     22  C   UNL A   1      33.833  29.101  25.627  1.00  0.00     0.049 A 
ATOM     23  C   UNL A   1      33.159  29.805  26.616  1.00  0.00     0.129 A 
BRANCH  23  24
ATOM     24  O   UNL A   1      33.463  31.057  27.067  1.00  0.00    -0.406 OA
BRANCH  24  25
ATOM     25  C   UNL A   1      34.534  31.176  27.989  1.00  0.00     0.573 C 
ATOM     26  F   UNL A   1      34.132  31.743  29.146  1.00  0.00    -0.132 F 
ATOM     27  F   UNL A   1      35.078  29.965  28.253  1.00  0.00    -0.132 F 
ATOM     28  F   UNL A   1      35.497  31.952  27.447  1.00  0.00    -0.132 F 
ENDBRANCH  24  25
ENDBRANCH  23  24
ENDBRANCH  11  18
ENDBRANCH   5   7
ENDBRANCH   4   5
ENDBRANCH   3   4
ENDBRANCH   2   3
ENDBRANCH   1   2
BRANCH   1  29
ATOM     29  C   UNL A   1      37.492  23.283  26.200  1.00  0.00     0.202 C 
BRANCH  29  30
ATOM     30  C   UNL A   1      38.786  24.101  26.129  1.00  0.00     0.261 C 
BRANCH  30  31
ATOM     31  O   UNL A   1      39.822  23.546  26.958  1.00  0.00    -0.460 OA
BRANCH  31  32
ATOM     32  C   UNL A   1      40.927  24.317  27.091  1.00  0.00     0.338 C 
ATOM     33  O   UNL A   1      41.992  24.184  26.509  1.00  0.00    -0.246 OA
BRANCH  32  34
ATOM     34  C   UNL A   1      40.616  25.500  27.919  1.00  0.00     0.060 A 
ATOM     35  C   UNL A   1      41.486  26.595  27.831  1.00  0.00     0.016 A 
ATOM     36  C   UNL A   1      39.533  25.524  28.801  1.00  0.00     0.016 A 
ATOM     37  C   UNL A   1      41.306  27.698  28.662  1.00  0.00     0.010 A 
ATOM     38  C   UNL A   1      39.361  26.628  29.642  1.00  0.00     0.010 A 
ATOM     39  C   UNL A   1      40.267  27.704  29.600  1.00  0.00    -0.014 A 
BRANCH  39  40
ATOM     40  C   UNL A   1      40.225  28.763  30.638  1.00  0.00     0.031 A 
ATOM     41  C   UNL A   1      41.200  28.693  31.784  1.00  0.00     0.074 A 
ATOM     42  C   UNL A   1      39.362  29.791  30.544  1.00  0.00     0.049 A 
ATOM     43  N   UNL A   1      41.314  29.476  32.825  1.00  0.00    -0.248 NA
ATOM     44  C   UNL A   1      42.181  27.595  31.746  1.00  0.00     0.031 C 
ATOM     45  C   UNL A   1      38.410  29.997  29.454  1.00  0.00     0.029 A 
ATOM     46  N   UNL A   1      39.145  30.853  31.385  1.00  0.00    -0.354 N 
ATOM     47  C   UNL A   1      42.377  28.970  33.563  1.00  0.00     0.074 A 
ATOM     48  C   UNL A   1      42.856  27.796  32.868  1.00  0.00     0.031 C 
ATOM     49  C   UNL A   1      37.704  31.115  29.698  1.00  0.00     0.029 A 
ATOM     50  C   UNL A   1      38.126  31.682  30.977  1.00  0.00     0.049 A 
ATOM     51  H   UNL A   1      39.670  31.008  32.204  1.00  0.00     0.167 HD
ATOM     52  C   UNL A   1      42.915  29.451  34.709  1.00  0.00     0.037 A 
ATOM     53  C   UNL A   1      37.584  32.757  31.583  1.00  0.00     0.037 A 
ATOM     54  C   UNL A   1      42.431  30.615  35.402  1.00  0.00     0.049 A 
ATOM     55  C   UNL A   1      38.128  33.207  32.914  1.00  0.00     0.074 A 
ATOM     56  C   UNL A   1      42.901  31.176  36.576  1.00  0.00     0.029 A 
ATOM     57  N   UNL A   1      41.362  31.395  34.985  1.00  0.00    -0.354 N 
ATOM     58  N   UNL A   1      39.135  32.721  33.601  1.00  0.00    -0.248 NA
ATOM     59  C   UNL A   1      37.458  34.347  33.559  1.00  0.00     0.031 C 
ATOM     60  C   UNL A   1      42.091  32.273  36.890  1.00  0.00     0.029 A 
ATOM     61  C   UNL A   1      41.143  32.420  35.889  1.00  0.00     0.049 A 
ATOM     62  H   UNL A   1      40.838  31.242  34.166  1.00  0.00     0.167 HD
ATOM     63  C   UNL A   1      39.233  33.510  34.743  1.00  0.00     0.074 A 
ATOM     64  C   UNL A   1      38.191  34.510  34.652  1.00  0.00     0.031 C 
ATOM     65  C   UNL A   1      40.107  33.415  35.775  1.00  0.00     0.037 A 
BRANCH  52  66
ATOM     66  C   UNL A   1      44.081  28.707  35.295  1.00  0.00     0.058 A 
ATOM     67  C   UNL A   1      43.896  27.664  36.217  1.00  0.00     0.135 A 
ATOM     68  C   UNL A   1      45.394  29.010  34.903  1.00  0.00     0.135 A 
ATOM     69  F   UNL A   1      42.662  27.346  36.639  1.00  0.00    -0.206 F 
ATOM     70  C   UNL A   1      44.975  26.960  36.744  1.00  0.00     0.059 A 
ATOM     71  C   UNL A   1      46.487  28.304  35.400  1.00  0.00     0.059 A 
ATOM     72  F   UNL A   1      45.627  30.001  34.028  1.00  0.00    -0.206 F 
ATOM     73  C   UNL A   1      46.267  27.287  36.328  1.00  0.00     0.060 A 
BRANCH  73  74
ATOM     74  S   UNL A   1      47.654  26.357  37.012  1.00  0.00     0.124 S 
ATOM     75  O   UNL A   1      48.716  26.678  36.062  1.00  0.00    -0.237 OA
ATOM     76  O   UNL A   1      47.797  26.940  38.342  1.00  0.00    -0.237 OA
ATOM     77  O   UNL A   1      47.185  24.976  36.984  1.00  0.00    -0.744 OA
ENDBRANCH  73  74
ENDBRANCH  52  66
BRANCH  53  78
ATOM     78  C   UNL A   1      36.438  33.471  30.957  1.00  0.00     0.058 A 
ATOM     79  C   UNL A   1      36.598  34.191  29.764  1.00  0.00     0.135 A 
ATOM     80  C   UNL A   1      35.169  33.470  31.554  1.00  0.00     0.135 A 
ATOM     81  F   UNL A   1      37.797  34.233  29.161  1.00  0.00    -0.206 F 
ATOM     82  C   UNL A   1      35.546  34.902  29.195  1.00  0.00     0.059 A 
ATOM     83  C   UNL A   1      34.095  34.154  30.992  1.00  0.00     0.059 A 
ATOM     84  F   UNL A   1      34.960  32.790  32.693  1.00  0.00    -0.206 F 
ATOM     85  C   UNL A   1      34.297  34.878  29.820  1.00  0.00     0.060 A 
BRANCH  85  86
ATOM     86  S   UNL A   1      32.929  35.783  29.062  1.00  0.00     0.124 S 
ATOM     87  O   UNL A   1      33.627  36.900  28.437  1.00  0.00    -0.237 OA
ATOM     88  O   UNL A   1      32.368  34.790  28.152  1.00  0.00    -0.237 OA
ATOM     89  O   UNL A   1      32.083  36.124  30.202  1.00  0.00    -0.744 OA
ENDBRANCH  85  86
ENDBRANCH  53  78
BRANCH  65  90
ATOM     90  C   UNL A   1      40.000  34.432  36.877  1.00  0.00     0.058 A 
ATOM     91  C   UNL A   1      40.774  35.601  36.875  1.00  0.00     0.135 A 
ATOM     92  C   UNL A   1      39.056  34.270  37.905  1.00  0.00     0.135 A 
ATOM     93  F   UNL A   1      41.697  35.798  35.918  1.00  0.00    -0.206 F 
ATOM     94  C   UNL A   1      40.625  36.572  37.858  1.00  0.00     0.059 A 
ATOM     95  C   UNL A   1      38.872  35.240  38.885  1.00  0.00     0.059 A 
ATOM     96  F   UNL A   1      38.283  33.173  37.947  1.00  0.00    -0.206 F 
ATOM     97  C   UNL A   1      39.666  36.385  38.857  1.00  0.00     0.060 A 
BRANCH  97  98
ATOM     98  S   UNL A   1      39.441  37.681  40.094  1.00  0.00     0.124 S 
ATOM     99  O   UNL A   1      40.684  38.434  39.962  1.00  0.00    -0.237 OA
ATOM    100  O   UNL A   1      38.237  38.358  39.623  1.00  0.00    -0.237 OA
ATOM    101  O   UNL A   1      39.286  36.939  41.341  1.00  0.00    -0.744 OA
ENDBRANCH  97  98
ENDBRANCH  65  90
ENDBRANCH  39  40
ENDBRANCH  32  34
ENDBRANCH  31  32
ENDBRANCH  30  31
ENDBRANCH  29  30
ENDBRANCH   1  29
TORSDOF 23
ENDMDL
MODEL 2
REMARK VINA RESULT:     -10.5      6.496     11.789
REMARK SMILES CCOC(=O)C1=NN(c2ccc(OC(F)(F)F)cc2)[C@@](C)(C(=O)OCCOCCOC(=O)c2ccc(-c3c4nc(c(-c5c(F)cc(S(=O)(=O)[O-])cc5F)c5ccc([nH]5)c(-c5c(F)cc(S(=O)(=O)[O-])cc5F)c5nc(c(-c6c(F)cc(S(=O)(=O)[O-])cc6F)c6ccc3[nH]6)C=C5)C=C4)cc2)C1
REMARK SMILES IDX 27 1 26 2 25 3 24 4 22 5 23 6 20 7 6 8 7 9 99 10 8 11 21 12
REMARK SMILES IDX 4 13 5 14 3 15 2 16 1 17 9 18 10 19 19 20 11 21 18 22 12 23
REMARK SMILES IDX 13 24 14 25 15 26 16 27 17 28 28 29 29 30 30 31 31 32 32 33
REMARK SMILES IDX 33 34 34 35 98 36 35 37 97 38 36 39 37 40 38 41 91 42 39 43
REMARK SMILES IDX 96 44 90 45 92 46 40 47 95 48 89 49 88 50 41 52 75 53 54 54
REMARK SMILES IDX 74 55 55 56 58 57 73 58 93 59 56 60 57 61 72 63 94 64 59 65
REMARK SMILES IDX 42 66 43 67 52 68 44 69 45 70 51 71 53 72 46 73 47 74 48 75
REMARK SMILES IDX 49 76 50 77 76 78 77 79 86 80 78 81 79 82 85 83 87 84 80 85
REMARK SMILES IDX 81 86 82 87 83 88 84 89 60 90 61 91 70 92 62 93 63 94 69 95
REMARK SMILES IDX 71 96 64 97 65 98 66 99 67 100 68 101
REMARK H PARENT 92 51 58 62
REMARK Flexibility Score: inf
ROOT
ATOM      1  O   UNL A   1      34.066  30.859  27.529  1.00  0.00    -0.374 OA
ENDROOT
BRANCH   1   2
ATOM      2  C   UNL A   1      34.437  29.497  27.320  1.00  0.00     0.202 C 
BRANCH   2   3
ATOM      3  C   UNL A   1      33.661  28.729  26.245  1.00  0.00     0.261 C 
BRANCH   3   4
ATOM      4  O   UNL A   1      33.327  27.388  26.649  1.00  0.00    -0.461 OA
BRANCH   4   5
ATOM      5  C   UNL A   1      31.997  27.115  26.726  1.00  0.00     0.334 C 
ATOM      6  O   UNL A   1      31.270  27.511  27.636  1.00  0.00    -0.249 OA
BRANCH   5   7
ATOM      7  C   UNL A   1      31.450  26.221  25.595  1.00  0.00     0.163 C 
ATOM      8  C   UNL A   1      31.710  27.343  23.600  1.00  0.00     0.149 C 
ATOM      9  N   UNL A   1      32.691  26.495  23.590  1.00  0.00    -0.169 NA
ATOM     10  C   UNL A   1      30.661  27.139  24.637  1.00  0.00     0.108 C 
ATOM     11  N   UNL A   1      32.483  25.675  24.674  1.00  0.00    -0.248 N 
ATOM     12  C   UNL A   1      30.527  25.207  26.257  1.00  0.00     0.050 C 
BRANCH   8  13
ATOM     13  C   UNL A   1      31.599  28.493  22.646  1.00  0.00     0.354 C 
ATOM     14  O   UNL A   1      32.537  29.253  22.469  1.00  0.00    -0.245 OA
BRANCH  13  15
ATOM     15  O   UNL A   1      30.376  28.540  22.092  1.00  0.00    -0.461 OA
BRANCH  15  16
ATOM     16  C   UNL A   1      29.817  29.856  21.977  1.00  0.00     0.230 C 
ATOM     17  C   UNL A   1      28.823  30.122  23.093  1.00  0.00     0.049 C 
ENDBRANCH  15  16
ENDBRANCH  13  15
ENDBRANCH   8  13
BRANCH  11  18
ATOM     18  C   UNL A   1      33.204  24.491  24.741  1.00  0.00     0.061 A 
ATOM     19  C   UNL A   1      33.812  24.089  25.940  1.00  0.00     0.032 A 
ATOM     20  C   UNL A   1      33.455  23.687  23.624  1.00  0.00     0.032 A 
ATOM     21  C   UNL A   1      34.571  22.912  26.028  1.00  0.00     0.049 A 
ATOM     22  C   UNL A   1      34.217  22.511  23.698  1.00  0.00     0.049 A 
ATOM     23  C   UNL A   1      34.764  22.104  24.908  1.00  0.00     0.129 A 
BRANCH  23  24
ATOM     24  O   UNL A   1      35.508  20.979  25.121  1.00  0.00    -0.406 OA
BRANCH  24  25
ATOM     25  C   UNL A   1      36.913  21.084  24.953  1.00  0.00     0.573 C 
ATOM     26  F   UNL A   1      37.492  19.869  24.851  1.00  0.00    -0.132 F 
ATOM     27  F   UNL A   1      37.211  21.813  23.853  1.00  0.00    -0.132 F 
ATOM     28  F   UNL A   1      37.438  21.718  26.024  1.00  0.00    -0.132 F 
ENDBRANCH  24  25
ENDBRANCH  23  24
ENDBRANCH  11  18
ENDBRANCH   5   7
ENDBRANCH   4   5
ENDBRANCH   3   4
ENDBRANCH   2   3
ENDBRANCH   1   2
BRANCH   1  29
ATOM     29  C   UNL A   1      35.066  31.714  28.083  1.00  0.00     0.202 C 
BRANCH  29  30
ATOM     30  C   UNL A   1      34.941  32.064  29.570  1.00  0.00     0.261 C 
BRANCH  30  31
ATOM     31  O   UNL A   1      36.220  32.086  30.228  1.00  0.00    -0.460 OA
BRANCH  31  32
ATOM     32  C   UNL A   1      36.656  30.885  30.678  1.00  0.00     0.338 C 
ATOM     33  O   UNL A   1      35.984  30.005  31.193  1.00  0.00    -0.246 OA
BRANCH  32  34
ATOM     34  C   UNL A   1      38.064  30.682  30.283  1.00  0.00     0.060 A 
ATOM     35  C   UNL A   1      38.332  30.508  28.919  1.00  0.00     0.016 A 
ATOM     36  C   UNL A   1      39.094  30.610  31.224  1.00  0.00     0.016 A 
ATOM     37  C   UNL A   1      39.625  30.208  28.495  1.00  0.00     0.010 A 
ATOM     38  C   UNL A   1      40.389  30.298  30.796  1.00  0.00     0.010 A 
ATOM     39  C   UNL A   1      40.653  30.063  29.434  1.00  0.00    -0.014 A 
BRANCH  39  40
ATOM     40  C   UNL A   1      41.962  29.512  29.006  1.00  0.00     0.031 A 
ATOM     41  C   UNL A   1      43.152  30.433  28.948  1.00  0.00     0.074 A 
ATOM     42  C   UNL A   1      42.100  28.206  28.711  1.00  0.00     0.049 A 
ATOM     43  N   UNL A   1      44.375  30.184  28.557  1.00  0.00    -0.248 NA
ATOM     44  C   UNL A   1      42.932  31.819  29.394  1.00  0.00     0.031 C 
ATOM     45  C   UNL A   1      41.036  27.206  28.786  1.00  0.00     0.029 A 
ATOM     46  N   UNL A   1      43.196  27.499  28.285  1.00  0.00    -0.354 N 
ATOM     47  C   UNL A   1      45.071  31.376  28.715  1.00  0.00     0.074 A 
ATOM     48  C   UNL A   1      44.128  32.357  29.206  1.00  0.00     0.031 C 
ATOM     49  C   UNL A   1      41.530  26.015  28.408  1.00  0.00     0.029 A 
ATOM     50  C   UNL A   1      42.933  26.173  28.031  1.00  0.00     0.049 A 
ATOM     51  H   UNL A   1      44.087  27.903  28.173  1.00  0.00     0.167 HD
ATOM     52  C   UNL A   1      46.382  31.627  28.483  1.00  0.00     0.037 A 
ATOM     53  C   UNL A   1      43.730  25.210  27.527  1.00  0.00     0.037 A 
ATOM     54  C   UNL A   1      47.315  30.650  27.988  1.00  0.00     0.049 A 
ATOM     55  C   UNL A   1      45.157  25.542  27.172  1.00  0.00     0.074 A 
ATOM     56  C   UNL A   1      48.661  30.809  27.710  1.00  0.00     0.029 A 
ATOM     57  N   UNL A   1      46.997  29.333  27.690  1.00  0.00    -0.354 N 
ATOM     58  N   UNL A   1      45.803  26.674  27.327  1.00  0.00    -0.248 NA
ATOM     59  C   UNL A   1      45.962  24.469  26.568  1.00  0.00     0.031 C 
ATOM     60  C   UNL A   1      49.149  29.597  27.208  1.00  0.00     0.029 A 
ATOM     61  C   UNL A   1      48.116  28.673  27.212  1.00  0.00     0.049 A 
ATOM     62  H   UNL A   1      46.107  28.928  27.804  1.00  0.00     0.167 HD
ATOM     63  C   UNL A   1      47.094  26.440  26.862  1.00  0.00     0.074 A 
ATOM     64  C   UNL A   1      47.141  25.060  26.430  1.00  0.00     0.031 C 
ATOM     65  C   UNL A   1      48.146  27.293  26.798  1.00  0.00     0.037 A 
BRANCH  52  66
ATOM     66  C   UNL A   1      46.881  33.018  28.750  1.00  0.00     0.058 A 
ATOM     67  C   UNL A   1      47.347  33.399  30.019  1.00  0.00     0.135 A 
ATOM     68  C   UNL A   1      46.933  33.970  27.720  1.00  0.00     0.135 A 
ATOM     69  F   UNL A   1      47.301  32.533  31.043  1.00  0.00    -0.206 F 
ATOM     70  C   UNL A   1      47.829  34.682  30.261  1.00  0.00     0.059 A 
ATOM     71  C   UNL A   1      47.434  35.252  27.934  1.00  0.00     0.059 A 
ATOM     72  F   UNL A   1      46.497  33.659  26.489  1.00  0.00    -0.206 F 
ATOM     73  C   UNL A   1      47.869  35.601  29.211  1.00  0.00     0.060 A 
BRANCH  73  74
ATOM     74  S   UNL A   1      48.509  37.257  29.539  1.00  0.00     0.124 S 
ATOM     75  O   UNL A   1      49.568  36.974  30.503  1.00  0.00    -0.237 OA
ATOM     76  O   UNL A   1      48.953  37.688  28.218  1.00  0.00    -0.237 OA
ATOM     77  O   UNL A   1      47.352  37.970  30.070  1.00  0.00    -0.744 OA
ENDBRANCH  73  74
ENDBRANCH  52  66
BRANCH  53  78
ATOM     78  C   UNL A   1      43.194  23.842  27.292  1.00  0.00     0.058 A 
ATOM     79  C   UNL A   1      42.994  22.950  28.356  1.00  0.00     0.135 A 
ATOM     80  C   UNL A   1      42.899  23.390  25.997  1.00  0.00     0.135 A 
ATOM     81  F   UNL A   1      43.274  23.331  29.612  1.00  0.00    -0.206 F 
ATOM     82  C   UNL A   1      42.540  21.652  28.144  1.00  0.00     0.059 A 
ATOM     83  C   UNL A   1      42.421  22.104  25.761  1.00  0.00     0.059 A 
ATOM     84  F   UNL A   1      43.066  24.206  24.944  1.00  0.00    -0.206 F 
ATOM     85  C   UNL A   1      42.258  21.238  26.840  1.00  0.00     0.060 A 
BRANCH  85  86
ATOM     86  S   UNL A   1      41.644  19.560  26.574  1.00  0.00     0.124 S 
ATOM     87  O   UNL A   1      40.220  19.722  26.845  1.00  0.00    -0.237 OA
ATOM     88  O   UNL A   1      42.007  19.315  25.182  1.00  0.00    -0.237 OA
ATOM     89  O   UNL A   1      42.388  18.773  27.554  1.00  0.00    -0.744 OA
ENDBRANCH  85  86
ENDBRANCH  53  78
BRANCH  65  90
ATOM     90  C   UNL A   1      49.448  26.757  26.270  1.00  0.00     0.058 A 
ATOM     91  C   UNL A   1      49.867  27.010  24.956  1.00  0.00     0.135 A 
ATOM     92  C   UNL A   1      50.319  26.049  27.114  1.00  0.00     0.135 A 
ATOM     93  F   UNL A   1      49.065  27.676  24.108  1.00  0.00    -0.206 F 
ATOM     94  C   UNL A   1      51.101  26.572  24.491  1.00  0.00     0.059 A 
ATOM     95  C   UNL A   1      51.569  25.621  26.677  1.00  0.00     0.059 A 
ATOM     96  F   UNL A   1      49.970  25.788  28.384  1.00  0.00    -0.206 F 
ATOM     97  C   UNL A   1      51.949  25.882  25.361  1.00  0.00     0.060 A 
BRANCH  97  98
ATOM     98  S   UNL A   1      53.574  25.369  24.763  1.00  0.00     0.124 S 
ATOM     99  O   UNL A   1      54.448  26.330  25.427  1.00  0.00    -0.237 OA
ATOM    100  O   UNL A   1      53.664  23.994  25.241  1.00  0.00    -0.237 OA
ATOM    101  O   UNL A   1      53.465  25.515  23.315  1.00  0.00    -0.744 OA
ENDBRANCH  97  98
ENDBRANCH  65  90
ENDBRANCH  39  40
ENDBRANCH  32  34
ENDBRANCH  31  32
ENDBRANCH  30  31
ENDBRANCH  29  30
ENDBRANCH   1  29
TORSDOF 23
ENDMDL
MODEL 3
REMARK VINA RESULT:     -10.5      2.832      4.636
REMARK SMILES CCOC(=O)C1=NN(c2ccc(OC(F)(F)F)cc2)[C@@](C)(C(=O)OCCOCCOC(=O)c2ccc(-c3c4nc(c(-c5c(F)cc(S(=O)(=O)[O-])cc5F)c5ccc([nH]5)c(-c5c(F)cc(S(=O)(=O)[O-])cc5F)c5nc(c(-c6c(F)cc(S(=O)(=O)[O-])cc6F)c6ccc3[nH]6)C=C5)C=C4)cc2)C1
REMARK SMILES IDX 27 1 26 2 25 3 24 4 22 5 23 6 20 7 6 8 7 9 99 10 8 11 21 12
REMARK SMILES IDX 4 13 5 14 3 15 2 16 1 17 9 18 10 19 19 20 11 21 18 22 12 23
REMARK SMILES IDX 13 24 14 25 15 26 16 27 17 28 28 29 29 30 30 31 31 32 32 33
REMARK SMILES IDX 33 34 34 35 98 36 35 37 97 38 36 39 37 40 38 41 91 42 39 43
REMARK SMILES IDX 96 44 90 45 92 46 40 47 95 48 89 49 88 50 41 52 75 53 54 54
REMARK SMILES IDX 74 55 55 56 58 57 73 58 93 59 56 60 57 61 72 63 94 64 59 65
REMARK SMILES IDX 42 66 43 67 52 68 44 69 45 70 51 71 53 72 46 73 47 74 48 75
REMARK SMILES IDX 49 76 50 77 76 78 77 79 86 80 78 81 79 82 85 83 87 84 80 85
REMARK SMILES IDX 81 86 82 87 83 88 84 89 60 90 61 91 70 92 62 93 63 94 69 95
REMARK SMILES IDX 71 96 64 97 65 98 66 99 67 100 68 101
REMARK H PARENT 92 51 58 62
REMARK Flexibility Score: inf
ROOT
ATOM      1  O   UNL A   1      38.597  22.087  25.736  1.00  0.00    -0.374 OA
ENDROOT
BRANCH   1   2
ATOM      2  C   UNL A   1      37.558  23.024  26.011  1.00  0.00     0.202 C 
BRANCH   2   3
ATOM      3  C   UNL A   1      36.125  22.575  25.706  1.00  0.00     0.261 C 
BRANCH   3   4
ATOM      4  O   UNL A   1      35.136  23.357  26.400  1.00  0.00    -0.461 OA
BRANCH   4   5
ATOM      5  C   UNL A   1      34.423  24.217  25.626  1.00  0.00     0.334 C 
ATOM      6  O   UNL A   1      34.888  25.250  25.146  1.00  0.00    -0.249 OA
BRANCH   5   7
ATOM      7  C   UNL A   1      32.945  23.831  25.414  1.00  0.00     0.163 C 
ATOM      8  C   UNL A   1      32.245  24.730  23.412  1.00  0.00     0.149 C 
ATOM      9  N   UNL A   1      32.455  23.485  23.117  1.00  0.00    -0.169 NA
ATOM     10  C   UNL A   1      32.229  25.080  24.859  1.00  0.00     0.108 C 
ATOM     11  N   UNL A   1      32.704  22.857  24.315  1.00  0.00    -0.248 N 
ATOM     12  C   UNL A   1      32.398  23.456  26.784  1.00  0.00     0.050 C 
BRANCH   8  13
ATOM     13  C   UNL A   1      32.037  25.802  22.385  1.00  0.00     0.354 C 
ATOM     14  O   UNL A   1      32.093  25.546  21.193  1.00  0.00    -0.245 OA
BRANCH  13  15
ATOM     15  O   UNL A   1      31.822  26.991  22.971  1.00  0.00    -0.461 OA
BRANCH  15  16
ATOM     16  C   UNL A   1      30.600  27.639  22.588  1.00  0.00     0.230 C 
ATOM     17  C   UNL A   1      29.487  27.319  23.570  1.00  0.00     0.049 C 
ENDBRANCH  15  16
ENDBRANCH  13  15
ENDBRANCH   8  13
BRANCH  11  18
ATOM     18  C   UNL A   1      32.665  21.470  24.342  1.00  0.00     0.061 A 
ATOM     19  C   UNL A   1      32.970  20.767  25.518  1.00  0.00     0.032 A 
ATOM     20  C   UNL A   1      32.425  20.692  23.204  1.00  0.00     0.032 A 
ATOM     21  C   UNL A   1      32.966  19.365  25.565  1.00  0.00     0.049 A 
ATOM     22  C   UNL A   1      32.424  19.289  23.238  1.00  0.00     0.049 A 
ATOM     23  C   UNL A   1      32.675  18.615  24.426  1.00  0.00     0.129 A 
BRANCH  23  24
ATOM     24  O   UNL A   1      32.688  17.261  24.599  1.00  0.00    -0.406 OA
BRANCH  24  25
ATOM     25  C   UNL A   1      33.908  16.582  24.344  1.00  0.00     0.573 C 
ATOM     26  F   UNL A   1      34.976  17.361  24.613  1.00  0.00    -0.132 F 
ATOM     27  F   UNL A   1      33.988  15.448  25.077  1.00  0.00    -0.132 F 
ATOM     28  F   UNL A   1      33.952  16.234  23.039  1.00  0.00    -0.132 F 
ENDBRANCH  24  25
ENDBRANCH  23  24
ENDBRANCH  11  18
ENDBRANCH   5   7
ENDBRANCH   4   5
ENDBRANCH   3   4
ENDBRANCH   2   3
ENDBRANCH   1   2
BRANCH   1  29
ATOM     29  C   UNL A   1      39.674  22.033  26.673  1.00  0.00     0.202 C 
BRANCH  29  30
ATOM     30  C   UNL A   1      41.070  22.398  26.155  1.00  0.00     0.261 C 
BRANCH  30  31
ATOM     31  O   UNL A   1      41.761  23.288  27.049  1.00  0.00    -0.460 OA
BRANCH  31  32
ATOM     32  C   UNL A   1      42.081  24.495  26.525  1.00  0.00     0.338 C 
ATOM     33  O   UNL A   1      42.533  24.718  25.412  1.00  0.00    -0.246 OA
BRANCH  32  34
ATOM     34  C   UNL A   1      41.622  25.571  27.426  1.00  0.00     0.060 A 
ATOM     35  C   UNL A   1      42.407  26.730  27.497  1.00  0.00     0.016 A 
ATOM     36  C   UNL A   1      40.484  25.435  28.224  1.00  0.00     0.016 A 
ATOM     37  C   UNL A   1      42.085  27.736  28.406  1.00  0.00     0.010 A 
ATOM     38  C   UNL A   1      40.169  26.442  29.143  1.00  0.00     0.010 A 
ATOM     39  C   UNL A   1      40.987  27.580  29.261  1.00  0.00    -0.014 A 
BRANCH  39  40
ATOM     40  C   UNL A   1      40.792  28.534  30.381  1.00  0.00     0.031 A 
ATOM     41  C   UNL A   1      41.669  28.410  31.599  1.00  0.00     0.074 A 
ATOM     42  C   UNL A   1      39.877  29.517  30.301  1.00  0.00     0.049 A 
ATOM     43  N   UNL A   1      41.645  29.096  32.711  1.00  0.00    -0.248 NA
ATOM     44  C   UNL A   1      42.716  27.375  31.552  1.00  0.00     0.031 C 
ATOM     45  C   UNL A   1      39.010  29.773  29.152  1.00  0.00     0.029 A 
ATOM     46  N   UNL A   1      39.525  30.483  31.210  1.00  0.00    -0.354 N 
ATOM     47  C   UNL A   1      42.673  28.583  33.494  1.00  0.00     0.074 A 
ATOM     48  C   UNL A   1      43.281  27.507  32.743  1.00  0.00     0.031 C 
ATOM     49  C   UNL A   1      38.217  30.822  29.430  1.00  0.00     0.029 A 
ATOM     50  C   UNL A   1      38.494  31.289  30.787  1.00  0.00     0.049 A 
ATOM     51  H   UNL A   1      39.968  30.588  32.083  1.00  0.00     0.167 HD
ATOM     52  C   UNL A   1      43.081  28.983  34.722  1.00  0.00     0.037 A 
ATOM     53  C   UNL A   1      37.837  32.272  31.434  1.00  0.00     0.037 A 
ATOM     54  C   UNL A   1      42.468  30.049  35.468  1.00  0.00     0.049 A 
ATOM     55  C   UNL A   1      38.237  32.624  32.844  1.00  0.00     0.074 A 
ATOM     56  C   UNL A   1      42.801  30.522  36.725  1.00  0.00     0.029 A 
ATOM     57  N   UNL A   1      41.392  30.805  35.028  1.00  0.00    -0.354 N 
ATOM     58  N   UNL A   1      39.211  32.131  33.573  1.00  0.00    -0.248 NA
ATOM     59  C   UNL A   1      37.445  33.661  33.524  1.00  0.00     0.031 C 
ATOM     60  C   UNL A   1      41.901  31.539  37.061  1.00  0.00     0.029 A 
ATOM     61  C   UNL A   1      41.034  31.728  35.996  1.00  0.00     0.049 A 
ATOM     62  H   UNL A   1      40.949  30.701  34.155  1.00  0.00     0.167 HD
ATOM     63  C   UNL A   1      39.163  32.815  34.784  1.00  0.00     0.074 A 
ATOM     64  C   UNL A   1      38.072  33.760  34.689  1.00  0.00     0.031 C 
ATOM     65  C   UNL A   1      39.951  32.670  35.878  1.00  0.00     0.037 A 
BRANCH  52  66
ATOM     66  C   UNL A   1      44.237  28.251  35.342  1.00  0.00     0.058 A 
ATOM     67  C   UNL A   1      44.041  27.113  36.140  1.00  0.00     0.135 A 
ATOM     68  C   UNL A   1      45.557  28.667  35.105  1.00  0.00     0.135 A 
ATOM     69  F   UNL A   1      42.799  26.685  36.413  1.00  0.00    -0.206 F 
ATOM     70  C   UNL A   1      45.114  26.423  36.697  1.00  0.00     0.059 A 
ATOM     71  C   UNL A   1      46.646  27.978  35.633  1.00  0.00     0.059 A 
ATOM     72  F   UNL A   1      45.799  29.752  34.352  1.00  0.00    -0.206 F 
ATOM     73  C   UNL A   1      46.413  26.863  36.437  1.00  0.00     0.060 A 
BRANCH  73  74
ATOM     74  S   UNL A   1      47.793  25.950  37.157  1.00  0.00     0.124 S 
ATOM     75  O   UNL A   1      47.518  24.593  36.693  1.00  0.00    -0.237 OA
ATOM     76  O   UNL A   1      48.950  26.604  36.554  1.00  0.00    -0.237 OA
ATOM     77  O   UNL A   1      47.633  26.166  38.591  1.00  0.00    -0.744 OA
ENDBRANCH  73  74
ENDBRANCH  52  66
BRANCH  53  78
ATOM     78  C   UNL A   1      36.705  32.978  30.774  1.00  0.00     0.058 A 
ATOM     79  C   UNL A   1      36.935  33.973  29.813  1.00  0.00     0.135 A 
ATOM     80  C   UNL A   1      35.374  32.691  31.112  1.00  0.00     0.135 A 
ATOM     81  F   UNL A   1      38.191  34.292  29.465  1.00  0.00    -0.206 F 
ATOM     82  C   UNL A   1      35.886  34.673  29.224  1.00  0.00     0.059 A 
ATOM     83  C   UNL A   1      34.308  33.361  30.520  1.00  0.00     0.059 A 
ATOM     84  F   UNL A   1      35.099  31.742  32.021  1.00  0.00    -0.206 F 
ATOM     85  C   UNL A   1      34.575  34.360  29.587  1.00  0.00     0.060 A 
BRANCH  85  86
ATOM     86  S   UNL A   1      33.218  35.256  28.800  1.00  0.00     0.124 S 
ATOM     87  O   UNL A   1      33.936  36.299  28.076  1.00  0.00    -0.237 OA
ATOM     88  O   UNL A   1      32.598  34.220  27.980  1.00  0.00    -0.237 OA
ATOM     89  O   UNL A   1      32.416  35.710  29.933  1.00  0.00    -0.744 OA
ENDBRANCH  85  86
ENDBRANCH  53  78
BRANCH  65  90
ATOM     90  C   UNL A   1      39.688  33.573  37.052  1.00  0.00     0.058 A 
ATOM     91  C   UNL A   1      38.834  33.189  38.095  1.00  0.00     0.135 A 
ATOM     92  C   UNL A   1      40.357  34.802  37.168  1.00  0.00     0.135 A 
ATOM     93  F   UNL A   1      38.164  32.026  38.027  1.00  0.00    -0.206 F 
ATOM     94  C   UNL A   1      38.645  33.995  39.212  1.00  0.00     0.059 A 
ATOM     95  C   UNL A   1      40.202  35.614  38.287  1.00  0.00     0.059 A 
ATOM     96  F   UNL A   1      41.193  35.212  36.200  1.00  0.00    -0.206 F 
ATOM     97  C   UNL A   1      39.338  35.204  39.301  1.00  0.00     0.060 A 
BRANCH  97  98
ATOM     98  S   UNL A   1      39.129  36.215  40.784  1.00  0.00     0.124 S 
ATOM     99  O   UNL A   1      38.246  35.377  41.589  1.00  0.00    -0.237 OA
ATOM    100  O   UNL A   1      40.499  36.343  41.271  1.00  0.00    -0.237 OA
ATOM    101  O   UNL A   1      38.534  37.447  40.275  1.00  0.00    -0.744 OA
ENDBRANCH  97  98
ENDBRANCH  65  90
ENDBRANCH  39  40
ENDBRANCH  32  34
ENDBRANCH  31  32
ENDBRANCH  30  31
ENDBRANCH  29  30
ENDBRANCH   1  29
TORSDOF 23
ENDMDL
