MODEL 1
REMARK VINA RESULT:     -10.7      0.000      0.000
REMARK SMILES O=C(CCc1cccnc1)Nc1ccsc1C(=O)OCCOCCOC(=O)c1ccc(-c2c3nc(c(-c4c(F)cc(S(=O)(=O)[O-])cc4F)c4ccc([nH]4)c(-c4c(F)cc(S(=O)(=O)[O-])cc4F)c4nc(c(-c5c(F)cc(S(=O)(=O)[O-])cc5F)c5ccc2[nH]5)C=C4)C=C3)cc1
REMARK SMILES IDX 21 1 20 2 19 3 17 4 18 5 16 6 12 7 13 8 14 9 15 10 11 11
REMARK SMILES IDX 1 12 2 13 3 15 4 16 5 17 6 18 10 19 7 20 9 21 8 22 22 23
REMARK SMILES IDX 23 24 24 25 25 26 26 27 27 28 28 29 29 30 93 31 30 32 92 33
REMARK SMILES IDX 31 34 32 35 33 36 86 37 34 38 91 39 85 40 87 41 35 42 90 43
REMARK SMILES IDX 84 44 83 45 36 47 70 48 49 49 69 50 50 51 53 52 68 53 88 54
REMARK SMILES IDX 51 55 52 56 67 58 89 59 54 60 37 61 38 62 47 63 39 64 40 65
REMARK SMILES IDX 46 66 48 67 41 68 42 69 43 70 44 71 45 72 71 73 72 74 81 75
REMARK SMILES IDX 73 76 74 77 80 78 82 79 75 80 76 81 77 82 78 83 79 84 55 85
REMARK SMILES IDX 56 86 65 87 57 88 58 89 64 90 66 91 59 92 60 93 61 94 62 95
REMARK SMILES IDX 63 96
REMARK H PARENT 11 14 87 46 53 57
REMARK Flexibility Score: inf
ROOT
ATOM      1  C   UNL A   1      35.928  22.932  24.153  1.00  0.00     0.202 C 
ENDROOT
BRANCH   1   2
ATOM      2  C   UNL A   1      35.079  24.200  24.049  1.00  0.00     0.261 C 
BRANCH   2   3
ATOM      3  O   UNL A   1      34.177  24.076  22.931  1.00  0.00    -0.459 OA
BRANCH   3   4
ATOM      4  C   UNL A   1      33.542  25.235  22.586  1.00  0.00     0.350 C 
ATOM      5  O   UNL A   1      33.841  25.915  21.619  1.00  0.00    -0.245 OA
BRANCH   4   6
ATOM      6  C   UNL A   1      32.395  25.441  23.457  1.00  0.00     0.136 A 
ATOM      7  C   UNL A   1      31.430  24.576  23.966  1.00  0.00     0.066 A 
ATOM      8  C   UNL A   1      30.447  25.301  24.719  1.00  0.00     0.039 A 
ATOM      9  C   UNL A   1      30.692  26.651  24.778  1.00  0.00     0.068 A 
ATOM     10  S   UNL A   1      32.108  27.071  23.941  1.00  0.00    -0.135 S 
BRANCH   7  11
ATOM     11  N   UNL A   1      31.466  23.186  23.808  1.00  0.00    -0.325 N 
ATOM     12  O   UNL A   1      31.899  22.560  25.999  1.00  0.00    -0.275 OA
ATOM     13  C   UNL A   1      31.828  22.289  24.800  1.00  0.00     0.224 C 
ATOM     14  H   UNL A   1      31.217  22.819  22.930  1.00  0.00     0.169 HD
BRANCH  13  15
ATOM     15  C   UNL A   1      32.275  20.913  24.326  1.00  0.00     0.105 C 
BRANCH  15  16
ATOM     16  C   UNL A   1      32.806  19.961  25.392  1.00  0.00     0.047 C 
BRANCH  16  17
ATOM     17  C   UNL A   1      33.013  18.530  24.971  1.00  0.00    -0.029 A 
ATOM     18  C   UNL A   1      33.558  18.156  23.740  1.00  0.00     0.007 A 
ATOM     19  C   UNL A   1      32.694  17.503  25.852  1.00  0.00     0.114 A 
ATOM     20  C   UNL A   1      33.722  16.807  23.435  1.00  0.00     0.020 A 
ATOM     21  N   UNL A   1      32.833  16.187  25.584  1.00  0.00    -0.264 NA
ATOM     22  C   UNL A   1      33.356  15.869  24.382  1.00  0.00     0.111 A 
ENDBRANCH  16  17
ENDBRANCH  15  16
ENDBRANCH  13  15
ENDBRANCH   7  11
ENDBRANCH   4   6
ENDBRANCH   3   4
ENDBRANCH   2   3
ENDBRANCH   1   2
BRANCH   1  23
ATOM     23  O   UNL A   1      36.391  22.685  25.487  1.00  0.00    -0.374 OA
BRANCH  23  24
ATOM     24  C   UNL A   1      37.805  22.749  25.681  1.00  0.00     0.202 C 
BRANCH  24  25
ATOM     25  C   UNL A   1      38.318  24.132  26.089  1.00  0.00     0.261 C 
BRANCH  25  26
ATOM     26  O   UNL A   1      39.628  24.060  26.681  1.00  0.00    -0.460 OA
BRANCH  26  27
ATOM     27  C   UNL A   1      40.444  25.108  26.405  1.00  0.00     0.338 C 
ATOM     28  O   UNL A   1      40.969  25.371  25.337  1.00  0.00    -0.246 OA
BRANCH  27  29
ATOM     29  C   UNL A   1      40.512  26.003  27.580  1.00  0.00     0.060 A 
ATOM     30  C   UNL A   1      39.511  25.888  28.552  1.00  0.00     0.016 A 
ATOM     31  C   UNL A   1      41.526  26.955  27.724  1.00  0.00     0.016 A 
ATOM     32  C   UNL A   1      39.504  26.742  29.657  1.00  0.00     0.010 A 
ATOM     33  C   UNL A   1      41.519  27.808  28.833  1.00  0.00     0.010 A 
ATOM     34  C   UNL A   1      40.494  27.724  29.792  1.00  0.00    -0.014 A 
BRANCH  34  35
ATOM     35  C   UNL A   1      40.381  28.759  30.850  1.00  0.00     0.031 A 
ATOM     36  C   UNL A   1      41.225  28.621  32.088  1.00  0.00     0.074 A 
ATOM     37  C   UNL A   1      39.531  29.795  30.729  1.00  0.00     0.049 A 
ATOM     38  N   UNL A   1      41.271  29.384  33.149  1.00  0.00    -0.248 NA
ATOM     39  C   UNL A   1      42.136  27.466  32.136  1.00  0.00     0.031 C 
ATOM     40  C   UNL A   1      38.668  30.053  29.579  1.00  0.00     0.029 A 
ATOM     41  N   UNL A   1      39.242  30.816  31.600  1.00  0.00    -0.354 N 
ATOM     42  C   UNL A   1      42.212  28.805  33.989  1.00  0.00     0.074 A 
ATOM     43  C   UNL A   1      42.684  27.604  33.333  1.00  0.00     0.031 C 
ATOM     44  C   UNL A   1      37.915  31.138  29.831  1.00  0.00     0.029 A 
ATOM     45  C   UNL A   1      38.243  31.651  31.159  1.00  0.00     0.049 A 
ATOM     46  H   UNL A   1      39.705  30.938  32.460  1.00  0.00     0.167 HD
ATOM     47  C   UNL A   1      42.658  29.240  35.191  1.00  0.00     0.037 A 
ATOM     48  C   UNL A   1      37.655  32.705  31.760  1.00  0.00     0.037 A 
ATOM     49  C   UNL A   1      42.196  30.437  35.843  1.00  0.00     0.049 A 
ATOM     50  C   UNL A   1      38.140  33.154  33.113  1.00  0.00     0.074 A 
ATOM     51  C   UNL A   1      42.626  30.988  37.037  1.00  0.00     0.029 A 
ATOM     52  N   UNL A   1      41.191  31.261  35.360  1.00  0.00    -0.354 N 
ATOM     53  N   UNL A   1      39.082  32.636  33.863  1.00  0.00    -0.248 NA
ATOM     54  C   UNL A   1      37.496  34.342  33.692  1.00  0.00     0.031 C 
ATOM     55  C   UNL A   1      41.852  32.124  37.296  1.00  0.00     0.029 A 
ATOM     56  C   UNL A   1      40.967  32.303  36.245  1.00  0.00     0.049 A 
ATOM     57  H   UNL A   1      40.708  31.126  34.513  1.00  0.00     0.167 HD
ATOM     58  C   UNL A   1      39.163  33.450  34.989  1.00  0.00     0.074 A 
ATOM     59  C   UNL A   1      38.176  34.497  34.819  1.00  0.00     0.031 C 
ATOM     60  C   UNL A   1      39.986  33.343  36.061  1.00  0.00     0.037 A 
BRANCH  47  61
ATOM     61  C   UNL A   1      43.695  28.401  35.880  1.00  0.00     0.058 A 
ATOM     62  C   UNL A   1      43.337  27.341  36.726  1.00  0.00     0.135 A 
ATOM     63  C   UNL A   1      45.061  28.664  35.694  1.00  0.00     0.135 A 
ATOM     64  F   UNL A   1      42.044  27.062  36.951  1.00  0.00    -0.206 F 
ATOM     65  C   UNL A   1      44.298  26.590  37.395  1.00  0.00     0.059 A 
ATOM     66  C   UNL A   1      46.040  27.910  36.334  1.00  0.00     0.059 A 
ATOM     67  F   UNL A   1      45.455  29.669  34.898  1.00  0.00    -0.206 F 
ATOM     68  C   UNL A   1      45.648  26.888  37.198  1.00  0.00     0.060 A 
BRANCH  68  69
ATOM     69  S   UNL A   1      46.886  25.922  38.088  1.00  0.00     0.124 S 
ATOM     70  O   UNL A   1      46.107  25.427  39.219  1.00  0.00    -0.237 OA
ATOM     71  O   UNL A   1      47.275  24.922  37.100  1.00  0.00    -0.237 OA
ATOM     72  O   UNL A   1      47.912  26.908  38.416  1.00  0.00    -0.744 OA
ENDBRANCH  68  69
ENDBRANCH  47  61
BRANCH  48  73
ATOM     73  C   UNL A   1      36.542  33.414  31.078  1.00  0.00     0.058 A 
ATOM     74  C   UNL A   1      36.783  34.290  30.011  1.00  0.00     0.135 A 
ATOM     75  C   UNL A   1      35.210  33.216  31.477  1.00  0.00     0.135 A 
ATOM     76  F   UNL A   1      38.040  34.519  29.602  1.00  0.00    -0.206 F 
ATOM     77  C   UNL A   1      35.744  34.954  29.366  1.00  0.00     0.059 A 
ATOM     78  C   UNL A   1      34.154  33.854  30.837  1.00  0.00     0.059 A 
ATOM     79  F   UNL A   1      34.929  32.378  32.487  1.00  0.00    -0.206 F 
ATOM     80  C   UNL A   1      34.432  34.727  29.785  1.00  0.00     0.060 A 
BRANCH  80  81
ATOM     81  S   UNL A   1      33.083  35.543  28.902  1.00  0.00     0.124 S 
ATOM     82  O   UNL A   1      33.808  36.502  28.079  1.00  0.00    -0.237 OA
ATOM     83  O   UNL A   1      32.462  34.429  28.192  1.00  0.00    -0.237 OA
ATOM     84  O   UNL A   1      32.277  36.113  29.979  1.00  0.00    -0.744 OA
ENDBRANCH  80  81
ENDBRANCH  48  73
BRANCH  60  85
ATOM     85  C   UNL A   1      39.880  34.396  37.128  1.00  0.00     0.058 A 
ATOM     86  C   UNL A   1      40.540  35.629  37.012  1.00  0.00     0.135 A 
ATOM     87  C   UNL A   1      39.056  34.194  38.247  1.00  0.00     0.135 A 
ATOM     88  F   UNL A   1      41.344  35.868  35.964  1.00  0.00    -0.206 F 
ATOM     89  C   UNL A   1      40.400  36.621  37.978  1.00  0.00     0.059 A 
ATOM     90  C   UNL A   1      38.884  35.181  39.214  1.00  0.00     0.059 A 
ATOM     91  F   UNL A   1      38.395  33.037  38.400  1.00  0.00    -0.206 F 
ATOM     92  C   UNL A   1      39.568  36.388  39.074  1.00  0.00     0.060 A 
BRANCH  92  93
ATOM     93  S   UNL A   1      39.357  37.698  40.300  1.00  0.00     0.124 S 
ATOM     94  O   UNL A   1      38.309  38.507  39.687  1.00  0.00    -0.237 OA
ATOM     95  O   UNL A   1      38.968  36.953  41.494  1.00  0.00    -0.237 OA
ATOM     96  O   UNL A   1      40.677  38.321  40.360  1.00  0.00    -0.744 OA
ENDBRANCH  92  93
ENDBRANCH  60  85
ENDBRANCH  34  35
ENDBRANCH  27  29
ENDBRANCH  26  27
ENDBRANCH  25  26
ENDBRANCH  24  25
ENDBRANCH  23  24
ENDBRANCH   1  23
TORSDOF 21
ENDMDL
MODEL 2
REMARK VINA RESULT:     -10.6      2.503      3.794
REMARK SMILES O=C(CCc1cccnc1)Nc1ccsc1C(=O)OCCOCCOC(=O)c1ccc(-c2c3nc(c(-c4c(F)cc(S(=O)(=O)[O-])cc4F)c4ccc([nH]4)c(-c4c(F)cc(S(=O)(=O)[O-])cc4F)c4nc(c(-c5c(F)cc(S(=O)(=O)[O-])cc5F)c5ccc2[nH]5)C=C4)C=C3)cc1
REMARK SMILES IDX 21 1 20 2 19 3 17 4 18 5 16 6 12 7 13 8 14 9 15 10 11 11
REMARK SMILES IDX 1 12 2 13 3 15 4 16 5 17 6 18 10 19 7 20 9 21 8 22 22 23
REMARK SMILES IDX 23 24 24 25 25 26 26 27 27 28 28 29 29 30 93 31 30 32 92 33
REMARK SMILES IDX 31 34 32 35 33 36 86 37 34 38 91 39 85 40 87 41 35 42 90 43
REMARK SMILES IDX 84 44 83 45 36 47 70 48 49 49 69 50 50 51 53 52 68 53 88 54
REMARK SMILES IDX 51 55 52 56 67 58 89 59 54 60 37 61 38 62 47 63 39 64 40 65
REMARK SMILES IDX 46 66 48 67 41 68 42 69 43 70 44 71 45 72 71 73 72 74 81 75
REMARK SMILES IDX 73 76 74 77 80 78 82 79 75 80 76 81 77 82 78 83 79 84 55 85
REMARK SMILES IDX 56 86 65 87 57 88 58 89 64 90 66 91 59 92 60 93 61 94 62 95
REMARK SMILES IDX 63 96
REMARK H PARENT 11 14 87 46 53 57
REMARK Flexibility Score: inf
ROOT
ATOM      1  C   UNL A   1      43.041  19.609  25.382  1.00  0.00     0.202 C 
ENDROOT
BRANCH   1   2
ATOM      2  C   UNL A   1      41.967  18.775  26.082  1.00  0.00     0.261 C 
BRANCH   2   3
ATOM      3  O   UNL A   1      41.010  19.658  26.700  1.00  0.00    -0.459 OA
BRANCH   3   4
ATOM      4  C   UNL A   1      39.861  19.838  25.984  1.00  0.00     0.350 C 
ATOM      5  O   UNL A   1      39.292  18.950  25.371  1.00  0.00    -0.245 OA
BRANCH   4   6
ATOM      6  C   UNL A   1      39.370  21.194  26.181  1.00  0.00     0.136 A 
ATOM      7  C   UNL A   1      38.258  21.873  25.694  1.00  0.00     0.066 A 
ATOM      8  C   UNL A   1      38.272  23.242  26.125  1.00  0.00     0.039 A 
ATOM      9  C   UNL A   1      39.348  23.553  26.920  1.00  0.00     0.068 A 
ATOM     10  S   UNL A   1      40.354  22.208  27.170  1.00  0.00    -0.135 S 
BRANCH   7  11
ATOM     11  N   UNL A   1      37.243  21.272  24.941  1.00  0.00    -0.325 N 
ATOM     12  O   UNL A   1      35.473  21.509  26.421  1.00  0.00    -0.275 OA
ATOM     13  C   UNL A   1      35.965  21.013  25.406  1.00  0.00     0.224 C 
ATOM     14  H   UNL A   1      37.453  21.015  24.014  1.00  0.00     0.169 HD
BRANCH  13  15
ATOM     15  C   UNL A   1      35.182  19.948  24.651  1.00  0.00     0.105 C 
BRANCH  15  16
ATOM     16  C   UNL A   1      35.747  18.532  24.680  1.00  0.00     0.047 C 
BRANCH  16  17
ATOM     17  C   UNL A   1      34.760  17.419  24.907  1.00  0.00    -0.029 A 
ATOM     18  C   UNL A   1      33.376  17.607  24.948  1.00  0.00     0.007 A 
ATOM     19  C   UNL A   1      35.217  16.113  25.043  1.00  0.00     0.114 A 
ATOM     20  C   UNL A   1      32.533  16.518  25.155  1.00  0.00     0.020 A 
ATOM     21  N   UNL A   1      34.429  15.038  25.252  1.00  0.00    -0.264 NA
ATOM     22  C   UNL A   1      33.099  15.264  25.292  1.00  0.00     0.111 A 
ENDBRANCH  16  17
ENDBRANCH  15  16
ENDBRANCH  13  15
ENDBRANCH   7  11
ENDBRANCH   4   6
ENDBRANCH   3   4
ENDBRANCH   2   3
ENDBRANCH   1   2
BRANCH   1  23
ATOM     23  O   UNL A   1      43.465  20.734  26.163  1.00  0.00    -0.374 OA
BRANCH  23  24
ATOM     24  C   UNL A   1      43.840  21.900  25.429  1.00  0.00     0.202 C 
BRANCH  24  25
ATOM     25  C   UNL A   1      44.432  23.017  26.292  1.00  0.00     0.261 C 
BRANCH  25  26
ATOM     26  O   UNL A   1      43.408  23.869  26.835  1.00  0.00    -0.460 OA
BRANCH  26  27
ATOM     27  C   UNL A   1      43.361  25.121  26.312  1.00  0.00     0.338 C 
ATOM     28  O   UNL A   1      43.619  25.450  25.167  1.00  0.00    -0.246 OA
BRANCH  27  29
ATOM     29  C   UNL A   1      42.807  26.054  27.316  1.00  0.00     0.060 A 
ATOM     30  C   UNL A   1      43.322  27.356  27.357  1.00  0.00     0.016 A 
ATOM     31  C   UNL A   1      41.814  25.661  28.219  1.00  0.00     0.016 A 
ATOM     32  C   UNL A   1      42.865  28.261  28.318  1.00  0.00     0.010 A 
ATOM     33  C   UNL A   1      41.356  26.570  29.179  1.00  0.00     0.010 A 
ATOM     34  C   UNL A   1      41.898  27.866  29.251  1.00  0.00    -0.014 A 
BRANCH  34  35
ATOM     35  C   UNL A   1      41.555  28.751  30.393  1.00  0.00     0.031 A 
ATOM     36  C   UNL A   1      42.326  28.606  31.676  1.00  0.00     0.074 A 
ATOM     37  C   UNL A   1      40.565  29.657  30.304  1.00  0.00     0.049 A 
ATOM     38  N   UNL A   1      42.181  29.247  32.807  1.00  0.00    -0.248 NA
ATOM     39  C   UNL A   1      43.399  27.599  31.687  1.00  0.00     0.031 C 
ATOM     40  C   UNL A   1      39.751  29.910  29.117  1.00  0.00     0.029 A 
ATOM     41  N   UNL A   1      40.063  30.524  31.243  1.00  0.00    -0.354 N 
ATOM     42  C   UNL A   1      43.143  28.724  33.662  1.00  0.00     0.074 A 
ATOM     43  C   UNL A   1      43.838  27.685  32.933  1.00  0.00     0.031 C 
ATOM     44  C   UNL A   1      38.824  30.837  29.411  1.00  0.00     0.029 A 
ATOM     45  C   UNL A   1      38.978  31.245  30.805  1.00  0.00     0.049 A 
ATOM     46  H   UNL A   1      40.444  30.619  32.146  1.00  0.00     0.167 HD
ATOM     47  C   UNL A   1      43.435  29.087  34.933  1.00  0.00     0.037 A 
ATOM     48  C   UNL A   1      38.196  32.129  31.454  1.00  0.00     0.037 A 
ATOM     49  C   UNL A   1      42.750  30.124  35.658  1.00  0.00     0.049 A 
ATOM     50  C   UNL A   1      38.513  32.495  32.880  1.00  0.00     0.074 A 
ATOM     51  C   UNL A   1      43.008  30.599  36.932  1.00  0.00     0.029 A 
ATOM     52  N   UNL A   1      41.664  30.839  35.177  1.00  0.00    -0.354 N 
ATOM     53  N   UNL A   1      39.472  32.043  33.652  1.00  0.00    -0.248 NA
ATOM     54  C   UNL A   1      37.655  33.505  33.517  1.00  0.00     0.031 C 
ATOM     55  C   UNL A   1      42.052  31.574  37.236  1.00  0.00     0.029 A 
ATOM     56  C   UNL A   1      41.223  31.734  36.137  1.00  0.00     0.049 A 
ATOM     57  H   UNL A   1      41.266  30.727  34.283  1.00  0.00     0.167 HD
ATOM     58  C   UNL A   1      39.350  32.733  34.854  1.00  0.00     0.074 A 
ATOM     59  C   UNL A   1      38.227  33.634  34.706  1.00  0.00     0.031 C 
ATOM     60  C   UNL A   1      40.106  32.631  35.975  1.00  0.00     0.037 A 
BRANCH  47  61
ATOM     61  C   UNL A   1      44.541  28.340  35.620  1.00  0.00     0.058 A 
ATOM     62  C   UNL A   1      44.311  27.111  36.258  1.00  0.00     0.135 A 
ATOM     63  C   UNL A   1      45.844  28.861  35.644  1.00  0.00     0.135 A 
ATOM     64  F   UNL A   1      43.079  26.580  36.279  1.00  0.00    -0.206 F 
ATOM     65  C   UNL A   1      45.329  26.440  36.928  1.00  0.00     0.059 A 
ATOM     66  C   UNL A   1      46.882  28.195  36.288  1.00  0.00     0.059 A 
ATOM     67  F   UNL A   1      46.115  30.035  35.052  1.00  0.00    -0.206 F 
ATOM     68  C   UNL A   1      46.610  26.995  36.944  1.00  0.00     0.060 A 
BRANCH  68  69
ATOM     69  S   UNL A   1      47.917  26.128  37.836  1.00  0.00     0.124 S 
ATOM     70  O   UNL A   1      48.987  27.121  37.817  1.00  0.00    -0.237 OA
ATOM     71  O   UNL A   1      47.303  25.883  39.136  1.00  0.00    -0.237 OA
ATOM     72  O   UNL A   1      48.150  24.938  37.022  1.00  0.00    -0.744 OA
ENDBRANCH  68  69
ENDBRANCH  47  61
BRANCH  48  73
ATOM     73  C   UNL A   1      37.034  32.736  30.756  1.00  0.00     0.058 A 
ATOM     74  C   UNL A   1      35.759  32.157  30.825  1.00  0.00     0.135 A 
ATOM     75  C   UNL A   1      37.177  33.919  30.013  1.00  0.00     0.135 A 
ATOM     76  F   UNL A   1      35.576  31.020  31.514  1.00  0.00    -0.206 F 
ATOM     77  C   UNL A   1      34.666  32.723  30.177  1.00  0.00     0.059 A 
ATOM     78  C   UNL A   1      36.096  34.514  29.371  1.00  0.00     0.059 A 
ATOM     79  F   UNL A   1      38.376  34.517  29.926  1.00  0.00    -0.206 F 
ATOM     80  C   UNL A   1      34.845  33.904  29.454  1.00  0.00     0.060 A 
BRANCH  80  81
ATOM     81  S   UNL A   1      33.409  34.668  28.667  1.00  0.00     0.124 S 
ATOM     82  O   UNL A   1      34.023  35.776  27.947  1.00  0.00    -0.237 OA
ATOM     83  O   UNL A   1      32.891  33.578  27.846  1.00  0.00    -0.237 OA
ATOM     84  O   UNL A   1      32.567  35.040  29.801  1.00  0.00    -0.744 OA
ENDBRANCH  80  81
ENDBRANCH  48  73
BRANCH  60  85
ATOM     85  C   UNL A   1      39.767  33.535  37.127  1.00  0.00     0.058 A 
ATOM     86  C   UNL A   1      38.815  33.172  38.092  1.00  0.00     0.135 A 
ATOM     87  C   UNL A   1      40.449  34.750  37.302  1.00  0.00     0.135 A 
ATOM     88  F   UNL A   1      38.132  32.023  37.967  1.00  0.00    -0.206 F 
ATOM     89  C   UNL A   1      38.540  33.989  39.184  1.00  0.00     0.059 A 
ATOM     90  C   UNL A   1      40.206  35.572  38.399  1.00  0.00     0.059 A 
ATOM     91  F   UNL A   1      41.376  35.139  36.413  1.00  0.00    -0.206 F 
ATOM     92  C   UNL A   1      39.242  35.187  39.330  1.00  0.00     0.060 A 
BRANCH  92  93
ATOM     93  S   UNL A   1      38.911  36.220  40.774  1.00  0.00     0.124 S 
ATOM     94  O   UNL A   1      37.833  35.480  41.423  1.00  0.00    -0.237 OA
ATOM     95  O   UNL A   1      40.194  36.211  41.469  1.00  0.00    -0.237 OA
ATOM     96  O   UNL A   1      38.529  37.503  40.191  1.00  0.00    -0.744 OA
ENDBRANCH  92  93
ENDBRANCH  60  85
ENDBRANCH  34  35
ENDBRANCH  27  29
ENDBRANCH  26  27
ENDBRANCH  25  26
ENDBRANCH  24  25
ENDBRANCH  23  24
ENDBRANCH   1  23
TORSDOF 21
ENDMDL
MODEL 3
REMARK VINA RESULT:     -10.6      3.694     10.078
REMARK SMILES O=C(CCc1cccnc1)Nc1ccsc1C(=O)OCCOCCOC(=O)c1ccc(-c2c3nc(c(-c4c(F)cc(S(=O)(=O)[O-])cc4F)c4ccc([nH]4)c(-c4c(F)cc(S(=O)(=O)[O-])cc4F)c4nc(c(-c5c(F)cc(S(=O)(=O)[O-])cc5F)c5ccc2[nH]5)C=C4)C=C3)cc1
REMARK SMILES IDX 21 1 20 2 19 3 17 4 18 5 16 6 12 7 13 8 14 9 15 10 11 11
REMARK SMILES IDX 1 12 2 13 3 15 4 16 5 17 6 18 10 19 7 20 9 21 8 22 22 23
REMARK SMILES IDX 23 24 24 25 25 26 26 27 27 28 28 29 29 30 93 31 30 32 92 33
REMARK SMILES IDX 31 34 32 35 33 36 86 37 34 38 91 39 85 40 87 41 35 42 90 43
REMARK SMILES IDX 84 44 83 45 36 47 70 48 49 49 69 50 50 51 53 52 68 53 88 54
REMARK SMILES IDX 51 55 52 56 67 58 89 59 54 60 37 61 38 62 47 63 39 64 40 65
REMARK SMILES IDX 46 66 48 67 41 68 42 69 43 70 44 71 45 72 71 73 72 74 81 75
REMARK SMILES IDX 73 76 74 77 80 78 82 79 75 80 76 81 77 82 78 83 79 84 55 85
REMARK SMILES IDX 56 86 65 87 57 88 58 89 64 90 66 91 59 92 60 93 61 94 62 95
REMARK SMILES IDX 63 96
REMARK H PARENT 11 14 87 46 53 57
REMARK Flexibility Score: inf
ROOT
ATOM      1  C   UNL A   1      31.619  27.839  26.697  1.00  0.00     0.202 C 
ENDROOT
BRANCH   1   2
ATOM      2  C   UNL A   1      31.880  26.343  26.515  1.00  0.00     0.261 C 
BRANCH   2   3
ATOM      3  O   UNL A   1      30.653  25.618  26.730  1.00  0.00    -0.459 OA
BRANCH   3   4
ATOM      4  C   UNL A   1      30.740  24.276  26.492  1.00  0.00     0.350 C 
ATOM      5  O   UNL A   1      30.465  23.418  27.314  1.00  0.00    -0.245 OA
BRANCH   4   6
ATOM      6  C   UNL A   1      31.072  24.048  25.094  1.00  0.00     0.136 A 
ATOM      7  C   UNL A   1      30.550  24.552  23.907  1.00  0.00     0.066 A 
ATOM      8  C   UNL A   1      31.180  23.936  22.774  1.00  0.00     0.039 A 
ATOM      9  C   UNL A   1      32.148  23.023  23.118  1.00  0.00     0.068 A 
ATOM     10  S   UNL A   1      32.323  22.897  24.802  1.00  0.00    -0.135 S 
BRANCH   7  11
ATOM     11  N   UNL A   1      29.588  25.567  23.846  1.00  0.00    -0.325 N 
ATOM     12  O   UNL A   1      30.823  27.204  22.762  1.00  0.00    -0.275 OA
ATOM     13  C   UNL A   1      29.830  26.856  23.403  1.00  0.00     0.224 C 
ATOM     14  H   UNL A   1      28.674  25.348  24.138  1.00  0.00     0.169 HD
BRANCH  13  15
ATOM     15  C   UNL A   1      28.837  27.917  23.857  1.00  0.00     0.105 C 
BRANCH  15  16
ATOM     16  C   UNL A   1      27.888  28.467  22.797  1.00  0.00     0.047 C 
BRANCH  16  17
ATOM     17  C   UNL A   1      28.005  29.936  22.491  1.00  0.00    -0.029 A 
ATOM     18  C   UNL A   1      28.128  30.925  23.470  1.00  0.00     0.007 A 
ATOM     19  C   UNL A   1      28.037  30.361  21.167  1.00  0.00     0.114 A 
ATOM     20  C   UNL A   1      28.239  32.262  23.098  1.00  0.00     0.020 A 
ATOM     21  N   UNL A   1      28.136  31.648  20.772  1.00  0.00    -0.264 NA
ATOM     22  C   UNL A   1      28.246  32.571  21.750  1.00  0.00     0.111 A 
ENDBRANCH  16  17
ENDBRANCH  15  16
ENDBRANCH  13  15
ENDBRANCH   7  11
ENDBRANCH   4   6
ENDBRANCH   3   4
ENDBRANCH   2   3
ENDBRANCH   1   2
BRANCH   1  23
ATOM     23  O   UNL A   1      32.041  28.615  25.568  1.00  0.00    -0.374 OA
BRANCH  23  24
ATOM     24  C   UNL A   1      31.762  30.015  25.631  1.00  0.00     0.202 C 
BRANCH  24  25
ATOM     25  C   UNL A   1      32.349  30.714  26.860  1.00  0.00     0.261 C 
BRANCH  25  26
ATOM     26  O   UNL A   1      33.782  30.590  26.907  1.00  0.00    -0.460 OA
BRANCH  26  27
ATOM     27  C   UNL A   1      34.415  31.511  27.677  1.00  0.00     0.338 C 
ATOM     28  O   UNL A   1      33.985  32.595  28.033  1.00  0.00    -0.246 OA
BRANCH  27  29
ATOM     29  C   UNL A   1      35.697  30.954  28.159  1.00  0.00     0.060 A 
ATOM     30  C   UNL A   1      35.676  29.697  28.775  1.00  0.00     0.016 A 
ATOM     31  C   UNL A   1      36.901  31.655  28.030  1.00  0.00     0.016 A 
ATOM     32  C   UNL A   1      36.854  29.148  29.289  1.00  0.00     0.010 A 
ATOM     33  C   UNL A   1      38.079  31.103  28.544  1.00  0.00     0.010 A 
ATOM     34  C   UNL A   1      38.058  29.859  29.200  1.00  0.00    -0.014 A 
BRANCH  34  35
ATOM     35  C   UNL A   1      39.265  29.376  29.915  1.00  0.00     0.031 A 
ATOM     36  C   UNL A   1      39.688  30.081  31.176  1.00  0.00     0.074 A 
ATOM     37  C   UNL A   1      39.989  28.343  29.449  1.00  0.00     0.049 A 
ATOM     38  N   UNL A   1      40.719  29.853  31.946  1.00  0.00    -0.248 NA
ATOM     39  C   UNL A   1      38.835  31.194  31.623  1.00  0.00     0.031 C 
ATOM     40  C   UNL A   1      39.684  27.566  28.251  1.00  0.00     0.029 A 
ATOM     41  N   UNL A   1      41.149  27.782  29.925  1.00  0.00    -0.354 N 
ATOM     42  C   UNL A   1      40.641  30.790  32.968  1.00  0.00     0.074 A 
ATOM     43  C   UNL A   1      39.483  31.616  32.697  1.00  0.00     0.031 C 
ATOM     44  C   UNL A   1      40.653  26.655  28.060  1.00  0.00     0.029 A 
ATOM     45  C   UNL A   1      41.648  26.783  29.122  1.00  0.00     0.049 A 
ATOM     46  H   UNL A   1      41.583  28.068  30.760  1.00  0.00     0.167 HD
ATOM     47  C   UNL A   1      41.447  30.941  34.045  1.00  0.00     0.037 A 
ATOM     48  C   UNL A   1      42.779  26.059  29.228  1.00  0.00     0.037 A 
ATOM     49  C   UNL A   1      42.594  30.118  34.320  1.00  0.00     0.049 A 
ATOM     50  C   UNL A   1      43.684  26.264  30.414  1.00  0.00     0.074 A 
ATOM     51  C   UNL A   1      43.442  30.160  35.413  1.00  0.00     0.029 A 
ATOM     52  N   UNL A   1      43.061  29.110  33.490  1.00  0.00    -0.354 N 
ATOM     53  N   UNL A   1      43.557  27.108  31.410  1.00  0.00    -0.248 NA
ATOM     54  C   UNL A   1      44.876  25.407  30.502  1.00  0.00     0.031 C 
ATOM     55  C   UNL A   1      44.447  29.204  35.223  1.00  0.00     0.029 A 
ATOM     56  C   UNL A   1      44.201  28.540  34.031  1.00  0.00     0.049 A 
ATOM     57  H   UNL A   1      42.643  28.840  32.640  1.00  0.00     0.167 HD
ATOM     58  C   UNL A   1      44.634  26.864  32.256  1.00  0.00     0.074 A 
ATOM     59  C   UNL A   1      45.402  25.792  31.656  1.00  0.00     0.031 C 
ATOM     60  C   UNL A   1      44.953  27.469  33.427  1.00  0.00     0.037 A 
BRANCH  47  61
ATOM     61  C   UNL A   1      41.115  32.052  34.998  1.00  0.00     0.058 A 
ATOM     62  C   UNL A   1      41.750  33.301  34.920  1.00  0.00     0.135 A 
ATOM     63  C   UNL A   1      40.152  31.864  36.002  1.00  0.00     0.135 A 
ATOM     64  F   UNL A   1      42.690  33.524  33.989  1.00  0.00    -0.206 F 
ATOM     65  C   UNL A   1      41.469  34.316  35.828  1.00  0.00     0.059 A 
ATOM     66  C   UNL A   1      39.838  32.874  36.906  1.00  0.00     0.059 A 
ATOM     67  F   UNL A   1      39.519  30.687  36.121  1.00  0.00    -0.206 F 
ATOM     68  C   UNL A   1      40.517  34.089  36.823  1.00  0.00     0.060 A 
BRANCH  68  69
ATOM     69  S   UNL A   1      40.176  35.405  38.011  1.00  0.00     0.124 S 
ATOM     70  O   UNL A   1      41.497  35.611  38.599  1.00  0.00    -0.237 OA
ATOM     71  O   UNL A   1      39.688  36.482  37.157  1.00  0.00    -0.237 OA
ATOM     72  O   UNL A   1      39.179  34.812  38.898  1.00  0.00    -0.744 OA
ENDBRANCH  68  69
ENDBRANCH  47  61
BRANCH  48  73
ATOM     73  C   UNL A   1      43.118  25.064  28.179  1.00  0.00     0.058 A 
ATOM     74  C   UNL A   1      43.778  25.444  27.002  1.00  0.00     0.135 A 
ATOM     75  C   UNL A   1      42.796  23.707  28.342  1.00  0.00     0.135 A 
ATOM     76  F   UNL A   1      44.096  26.731  26.797  1.00  0.00    -0.206 F 
ATOM     77  C   UNL A   1      44.102  24.516  26.017  1.00  0.00     0.059 A 
ATOM     78  C   UNL A   1      43.126  22.758  27.380  1.00  0.00     0.059 A 
ATOM     79  F   UNL A   1      42.174  23.293  29.457  1.00  0.00    -0.206 F 
ATOM     80  C   UNL A   1      43.774  23.174  26.217  1.00  0.00     0.060 A 
BRANCH  80  81
ATOM     81  S   UNL A   1      44.254  21.964  24.964  1.00  0.00     0.124 S 
ATOM     82  O   UNL A   1      45.672  21.791  25.250  1.00  0.00    -0.237 OA
ATOM     83  O   UNL A   1      43.392  20.830  25.284  1.00  0.00    -0.237 OA
ATOM     84  O   UNL A   1      43.939  22.642  23.709  1.00  0.00    -0.744 OA
ENDBRANCH  80  81
ENDBRANCH  48  73
BRANCH  60  85
ATOM     85  C   UNL A   1      46.169  26.973  34.158  1.00  0.00     0.058 A 
ATOM     86  C   UNL A   1      46.093  25.921  35.083  1.00  0.00     0.135 A 
ATOM     87  C   UNL A   1      47.435  27.515  33.882  1.00  0.00     0.135 A 
ATOM     88  F   UNL A   1      44.906  25.373  35.386  1.00  0.00    -0.206 F 
ATOM     89  C   UNL A   1      47.229  25.431  35.721  1.00  0.00     0.059 A 
ATOM     90  C   UNL A   1      48.587  27.027  34.491  1.00  0.00     0.059 A 
ATOM     91  F   UNL A   1      47.563  28.517  32.998  1.00  0.00    -0.206 F 
ATOM     92  C   UNL A   1      48.472  25.990  35.417  1.00  0.00     0.060 A 
BRANCH  92  93
ATOM     93  S   UNL A   1      49.946  25.319  36.216  1.00  0.00     0.124 S 
ATOM     94  O   UNL A   1      50.591  26.532  36.708  1.00  0.00    -0.237 OA
ATOM     95  O   UNL A   1      49.380  24.443  37.237  1.00  0.00    -0.237 OA
ATOM     96  O   UNL A   1      50.639  24.635  35.128  1.00  0.00    -0.744 OA
ENDBRANCH  92  93
ENDBRANCH  60  85
ENDBRANCH  34  35
ENDBRANCH  27  29
ENDBRANCH  26  27
ENDBRANCH  25  26
ENDBRANCH  24  25
ENDBRANCH  23  24
ENDBRANCH   1  23
TORSDOF 21
ENDMDL
