MODEL 1
REMARK VINA RESULT:     -11.5      0.000      0.000
REMARK SMILES Cc1cc(Nc2ccc(C(=O)OCCOCCOC(=O)c3ccc(-c4c5nc(c(-c6c(F)cc(S(=O)(=O)[O-])cc6F)c6ccc([nH]6)c(-c6c(F)cc(S(=O)(=O)[O-])cc6F)c6nc(c(-c7c(F)cc(S(=O)(=O)[O-])cc7F)c7ccc4[nH]7)C=C6)C=C5)cc3)cc2)nc(-n2nc(C)cc2C)n1
REMARK SMILES IDX 15 1 14 2 13 3 12 4 10 5 11 6 9 7 6 8 7 9 88 10 8 11 87 12
REMARK SMILES IDX 5 13 4 15 1 16 2 17 3 18 98 19 90 20 89 21 91 22 92 23 96 24
REMARK SMILES IDX 93 25 95 26 97 27 94 28 16 29 17 30 18 31 19 32 20 33 21 34
REMARK SMILES IDX 22 35 86 36 23 37 85 38 24 39 25 40 26 41 79 42 27 43 84 44
REMARK SMILES IDX 78 45 80 46 28 47 83 48 77 49 76 50 29 52 63 53 42 54 62 55
REMARK SMILES IDX 43 56 46 57 61 58 81 59 44 60 45 61 60 63 82 64 47 65 30 66
REMARK SMILES IDX 31 67 40 68 32 69 33 70 39 71 41 72 34 73 35 74 36 75 37 76
REMARK SMILES IDX 38 77 64 78 65 79 74 80 66 81 67 82 73 83 75 84 68 85 69 86
REMARK SMILES IDX 70 87 71 88 72 89 48 90 49 91 58 92 50 93 51 94 57 95 59 96
REMARK SMILES IDX 52 97 53 98 54 99 55 100 56 101
REMARK H PARENT 5 14 80 51 46 62
REMARK Flexibility Score: inf
ROOT
ATOM      1  O   UNL A   1      44.154  21.453  25.668  1.00  0.00    -0.374 OA
ENDROOT
BRANCH   1   2
ATOM      2  C   UNL A   1      44.211  20.205  24.974  1.00  0.00     0.202 C 
BRANCH   2   3
ATOM      3  C   UNL A   1      43.392  19.061  25.580  1.00  0.00     0.261 C 
BRANCH   3   4
ATOM      4  O   UNL A   1      41.985  19.276  25.388  1.00  0.00    -0.460 OA
BRANCH   4   5
ATOM      5  C   UNL A   1      41.331  19.762  26.468  1.00  0.00     0.338 C 
ATOM      6  O   UNL A   1      41.770  19.866  27.607  1.00  0.00    -0.246 OA
BRANCH   5   7
ATOM      7  C   UNL A   1      40.023  20.329  26.068  1.00  0.00     0.060 A 
ATOM      8  C   UNL A   1      37.607  21.317  25.044  1.00  0.00     0.040 A 
ATOM      9  C   UNL A   1      37.921  19.961  24.915  1.00  0.00     0.027 A 
ATOM     10  C   UNL A   1      38.475  22.150  25.772  1.00  0.00     0.027 A 
ATOM     11  C   UNL A   1      39.127  19.472  25.416  1.00  0.00     0.018 A 
ATOM     12  C   UNL A   1      39.676  21.662  26.294  1.00  0.00     0.018 A 
BRANCH   8  13
ATOM     13  N   UNL A   1      36.562  21.857  24.264  1.00  0.00    -0.340 N 
ATOM     14  H   UNL A   1      36.644  21.819  23.284  1.00  0.00     0.168 HD
BRANCH  13  15
ATOM     15  C   UNL A   1      35.408  22.448  24.817  1.00  0.00     0.136 A 
ATOM     16  C   UNL A   1      33.245  22.301  27.870  1.00  0.00     0.067 C 
ATOM     17  C   UNL A   1      33.893  22.742  26.593  1.00  0.00     0.045 A 
ATOM     18  C   UNL A   1      34.959  22.045  26.056  1.00  0.00     0.070 A 
ATOM     19  N   UNL A   1      33.350  23.813  25.984  1.00  0.00    -0.216 NA
ATOM     20  C   UNL A   1      33.809  24.105  24.748  1.00  0.00     0.252 A 
ATOM     21  N   UNL A   1      34.795  23.428  24.140  1.00  0.00    -0.194 NA
BRANCH  20  22
ATOM     22  N   UNL A   1      33.233  25.214  24.041  1.00  0.00    -0.203 N 
ATOM     23  N   UNL A   1      33.915  26.386  23.872  1.00  0.00    -0.170 NA
ATOM     24  C   UNL A   1      31.978  25.272  23.450  1.00  0.00     0.045 A 
ATOM     25  C   UNL A   1      33.152  27.111  23.050  1.00  0.00     0.060 A 
ATOM     26  C   UNL A   1      31.924  26.474  22.778  1.00  0.00     0.049 A 
ATOM     27  C   UNL A   1      30.933  24.241  23.658  1.00  0.00     0.067 C 
ATOM     28  C   UNL A   1      33.629  28.423  22.550  1.00  0.00     0.069 C 
ENDBRANCH  20  22
ENDBRANCH  13  15
ENDBRANCH   8  13
ENDBRANCH   5   7
ENDBRANCH   4   5
ENDBRANCH   3   4
ENDBRANCH   2   3
ENDBRANCH   1   2
BRANCH   1  29
ATOM     29  C   UNL A   1      43.448  22.516  25.027  1.00  0.00     0.202 C 
BRANCH  29  30
ATOM     30  C   UNL A   1      43.413  23.856  25.771  1.00  0.00     0.261 C 
BRANCH  30  31
ATOM     31  O   UNL A   1      42.070  24.253  26.093  1.00  0.00    -0.460 OA
BRANCH  31  32
ATOM     32  C   UNL A   1      41.841  25.583  25.990  1.00  0.00     0.338 C 
ATOM     33  O   UNL A   1      41.500  26.191  24.983  1.00  0.00    -0.246 OA
BRANCH  32  34
ATOM     34  C   UNL A   1      41.892  26.224  27.318  1.00  0.00     0.060 A 
ATOM     35  C   UNL A   1      40.887  25.874  28.228  1.00  0.00     0.016 A 
ATOM     36  C   UNL A   1      42.834  27.204  27.642  1.00  0.00     0.016 A 
ATOM     37  C   UNL A   1      40.765  26.565  29.429  1.00  0.00     0.010 A 
ATOM     38  C   UNL A   1      42.708  27.899  28.851  1.00  0.00     0.010 A 
ATOM     39  C   UNL A   1      41.639  27.619  29.723  1.00  0.00    -0.014 A 
BRANCH  39  40
ATOM     40  C   UNL A   1      41.295  28.536  30.838  1.00  0.00     0.031 A 
ATOM     41  C   UNL A   1      42.158  28.528  32.073  1.00  0.00     0.074 A 
ATOM     42  C   UNL A   1      40.288  29.419  30.720  1.00  0.00     0.049 A 
ATOM     43  N   UNL A   1      42.101  29.295  33.131  1.00  0.00    -0.248 NA
ATOM     44  C   UNL A   1      43.231  27.520  32.120  1.00  0.00     0.031 C 
ATOM     45  C   UNL A   1      39.407  29.547  29.561  1.00  0.00     0.029 A 
ATOM     46  N   UNL A   1      39.850  30.389  31.586  1.00  0.00    -0.354 N 
ATOM     47  C   UNL A   1      43.122  28.861  33.969  1.00  0.00     0.074 A 
ATOM     48  C   UNL A   1      43.760  27.741  33.313  1.00  0.00     0.031 C 
ATOM     49  C   UNL A   1      38.539  30.550  29.782  1.00  0.00     0.029 A 
ATOM     50  C   UNL A   1      38.793  31.123  31.103  1.00  0.00     0.049 A 
ATOM     51  H   UNL A   1      40.255  30.546  32.470  1.00  0.00     0.167 HD
ATOM     52  C   UNL A   1      43.504  29.357  35.170  1.00  0.00     0.037 A 
ATOM     53  C   UNL A   1      38.112  32.141  31.664  1.00  0.00     0.037 A 
ATOM     54  C   UNL A   1      42.874  30.478  35.817  1.00  0.00     0.049 A 
ATOM     55  C   UNL A   1      38.528  32.649  33.021  1.00  0.00     0.074 A 
ATOM     56  C   UNL A   1      43.202  31.076  37.021  1.00  0.00     0.029 A 
ATOM     57  N   UNL A   1      41.779  31.167  35.314  1.00  0.00    -0.354 N 
ATOM     58  N   UNL A   1      39.516  32.252  33.786  1.00  0.00    -0.248 NA
ATOM     59  C   UNL A   1      37.738  33.753  33.584  1.00  0.00     0.031 C 
ATOM     60  C   UNL A   1      42.278  32.099  37.267  1.00  0.00     0.029 A 
ATOM     61  C   UNL A   1      41.404  32.169  36.195  1.00  0.00     0.049 A 
ATOM     62  H   UNL A   1      41.335  30.972  34.458  1.00  0.00     0.167 HD
ATOM     63  C   UNL A   1      39.491  33.081  34.904  1.00  0.00     0.074 A 
ATOM     64  C   UNL A   1      38.389  34.002  34.712  1.00  0.00     0.031 C 
ATOM     65  C   UNL A   1      40.310  33.084  35.987  1.00  0.00     0.037 A 
BRANCH  52  66
ATOM     66  C   UNL A   1      44.638  28.663  35.875  1.00  0.00     0.058 A 
ATOM     67  C   UNL A   1      45.977  29.033  35.669  1.00  0.00     0.135 A 
ATOM     68  C   UNL A   1      44.379  27.613  36.771  1.00  0.00     0.135 A 
ATOM     69  F   UNL A   1      46.282  30.018  34.810  1.00  0.00    -0.206 F 
ATOM     70  C   UNL A   1      47.021  28.359  36.295  1.00  0.00     0.059 A 
ATOM     71  C   UNL A   1      45.406  26.943  37.427  1.00  0.00     0.059 A 
ATOM     72  F   UNL A   1      43.117  27.220  37.004  1.00  0.00    -0.206 F 
ATOM     73  C   UNL A   1      46.726  27.310  37.167  1.00  0.00     0.060 A 
BRANCH  73  74
ATOM     74  S   UNL A   1      48.089  26.428  37.956  1.00  0.00     0.124 S 
ATOM     75  O   UNL A   1      48.690  25.743  36.816  1.00  0.00    -0.237 OA
ATOM     76  O   UNL A   1      48.876  27.514  38.530  1.00  0.00    -0.237 OA
ATOM     77  O   UNL A   1      47.420  25.564  38.924  1.00  0.00    -0.744 OA
ENDBRANCH  73  74
ENDBRANCH  52  66
BRANCH  53  78
ATOM     78  C   UNL A   1      36.983  32.772  30.931  1.00  0.00     0.058 A 
ATOM     79  C   UNL A   1      37.212  33.748  29.951  1.00  0.00     0.135 A 
ATOM     80  C   UNL A   1      35.653  32.407  31.193  1.00  0.00     0.135 A 
ATOM     81  F   UNL A   1      38.466  34.137  29.672  1.00  0.00    -0.206 F 
ATOM     82  C   UNL A   1      36.164  34.349  29.263  1.00  0.00     0.059 A 
ATOM     83  C   UNL A   1      34.589  32.978  30.502  1.00  0.00     0.059 A 
ATOM     84  F   UNL A   1      35.381  31.471  32.115  1.00  0.00    -0.206 F 
ATOM     85  C   UNL A   1      34.854  33.956  29.544  1.00  0.00     0.060 A 
BRANCH  85  86
ATOM     86  S   UNL A   1      33.503  34.704  28.607  1.00  0.00     0.124 S 
ATOM     87  O   UNL A   1      33.155  33.629  27.685  1.00  0.00    -0.237 OA
ATOM     88  O   UNL A   1      32.526  34.990  29.654  1.00  0.00    -0.237 OA
ATOM     89  O   UNL A   1      34.125  35.879  28.004  1.00  0.00    -0.744 OA
ENDBRANCH  85  86
ENDBRANCH  53  78
BRANCH  65  90
ATOM     90  C   UNL A   1      40.074  34.145  37.026  1.00  0.00     0.058 A 
ATOM     91  C   UNL A   1      40.689  35.404  36.954  1.00  0.00     0.135 A 
ATOM     92  C   UNL A   1      39.192  33.906  38.093  1.00  0.00     0.135 A 
ATOM     93  F   UNL A   1      41.542  35.683  35.956  1.00  0.00    -0.206 F 
ATOM     94  C   UNL A   1      40.467  36.377  37.923  1.00  0.00     0.059 A 
ATOM     95  C   UNL A   1      38.935  34.875  39.059  1.00  0.00     0.059 A 
ATOM     96  F   UNL A   1      38.565  32.724  38.202  1.00  0.00    -0.206 F 
ATOM     97  C   UNL A   1      39.591  36.101  38.975  1.00  0.00     0.060 A 
BRANCH  97  98
ATOM     98  S   UNL A   1      39.303  37.374  40.223  1.00  0.00     0.124 S 
ATOM     99  O   UNL A   1      40.656  37.864  40.459  1.00  0.00    -0.237 OA
ATOM    100  O   UNL A   1      38.405  38.295  39.532  1.00  0.00    -0.237 OA
ATOM    101  O   UNL A   1      38.700  36.634  41.329  1.00  0.00    -0.744 OA
ENDBRANCH  97  98
ENDBRANCH  65  90
ENDBRANCH  39  40
ENDBRANCH  32  34
ENDBRANCH  31  32
ENDBRANCH  30  31
ENDBRANCH  29  30
ENDBRANCH   1  29
TORSDOF 20
ENDMDL
MODEL 2
REMARK VINA RESULT:     -11.4      2.163      8.908
REMARK SMILES Cc1cc(Nc2ccc(C(=O)OCCOCCOC(=O)c3ccc(-c4c5nc(c(-c6c(F)cc(S(=O)(=O)[O-])cc6F)c6ccc([nH]6)c(-c6c(F)cc(S(=O)(=O)[O-])cc6F)c6nc(c(-c7c(F)cc(S(=O)(=O)[O-])cc7F)c7ccc4[nH]7)C=C6)C=C5)cc3)cc2)nc(-n2nc(C)cc2C)n1
REMARK SMILES IDX 15 1 14 2 13 3 12 4 10 5 11 6 9 7 6 8 7 9 88 10 8 11 87 12
REMARK SMILES IDX 5 13 4 15 1 16 2 17 3 18 98 19 90 20 89 21 91 22 92 23 96 24
REMARK SMILES IDX 93 25 95 26 97 27 94 28 16 29 17 30 18 31 19 32 20 33 21 34
REMARK SMILES IDX 22 35 86 36 23 37 85 38 24 39 25 40 26 41 79 42 27 43 84 44
REMARK SMILES IDX 78 45 80 46 28 47 83 48 77 49 76 50 29 52 63 53 42 54 62 55
REMARK SMILES IDX 43 56 46 57 61 58 81 59 44 60 45 61 60 63 82 64 47 65 30 66
REMARK SMILES IDX 31 67 40 68 32 69 33 70 39 71 41 72 34 73 35 74 36 75 37 76
REMARK SMILES IDX 38 77 64 78 65 79 74 80 66 81 67 82 73 83 75 84 68 85 69 86
REMARK SMILES IDX 70 87 71 88 72 89 48 90 49 91 58 92 50 93 51 94 57 95 59 96
REMARK SMILES IDX 52 97 53 98 54 99 55 100 56 101
REMARK H PARENT 5 14 80 51 46 62
REMARK Flexibility Score: inf
ROOT
ATOM      1  O   UNL A   1      37.527  21.905  25.649  1.00  0.00    -0.374 OA
ENDROOT
BRANCH   1   2
ATOM      2  C   UNL A   1      36.816  20.964  24.842  1.00  0.00     0.202 C 
BRANCH   2   3
ATOM      3  C   UNL A   1      35.310  20.857  25.104  1.00  0.00     0.261 C 
BRANCH   3   4
ATOM      4  O   UNL A   1      34.616  22.013  24.608  1.00  0.00    -0.460 OA
BRANCH   4   5
ATOM      5  C   UNL A   1      33.287  21.843  24.420  1.00  0.00     0.338 C 
ATOM      6  O   UNL A   1      32.582  20.974  24.918  1.00  0.00    -0.246 OA
BRANCH   5   7
ATOM      7  C   UNL A   1      32.726  22.968  23.641  1.00  0.00     0.060 A 
ATOM      8  C   UNL A   1      31.896  25.252  22.242  1.00  0.00     0.040 A 
ATOM      9  C   UNL A   1      33.119  24.649  21.936  1.00  0.00     0.027 A 
ATOM     10  C   UNL A   1      31.056  24.644  23.191  1.00  0.00     0.027 A 
ATOM     11  C   UNL A   1      33.536  23.519  22.639  1.00  0.00     0.018 A 
ATOM     12  C   UNL A   1      31.459  23.499  23.885  1.00  0.00     0.018 A 
BRANCH   8  13
ATOM     13  N   UNL A   1      31.635  26.556  21.767  1.00  0.00    -0.340 N 
ATOM     14  H   UNL A   1      31.614  26.702  20.794  1.00  0.00     0.168 HD
BRANCH  13  15
ATOM     15  C   UNL A   1      31.405  27.658  22.615  1.00  0.00     0.136 A 
ATOM     16  C   UNL A   1      28.873  30.336  23.279  1.00  0.00     0.067 C 
ATOM     17  C   UNL A   1      30.028  29.391  23.413  1.00  0.00     0.045 A 
ATOM     18  C   UNL A   1      30.249  28.397  22.479  1.00  0.00     0.070 A 
ATOM     19  N   UNL A   1      30.853  29.598  24.458  1.00  0.00    -0.216 NA
ATOM     20  C   UNL A   1      31.991  28.870  24.484  1.00  0.00     0.252 A 
ATOM     21  N   UNL A   1      32.300  27.937  23.572  1.00  0.00    -0.194 NA
BRANCH  20  22
ATOM     22  N   UNL A   1      32.922  29.083  25.557  1.00  0.00    -0.203 N 
ATOM     23  N   UNL A   1      33.210  30.338  26.014  1.00  0.00    -0.170 NA
ATOM     24  C   UNL A   1      33.627  28.116  26.259  1.00  0.00     0.045 A 
ATOM     25  C   UNL A   1      33.970  30.142  27.095  1.00  0.00     0.060 A 
ATOM     26  C   UNL A   1      34.281  28.779  27.276  1.00  0.00     0.049 A 
ATOM     27  C   UNL A   1      33.691  26.694  25.845  1.00  0.00     0.067 C 
ATOM     28  C   UNL A   1      34.393  31.293  27.930  1.00  0.00     0.069 C 
ENDBRANCH  20  22
ENDBRANCH  13  15
ENDBRANCH   8  13
ENDBRANCH   5   7
ENDBRANCH   4   5
ENDBRANCH   3   4
ENDBRANCH   2   3
ENDBRANCH   1   2
BRANCH   1  29
ATOM     29  C   UNL A   1      38.933  21.702  25.790  1.00  0.00     0.202 C 
BRANCH  29  30
ATOM     30  C   UNL A   1      39.633  22.521  26.879  1.00  0.00     0.261 C 
BRANCH  30  31
ATOM     31  O   UNL A   1      39.708  23.915  26.535  1.00  0.00    -0.460 OA
BRANCH  31  32
ATOM     32  C   UNL A   1      40.846  24.528  26.935  1.00  0.00     0.338 C 
ATOM     33  O   UNL A   1      41.985  24.278  26.559  1.00  0.00    -0.246 OA
BRANCH  32  34
ATOM     34  C   UNL A   1      40.537  25.691  27.789  1.00  0.00     0.060 A 
ATOM     35  C   UNL A   1      41.441  26.761  27.752  1.00  0.00     0.016 A 
ATOM     36  C   UNL A   1      39.452  25.709  28.669  1.00  0.00     0.016 A 
ATOM     37  C   UNL A   1      41.314  27.810  28.656  1.00  0.00     0.010 A 
ATOM     38  C   UNL A   1      39.327  26.767  29.579  1.00  0.00     0.010 A 
ATOM     39  C   UNL A   1      40.291  27.792  29.612  1.00  0.00    -0.014 A 
BRANCH  39  40
ATOM     40  C   UNL A   1      40.368  28.739  30.752  1.00  0.00     0.031 A 
ATOM     41  C   UNL A   1      39.379  29.874  30.817  1.00  0.00     0.074 A 
ATOM     42  C   UNL A   1      41.243  28.544  31.754  1.00  0.00     0.049 A 
ATOM     43  N   UNL A   1      39.203  30.769  31.754  1.00  0.00    -0.248 NA
ATOM     44  C   UNL A   1      38.466  30.017  29.671  1.00  0.00     0.031 C 
ATOM     45  C   UNL A   1      42.224  27.462  31.821  1.00  0.00     0.029 A 
ATOM     46  N   UNL A   1      41.434  29.246  32.917  1.00  0.00    -0.354 N 
ATOM     47  C   UNL A   1      38.166  31.582  31.311  1.00  0.00     0.074 A 
ATOM     48  C   UNL A   1      37.776  31.097  30.005  1.00  0.00     0.031 C 
ATOM     49  C   UNL A   1      42.906  27.564  32.975  1.00  0.00     0.029 A 
ATOM     50  C   UNL A   1      42.421  28.726  33.719  1.00  0.00     0.049 A 
ATOM     51  H   UNL A   1      40.911  30.046  33.156  1.00  0.00     0.167 HD
ATOM     52  C   UNL A   1      37.580  32.631  31.938  1.00  0.00     0.037 A 
ATOM     53  C   UNL A   1      42.879  29.141  34.916  1.00  0.00     0.037 A 
ATOM     54  C   UNL A   1      37.963  33.105  33.242  1.00  0.00     0.049 A 
ATOM     55  C   UNL A   1      42.241  30.336  35.577  1.00  0.00     0.074 A 
ATOM     56  C   UNL A   1      37.415  34.141  33.978  1.00  0.00     0.029 A 
ATOM     57  N   UNL A   1      38.997  32.578  34.003  1.00  0.00    -0.354 N 
ATOM     58  N   UNL A   1      41.239  31.074  35.162  1.00  0.00    -0.248 NA
ATOM     59  C   UNL A   1      42.792  30.747  36.876  1.00  0.00     0.031 C 
ATOM     60  C   UNL A   1      38.147  34.270  35.165  1.00  0.00     0.029 A 
ATOM     61  C   UNL A   1      39.119  33.283  35.190  1.00  0.00     0.049 A 
ATOM     62  H   UNL A   1      39.560  31.816  33.738  1.00  0.00     0.167 HD
ATOM     63  C   UNL A   1      41.015  32.013  36.164  1.00  0.00     0.074 A 
ATOM     64  C   UNL A   1      41.986  31.747  37.207  1.00  0.00     0.031 C 
ATOM     65  C   UNL A   1      40.086  33.001  36.221  1.00  0.00     0.037 A 
BRANCH  52  66
ATOM     66  C   UNL A   1      36.486  33.353  31.201  1.00  0.00     0.058 A 
ATOM     67  C   UNL A   1      35.138  33.246  31.582  1.00  0.00     0.135 A 
ATOM     68  C   UNL A   1      36.791  34.165  30.097  1.00  0.00     0.135 A 
ATOM     69  F   UNL A   1      34.788  32.469  32.619  1.00  0.00    -0.206 F 
ATOM     70  C   UNL A   1      34.129  33.886  30.870  1.00  0.00     0.059 A 
ATOM     71  C   UNL A   1      35.801  34.835  29.387  1.00  0.00     0.059 A 
ATOM     72  F   UNL A   1      38.063  34.301  29.691  1.00  0.00    -0.206 F 
ATOM     73  C   UNL A   1      34.469  34.673  29.769  1.00  0.00     0.060 A 
BRANCH  73  74
ATOM     74  S   UNL A   1      33.149  35.480  28.838  1.00  0.00     0.124 S 
ATOM     75  O   UNL A   1      32.348  36.057  29.913  1.00  0.00    -0.237 OA
ATOM     76  O   UNL A   1      33.885  36.434  28.013  1.00  0.00    -0.237 OA
ATOM     77  O   UNL A   1      32.524  34.379  28.112  1.00  0.00    -0.744 OA
ENDBRANCH  73  74
ENDBRANCH  52  66
BRANCH  53  78
ATOM     78  C   UNL A   1      43.981  28.403  35.586  1.00  0.00     0.058 A 
ATOM     79  C   UNL A   1      45.324  28.702  35.311  1.00  0.00     0.135 A 
ATOM     80  C   UNL A   1      43.715  27.388  36.519  1.00  0.00     0.135 A 
ATOM     81  F   UNL A   1      45.629  29.657  34.420  1.00  0.00    -0.206 F 
ATOM     82  C   UNL A   1      46.364  28.014  35.927  1.00  0.00     0.059 A 
ATOM     83  C   UNL A   1      44.738  26.702  37.164  1.00  0.00     0.059 A 
ATOM     84  F   UNL A   1      42.447  27.070  36.824  1.00  0.00    -0.206 F 
ATOM     85  C   UNL A   1      46.061  27.016  36.855  1.00  0.00     0.060 A 
BRANCH  85  86
ATOM     86  S   UNL A   1      47.419  26.166  37.689  1.00  0.00     0.124 S 
ATOM     87  O   UNL A   1      48.487  26.278  36.702  1.00  0.00    -0.237 OA
ATOM     88  O   UNL A   1      47.582  26.963  38.901  1.00  0.00    -0.237 OA
ATOM     89  O   UNL A   1      46.891  24.821  37.901  1.00  0.00    -0.744 OA
ENDBRANCH  85  86
ENDBRANCH  53  78
BRANCH  65  90
ATOM     90  C   UNL A   1      40.045  33.837  37.470  1.00  0.00     0.058 A 
ATOM     91  C   UNL A   1      39.228  33.503  38.561  1.00  0.00     0.135 A 
ATOM     92  C   UNL A   1      40.861  34.975  37.588  1.00  0.00     0.135 A 
ATOM     93  F   UNL A   1      38.426  32.427  38.500  1.00  0.00    -0.206 F 
ATOM     94  C   UNL A   1      39.194  34.286  39.711  1.00  0.00     0.059 A 
ATOM     95  C   UNL A   1      40.862  35.757  38.739  1.00  0.00     0.059 A 
ATOM     96  F   UNL A   1      41.673  35.332  36.580  1.00  0.00    -0.206 F 
ATOM     97  C   UNL A   1      40.013  35.414  39.788  1.00  0.00     0.060 A 
BRANCH  97  98
ATOM     98  S   UNL A   1      39.968  36.419  41.288  1.00  0.00     0.124 S 
ATOM     99  O   UNL A   1      40.236  37.751  40.755  1.00  0.00    -0.237 OA
ATOM    100  O   UNL A   1      38.612  36.194  41.778  1.00  0.00    -0.237 OA
ATOM    101  O   UNL A   1      41.029  35.846  42.111  1.00  0.00    -0.744 OA
ENDBRANCH  97  98
ENDBRANCH  65  90
ENDBRANCH  39  40
ENDBRANCH  32  34
ENDBRANCH  31  32
ENDBRANCH  30  31
ENDBRANCH  29  30
ENDBRANCH   1  29
TORSDOF 20
ENDMDL
MODEL 3
REMARK VINA RESULT:     -11.2      3.037      9.192
REMARK SMILES Cc1cc(Nc2ccc(C(=O)OCCOCCOC(=O)c3ccc(-c4c5nc(c(-c6c(F)cc(S(=O)(=O)[O-])cc6F)c6ccc([nH]6)c(-c6c(F)cc(S(=O)(=O)[O-])cc6F)c6nc(c(-c7c(F)cc(S(=O)(=O)[O-])cc7F)c7ccc4[nH]7)C=C6)C=C5)cc3)cc2)nc(-n2nc(C)cc2C)n1
REMARK SMILES IDX 15 1 14 2 13 3 12 4 10 5 11 6 9 7 6 8 7 9 88 10 8 11 87 12
REMARK SMILES IDX 5 13 4 15 1 16 2 17 3 18 98 19 90 20 89 21 91 22 92 23 96 24
REMARK SMILES IDX 93 25 95 26 97 27 94 28 16 29 17 30 18 31 19 32 20 33 21 34
REMARK SMILES IDX 22 35 86 36 23 37 85 38 24 39 25 40 26 41 79 42 27 43 84 44
REMARK SMILES IDX 78 45 80 46 28 47 83 48 77 49 76 50 29 52 63 53 42 54 62 55
REMARK SMILES IDX 43 56 46 57 61 58 81 59 44 60 45 61 60 63 82 64 47 65 30 66
REMARK SMILES IDX 31 67 40 68 32 69 33 70 39 71 41 72 34 73 35 74 36 75 37 76
REMARK SMILES IDX 38 77 64 78 65 79 74 80 66 81 67 82 73 83 75 84 68 85 69 86
REMARK SMILES IDX 70 87 71 88 72 89 48 90 49 91 58 92 50 93 51 94 57 95 59 96
REMARK SMILES IDX 52 97 53 98 54 99 55 100 56 101
REMARK H PARENT 5 14 80 51 46 62
REMARK Flexibility Score: inf
ROOT
ATOM      1  O   UNL A   1      35.693  21.114  25.727  1.00  0.00    -0.374 OA
ENDROOT
BRANCH   1   2
ATOM      2  C   UNL A   1      35.244  19.995  24.959  1.00  0.00     0.202 C 
BRANCH   2   3
ATOM      3  C   UNL A   1      33.737  19.921  24.698  1.00  0.00     0.261 C 
BRANCH   3   4
ATOM      4  O   UNL A   1      33.294  21.038  23.910  1.00  0.00    -0.460 OA
BRANCH   4   5
ATOM      5  C   UNL A   1      32.186  21.660  24.377  1.00  0.00     0.338 C 
ATOM      6  O   UNL A   1      31.551  21.370  25.383  1.00  0.00    -0.246 OA
BRANCH   5   7
ATOM      7  C   UNL A   1      31.910  22.882  23.590  1.00  0.00     0.060 A 
ATOM      8  C   UNL A   1      31.629  25.307  22.209  1.00  0.00     0.040 A 
ATOM      9  C   UNL A   1      32.766  24.519  22.017  1.00  0.00     0.027 A 
ATOM     10  C   UNL A   1      30.595  24.820  23.029  1.00  0.00     0.027 A 
ATOM     11  C   UNL A   1      32.910  23.318  22.711  1.00  0.00     0.018 A 
ATOM     12  C   UNL A   1      30.724  23.608  23.712  1.00  0.00     0.018 A 
BRANCH   8  13
ATOM     13  N   UNL A   1      31.639  26.647  21.766  1.00  0.00    -0.340 N 
ATOM     14  H   UNL A   1      31.808  26.822  20.812  1.00  0.00     0.168 HD
BRANCH  13  15
ATOM     15  C   UNL A   1      31.419  27.747  22.620  1.00  0.00     0.136 A 
ATOM     16  C   UNL A   1      28.926  30.461  23.283  1.00  0.00     0.067 C 
ATOM     17  C   UNL A   1      30.064  29.496  23.419  1.00  0.00     0.045 A 
ATOM     18  C   UNL A   1      30.277  28.505  22.480  1.00  0.00     0.070 A 
ATOM     19  N   UNL A   1      30.884  29.683  24.472  1.00  0.00    -0.216 NA
ATOM     20  C   UNL A   1      32.010  28.937  24.501  1.00  0.00     0.252 A 
ATOM     21  N   UNL A   1      32.311  28.005  23.586  1.00  0.00    -0.194 NA
BRANCH  20  22
ATOM     22  N   UNL A   1      32.936  29.128  25.583  1.00  0.00    -0.203 N 
ATOM     23  N   UNL A   1      33.239  30.374  26.052  1.00  0.00    -0.170 NA
ATOM     24  C   UNL A   1      33.622  28.145  26.283  1.00  0.00     0.045 A 
ATOM     25  C   UNL A   1      33.989  30.159  27.136  1.00  0.00     0.060 A 
ATOM     26  C   UNL A   1      34.277  28.790  27.309  1.00  0.00     0.049 A 
ATOM     27  C   UNL A   1      33.667  26.725  25.858  1.00  0.00     0.067 C 
ATOM     28  C   UNL A   1      34.423  31.297  27.984  1.00  0.00     0.069 C 
ENDBRANCH  20  22
ENDBRANCH  13  15
ENDBRANCH   8  13
ENDBRANCH   5   7
ENDBRANCH   4   5
ENDBRANCH   3   4
ENDBRANCH   2   3
ENDBRANCH   1   2
BRANCH   1  29
ATOM     29  C   UNL A   1      36.991  21.626  25.423  1.00  0.00     0.202 C 
BRANCH  29  30
ATOM     30  C   UNL A   1      37.239  23.099  25.767  1.00  0.00     0.261 C 
BRANCH  30  31
ATOM     31  O   UNL A   1      38.586  23.498  25.466  1.00  0.00    -0.460 OA
BRANCH  31  32
ATOM     32  C   UNL A   1      39.435  23.439  26.519  1.00  0.00     0.338 C 
ATOM     33  O   UNL A   1      40.195  22.520  26.797  1.00  0.00    -0.246 OA
BRANCH  32  34
ATOM     34  C   UNL A   1      39.463  24.728  27.236  1.00  0.00     0.060 A 
ATOM     35  C   UNL A   1      40.205  25.762  26.651  1.00  0.00     0.016 A 
ATOM     36  C   UNL A   1      38.863  24.905  28.486  1.00  0.00     0.016 A 
ATOM     37  C   UNL A   1      40.425  26.943  27.351  1.00  0.00     0.010 A 
ATOM     38  C   UNL A   1      39.087  26.095  29.189  1.00  0.00     0.010 A 
ATOM     39  C   UNL A   1      39.916  27.095  28.647  1.00  0.00    -0.014 A 
BRANCH  39  40
ATOM     40  C   UNL A   1      40.426  28.209  29.484  1.00  0.00     0.031 A 
ATOM     41  C   UNL A   1      39.546  29.412  29.701  1.00  0.00     0.074 A 
ATOM     42  C   UNL A   1      41.613  28.116  30.108  1.00  0.00     0.049 A 
ATOM     43  N   UNL A   1      39.745  30.461  30.457  1.00  0.00    -0.248 NA
ATOM     44  C   UNL A   1      38.269  29.434  28.968  1.00  0.00     0.031 C 
ATOM     45  C   UNL A   1      42.537  26.987  30.005  1.00  0.00     0.029 A 
ATOM     46  N   UNL A   1      42.236  28.984  30.970  1.00  0.00    -0.354 N 
ATOM     47  C   UNL A   1      38.625  31.268  30.288  1.00  0.00     0.074 A 
ATOM     48  C   UNL A   1      37.767  30.604  29.330  1.00  0.00     0.031 C 
ATOM     49  C   UNL A   1      43.605  27.226  30.785  1.00  0.00     0.029 A 
ATOM     50  C   UNL A   1      43.448  28.530  31.430  1.00  0.00     0.049 A 
ATOM     51  H   UNL A   1      41.849  29.850  31.235  1.00  0.00     0.167 HD
ATOM     52  C   UNL A   1      38.330  32.448  30.884  1.00  0.00     0.037 A 
ATOM     53  C   UNL A   1      44.327  29.100  32.276  1.00  0.00     0.037 A 
ATOM     54  C   UNL A   1      39.181  33.101  31.844  1.00  0.00     0.049 A 
ATOM     55  C   UNL A   1      43.998  30.434  32.895  1.00  0.00     0.074 A 
ATOM     56  C   UNL A   1      38.961  34.284  32.527  1.00  0.00     0.029 A 
ATOM     57  N   UNL A   1      40.421  32.629  32.251  1.00  0.00    -0.354 N 
ATOM     58  N   UNL A   1      42.920  31.169  32.752  1.00  0.00    -0.248 NA
ATOM     59  C   UNL A   1      45.002  31.011  33.799  1.00  0.00     0.031 C 
ATOM     60  C   UNL A   1      40.088  34.550  33.315  1.00  0.00     0.029 A 
ATOM     61  C   UNL A   1      40.988  33.509  33.158  1.00  0.00     0.049 A 
ATOM     62  H   UNL A   1      40.835  31.792  31.940  1.00  0.00     0.167 HD
ATOM     63  C   UNL A   1      43.100  32.275  33.577  1.00  0.00     0.074 A 
ATOM     64  C   UNL A   1      44.390  32.111  34.216  1.00  0.00     0.031 C 
ATOM     65  C   UNL A   1      42.271  33.328  33.792  1.00  0.00     0.037 A 
BRANCH  52  66
ATOM     66  C   UNL A   1      37.045  33.121  30.485  1.00  0.00     0.058 A 
ATOM     67  C   UNL A   1      36.951  33.919  29.334  1.00  0.00     0.135 A 
ATOM     68  C   UNL A   1      35.889  32.963  31.268  1.00  0.00     0.135 A 
ATOM     69  F   UNL A   1      38.029  34.118  28.559  1.00  0.00    -0.206 F 
ATOM     70  C   UNL A   1      35.768  34.569  28.995  1.00  0.00     0.059 A 
ATOM     71  C   UNL A   1      34.690  33.582  30.933  1.00  0.00     0.059 A 
ATOM     72  F   UNL A   1      35.924  32.211  32.379  1.00  0.00    -0.206 F 
ATOM     73  C   UNL A   1      34.644  34.400  29.805  1.00  0.00     0.060 A 
BRANCH  73  74
ATOM     74  S   UNL A   1      33.122  35.267  29.368  1.00  0.00     0.124 S 
ATOM     75  O   UNL A   1      33.645  36.519  28.831  1.00  0.00    -0.237 OA
ATOM     76  O   UNL A   1      32.514  34.364  28.396  1.00  0.00    -0.237 OA
ATOM     77  O   UNL A   1      32.417  35.378  30.642  1.00  0.00    -0.744 OA
ENDBRANCH  73  74
ENDBRANCH  52  66
BRANCH  53  78
ATOM     78  C   UNL A   1      45.594  28.400  32.613  1.00  0.00     0.058 A 
ATOM     79  C   UNL A   1      46.764  28.623  31.871  1.00  0.00     0.135 A 
ATOM     80  C   UNL A   1      45.663  27.499  33.688  1.00  0.00     0.135 A 
ATOM     81  F   UNL A   1      46.746  29.468  30.829  1.00  0.00    -0.206 F 
ATOM     82  C   UNL A   1      47.954  27.970  32.174  1.00  0.00     0.059 A 
ATOM     83  C   UNL A   1      46.847  26.851  34.023  1.00  0.00     0.059 A 
ATOM     84  F   UNL A   1      44.574  27.258  34.434  1.00  0.00    -0.206 F 
ATOM     85  C   UNL A   1      47.987  27.086  33.254  1.00  0.00     0.060 A 
BRANCH  85  86
ATOM     86  S   UNL A   1      49.549  26.283  33.672  1.00  0.00     0.124 S 
ATOM     87  O   UNL A   1      49.666  26.588  35.093  1.00  0.00    -0.237 OA
ATOM     88  O   UNL A   1      49.277  24.889  33.337  1.00  0.00    -0.237 OA
ATOM     89  O   UNL A   1      50.512  26.951  32.800  1.00  0.00    -0.744 OA
ENDBRANCH  85  86
ENDBRANCH  53  78
BRANCH  65  90
ATOM     90  C   UNL A   1      42.712  34.360  34.792  1.00  0.00     0.058 A 
ATOM     91  C   UNL A   1      42.366  34.274  36.149  1.00  0.00     0.135 A 
ATOM     92  C   UNL A   1      43.520  35.436  34.389  1.00  0.00     0.135 A 
ATOM     93  F   UNL A   1      41.594  33.267  36.588  1.00  0.00    -0.206 F 
ATOM     94  C   UNL A   1      42.776  35.237  37.066  1.00  0.00     0.059 A 
ATOM     95  C   UNL A   1      43.963  36.396  35.294  1.00  0.00     0.059 A 
ATOM     96  F   UNL A   1      43.892  35.559  33.105  1.00  0.00    -0.206 F 
ATOM     97  C   UNL A   1      43.572  36.297  36.627  1.00  0.00     0.060 A 
BRANCH  97  98
ATOM     98  S   UNL A   1      44.106  37.538  37.826  1.00  0.00     0.124 S 
ATOM     99  O   UNL A   1      45.276  36.892  38.413  1.00  0.00    -0.237 OA
ATOM    100  O   UNL A   1      44.378  38.696  36.981  1.00  0.00    -0.237 OA
ATOM    101  O   UNL A   1      42.952  37.673  38.711  1.00  0.00    -0.744 OA
ENDBRANCH  97  98
ENDBRANCH  65  90
ENDBRANCH  39  40
ENDBRANCH  32  34
ENDBRANCH  31  32
ENDBRANCH  30  31
ENDBRANCH  29  30
ENDBRANCH   1  29
TORSDOF 20
ENDMDL
