MODEL 1
REMARK VINA RESULT:     -11.3      0.000      0.000
REMARK SMILES CCc1nc2sc(C(=O)NCC(=O)OCCOCCOC(=O)c3ccc(-c4c5nc(c(-c6c(F)cc(S(=O)(=O)[O-])cc6F)c6ccc([nH]6)c(-c6c(F)cc(S(=O)(=O)[O-])cc6F)c6nc(c(-c7c(F)cc(S(=O)(=O)[O-])cc7F)c7ccc4[nH]7)C=C6)C=C5)cc3)c(N)c2c(C(F)(F)F)c1C
REMARK SMILES IDX 17 1 16 2 15 3 14 4 12 5 13 6 11 7 10 8 8 9 9 10 7 12 3 13
REMARK SMILES IDX 4 14 97 15 5 16 92 17 98 18 6 19 91 20 89 21 2 22 1 23 93 24
REMARK SMILES IDX 94 25 95 26 96 27 90 28 18 31 19 32 20 33 21 34 22 35 23 36
REMARK SMILES IDX 24 37 88 38 25 39 87 40 26 41 27 42 28 43 81 44 29 45 86 46
REMARK SMILES IDX 80 47 82 48 30 49 85 50 79 51 78 52 31 54 65 55 44 56 64 57
REMARK SMILES IDX 45 58 48 59 63 60 83 61 46 62 47 63 62 65 84 66 49 67 32 68
REMARK SMILES IDX 33 69 42 70 34 71 35 72 41 73 43 74 36 75 37 76 38 77 39 78
REMARK SMILES IDX 40 79 66 80 67 81 76 82 68 83 69 84 75 85 77 86 70 87 71 88
REMARK SMILES IDX 72 89 73 90 74 91 50 92 51 93 60 94 52 95 53 96 59 97 61 98
REMARK SMILES IDX 54 99 55 100 56 101 57 102 58 103
REMARK H PARENT 10 11 90 29 90 30 82 53 48 64
REMARK Flexibility Score: inf
ROOT
ATOM      1  O   UNL A   1      37.971  20.695  25.192  1.00  0.00    -0.374 OA
ENDROOT
BRANCH   1   2
ATOM      2  C   UNL A   1      36.577  20.597  24.912  1.00  0.00     0.202 C 
BRANCH   2   3
ATOM      3  C   UNL A   1      35.719  21.862  24.822  1.00  0.00     0.261 C 
BRANCH   3   4
ATOM      4  O   UNL A   1      35.529  22.324  23.474  1.00  0.00    -0.462 OA
BRANCH   4   5
ATOM      5  C   UNL A   1      34.444  23.122  23.287  1.00  0.00     0.325 C 
ATOM      6  O   UNL A   1      34.494  24.348  23.203  1.00  0.00    -0.250 OA
BRANCH   5   7
ATOM      7  C   UNL A   1      33.167  22.333  22.986  1.00  0.00     0.239 C 
BRANCH   7   8
ATOM      8  N   UNL A   1      32.373  21.863  24.100  1.00  0.00    -0.340 N 
ATOM      9  C   UNL A   1      31.539  22.526  24.970  1.00  0.00     0.264 C 
ATOM     10  O   UNL A   1      30.819  21.762  25.623  1.00  0.00    -0.268 OA
ATOM     11  H   UNL A   1      32.442  20.895  24.265  1.00  0.00     0.164 HD
BRANCH   9  12
ATOM     12  C   UNL A   1      31.511  23.982  25.144  1.00  0.00     0.118 A 
ATOM     13  C   UNL A   1      32.484  28.499  26.174  1.00  0.00     0.045 A 
ATOM     14  N   UNL A   1      32.875  27.258  26.537  1.00  0.00    -0.242 NA
ATOM     15  C   UNL A   1      31.500  28.758  25.202  1.00  0.00    -0.017 A 
ATOM     16  C   UNL A   1      32.248  26.239  25.933  1.00  0.00     0.127 A 
ATOM     17  C   UNL A   1      30.834  27.655  24.600  1.00  0.00     0.073 A 
ATOM     18  C   UNL A   1      31.122  30.151  24.770  1.00  0.00     0.047 C 
ATOM     19  S   UNL A   1      32.658  24.631  26.281  1.00  0.00    -0.108 S 
ATOM     20  C   UNL A   1      31.243  26.347  24.996  1.00  0.00     0.048 A 
ATOM     21  C   UNL A   1      30.801  25.039  24.602  1.00  0.00     0.066 A 
BRANCH  13  22
ATOM     22  C   UNL A   1      33.239  29.585  26.908  1.00  0.00     0.053 C 
ATOM     23  C   UNL A   1      34.570  29.080  27.457  1.00  0.00     0.011 C 
ENDBRANCH  13  22
BRANCH  17  24
ATOM     24  C   UNL A   1      29.740  27.806  23.562  1.00  0.00     0.417 C 
ATOM     25  F   UNL A   1      30.128  27.357  22.330  1.00  0.00    -0.166 F 
ATOM     26  F   UNL A   1      28.617  27.093  23.880  1.00  0.00    -0.166 F 
ATOM     27  F   UNL A   1      29.287  29.070  23.339  1.00  0.00    -0.166 F 
ENDBRANCH  17  24
BRANCH  21  28
ATOM     28  N   UNL A   1      29.783  24.940  23.733  1.00  0.00    -0.397 N 
ATOM     29  H   UNL A   1      29.963  24.912  22.765  1.00  0.00     0.156 HD
ATOM     30  H   UNL A   1      28.856  24.897  24.063  1.00  0.00     0.156 HD
ENDBRANCH  21  28
ENDBRANCH   9  12
ENDBRANCH   7   8
ENDBRANCH   5   7
ENDBRANCH   4   5
ENDBRANCH   3   4
ENDBRANCH   2   3
ENDBRANCH   1   2
BRANCH   1  31
ATOM     31  C   UNL A   1      38.545  21.848  25.790  1.00  0.00     0.202 C 
BRANCH  31  32
ATOM     32  C   UNL A   1      39.920  21.792  26.447  1.00  0.00     0.261 C 
BRANCH  32  33
ATOM     33  O   UNL A   1      40.456  23.062  26.772  1.00  0.00    -0.460 OA
BRANCH  33  34
ATOM     34  C   UNL A   1      41.663  23.268  26.190  1.00  0.00     0.338 C 
ATOM     35  O   UNL A   1      42.404  22.420  25.726  1.00  0.00    -0.246 OA
BRANCH  34  36
ATOM     36  C   UNL A   1      42.039  24.676  26.330  1.00  0.00     0.060 A 
ATOM     37  C   UNL A   1      43.004  24.947  27.302  1.00  0.00     0.016 A 
ATOM     38  C   UNL A   1      41.198  25.667  25.806  1.00  0.00     0.016 A 
ATOM     39  C   UNL A   1      42.939  26.154  27.952  1.00  0.00     0.010 A 
ATOM     40  C   UNL A   1      41.126  26.867  26.465  1.00  0.00     0.010 A 
ATOM     41  C   UNL A   1      41.923  27.044  27.592  1.00  0.00    -0.014 A 
BRANCH  41  42
ATOM     42  C   UNL A   1      41.744  28.226  28.399  1.00  0.00     0.031 A 
ATOM     43  C   UNL A   1      42.885  29.152  28.282  1.00  0.00     0.074 A 
ATOM     44  C   UNL A   1      40.608  28.455  29.083  1.00  0.00     0.049 A 
ATOM     45  N   UNL A   1      43.804  29.376  29.161  1.00  0.00    -0.248 NA
ATOM     46  C   UNL A   1      43.176  29.707  26.950  1.00  0.00     0.031 C 
ATOM     47  C   UNL A   1      39.348  27.709  29.046  1.00  0.00     0.029 A 
ATOM     48  N   UNL A   1      40.321  29.498  29.904  1.00  0.00    -0.354 N 
ATOM     49  C   UNL A   1      44.647  30.307  28.569  1.00  0.00     0.074 A 
ATOM     50  C   UNL A   1      44.364  30.270  27.159  1.00  0.00     0.031 C 
ATOM     51  C   UNL A   1      38.374  28.454  29.619  1.00  0.00     0.029 A 
ATOM     52  C   UNL A   1      38.965  29.660  30.172  1.00  0.00     0.049 A 
ATOM     53  H   UNL A   1      41.013  30.090  30.277  1.00  0.00     0.167 HD
ATOM     54  C   UNL A   1      45.293  31.242  29.315  1.00  0.00     0.037 A 
ATOM     55  C   UNL A   1      38.403  30.772  30.715  1.00  0.00     0.037 A 
ATOM     56  C   UNL A   1      45.305  30.879  30.710  1.00  0.00     0.049 A 
ATOM     57  C   UNL A   1      39.501  31.494  31.426  1.00  0.00     0.074 A 
ATOM     58  C   UNL A   1      45.799  29.800  31.418  1.00  0.00     0.029 A 
ATOM     59  N   UNL A   1      44.383  31.482  31.536  1.00  0.00    -0.354 N 
ATOM     60  N   UNL A   1      40.119  31.009  32.473  1.00  0.00    -0.248 NA
ATOM     61  C   UNL A   1      40.254  32.487  30.670  1.00  0.00     0.031 C 
ATOM     62  C   UNL A   1      44.817  29.531  32.415  1.00  0.00     0.029 A 
ATOM     63  C   UNL A   1      43.819  30.503  32.316  1.00  0.00     0.049 A 
ATOM     64  H   UNL A   1      44.167  32.443  31.562  1.00  0.00     0.167 HD
ATOM     65  C   UNL A   1      41.462  31.310  32.274  1.00  0.00     0.074 A 
ATOM     66  C   UNL A   1      41.474  32.270  31.170  1.00  0.00     0.031 C 
ATOM     67  C   UNL A   1      42.457  30.539  32.808  1.00  0.00     0.037 A 
BRANCH  54  68
ATOM     68  C   UNL A   1      45.564  32.644  28.834  1.00  0.00     0.058 A 
ATOM     69  C   UNL A   1      46.878  33.144  28.888  1.00  0.00     0.135 A 
ATOM     70  C   UNL A   1      44.555  33.599  28.571  1.00  0.00     0.135 A 
ATOM     71  F   UNL A   1      47.911  32.327  29.147  1.00  0.00    -0.206 F 
ATOM     72  C   UNL A   1      47.161  34.503  28.754  1.00  0.00     0.059 A 
ATOM     73  C   UNL A   1      44.821  34.946  28.372  1.00  0.00     0.059 A 
ATOM     74  F   UNL A   1      43.251  33.300  28.596  1.00  0.00    -0.206 F 
ATOM     75  C   UNL A   1      46.121  35.397  28.507  1.00  0.00     0.060 A 
BRANCH  75  76
ATOM     76  S   UNL A   1      46.466  37.160  28.437  1.00  0.00     0.124 S 
ATOM     77  O   UNL A   1      47.255  37.350  29.650  1.00  0.00    -0.237 OA
ATOM     78  O   UNL A   1      47.192  37.274  27.177  1.00  0.00    -0.237 OA
ATOM     79  O   UNL A   1      45.137  37.765  28.448  1.00  0.00    -0.744 OA
ENDBRANCH  75  76
ENDBRANCH  54  68
BRANCH  55  80
ATOM     80  C   UNL A   1      37.127  31.422  30.294  1.00  0.00     0.058 A 
ATOM     81  C   UNL A   1      36.244  32.000  31.224  1.00  0.00     0.135 A 
ATOM     82  C   UNL A   1      36.865  31.715  28.938  1.00  0.00     0.135 A 
ATOM     83  F   UNL A   1      36.432  31.809  32.539  1.00  0.00    -0.206 F 
ATOM     84  C   UNL A   1      35.183  32.834  30.836  1.00  0.00     0.059 A 
ATOM     85  C   UNL A   1      35.812  32.532  28.528  1.00  0.00     0.059 A 
ATOM     86  F   UNL A   1      37.678  31.281  27.964  1.00  0.00    -0.206 F 
ATOM     87  C   UNL A   1      34.985  33.106  29.482  1.00  0.00     0.060 A 
BRANCH  87  88
ATOM     88  S   UNL A   1      33.705  34.282  28.977  1.00  0.00     0.124 S 
ATOM     89  O   UNL A   1      32.946  33.504  28.003  1.00  0.00    -0.237 OA
ATOM     90  O   UNL A   1      33.027  34.560  30.238  1.00  0.00    -0.237 OA
ATOM     91  O   UNL A   1      34.468  35.398  28.421  1.00  0.00    -0.744 OA
ENDBRANCH  87  88
ENDBRANCH  55  80
BRANCH  67  92
ATOM     92  C   UNL A   1      42.094  29.481  33.823  1.00  0.00     0.058 A 
ATOM     93  C   UNL A   1      41.738  28.160  33.497  1.00  0.00     0.135 A 
ATOM     94  C   UNL A   1      42.325  29.762  35.179  1.00  0.00     0.135 A 
ATOM     95  F   UNL A   1      41.595  27.781  32.220  1.00  0.00    -0.206 F 
ATOM     96  C   UNL A   1      41.598  27.170  34.476  1.00  0.00     0.059 A 
ATOM     97  C   UNL A   1      42.222  28.786  36.166  1.00  0.00     0.059 A 
ATOM     98  F   UNL A   1      42.729  30.989  35.550  1.00  0.00    -0.206 F 
ATOM     99  C   UNL A   1      41.852  27.492  35.809  1.00  0.00     0.060 A 
BRANCH  99 100
ATOM    100  S   UNL A   1      41.766  26.192  37.062  1.00  0.00     0.124 S 
ATOM    101  O   UNL A   1      42.807  26.598  37.999  1.00  0.00    -0.237 OA
ATOM    102  O   UNL A   1      40.393  26.310  37.546  1.00  0.00    -0.237 OA
ATOM    103  O   UNL A   1      42.048  24.972  36.308  1.00  0.00    -0.744 OA
ENDBRANCH  99 100
ENDBRANCH  67  92
ENDBRANCH  41  42
ENDBRANCH  34  36
ENDBRANCH  33  34
ENDBRANCH  32  33
ENDBRANCH  31  32
ENDBRANCH   1  31
TORSDOF 22
ENDMDL
MODEL 2
REMARK VINA RESULT:     -11.3      2.142      3.933
REMARK SMILES CCc1nc2sc(C(=O)NCC(=O)OCCOCCOC(=O)c3ccc(-c4c5nc(c(-c6c(F)cc(S(=O)(=O)[O-])cc6F)c6ccc([nH]6)c(-c6c(F)cc(S(=O)(=O)[O-])cc6F)c6nc(c(-c7c(F)cc(S(=O)(=O)[O-])cc7F)c7ccc4[nH]7)C=C6)C=C5)cc3)c(N)c2c(C(F)(F)F)c1C
REMARK SMILES IDX 17 1 16 2 15 3 14 4 12 5 13 6 11 7 10 8 8 9 9 10 7 12 3 13
REMARK SMILES IDX 4 14 97 15 5 16 92 17 98 18 6 19 91 20 89 21 2 22 1 23 93 24
REMARK SMILES IDX 94 25 95 26 96 27 90 28 18 31 19 32 20 33 21 34 22 35 23 36
REMARK SMILES IDX 24 37 88 38 25 39 87 40 26 41 27 42 28 43 81 44 29 45 86 46
REMARK SMILES IDX 80 47 82 48 30 49 85 50 79 51 78 52 31 54 65 55 44 56 64 57
REMARK SMILES IDX 45 58 48 59 63 60 83 61 46 62 47 63 62 65 84 66 49 67 32 68
REMARK SMILES IDX 33 69 42 70 34 71 35 72 41 73 43 74 36 75 37 76 38 77 39 78
REMARK SMILES IDX 40 79 66 80 67 81 76 82 68 83 69 84 75 85 77 86 70 87 71 88
REMARK SMILES IDX 72 89 73 90 74 91 50 92 51 93 60 94 52 95 53 96 59 97 61 98
REMARK SMILES IDX 54 99 55 100 56 101 57 102 58 103
REMARK H PARENT 10 11 90 29 90 30 82 53 48 64
REMARK Flexibility Score: inf
ROOT
ATOM      1  O   UNL A   1      35.990  21.734  24.337  1.00  0.00    -0.374 OA
ENDROOT
BRANCH   1   2
ATOM      2  C   UNL A   1      35.636  22.829  23.496  1.00  0.00     0.202 C 
BRANCH   2   3
ATOM      3  C   UNL A   1      35.333  24.200  24.105  1.00  0.00     0.261 C 
BRANCH   3   4
ATOM      4  O   UNL A   1      34.488  25.016  23.275  1.00  0.00    -0.462 OA
BRANCH   4   5
ATOM      5  C   UNL A   1      33.825  26.007  23.928  1.00  0.00     0.325 C 
ATOM      6  O   UNL A   1      33.115  26.845  23.373  1.00  0.00    -0.250 OA
BRANCH   5   7
ATOM      7  C   UNL A   1      33.882  25.864  25.451  1.00  0.00     0.239 C 
BRANCH   7   8
ATOM      8  N   UNL A   1      32.653  25.585  26.160  1.00  0.00    -0.340 N 
ATOM      9  C   UNL A   1      32.012  24.401  26.442  1.00  0.00     0.264 C 
ATOM     10  O   UNL A   1      31.129  24.525  27.299  1.00  0.00    -0.268 OA
ATOM     11  H   UNL A   1      32.193  26.385  26.502  1.00  0.00     0.164 HD
BRANCH   9  12
ATOM     12  C   UNL A   1      32.304  23.122  25.787  1.00  0.00     0.118 A 
ATOM     13  C   UNL A   1      33.216  18.587  24.778  1.00  0.00     0.045 A 
ATOM     14  N   UNL A   1      33.278  19.437  25.827  1.00  0.00    -0.242 NA
ATOM     15  C   UNL A   1      32.764  18.956  23.497  1.00  0.00    -0.017 A 
ATOM     16  C   UNL A   1      32.904  20.701  25.588  1.00  0.00     0.127 A 
ATOM     17  C   UNL A   1      32.401  20.312  23.269  1.00  0.00     0.073 A 
ATOM     18  C   UNL A   1      32.646  17.978  22.358  1.00  0.00     0.047 C 
ATOM     19  S   UNL A   1      32.915  21.863  26.823  1.00  0.00    -0.108 S 
ATOM     20  C   UNL A   1      32.480  21.206  24.378  1.00  0.00     0.048 A 
ATOM     21  C   UNL A   1      32.196  22.608  24.507  1.00  0.00     0.066 A 
BRANCH  13  22
ATOM     22  C   UNL A   1      33.660  17.187  25.136  1.00  0.00     0.053 C 
ATOM     23  C   UNL A   1      32.477  16.279  25.454  1.00  0.00     0.011 C 
ENDBRANCH  13  22
BRANCH  17  24
ATOM     24  C   UNL A   1      31.926  20.836  21.928  1.00  0.00     0.417 C 
ATOM     25  F   UNL A   1      32.681  21.885  21.484  1.00  0.00    -0.166 F 
ATOM     26  F   UNL A   1      31.993  19.888  20.945  1.00  0.00    -0.166 F 
ATOM     27  F   UNL A   1      30.644  21.289  21.876  1.00  0.00    -0.166 F 
ENDBRANCH  17  24
BRANCH  21  28
ATOM     28  N   UNL A   1      31.822  23.290  23.414  1.00  0.00    -0.397 N 
ATOM     29  H   UNL A   1      32.338  24.078  23.124  1.00  0.00     0.156 HD
ATOM     30  H   UNL A   1      31.032  23.004  22.901  1.00  0.00     0.156 HD
ENDBRANCH  21  28
ENDBRANCH   9  12
ENDBRANCH   7   8
ENDBRANCH   5   7
ENDBRANCH   4   5
ENDBRANCH   3   4
ENDBRANCH   2   3
ENDBRANCH   1   2
BRANCH   1  31
ATOM     31  C   UNL A   1      36.587  21.919  25.612  1.00  0.00     0.202 C 
BRANCH  31  32
ATOM     32  C   UNL A   1      38.103  21.920  25.778  1.00  0.00     0.261 C 
BRANCH  32  33
ATOM     33  O   UNL A   1      38.613  23.084  26.403  1.00  0.00    -0.460 OA
BRANCH  33  34
ATOM     34  C   UNL A   1      39.857  22.889  26.905  1.00  0.00     0.338 C 
ATOM     35  O   UNL A   1      40.310  21.848  27.347  1.00  0.00    -0.246 OA
BRANCH  34  36
ATOM     36  C   UNL A   1      40.559  24.170  26.984  1.00  0.00     0.060 A 
ATOM     37  C   UNL A   1      41.617  24.221  27.894  1.00  0.00     0.016 A 
ATOM     38  C   UNL A   1      39.945  25.323  26.476  1.00  0.00     0.016 A 
ATOM     39  C   UNL A   1      41.875  25.420  28.510  1.00  0.00     0.010 A 
ATOM     40  C   UNL A   1      40.195  26.517  27.103  1.00  0.00     0.010 A 
ATOM     41  C   UNL A   1      41.077  26.519  28.180  1.00  0.00    -0.014 A 
BRANCH  41  42
ATOM     42  C   UNL A   1      41.228  27.722  28.961  1.00  0.00     0.031 A 
ATOM     43  C   UNL A   1      42.338  28.560  28.474  1.00  0.00     0.074 A 
ATOM     44  C   UNL A   1      40.369  28.043  29.945  1.00  0.00     0.049 A 
ATOM     45  N   UNL A   1      43.492  28.729  29.027  1.00  0.00    -0.248 NA
ATOM     46  C   UNL A   1      42.249  29.073  27.097  1.00  0.00     0.031 C 
ATOM     47  C   UNL A   1      39.110  27.391  30.315  1.00  0.00     0.029 A 
ATOM     48  N   UNL A   1      40.411  29.116  30.777  1.00  0.00    -0.354 N 
ATOM     49  C   UNL A   1      44.176  29.588  28.178  1.00  0.00     0.074 A 
ATOM     50  C   UNL A   1      43.479  29.551  26.919  1.00  0.00     0.031 C 
ATOM     51  C   UNL A   1      38.406  28.213  31.127  1.00  0.00     0.029 A 
ATOM     52  C   UNL A   1      39.213  29.380  31.434  1.00  0.00     0.049 A 
ATOM     53  H   UNL A   1      41.221  29.661  30.904  1.00  0.00     0.167 HD
ATOM     54  C   UNL A   1      45.077  30.483  28.661  1.00  0.00     0.037 A 
ATOM     55  C   UNL A   1      38.916  30.538  32.080  1.00  0.00     0.037 A 
ATOM     56  C   UNL A   1      45.485  30.140  30.000  1.00  0.00     0.049 A 
ATOM     57  C   UNL A   1      40.223  31.188  32.403  1.00  0.00     0.074 A 
ATOM     58  C   UNL A   1      46.098  29.038  30.565  1.00  0.00     0.029 A 
ATOM     59  N   UNL A   1      44.898  30.820  31.042  1.00  0.00    -0.354 N 
ATOM     60  N   UNL A   1      41.094  30.674  33.233  1.00  0.00    -0.248 NA
ATOM     61  C   UNL A   1      40.775  32.113  31.420  1.00  0.00     0.031 C 
ATOM     62  C   UNL A   1      45.448  28.856  31.820  1.00  0.00     0.029 A 
ATOM     63  C   UNL A   1      44.533  29.896  31.990  1.00  0.00     0.049 A 
ATOM     64  H   UNL A   1      44.764  31.795  31.098  1.00  0.00     0.167 HD
ATOM     65  C   UNL A   1      42.331  30.873  32.629  1.00  0.00     0.074 A 
ATOM     66  C   UNL A   1      42.072  31.814  31.539  1.00  0.00     0.031 C 
ATOM     67  C   UNL A   1      43.388  30.039  32.867  1.00  0.00     0.037 A 
BRANCH  54  68
ATOM     68  C   UNL A   1      45.281  31.854  28.071  1.00  0.00     0.058 A 
ATOM     69  C   UNL A   1      46.568  32.231  27.644  1.00  0.00     0.135 A 
ATOM     70  C   UNL A   1      44.331  32.898  28.148  1.00  0.00     0.135 A 
ATOM     71  F   UNL A   1      47.551  31.322  27.550  1.00  0.00    -0.206 F 
ATOM     72  C   UNL A   1      46.902  33.559  27.377  1.00  0.00     0.059 A 
ATOM     73  C   UNL A   1      44.625  34.215  27.826  1.00  0.00     0.059 A 
ATOM     74  F   UNL A   1      43.099  32.721  28.638  1.00  0.00    -0.206 F 
ATOM     75  C   UNL A   1      45.923  34.544  27.481  1.00  0.00     0.060 A 
BRANCH  75  76
ATOM     76  S   UNL A   1      46.373  36.268  27.239  1.00  0.00     0.124 S 
ATOM     77  O   UNL A   1      45.179  36.952  27.725  1.00  0.00    -0.237 OA
ATOM     78  O   UNL A   1      47.564  36.387  28.073  1.00  0.00    -0.237 OA
ATOM     79  O   UNL A   1      46.608  36.356  25.801  1.00  0.00    -0.744 OA
ENDBRANCH  75  76
ENDBRANCH  54  68
BRANCH  55  80
ATOM     80  C   UNL A   1      37.618  31.274  32.038  1.00  0.00     0.058 A 
ATOM     81  C   UNL A   1      36.941  31.656  33.211  1.00  0.00     0.135 A 
ATOM     82  C   UNL A   1      37.135  31.843  30.840  1.00  0.00     0.135 A 
ATOM     83  F   UNL A   1      37.349  31.195  34.404  1.00  0.00    -0.206 F 
ATOM     84  C   UNL A   1      35.869  32.562  33.199  1.00  0.00     0.059 A 
ATOM     85  C   UNL A   1      36.066  32.738  30.802  1.00  0.00     0.059 A 
ATOM     86  F   UNL A   1      37.742  31.612  29.668  1.00  0.00    -0.206 F 
ATOM     87  C   UNL A   1      35.448  33.110  31.987  1.00  0.00     0.060 A 
BRANCH  87  88
ATOM     88  S   UNL A   1      34.155  34.378  31.971  1.00  0.00     0.124 S 
ATOM     89  O   UNL A   1      34.887  35.563  32.406  1.00  0.00    -0.237 OA
ATOM     90  O   UNL A   1      33.731  34.367  30.575  1.00  0.00    -0.237 OA
ATOM     91  O   UNL A   1      33.170  33.871  32.924  1.00  0.00    -0.744 OA
ENDBRANCH  87  88
ENDBRANCH  55  80
BRANCH  67  92
ATOM     92  C   UNL A   1      43.280  29.026  33.982  1.00  0.00     0.058 A 
ATOM     93  C   UNL A   1      43.508  29.316  35.339  1.00  0.00     0.135 A 
ATOM     94  C   UNL A   1      42.718  27.775  33.683  1.00  0.00     0.135 A 
ATOM     95  F   UNL A   1      43.949  30.522  35.720  1.00  0.00    -0.206 F 
ATOM     96  C   UNL A   1      43.210  28.397  36.350  1.00  0.00     0.059 A 
ATOM     97  C   UNL A   1      42.385  26.857  34.676  1.00  0.00     0.059 A 
ATOM     98  F   UNL A   1      42.417  27.461  32.412  1.00  0.00    -0.206 F 
ATOM     99  C   UNL A   1      42.639  27.171  36.008  1.00  0.00     0.060 A 
BRANCH  99 100
ATOM    100  S   UNL A   1      42.164  26.022  37.320  1.00  0.00     0.124 S 
ATOM    101  O   UNL A   1      42.489  24.729  36.730  1.00  0.00    -0.237 OA
ATOM    102  O   UNL A   1      43.013  26.444  38.432  1.00  0.00    -0.237 OA
ATOM    103  O   UNL A   1      40.738  26.284  37.504  1.00  0.00    -0.744 OA
ENDBRANCH  99 100
ENDBRANCH  67  92
ENDBRANCH  41  42
ENDBRANCH  34  36
ENDBRANCH  33  34
ENDBRANCH  32  33
ENDBRANCH  31  32
ENDBRANCH   1  31
TORSDOF 22
ENDMDL
MODEL 3
REMARK VINA RESULT:     -10.8      3.117      4.350
REMARK SMILES CCc1nc2sc(C(=O)NCC(=O)OCCOCCOC(=O)c3ccc(-c4c5nc(c(-c6c(F)cc(S(=O)(=O)[O-])cc6F)c6ccc([nH]6)c(-c6c(F)cc(S(=O)(=O)[O-])cc6F)c6nc(c(-c7c(F)cc(S(=O)(=O)[O-])cc7F)c7ccc4[nH]7)C=C6)C=C5)cc3)c(N)c2c(C(F)(F)F)c1C
REMARK SMILES IDX 17 1 16 2 15 3 14 4 12 5 13 6 11 7 10 8 8 9 9 10 7 12 3 13
REMARK SMILES IDX 4 14 97 15 5 16 92 17 98 18 6 19 91 20 89 21 2 22 1 23 93 24
REMARK SMILES IDX 94 25 95 26 96 27 90 28 18 31 19 32 20 33 21 34 22 35 23 36
REMARK SMILES IDX 24 37 88 38 25 39 87 40 26 41 27 42 28 43 81 44 29 45 86 46
REMARK SMILES IDX 80 47 82 48 30 49 85 50 79 51 78 52 31 54 65 55 44 56 64 57
REMARK SMILES IDX 45 58 48 59 63 60 83 61 46 62 47 63 62 65 84 66 49 67 32 68
REMARK SMILES IDX 33 69 42 70 34 71 35 72 41 73 43 74 36 75 37 76 38 77 39 78
REMARK SMILES IDX 40 79 66 80 67 81 76 82 68 83 69 84 75 85 77 86 70 87 71 88
REMARK SMILES IDX 72 89 73 90 74 91 50 92 51 93 60 94 52 95 53 96 59 97 61 98
REMARK SMILES IDX 54 99 55 100 56 101 57 102 58 103
REMARK H PARENT 10 11 90 29 90 30 82 53 48 64
REMARK Flexibility Score: inf
ROOT
ATOM      1  O   UNL A   1      42.151  19.358  27.490  1.00  0.00    -0.374 OA
ENDROOT
BRANCH   1   2
ATOM      2  C   UNL A   1      41.259  20.467  27.403  1.00  0.00     0.202 C 
BRANCH   2   3
ATOM      3  C   UNL A   1      40.110  20.452  26.392  1.00  0.00     0.261 C 
BRANCH   3   4
ATOM      4  O   UNL A   1      39.918  21.715  25.732  1.00  0.00    -0.462 OA
BRANCH   4   5
ATOM      5  C   UNL A   1      38.927  22.490  26.249  1.00  0.00     0.325 C 
ATOM      6  O   UNL A   1      39.054  23.201  27.244  1.00  0.00    -0.250 OA
BRANCH   5   7
ATOM      7  C   UNL A   1      37.687  22.550  25.353  1.00  0.00     0.239 C 
BRANCH   7   8
ATOM      8  N   UNL A   1      36.774  21.428  25.368  1.00  0.00    -0.340 N 
ATOM      9  C   UNL A   1      35.426  21.346  25.109  1.00  0.00     0.264 C 
ATOM     10  O   UNL A   1      35.036  20.183  24.953  1.00  0.00    -0.268 OA
ATOM     11  H   UNL A   1      37.193  20.570  25.607  1.00  0.00     0.164 HD
BRANCH   9  12
ATOM     12  C   UNL A   1      34.521  22.499  25.049  1.00  0.00     0.118 A 
ATOM     13  C   UNL A   1      31.869  26.304  25.998  1.00  0.00     0.045 A 
ATOM     14  N   UNL A   1      32.453  25.273  26.648  1.00  0.00    -0.242 NA
ATOM     15  C   UNL A   1      31.954  26.502  24.608  1.00  0.00    -0.017 A 
ATOM     16  C   UNL A   1      33.121  24.396  25.887  1.00  0.00     0.127 A 
ATOM     17  C   UNL A   1      32.647  25.538  23.825  1.00  0.00     0.073 A 
ATOM     18  C   UNL A   1      31.346  27.692  23.912  1.00  0.00     0.047 C 
ATOM     19  S   UNL A   1      33.917  23.068  26.579  1.00  0.00    -0.108 S 
ATOM     20  C   UNL A   1      33.251  24.446  24.516  1.00  0.00     0.048 A 
ATOM     21  C   UNL A   1      34.011  23.317  24.057  1.00  0.00     0.066 A 
BRANCH  13  22
ATOM     22  C   UNL A   1      31.135  27.239  26.933  1.00  0.00     0.053 C 
ATOM     23  C   UNL A   1      32.068  28.276  27.549  1.00  0.00     0.011 C 
ENDBRANCH  13  22
BRANCH  17  24
ATOM     24  C   UNL A   1      32.784  25.627  22.318  1.00  0.00     0.417 C 
ATOM     25  F   UNL A   1      32.388  24.478  21.692  1.00  0.00    -0.166 F 
ATOM     26  F   UNL A   1      32.016  26.624  21.783  1.00  0.00    -0.166 F 
ATOM     27  F   UNL A   1      34.034  25.866  21.838  1.00  0.00    -0.166 F 
ENDBRANCH  17  24
BRANCH  21  28
ATOM     28  N   UNL A   1      34.195  23.163  22.736  1.00  0.00    -0.397 N 
ATOM     29  H   UNL A   1      33.420  23.026  22.144  1.00  0.00     0.156 HD
ATOM     30  H   UNL A   1      35.104  23.186  22.360  1.00  0.00     0.156 HD
ENDBRANCH  21  28
ENDBRANCH   9  12
ENDBRANCH   7   8
ENDBRANCH   5   7
ENDBRANCH   4   5
ENDBRANCH   3   4
ENDBRANCH   2   3
ENDBRANCH   1   2
BRANCH   1  31
ATOM     31  C   UNL A   1      42.348  18.457  26.411  1.00  0.00     0.202 C 
BRANCH  31  32
ATOM     32  C   UNL A   1      43.482  18.662  25.412  1.00  0.00     0.261 C 
BRANCH  32  33
ATOM     33  O   UNL A   1      44.203  19.867  25.599  1.00  0.00    -0.460 OA
BRANCH  33  34
ATOM     34  C   UNL A   1      44.564  20.432  24.421  1.00  0.00     0.338 C 
ATOM     35  O   UNL A   1      44.682  19.868  23.348  1.00  0.00    -0.246 OA
BRANCH  34  36
ATOM     36  C   UNL A   1      44.948  21.826  24.645  1.00  0.00     0.060 A 
ATOM     37  C   UNL A   1      45.858  22.040  25.682  1.00  0.00     0.016 A 
ATOM     38  C   UNL A   1      44.152  22.852  24.116  1.00  0.00     0.016 A 
ATOM     39  C   UNL A   1      45.770  23.219  26.380  1.00  0.00     0.010 A 
ATOM     40  C   UNL A   1      44.057  24.023  24.823  1.00  0.00     0.010 A 
ATOM     41  C   UNL A   1      44.788  24.139  26.002  1.00  0.00    -0.014 A 
BRANCH  41  42
ATOM     42  C   UNL A   1      44.577  25.287  26.848  1.00  0.00     0.031 A 
ATOM     43  C   UNL A   1      45.637  26.298  26.682  1.00  0.00     0.074 A 
ATOM     44  C   UNL A   1      43.475  25.416  27.609  1.00  0.00     0.049 A 
ATOM     45  N   UNL A   1      46.593  26.572  27.505  1.00  0.00    -0.248 NA
ATOM     46  C   UNL A   1      45.798  26.901  25.349  1.00  0.00     0.031 C 
ATOM     47  C   UNL A   1      42.273  24.579  27.634  1.00  0.00     0.029 A 
ATOM     48  N   UNL A   1      43.166  26.417  28.473  1.00  0.00    -0.354 N 
ATOM     49  C   UNL A   1      47.324  27.575  26.885  1.00  0.00     0.074 A 
ATOM     50  C   UNL A   1      46.953  27.546  25.495  1.00  0.00     0.031 C 
ATOM     51  C   UNL A   1      41.287  25.237  28.287  1.00  0.00     0.029 A 
ATOM     52  C   UNL A   1      41.823  26.472  28.832  1.00  0.00     0.049 A 
ATOM     53  H   UNL A   1      43.837  27.052  28.817  1.00  0.00     0.167 HD
ATOM     54  C   UNL A   1      47.948  28.540  27.612  1.00  0.00     0.037 A 
ATOM     55  C   UNL A   1      41.218  27.527  29.438  1.00  0.00     0.037 A 
ATOM     56  C   UNL A   1      48.078  28.150  28.993  1.00  0.00     0.049 A 
ATOM     57  C   UNL A   1      42.305  28.315  30.096  1.00  0.00     0.074 A 
ATOM     58  C   UNL A   1      48.695  27.096  29.640  1.00  0.00     0.029 A 
ATOM     59  N   UNL A   1      47.172  28.665  29.891  1.00  0.00    -0.354 N 
ATOM     60  N   UNL A   1      43.025  27.855  31.088  1.00  0.00    -0.248 NA
ATOM     61  C   UNL A   1      42.932  29.377  29.318  1.00  0.00     0.031 C 
ATOM     62  C   UNL A   1      47.804  26.734  30.691  1.00  0.00     0.029 A 
ATOM     63  C   UNL A   1      46.733  27.630  30.680  1.00  0.00     0.049 A 
ATOM     64  H   UNL A   1      46.888  29.606  29.956  1.00  0.00     0.167 HD
ATOM     65  C   UNL A   1      44.326  28.260  30.810  1.00  0.00     0.074 A 
ATOM     66  C   UNL A   1      44.195  29.241  29.733  1.00  0.00     0.031 C 
ATOM     67  C   UNL A   1      45.407  27.555  31.260  1.00  0.00     0.037 A 
BRANCH  54  68
ATOM     68  C   UNL A   1      48.084  29.967  27.150  1.00  0.00     0.058 A 
ATOM     69  C   UNL A   1      49.353  30.575  27.167  1.00  0.00     0.135 A 
ATOM     70  C   UNL A   1      46.990  30.840  26.943  1.00  0.00     0.135 A 
ATOM     71  F   UNL A   1      50.459  29.843  27.371  1.00  0.00    -0.206 F 
ATOM     72  C   UNL A   1      49.517  31.955  27.051  1.00  0.00     0.059 A 
ATOM     73  C   UNL A   1      47.135  32.207  26.762  1.00  0.00     0.059 A 
ATOM     74  F   UNL A   1      45.717  30.432  27.009  1.00  0.00    -0.206 F 
ATOM     75  C   UNL A   1      48.398  32.763  26.860  1.00  0.00     0.060 A 
BRANCH  75  76
ATOM     76  S   UNL A   1      48.593  34.550  26.814  1.00  0.00     0.124 S 
ATOM     77  O   UNL A   1      48.073  34.866  25.488  1.00  0.00    -0.237 OA
ATOM     78  O   UNL A   1      47.769  34.970  27.942  1.00  0.00    -0.237 OA
ATOM     79  O   UNL A   1      50.030  34.737  26.990  1.00  0.00    -0.744 OA
ENDBRANCH  75  76
ENDBRANCH  54  68
BRANCH  55  80
ATOM     80  C   UNL A   1      39.874  28.089  29.116  1.00  0.00     0.058 A 
ATOM     81  C   UNL A   1      38.830  28.108  30.059  1.00  0.00     0.135 A 
ATOM     82  C   UNL A   1      39.657  28.854  27.949  1.00  0.00     0.135 A 
ATOM     83  F   UNL A   1      38.957  27.440  31.216  1.00  0.00    -0.206 F 
ATOM     84  C   UNL A   1      37.657  28.855  29.868  1.00  0.00     0.059 A 
ATOM     85  C   UNL A   1      38.497  29.596  27.733  1.00  0.00     0.059 A 
ATOM     86  F   UNL A   1      40.607  28.973  27.011  1.00  0.00    -0.206 F 
ATOM     87  C   UNL A   1      37.507  29.610  28.704  1.00  0.00     0.060 A 
BRANCH  87  88
ATOM     88  S   UNL A   1      36.060  30.680  28.503  1.00  0.00     0.124 S 
ATOM     89  O   UNL A   1      35.191  29.861  27.665  1.00  0.00    -0.237 OA
ATOM     90  O   UNL A   1      35.624  30.869  29.882  1.00  0.00    -0.237 OA
ATOM     91  O   UNL A   1      36.606  31.872  27.856  1.00  0.00    -0.744 OA
ENDBRANCH  87  88
ENDBRANCH  55  80
BRANCH  67  92
ATOM     92  C   UNL A   1      45.190  26.452  32.269  1.00  0.00     0.058 A 
ATOM     93  C   UNL A   1      44.937  25.110  31.933  1.00  0.00     0.135 A 
ATOM     94  C   UNL A   1      45.463  26.730  33.617  1.00  0.00     0.135 A 
ATOM     95  F   UNL A   1      44.765  24.741  30.656  1.00  0.00    -0.206 F 
ATOM     96  C   UNL A   1      44.934  24.095  32.896  1.00  0.00     0.059 A 
ATOM     97  C   UNL A   1      45.496  25.732  34.588  1.00  0.00     0.059 A 
ATOM     98  F   UNL A   1      45.775  27.982  33.994  1.00  0.00    -0.206 F 
ATOM     99  C   UNL A   1      45.224  24.416  34.222  1.00  0.00     0.060 A 
BRANCH  99 100
ATOM    100  S   UNL A   1      45.317  23.093  35.450  1.00  0.00     0.124 S 
ATOM    101  O   UNL A   1      46.669  22.585  35.254  1.00  0.00    -0.237 OA
ATOM    102  O   UNL A   1      45.082  23.807  36.702  1.00  0.00    -0.237 OA
ATOM    103  O   UNL A   1      44.245  22.183  35.052  1.00  0.00    -0.744 OA
ENDBRANCH  99 100
ENDBRANCH  67  92
ENDBRANCH  41  42
ENDBRANCH  34  36
ENDBRANCH  33  34
ENDBRANCH  32  33
ENDBRANCH  31  32
ENDBRANCH   1  31
TORSDOF 22
ENDMDL
