MODEL 1
REMARK VINA RESULT:     -10.7      0.000      0.000
REMARK SMILES Cc1noc(C)c1CNc1cnc(C(=O)OCCOCCOC(=O)c2ccc(-c3c4nc(c(-c5c(F)cc(S(=O)(=O)[O-])cc5F)c5ccc([nH]5)c(-c5c(F)cc(S(=O)(=O)[O-])cc5F)c5nc(c(-c6c(F)cc(S(=O)(=O)[O-])cc6F)c6ccc3[nH]6)C=C5)C=C4)cc2)cn1
REMARK SMILES IDX 19 1 18 2 17 3 16 4 14 5 15 6 13 7 10 8 11 9 92 10 12 11
REMARK SMILES IDX 91 12 9 13 8 15 7 16 1 17 2 18 3 19 4 20 5 21 6 22 20 23
REMARK SMILES IDX 21 24 22 25 23 26 24 27 25 28 26 29 90 30 27 31 89 32 28 33
REMARK SMILES IDX 29 34 30 35 83 36 31 37 88 38 82 39 84 40 32 41 87 42 81 43
REMARK SMILES IDX 80 44 33 46 67 47 46 48 66 49 47 50 50 51 65 52 85 53 48 54
REMARK SMILES IDX 49 55 64 57 86 58 51 59 34 60 35 61 44 62 36 63 37 64 43 65
REMARK SMILES IDX 45 66 38 67 39 68 40 69 41 70 42 71 68 72 69 73 78 74 70 75
REMARK SMILES IDX 71 76 77 77 79 78 72 79 73 80 74 81 75 82 76 83 52 84 53 85
REMARK SMILES IDX 62 86 54 87 55 88 61 89 63 90 56 91 57 92 58 93 59 94 60 95
REMARK H PARENT 9 14 84 45 50 56
REMARK Flexibility Score: inf
ROOT
ATOM      1  O   UNL A   1      38.296  22.175  26.073  1.00  0.00    -0.374 OA
ENDROOT
BRANCH   1   2
ATOM      2  C   UNL A   1      37.751  21.482  24.946  1.00  0.00     0.202 C 
BRANCH   2   3
ATOM      3  C   UNL A   1      36.439  20.740  25.216  1.00  0.00     0.261 C 
BRANCH   3   4
ATOM      4  O   UNL A   1      35.312  21.598  24.981  1.00  0.00    -0.458 OA
BRANCH   4   5
ATOM      5  C   UNL A   1      34.101  20.992  25.012  1.00  0.00     0.358 C 
ATOM      6  O   UNL A   1      33.860  19.817  24.771  1.00  0.00    -0.244 OA
BRANCH   5   7
ATOM      7  C   UNL A   1      33.080  21.909  25.560  1.00  0.00     0.166 A 
ATOM      8  C   UNL A   1      31.088  23.532  26.400  1.00  0.00     0.144 A 
ATOM      9  C   UNL A   1      32.362  23.550  26.978  1.00  0.00     0.158 A 
ATOM     10  N   UNL A   1      30.787  22.636  25.440  1.00  0.00    -0.235 NA
ATOM     11  N   UNL A   1      33.383  22.746  26.583  1.00  0.00    -0.244 NA
ATOM     12  C   UNL A   1      31.805  21.844  25.019  1.00  0.00     0.149 A 
BRANCH   8  13
ATOM     13  N   UNL A   1      30.086  24.429  26.699  1.00  0.00    -0.365 N 
ATOM     14  H   UNL A   1      29.508  24.292  27.483  1.00  0.00     0.162 HD
BRANCH  13  15
ATOM     15  C   UNL A   1      29.899  25.583  25.833  1.00  0.00     0.156 C 
BRANCH  15  16
ATOM     16  C   UNL A   1      31.151  26.249  25.364  1.00  0.00     0.037 A 
ATOM     17  C   UNL A   1      31.758  27.845  27.360  1.00  0.00     0.071 C 
ATOM     18  C   UNL A   1      31.946  27.231  26.024  1.00  0.00     0.086 A 
ATOM     19  N   UNL A   1      32.995  27.593  25.275  1.00  0.00    -0.085 NA
ATOM     20  O   UNL A   1      32.897  26.866  24.109  1.00  0.00    -0.361 OA
ATOM     21  C   UNL A   1      31.800  26.069  24.159  1.00  0.00     0.138 A 
ATOM     22  C   UNL A   1      31.547  25.232  22.973  1.00  0.00     0.091 C 
ENDBRANCH  15  16
ENDBRANCH  13  15
ENDBRANCH   8  13
ENDBRANCH   5   7
ENDBRANCH   4   5
ENDBRANCH   3   4
ENDBRANCH   2   3
ENDBRANCH   1   2
BRANCH   1  23
ATOM     23  C   UNL A   1      39.642  21.850  26.427  1.00  0.00     0.202 C 
BRANCH  23  24
ATOM     24  C   UNL A   1      40.601  23.034  26.579  1.00  0.00     0.261 C 
BRANCH  24  25
ATOM     25  O   UNL A   1      39.929  24.286  26.352  1.00  0.00    -0.460 OA
BRANCH  25  26
ATOM     26  C   UNL A   1      40.753  25.351  26.227  1.00  0.00     0.338 C 
ATOM     27  O   UNL A   1      41.251  25.775  25.192  1.00  0.00    -0.246 OA
BRANCH  26  28
ATOM     28  C   UNL A   1      40.860  26.076  27.508  1.00  0.00     0.060 A 
ATOM     29  C   UNL A   1      39.810  25.910  28.419  1.00  0.00     0.016 A 
ATOM     30  C   UNL A   1      41.911  26.954  27.791  1.00  0.00     0.016 A 
ATOM     31  C   UNL A   1      39.764  26.679  29.579  1.00  0.00     0.010 A 
ATOM     32  C   UNL A   1      41.862  27.729  28.958  1.00  0.00     0.010 A 
ATOM     33  C   UNL A   1      40.763  27.629  29.831  1.00  0.00    -0.014 A 
BRANCH  33  34
ATOM     34  C   UNL A   1      40.547  28.617  30.918  1.00  0.00     0.031 A 
ATOM     35  C   UNL A   1      41.415  28.546  32.149  1.00  0.00     0.074 A 
ATOM     36  C   UNL A   1      39.644  29.605  30.781  1.00  0.00     0.049 A 
ATOM     37  N   UNL A   1      41.440  29.337  33.190  1.00  0.00    -0.248 NA
ATOM     38  C   UNL A   1      42.382  27.437  32.216  1.00  0.00     0.031 C 
ATOM     39  C   UNL A   1      38.761  29.791  29.630  1.00  0.00     0.029 A 
ATOM     40  N   UNL A   1      39.326  30.647  31.618  1.00  0.00    -0.354 N 
ATOM     41  C   UNL A   1      42.415  28.821  34.035  1.00  0.00     0.074 A 
ATOM     42  C   UNL A   1      42.943  27.634  33.401  1.00  0.00     0.031 C 
ATOM     43  C   UNL A   1      37.997  30.878  29.836  1.00  0.00     0.029 A 
ATOM     44  C   UNL A   1      38.324  31.456  31.138  1.00  0.00     0.049 A 
ATOM     45  H   UNL A   1      39.774  30.798  32.481  1.00  0.00     0.167 HD
ATOM     46  C   UNL A   1      42.842  29.303  35.226  1.00  0.00     0.037 A 
ATOM     47  C   UNL A   1      37.733  32.532  31.693  1.00  0.00     0.037 A 
ATOM     48  C   UNL A   1      42.339  30.503  35.841  1.00  0.00     0.049 A 
ATOM     49  C   UNL A   1      38.210  33.028  33.035  1.00  0.00     0.074 A 
ATOM     50  C   UNL A   1      42.753  31.101  37.019  1.00  0.00     0.029 A 
ATOM     51  N   UNL A   1      41.313  31.283  35.334  1.00  0.00    -0.354 N 
ATOM     52  N   UNL A   1      39.178  32.564  33.790  1.00  0.00    -0.248 NA
ATOM     53  C   UNL A   1      37.520  34.200  33.598  1.00  0.00     0.031 C 
ATOM     54  C   UNL A   1      41.943  32.218  37.248  1.00  0.00     0.029 A 
ATOM     55  C   UNL A   1      41.058  32.340  36.190  1.00  0.00     0.049 A 
ATOM     56  H   UNL A   1      40.836  31.111  34.490  1.00  0.00     0.167 HD
ATOM     57  C   UNL A   1      39.229  33.404  34.901  1.00  0.00     0.074 A 
ATOM     58  C   UNL A   1      38.207  34.410  34.712  1.00  0.00     0.031 C 
ATOM     59  C   UNL A   1      40.047  33.344  35.979  1.00  0.00     0.037 A 
BRANCH  46  60
ATOM     60  C   UNL A   1      43.904  28.535  35.961  1.00  0.00     0.058 A 
ATOM     61  C   UNL A   1      45.265  28.851  35.835  1.00  0.00     0.135 A 
ATOM     62  C   UNL A   1      43.545  27.525  36.868  1.00  0.00     0.135 A 
ATOM     63  F   UNL A   1      45.663  29.794  34.966  1.00  0.00    -0.206 F 
ATOM     64  C   UNL A   1      46.235  28.193  36.584  1.00  0.00     0.059 A 
ATOM     65  C   UNL A   1      44.496  26.869  37.644  1.00  0.00     0.059 A 
ATOM     66  F   UNL A   1      42.256  27.180  37.021  1.00  0.00    -0.206 F 
ATOM     67  C   UNL A   1      45.840  27.208  37.492  1.00  0.00     0.060 A 
BRANCH  67  68
ATOM     68  S   UNL A   1      47.104  26.401  38.496  1.00  0.00     0.124 S 
ATOM     69  O   UNL A   1      46.336  26.009  39.673  1.00  0.00    -0.237 OA
ATOM     70  O   UNL A   1      47.540  25.310  37.632  1.00  0.00    -0.237 OA
ATOM     71  O   UNL A   1      48.090  27.455  38.715  1.00  0.00    -0.744 OA
ENDBRANCH  67  68
ENDBRANCH  46  60
BRANCH  47  72
ATOM     72  C   UNL A   1      36.606  33.216  31.000  1.00  0.00     0.058 A 
ATOM     73  C   UNL A   1      36.833  34.111  29.945  1.00  0.00     0.135 A 
ATOM     74  C   UNL A   1      35.281  33.021  31.419  1.00  0.00     0.135 A 
ATOM     75  F   UNL A   1      38.084  34.337  29.514  1.00  0.00    -0.206 F 
ATOM     76  C   UNL A   1      35.792  34.820  29.354  1.00  0.00     0.059 A 
ATOM     77  C   UNL A   1      34.220  33.698  30.826  1.00  0.00     0.059 A 
ATOM     78  F   UNL A   1      35.007  32.165  32.415  1.00  0.00    -0.206 F 
ATOM     79  C   UNL A   1      34.488  34.611  29.808  1.00  0.00     0.060 A 
BRANCH  79  80
ATOM     80  S   UNL A   1      33.139  35.533  29.039  1.00  0.00     0.124 S 
ATOM     81  O   UNL A   1      33.870  36.492  28.218  1.00  0.00    -0.237 OA
ATOM     82  O   UNL A   1      32.422  34.487  28.315  1.00  0.00    -0.237 OA
ATOM     83  O   UNL A   1      32.424  36.095  30.182  1.00  0.00    -0.744 OA
ENDBRANCH  79  80
ENDBRANCH  47  72
BRANCH  59  84
ATOM     84  C   UNL A   1      39.897  34.415  37.024  1.00  0.00     0.058 A 
ATOM     85  C   UNL A   1      40.617  35.618  36.954  1.00  0.00     0.135 A 
ATOM     86  C   UNL A   1      38.983  34.258  38.079  1.00  0.00     0.135 A 
ATOM     87  F   UNL A   1      41.505  35.818  35.968  1.00  0.00    -0.206 F 
ATOM     88  C   UNL A   1      40.454  36.617  37.909  1.00  0.00     0.059 A 
ATOM     89  C   UNL A   1      38.785  35.254  39.029  1.00  0.00     0.059 A 
ATOM     90  F   UNL A   1      38.260  33.131  38.185  1.00  0.00    -0.206 F 
ATOM     91  C   UNL A   1      39.536  36.426  38.943  1.00  0.00     0.060 A 
BRANCH  91  92
ATOM     92  S   UNL A   1      39.313  37.741  40.159  1.00  0.00     0.124 S 
ATOM     93  O   UNL A   1      40.576  38.463  40.046  1.00  0.00    -0.237 OA
ATOM     94  O   UNL A   1      38.135  38.441  39.653  1.00  0.00    -0.237 OA
ATOM     95  O   UNL A   1      39.113  37.017  41.410  1.00  0.00    -0.744 OA
ENDBRANCH  91  92
ENDBRANCH  59  84
ENDBRANCH  33  34
ENDBRANCH  26  28
ENDBRANCH  25  26
ENDBRANCH  24  25
ENDBRANCH  23  24
ENDBRANCH   1  23
TORSDOF 20
ENDMDL
MODEL 2
REMARK VINA RESULT:     -10.4      5.300      6.875
REMARK SMILES Cc1noc(C)c1CNc1cnc(C(=O)OCCOCCOC(=O)c2ccc(-c3c4nc(c(-c5c(F)cc(S(=O)(=O)[O-])cc5F)c5ccc([nH]5)c(-c5c(F)cc(S(=O)(=O)[O-])cc5F)c5nc(c(-c6c(F)cc(S(=O)(=O)[O-])cc6F)c6ccc3[nH]6)C=C5)C=C4)cc2)cn1
REMARK SMILES IDX 19 1 18 2 17 3 16 4 14 5 15 6 13 7 10 8 11 9 92 10 12 11
REMARK SMILES IDX 91 12 9 13 8 15 7 16 1 17 2 18 3 19 4 20 5 21 6 22 20 23
REMARK SMILES IDX 21 24 22 25 23 26 24 27 25 28 26 29 90 30 27 31 89 32 28 33
REMARK SMILES IDX 29 34 30 35 83 36 31 37 88 38 82 39 84 40 32 41 87 42 81 43
REMARK SMILES IDX 80 44 33 46 67 47 46 48 66 49 47 50 50 51 65 52 85 53 48 54
REMARK SMILES IDX 49 55 64 57 86 58 51 59 34 60 35 61 44 62 36 63 37 64 43 65
REMARK SMILES IDX 45 66 38 67 39 68 40 69 41 70 42 71 68 72 69 73 78 74 70 75
REMARK SMILES IDX 71 76 77 77 79 78 72 79 73 80 74 81 75 82 76 83 52 84 53 85
REMARK SMILES IDX 62 86 54 87 55 88 61 89 63 90 56 91 57 92 58 93 59 94 60 95
REMARK H PARENT 9 14 84 45 50 56
REMARK Flexibility Score: inf
ROOT
ATOM      1  O   UNL A   1      35.148  20.386  24.670  1.00  0.00    -0.374 OA
ENDROOT
BRANCH   1   2
ATOM      2  C   UNL A   1      33.752  20.625  24.871  1.00  0.00     0.202 C 
BRANCH   2   3
ATOM      3  C   UNL A   1      33.158  21.748  24.017  1.00  0.00     0.261 C 
BRANCH   3   4
ATOM      4  O   UNL A   1      33.751  23.012  24.354  1.00  0.00    -0.458 OA
BRANCH   4   5
ATOM      5  C   UNL A   1      34.483  23.592  23.374  1.00  0.00     0.358 C 
ATOM      6  O   UNL A   1      35.410  23.089  22.753  1.00  0.00    -0.244 OA
BRANCH   5   7
ATOM      7  C   UNL A   1      33.903  24.899  23.001  1.00  0.00     0.166 A 
ATOM      8  C   UNL A   1      32.867  27.349  22.521  1.00  0.00     0.144 A 
ATOM      9  C   UNL A   1      32.824  26.320  21.575  1.00  0.00     0.158 A 
ATOM     10  N   UNL A   1      33.505  27.170  23.694  1.00  0.00    -0.235 NA
ATOM     11  N   UNL A   1      33.338  25.080  21.782  1.00  0.00    -0.244 NA
ATOM     12  C   UNL A   1      34.001  25.929  23.924  1.00  0.00     0.149 A 
BRANCH   8  13
ATOM     13  N   UNL A   1      32.235  28.565  22.377  1.00  0.00    -0.365 N 
ATOM     14  H   UNL A   1      32.384  29.115  21.575  1.00  0.00     0.162 HD
BRANCH  13  15
ATOM     15  C   UNL A   1      31.344  29.020  23.433  1.00  0.00     0.156 C 
BRANCH  15  16
ATOM     16  C   UNL A   1      29.927  28.561  23.325  1.00  0.00     0.037 A 
ATOM     17  C   UNL A   1      29.964  26.235  24.545  1.00  0.00     0.071 C 
ATOM     18  C   UNL A   1      29.337  27.354  23.801  1.00  0.00     0.086 A 
ATOM     19  N   UNL A   1      28.033  27.298  23.505  1.00  0.00    -0.085 NA
ATOM     20  O   UNL A   1      27.750  28.459  22.820  1.00  0.00    -0.361 OA
ATOM     21  C   UNL A   1      28.876  29.208  22.710  1.00  0.00     0.138 A 
ATOM     22  C   UNL A   1      28.740  30.485  21.986  1.00  0.00     0.091 C 
ENDBRANCH  15  16
ENDBRANCH  13  15
ENDBRANCH   8  13
ENDBRANCH   5   7
ENDBRANCH   4   5
ENDBRANCH   3   4
ENDBRANCH   2   3
ENDBRANCH   1   2
BRANCH   1  23
ATOM     23  C   UNL A   1      36.040  21.035  25.580  1.00  0.00     0.202 C 
BRANCH  23  24
ATOM     24  C   UNL A   1      37.503  21.124  25.137  1.00  0.00     0.261 C 
BRANCH  24  25
ATOM     25  O   UNL A   1      38.120  22.335  25.608  1.00  0.00    -0.460 OA
BRANCH  25  26
ATOM     26  C   UNL A   1      39.302  22.154  26.239  1.00  0.00     0.338 C 
ATOM     27  O   UNL A   1      40.054  21.193  26.127  1.00  0.00    -0.246 OA
BRANCH  26  28
ATOM     28  C   UNL A   1      39.683  23.368  26.986  1.00  0.00     0.060 A 
ATOM     29  C   UNL A   1      39.005  24.550  26.661  1.00  0.00     0.016 A 
ATOM     30  C   UNL A   1      40.722  23.383  27.922  1.00  0.00     0.016 A 
ATOM     31  C   UNL A   1      39.414  25.762  27.209  1.00  0.00     0.010 A 
ATOM     32  C   UNL A   1      41.133  24.605  28.471  1.00  0.00     0.010 A 
ATOM     33  C   UNL A   1      40.511  25.805  28.079  1.00  0.00    -0.014 A 
BRANCH  33  34
ATOM     34  C   UNL A   1      41.093  27.127  28.426  1.00  0.00     0.031 A 
ATOM     35  C   UNL A   1      42.569  27.349  28.215  1.00  0.00     0.074 A 
ATOM     36  C   UNL A   1      40.308  28.134  28.851  1.00  0.00     0.049 A 
ATOM     37  N   UNL A   1      43.275  28.436  28.394  1.00  0.00    -0.248 NA
ATOM     38  C   UNL A   1      43.353  26.197  27.740  1.00  0.00     0.031 C 
ATOM     39  C   UNL A   1      38.865  28.047  29.074  1.00  0.00     0.029 A 
ATOM     40  N   UNL A   1      40.618  29.434  29.165  1.00  0.00    -0.354 N 
ATOM     41  C   UNL A   1      44.581  28.098  28.061  1.00  0.00     0.074 A 
ATOM     42  C   UNL A   1      44.579  26.699  27.695  1.00  0.00     0.031 C 
ATOM     43  C   UNL A   1      38.415  29.242  29.495  1.00  0.00     0.029 A 
ATOM     44  C   UNL A   1      39.537  30.173  29.587  1.00  0.00     0.049 A 
ATOM     45  H   UNL A   1      41.528  29.802  29.096  1.00  0.00     0.167 HD
ATOM     46  C   UNL A   1      45.681  28.887  28.049  1.00  0.00     0.037 A 
ATOM     47  C   UNL A   1      39.468  31.452  30.007  1.00  0.00     0.037 A 
ATOM     48  C   UNL A   1      45.677  30.287  28.382  1.00  0.00     0.049 A 
ATOM     49  C   UNL A   1      40.717  32.299  30.010  1.00  0.00     0.074 A 
ATOM     50  C   UNL A   1      46.733  31.181  28.342  1.00  0.00     0.029 A 
ATOM     51  N   UNL A   1      44.569  30.994  28.821  1.00  0.00    -0.354 N 
ATOM     52  N   UNL A   1      41.932  31.979  29.632  1.00  0.00    -0.248 NA
ATOM     53  C   UNL A   1      40.583  33.683  30.491  1.00  0.00     0.031 C 
ATOM     54  C   UNL A   1      46.272  32.419  28.802  1.00  0.00     0.029 A 
ATOM     55  C   UNL A   1      44.921  32.306  29.084  1.00  0.00     0.049 A 
ATOM     56  H   UNL A   1      43.665  30.618  28.930  1.00  0.00     0.167 HD
ATOM     57  C   UNL A   1      42.698  33.130  29.803  1.00  0.00     0.074 A 
ATOM     58  C   UNL A   1      41.808  34.154  30.304  1.00  0.00     0.031 C 
ATOM     59  C   UNL A   1      44.019  33.319  29.568  1.00  0.00     0.037 A 
BRANCH  46  60
ATOM     60  C   UNL A   1      46.995  28.264  27.671  1.00  0.00     0.058 A 
ATOM     61  C   UNL A   1      47.813  27.632  28.619  1.00  0.00     0.135 A 
ATOM     62  C   UNL A   1      47.398  28.227  26.326  1.00  0.00     0.135 A 
ATOM     63  F   UNL A   1      47.483  27.656  29.920  1.00  0.00    -0.206 F 
ATOM     64  C   UNL A   1      48.986  26.982  28.248  1.00  0.00     0.059 A 
ATOM     65  C   UNL A   1      48.555  27.564  25.929  1.00  0.00     0.059 A 
ATOM     66  F   UNL A   1      46.654  28.822  25.381  1.00  0.00    -0.206 F 
ATOM     67  C   UNL A   1      49.345  26.947  26.899  1.00  0.00     0.060 A 
BRANCH  67  68
ATOM     68  S   UNL A   1      50.841  26.054  26.426  1.00  0.00     0.124 S 
ATOM     69  O   UNL A   1      50.708  24.828  27.207  1.00  0.00    -0.237 OA
ATOM     70  O   UNL A   1      50.676  25.908  24.985  1.00  0.00    -0.237 OA
ATOM     71  O   UNL A   1      51.917  26.948  26.843  1.00  0.00    -0.744 OA
ENDBRANCH  67  68
ENDBRANCH  46  60
BRANCH  47  72
ATOM     72  C   UNL A   1      38.177  32.020  30.483  1.00  0.00     0.058 A 
ATOM     73  C   UNL A   1      37.375  32.811  29.648  1.00  0.00     0.135 A 
ATOM     74  C   UNL A   1      37.749  31.822  31.806  1.00  0.00     0.135 A 
ATOM     75  F   UNL A   1      37.746  33.035  28.379  1.00  0.00    -0.206 F 
ATOM     76  C   UNL A   1      36.213  33.418  30.116  1.00  0.00     0.059 A 
ATOM     77  C   UNL A   1      36.578  32.397  32.288  1.00  0.00     0.059 A 
ATOM     78  F   UNL A   1      38.473  31.064  32.642  1.00  0.00    -0.206 F 
ATOM     79  C   UNL A   1      35.827  33.210  31.441  1.00  0.00     0.060 A 
BRANCH  79  80
ATOM     80  S   UNL A   1      34.319  34.000  32.045  1.00  0.00     0.124 S 
ATOM     81  O   UNL A   1      33.752  32.948  32.880  1.00  0.00    -0.237 OA
ATOM     82  O   UNL A   1      34.841  35.166  32.751  1.00  0.00    -0.237 OA
ATOM     83  O   UNL A   1      33.585  34.298  30.818  1.00  0.00    -0.744 OA
ENDBRANCH  79  80
ENDBRANCH  47  72
BRANCH  59  84
ATOM     84  C   UNL A   1      44.578  34.693  29.815  1.00  0.00     0.058 A 
ATOM     85  C   UNL A   1      45.155  35.042  31.046  1.00  0.00     0.135 A 
ATOM     86  C   UNL A   1      44.586  35.653  28.791  1.00  0.00     0.135 A 
ATOM     87  F   UNL A   1      45.170  34.163  32.059  1.00  0.00    -0.206 F 
ATOM     88  C   UNL A   1      45.696  36.307  31.261  1.00  0.00     0.059 A 
ATOM     89  C   UNL A   1      45.146  36.914  28.975  1.00  0.00     0.059 A 
ATOM     90  F   UNL A   1      44.059  35.365  27.590  1.00  0.00    -0.206 F 
ATOM     91  C   UNL A   1      45.686  37.235  30.219  1.00  0.00     0.060 A 
BRANCH  91  92
ATOM     92  S   UNL A   1      46.417  38.861  30.500  1.00  0.00     0.124 S 
ATOM     93  O   UNL A   1      47.415  38.923  29.436  1.00  0.00    -0.237 OA
ATOM     94  O   UNL A   1      45.271  39.753  30.347  1.00  0.00    -0.237 OA
ATOM     95  O   UNL A   1      46.950  38.764  31.855  1.00  0.00    -0.744 OA
ENDBRANCH  91  92
ENDBRANCH  59  84
ENDBRANCH  33  34
ENDBRANCH  26  28
ENDBRANCH  25  26
ENDBRANCH  24  25
ENDBRANCH  23  24
ENDBRANCH   1  23
TORSDOF 20
ENDMDL
MODEL 3
REMARK VINA RESULT:     -10.4      0.731      8.254
REMARK SMILES Cc1noc(C)c1CNc1cnc(C(=O)OCCOCCOC(=O)c2ccc(-c3c4nc(c(-c5c(F)cc(S(=O)(=O)[O-])cc5F)c5ccc([nH]5)c(-c5c(F)cc(S(=O)(=O)[O-])cc5F)c5nc(c(-c6c(F)cc(S(=O)(=O)[O-])cc6F)c6ccc3[nH]6)C=C5)C=C4)cc2)cn1
REMARK SMILES IDX 19 1 18 2 17 3 16 4 14 5 15 6 13 7 10 8 11 9 92 10 12 11
REMARK SMILES IDX 91 12 9 13 8 15 7 16 1 17 2 18 3 19 4 20 5 21 6 22 20 23
REMARK SMILES IDX 21 24 22 25 23 26 24 27 25 28 26 29 90 30 27 31 89 32 28 33
REMARK SMILES IDX 29 34 30 35 83 36 31 37 88 38 82 39 84 40 32 41 87 42 81 43
REMARK SMILES IDX 80 44 33 46 67 47 46 48 66 49 47 50 50 51 65 52 85 53 48 54
REMARK SMILES IDX 49 55 64 57 86 58 51 59 34 60 35 61 44 62 36 63 37 64 43 65
REMARK SMILES IDX 45 66 38 67 39 68 40 69 41 70 42 71 68 72 69 73 78 74 70 75
REMARK SMILES IDX 71 76 77 77 79 78 72 79 73 80 74 81 75 82 76 83 52 84 53 85
REMARK SMILES IDX 62 86 54 87 55 88 61 89 63 90 56 91 57 92 58 93 59 94 60 95
REMARK H PARENT 9 14 84 45 50 56
REMARK Flexibility Score: inf
ROOT
ATOM      1  O   UNL A   1      38.145  22.288  25.028  1.00  0.00    -0.374 OA
ENDROOT
BRANCH   1   2
ATOM      2  C   UNL A   1      36.798  22.660  25.335  1.00  0.00     0.202 C 
BRANCH   2   3
ATOM      3  C   UNL A   1      35.880  21.499  25.730  1.00  0.00     0.261 C 
BRANCH   3   4
ATOM      4  O   UNL A   1      34.856  21.301  24.742  1.00  0.00    -0.458 OA
BRANCH   4   5
ATOM      5  C   UNL A   1      33.702  20.761  25.199  1.00  0.00     0.358 C 
ATOM      6  O   UNL A   1      33.482  19.578  25.423  1.00  0.00    -0.244 OA
BRANCH   5   7
ATOM      7  C   UNL A   1      32.748  21.824  25.575  1.00  0.00     0.166 A 
ATOM      8  C   UNL A   1      30.961  23.794  26.059  1.00  0.00     0.144 A 
ATOM      9  C   UNL A   1      31.794  23.278  27.057  1.00  0.00     0.158 A 
ATOM     10  N   UNL A   1      30.971  23.263  24.821  1.00  0.00    -0.235 NA
ATOM     11  N   UNL A   1      32.699  22.287  26.849  1.00  0.00    -0.244 NA
ATOM     12  C   UNL A   1      31.887  22.290  24.593  1.00  0.00     0.149 A 
BRANCH   8  13
ATOM     13  N   UNL A   1      30.136  24.886  26.222  1.00  0.00    -0.365 N 
ATOM     14  H   UNL A   1      29.422  24.878  26.899  1.00  0.00     0.162 HD
BRANCH  13  15
ATOM     15  C   UNL A   1      30.340  26.050  25.374  1.00  0.00     0.156 C 
BRANCH  15  16
ATOM     16  C   UNL A   1      31.674  26.710  25.492  1.00  0.00     0.037 A 
ATOM     17  C   UNL A   1      31.436  28.142  27.681  1.00  0.00     0.071 C 
ATOM     18  C   UNL A   1      32.141  27.618  26.486  1.00  0.00     0.086 A 
ATOM     19  N   UNL A   1      33.400  28.002  26.245  1.00  0.00    -0.085 NA
ATOM     20  O   UNL A   1      33.775  27.362  25.084  1.00  0.00    -0.361 OA
ATOM     21  C   UNL A   1      32.749  26.597  24.634  1.00  0.00     0.138 A 
ATOM     22  C   UNL A   1      32.989  25.853  23.384  1.00  0.00     0.091 C 
ENDBRANCH  15  16
ENDBRANCH  13  15
ENDBRANCH   8  13
ENDBRANCH   5   7
ENDBRANCH   4   5
ENDBRANCH   3   4
ENDBRANCH   2   3
ENDBRANCH   1   2
BRANCH   1  23
ATOM     23  C   UNL A   1      38.841  21.544  26.030  1.00  0.00     0.202 C 
BRANCH  23  24
ATOM     24  C   UNL A   1      40.076  22.221  26.633  1.00  0.00     0.261 C 
BRANCH  24  25
ATOM     25  O   UNL A   1      39.831  23.612  26.905  1.00  0.00    -0.460 OA
BRANCH  25  26
ATOM     26  C   UNL A   1      40.946  24.355  27.083  1.00  0.00     0.338 C 
ATOM     27  O   UNL A   1      42.032  24.188  26.542  1.00  0.00    -0.246 OA
BRANCH  26  28
ATOM     28  C   UNL A   1      40.654  25.539  27.913  1.00  0.00     0.060 A 
ATOM     29  C   UNL A   1      41.672  26.493  28.035  1.00  0.00     0.016 A 
ATOM     30  C   UNL A   1      39.456  25.689  28.618  1.00  0.00     0.016 A 
ATOM     31  C   UNL A   1      41.529  27.557  28.922  1.00  0.00     0.010 A 
ATOM     32  C   UNL A   1      39.315  26.760  29.511  1.00  0.00     0.010 A 
ATOM     33  C   UNL A   1      40.371  27.670  29.702  1.00  0.00    -0.014 A 
BRANCH  33  34
ATOM     34  C   UNL A   1      40.361  28.641  30.825  1.00  0.00     0.031 A 
ATOM     35  C   UNL A   1      39.344  29.753  30.815  1.00  0.00     0.074 A 
ATOM     36  C   UNL A   1      41.195  28.492  31.871  1.00  0.00     0.049 A 
ATOM     37  N   UNL A   1      39.117  30.674  31.716  1.00  0.00    -0.248 NA
ATOM     38  C   UNL A   1      38.465  29.839  29.636  1.00  0.00     0.031 C 
ATOM     39  C   UNL A   1      42.208  27.446  32.004  1.00  0.00     0.029 A 
ATOM     40  N   UNL A   1      41.315  29.224  33.027  1.00  0.00    -0.354 N 
ATOM     41  C   UNL A   1      38.080  31.450  31.212  1.00  0.00     0.074 A 
ATOM     42  C   UNL A   1      37.736  30.911  29.915  1.00  0.00     0.031 C 
ATOM     43  C   UNL A   1      42.850  27.606  33.174  1.00  0.00     0.029 A 
ATOM     44  C   UNL A   1      42.307  28.773  33.865  1.00  0.00     0.049 A 
ATOM     45  H   UNL A   1      40.744  29.998  33.235  1.00  0.00     0.167 HD
ATOM     46  C   UNL A   1      37.460  32.508  31.786  1.00  0.00     0.037 A 
ATOM     47  C   UNL A   1      42.732  29.257  35.050  1.00  0.00     0.037 A 
ATOM     48  C   UNL A   1      37.781  33.024  33.091  1.00  0.00     0.049 A 
ATOM     49  C   UNL A   1      42.041  30.455  35.650  1.00  0.00     0.074 A 
ATOM     50  C   UNL A   1      37.167  34.056  33.780  1.00  0.00     0.029 A 
ATOM     51  N   UNL A   1      38.802  32.553  33.900  1.00  0.00    -0.354 N 
ATOM     52  N   UNL A   1      41.020  31.137  35.188  1.00  0.00    -0.248 NA
ATOM     53  C   UNL A   1      42.556  30.946  36.938  1.00  0.00     0.031 C 
ATOM     54  C   UNL A   1      37.849  34.240  34.987  1.00  0.00     0.029 A 
ATOM     55  C   UNL A   1      38.856  33.293  35.068  1.00  0.00     0.049 A 
ATOM     56  H   UNL A   1      39.401  31.804  33.677  1.00  0.00     0.167 HD
ATOM     57  C   UNL A   1      40.755  32.117  36.142  1.00  0.00     0.074 A 
ATOM     58  C   UNL A   1      41.711  31.930  37.211  1.00  0.00     0.031 C 
ATOM     59  C   UNL A   1      39.806  33.085  36.131  1.00  0.00     0.037 A 
BRANCH  46  60
ATOM     60  C   UNL A   1      36.372  33.197  31.012  1.00  0.00     0.058 A 
ATOM     61  C   UNL A   1      35.024  33.100  31.388  1.00  0.00     0.135 A 
ATOM     62  C   UNL A   1      36.694  34.033  29.932  1.00  0.00     0.135 A 
ATOM     63  F   UNL A   1      34.659  32.297  32.401  1.00  0.00    -0.206 F 
ATOM     64  C   UNL A   1      34.031  33.809  30.719  1.00  0.00     0.059 A 
ATOM     65  C   UNL A   1      35.722  34.770  29.263  1.00  0.00     0.059 A 
ATOM     66  F   UNL A   1      37.970  34.156  29.529  1.00  0.00    -0.206 F 
ATOM     67  C   UNL A   1      34.392  34.649  29.662  1.00  0.00     0.060 A 
BRANCH  67  68
ATOM     68  S   UNL A   1      33.100  35.604  28.839  1.00  0.00     0.124 S 
ATOM     69  O   UNL A   1      32.344  36.114  29.979  1.00  0.00    -0.237 OA
ATOM     70  O   UNL A   1      33.870  36.594  28.095  1.00  0.00    -0.237 OA
ATOM     71  O   UNL A   1      32.408  34.610  28.024  1.00  0.00    -0.744 OA
ENDBRANCH  67  68
ENDBRANCH  46  60
BRANCH  47  72
ATOM     72  C   UNL A   1      43.885  28.628  35.750  1.00  0.00     0.058 A 
ATOM     73  C   UNL A   1      45.206  29.008  35.470  1.00  0.00     0.135 A 
ATOM     74  C   UNL A   1      43.685  27.594  36.679  1.00  0.00     0.135 A 
ATOM     75  F   UNL A   1      45.449  29.985  34.584  1.00  0.00    -0.206 F 
ATOM     76  C   UNL A   1      46.290  28.361  36.056  1.00  0.00     0.059 A 
ATOM     77  C   UNL A   1      44.751  26.951  37.297  1.00  0.00     0.059 A 
ATOM     78  F   UNL A   1      42.441  27.201  36.992  1.00  0.00    -0.206 F 
ATOM     79  C   UNL A   1      46.052  27.327  36.963  1.00  0.00     0.060 A 
BRANCH  79  80
ATOM     80  S   UNL A   1      47.461  26.490  37.721  1.00  0.00     0.124 S 
ATOM     81  O   UNL A   1      46.798  25.462  38.515  1.00  0.00    -0.237 OA
ATOM     82  O   UNL A   1      48.204  26.018  36.557  1.00  0.00    -0.237 OA
ATOM     83  O   UNL A   1      48.112  27.554  38.481  1.00  0.00    -0.744 OA
ENDBRANCH  79  80
ENDBRANCH  47  72
BRANCH  59  84
ATOM     84  C   UNL A   1      39.729  33.996  37.325  1.00  0.00     0.058 A 
ATOM     85  C   UNL A   1      40.331  35.263  37.324  1.00  0.00     0.135 A 
ATOM     86  C   UNL A   1      38.999  33.617  38.463  1.00  0.00     0.135 A 
ATOM     87  F   UNL A   1      41.044  35.672  36.263  1.00  0.00    -0.206 F 
ATOM     88  C   UNL A   1      40.235  36.113  38.422  1.00  0.00     0.059 A 
ATOM     89  C   UNL A   1      38.867  34.462  39.561  1.00  0.00     0.059 A 
ATOM     90  F   UNL A   1      38.392  32.420  38.511  1.00  0.00    -0.206 F 
ATOM     91  C   UNL A   1      39.500  35.703  39.536  1.00  0.00     0.060 A 
BRANCH  91  92
ATOM     92  S   UNL A   1      39.357  36.826  40.941  1.00  0.00     0.124 S 
ATOM     93  O   UNL A   1      38.683  37.970  40.335  1.00  0.00    -0.237 OA
ATOM     94  O   UNL A   1      38.561  36.049  41.887  1.00  0.00    -0.237 OA
ATOM     95  O   UNL A   1      40.744  37.053  41.338  1.00  0.00    -0.744 OA
ENDBRANCH  91  92
ENDBRANCH  59  84
ENDBRANCH  33  34
ENDBRANCH  26  28
ENDBRANCH  25  26
ENDBRANCH  24  25
ENDBRANCH  23  24
ENDBRANCH   1  23
TORSDOF 20
ENDMDL
