MODEL 1
REMARK VINA RESULT:     -10.3      0.000      0.000
REMARK SMILES O=C(CCCCN1C(=O)CCc2cc([N+](=O)[O-])ccc21)OCCOCCOC(=O)c1ccc(-c2c3nc(c(-c4c(F)cc(S(=O)(=O)[O-])cc4F)c4ccc([nH]4)c(-c4c(F)cc(S(=O)(=O)[O-])cc4F)c4nc(c(-c5c(F)cc(S(=O)(=O)[O-])cc5F)c5ccc2[nH]5)C=C4)C=C3)cc1
REMARK SMILES IDX 23 1 22 2 21 3 2 4 1 5 3 6 4 7 5 8 6 9 7 10 8 11 20 12 9 13
REMARK SMILES IDX 10 14 12 15 19 16 11 17 13 18 18 19 14 20 15 21 16 22 17 23
REMARK SMILES IDX 24 24 25 25 26 26 27 27 28 28 29 29 30 30 31 31 95 32 32 33
REMARK SMILES IDX 94 34 33 35 34 36 35 37 88 38 36 39 93 40 87 41 89 42 37 43
REMARK SMILES IDX 92 44 86 45 85 46 38 48 72 49 51 50 71 51 52 52 55 53 70 54
REMARK SMILES IDX 90 55 53 56 54 57 69 59 91 60 56 61 39 62 40 63 49 64 41 65
REMARK SMILES IDX 42 66 48 67 50 68 43 69 44 70 45 71 46 72 47 73 73 74 74 75
REMARK SMILES IDX 83 76 75 77 76 78 82 79 84 80 77 81 78 82 79 83 80 84 81 85
REMARK SMILES IDX 57 86 58 87 67 88 59 89 60 90 66 91 68 92 61 93 62 94 63 95
REMARK SMILES IDX 64 96 65 97
REMARK H PARENT 89 47 55 58
REMARK Flexibility Score: inf
ROOT
ATOM      1  C   UNL A   1      42.232  19.516  26.403  1.00  0.00     0.202 C 
ENDROOT
BRANCH   1   2
ATOM      2  C   UNL A   1      40.783  19.916  26.661  1.00  0.00     0.261 C 
BRANCH   2   3
ATOM      3  O   UNL A   1      40.139  20.790  25.717  1.00  0.00    -0.463 OA
BRANCH   3   4
ATOM      4  C   UNL A   1      39.261  21.725  26.127  1.00  0.00     0.305 C 
ATOM      5  O   UNL A   1      39.596  22.597  26.927  1.00  0.00    -0.252 OA
BRANCH   4   6
ATOM      6  C   UNL A   1      37.867  21.692  25.526  1.00  0.00     0.123 C 
BRANCH   6   7
ATOM      7  C   UNL A   1      37.164  23.012  25.234  1.00  0.00     0.014 C 
BRANCH   7   8
ATOM      8  C   UNL A   1      36.727  23.287  23.793  1.00  0.00     0.023 C 
BRANCH   8   9
ATOM      9  C   UNL A   1      35.365  22.711  23.336  1.00  0.00     0.125 C 
BRANCH   9  10
ATOM     10  N   UNL A   1      34.312  22.724  24.354  1.00  0.00    -0.312 N 
ATOM     11  C   UNL A   1      33.936  21.475  24.865  1.00  0.00     0.227 C 
ATOM     12  C   UNL A   1      33.815  23.941  24.940  1.00  0.00     0.047 A 
ATOM     13  O   UNL A   1      34.535  20.425  24.637  1.00  0.00    -0.275 OA
ATOM     14  C   UNL A   1      32.646  21.451  25.635  1.00  0.00     0.105 C 
ATOM     15  C   UNL A   1      32.948  23.860  26.051  1.00  0.00    -0.017 A 
ATOM     16  C   UNL A   1      34.179  25.224  24.499  1.00  0.00     0.034 A 
ATOM     17  C   UNL A   1      32.655  22.529  26.686  1.00  0.00     0.048 C 
ATOM     18  C   UNL A   1      32.420  25.018  26.652  1.00  0.00     0.091 A 
ATOM     19  C   UNL A   1      33.662  26.385  25.098  1.00  0.00     0.088 A 
ATOM     20  C   UNL A   1      32.764  26.276  26.159  1.00  0.00     0.269 A 
BRANCH  20  21
ATOM     21  N   UNL A   1      32.174  27.481  26.755  1.00  0.00     0.062 N 
ATOM     22  O   UNL A   1      32.872  28.507  26.792  1.00  0.00    -0.258 OA
ATOM     23  O   UNL A   1      31.028  27.397  27.218  1.00  0.00    -0.258 OA
ENDBRANCH  20  21
ENDBRANCH   9  10
ENDBRANCH   8   9
ENDBRANCH   7   8
ENDBRANCH   6   7
ENDBRANCH   4   6
ENDBRANCH   3   4
ENDBRANCH   2   3
ENDBRANCH   1   2
BRANCH   1  24
ATOM     24  O   UNL A   1      42.853  20.293  25.379  1.00  0.00    -0.374 OA
BRANCH  24  25
ATOM     25  C   UNL A   1      43.427  21.518  25.856  1.00  0.00     0.202 C 
BRANCH  25  26
ATOM     26  C   UNL A   1      43.056  22.732  25.002  1.00  0.00     0.261 C 
BRANCH  26  27
ATOM     27  O   UNL A   1      42.475  23.763  25.812  1.00  0.00    -0.460 OA
BRANCH  27  28
ATOM     28  C   UNL A   1      43.164  24.937  25.814  1.00  0.00     0.338 C 
ATOM     29  O   UNL A   1      43.986  25.298  24.999  1.00  0.00    -0.246 OA
BRANCH  28  30
ATOM     30  C   UNL A   1      42.603  25.826  26.867  1.00  0.00     0.060 A 
ATOM     31  C   UNL A   1      42.980  27.176  26.847  1.00  0.00     0.016 A 
ATOM     32  C   UNL A   1      41.670  25.374  27.808  1.00  0.00     0.016 A 
ATOM     33  C   UNL A   1      42.473  28.062  27.797  1.00  0.00     0.010 A 
ATOM     34  C   UNL A   1      41.159  26.262  28.757  1.00  0.00     0.010 A 
ATOM     35  C   UNL A   1      41.593  27.598  28.782  1.00  0.00    -0.014 A 
BRANCH  35  36
ATOM     36  C   UNL A   1      41.305  28.439  29.968  1.00  0.00     0.031 A 
ATOM     37  C   UNL A   1      42.157  28.239  31.192  1.00  0.00     0.074 A 
ATOM     38  C   UNL A   1      40.328  29.363  29.957  1.00  0.00     0.049 A 
ATOM     39  N   UNL A   1      42.089  28.822  32.358  1.00  0.00    -0.248 NA
ATOM     40  C   UNL A   1      43.229  27.232  31.084  1.00  0.00     0.031 C 
ATOM     41  C   UNL A   1      39.458  29.666  28.822  1.00  0.00     0.029 A 
ATOM     42  N   UNL A   1      39.902  30.215  30.944  1.00  0.00    -0.354 N 
ATOM     43  C   UNL A   1      43.099  28.251  33.124  1.00  0.00     0.074 A 
ATOM     44  C   UNL A   1      43.737  27.245  32.306  1.00  0.00     0.031 C 
ATOM     45  C   UNL A   1      38.598  30.637  29.180  1.00  0.00     0.029 A 
ATOM     46  C   UNL A   1      38.839  31.003  30.575  1.00  0.00     0.049 A 
ATOM     47  H   UNL A   1      40.319  30.258  31.835  1.00  0.00     0.167 HD
ATOM     48  C   UNL A   1      43.471  28.547  34.392  1.00  0.00     0.037 A 
ATOM     49  C   UNL A   1      38.139  31.908  31.288  1.00  0.00     0.037 A 
ATOM     50  C   UNL A   1      42.829  29.548  35.199  1.00  0.00     0.049 A 
ATOM     51  C   UNL A   1      38.531  32.178  32.720  1.00  0.00     0.074 A 
ATOM     52  C   UNL A   1      43.139  29.942  36.488  1.00  0.00     0.029 A 
ATOM     53  N   UNL A   1      41.740  30.309  34.797  1.00  0.00    -0.354 N 
ATOM     54  N   UNL A   1      39.509  31.655  33.422  1.00  0.00    -0.248 NA
ATOM     55  C   UNL A   1      37.729  33.167  33.454  1.00  0.00     0.031 C 
ATOM     56  C   UNL A   1      42.204  30.904  36.885  1.00  0.00     0.029 A 
ATOM     57  C   UNL A   1      41.349  31.153  35.823  1.00  0.00     0.049 A 
ATOM     58  H   UNL A   1      41.310  30.257  33.914  1.00  0.00     0.167 HD
ATOM     59  C   UNL A   1      39.462  32.278  34.666  1.00  0.00     0.074 A 
ATOM     60  C   UNL A   1      38.363  33.220  34.617  1.00  0.00     0.031 C 
ATOM     61  C   UNL A   1      40.258  32.092  35.750  1.00  0.00     0.037 A 
BRANCH  48  62
ATOM     62  C   UNL A   1      44.604  27.753  34.981  1.00  0.00     0.058 A 
ATOM     63  C   UNL A   1      44.385  26.552  35.676  1.00  0.00     0.135 A 
ATOM     64  C   UNL A   1      45.928  28.201  34.850  1.00  0.00     0.135 A 
ATOM     65  F   UNL A   1      43.137  26.089  35.853  1.00  0.00    -0.206 F 
ATOM     66  C   UNL A   1      45.436  25.843  36.249  1.00  0.00     0.059 A 
ATOM     67  C   UNL A   1      46.997  27.491  35.388  1.00  0.00     0.059 A 
ATOM     68  F   UNL A   1      46.193  29.346  34.201  1.00  0.00    -0.206 F 
ATOM     69  C   UNL A   1      46.738  26.322  36.101  1.00  0.00     0.060 A 
BRANCH  69  70
ATOM     70  S   UNL A   1      48.089  25.396  36.859  1.00  0.00     0.124 S 
ATOM     71  O   UNL A   1      47.906  24.075  36.265  1.00  0.00    -0.237 OA
ATOM     72  O   UNL A   1      49.265  26.136  36.409  1.00  0.00    -0.237 OA
ATOM     73  O   UNL A   1      47.804  25.486  38.288  1.00  0.00    -0.744 OA
ENDBRANCH  69  70
ENDBRANCH  48  62
BRANCH  49  74
ATOM     74  C   UNL A   1      36.999  32.636  30.663  1.00  0.00     0.058 A 
ATOM     75  C   UNL A   1      35.673  32.326  30.999  1.00  0.00     0.135 A 
ATOM     76  C   UNL A   1      37.211  33.647  29.714  1.00  0.00     0.135 A 
ATOM     77  F   UNL A   1      35.416  31.358  31.892  1.00  0.00    -0.206 F 
ATOM     78  C   UNL A   1      34.597  32.981  30.407  1.00  0.00     0.059 A 
ATOM     79  C   UNL A   1      36.153  34.335  29.127  1.00  0.00     0.059 A 
ATOM     80  F   UNL A   1      38.461  33.989  29.362  1.00  0.00    -0.206 F 
ATOM     81  C   UNL A   1      34.849  33.987  29.473  1.00  0.00     0.060 A 
BRANCH  81  82
ATOM     82  S   UNL A   1      33.445  34.863  28.747  1.00  0.00     0.124 S 
ATOM     83  O   UNL A   1      33.054  33.956  27.676  1.00  0.00    -0.237 OA
ATOM     84  O   UNL A   1      32.525  34.954  29.877  1.00  0.00    -0.237 OA
ATOM     85  O   UNL A   1      34.028  36.132  28.321  1.00  0.00    -0.744 OA
ENDBRANCH  81  82
ENDBRANCH  49  74
BRANCH  61  86
ATOM     86  C   UNL A   1      40.003  32.957  36.956  1.00  0.00     0.058 A 
ATOM     87  C   UNL A   1      40.784  34.088  37.238  1.00  0.00     0.135 A 
ATOM     88  C   UNL A   1      38.925  32.674  37.813  1.00  0.00     0.135 A 
ATOM     89  F   UNL A   1      41.826  34.402  36.453  1.00  0.00    -0.206 F 
ATOM     90  C   UNL A   1      40.527  34.889  38.347  1.00  0.00     0.059 A 
ATOM     91  C   UNL A   1      38.632  33.479  38.909  1.00  0.00     0.059 A 
ATOM     92  F   UNL A   1      38.137  31.613  37.581  1.00  0.00    -0.206 F 
ATOM     93  C   UNL A   1      39.448  34.576  39.176  1.00  0.00     0.060 A 
BRANCH  93  94
ATOM     94  S   UNL A   1      39.112  35.636  40.599  1.00  0.00     0.124 S 
ATOM     95  O   UNL A   1      40.379  35.570  41.320  1.00  0.00    -0.237 OA
ATOM     96  O   UNL A   1      38.807  36.917  39.969  1.00  0.00    -0.237 OA
ATOM     97  O   UNL A   1      37.983  34.981  41.252  1.00  0.00    -0.744 OA
ENDBRANCH  93  94
ENDBRANCH  61  86
ENDBRANCH  35  36
ENDBRANCH  28  30
ENDBRANCH  27  28
ENDBRANCH  26  27
ENDBRANCH  25  26
ENDBRANCH  24  25
ENDBRANCH   1  24
TORSDOF 22
ENDMDL
MODEL 2
REMARK VINA RESULT:      -9.8      1.602      8.240
REMARK SMILES O=C(CCCCN1C(=O)CCc2cc([N+](=O)[O-])ccc21)OCCOCCOC(=O)c1ccc(-c2c3nc(c(-c4c(F)cc(S(=O)(=O)[O-])cc4F)c4ccc([nH]4)c(-c4c(F)cc(S(=O)(=O)[O-])cc4F)c4nc(c(-c5c(F)cc(S(=O)(=O)[O-])cc5F)c5ccc2[nH]5)C=C4)C=C3)cc1
REMARK SMILES IDX 23 1 22 2 21 3 2 4 1 5 3 6 4 7 5 8 6 9 7 10 8 11 20 12 9 13
REMARK SMILES IDX 10 14 12 15 19 16 11 17 13 18 18 19 14 20 15 21 16 22 17 23
REMARK SMILES IDX 24 24 25 25 26 26 27 27 28 28 29 29 30 30 31 31 95 32 32 33
REMARK SMILES IDX 94 34 33 35 34 36 35 37 88 38 36 39 93 40 87 41 89 42 37 43
REMARK SMILES IDX 92 44 86 45 85 46 38 48 72 49 51 50 71 51 52 52 55 53 70 54
REMARK SMILES IDX 90 55 53 56 54 57 69 59 91 60 56 61 39 62 40 63 49 64 41 65
REMARK SMILES IDX 42 66 48 67 50 68 43 69 44 70 45 71 46 72 47 73 73 74 74 75
REMARK SMILES IDX 83 76 75 77 76 78 82 79 84 80 77 81 78 82 79 83 80 84 81 85
REMARK SMILES IDX 57 86 58 87 67 88 59 89 60 90 66 91 68 92 61 93 62 94 63 95
REMARK SMILES IDX 64 96 65 97
REMARK H PARENT 89 47 55 58
REMARK Flexibility Score: inf
ROOT
ATOM      1  C   UNL A   1      43.994  20.570  25.311  1.00  0.00     0.202 C 
ENDROOT
BRANCH   1   2
ATOM      2  C   UNL A   1      42.644  20.274  25.955  1.00  0.00     0.261 C 
BRANCH   2   3
ATOM      3  O   UNL A   1      41.603  21.260  25.837  1.00  0.00    -0.463 OA
BRANCH   3   4
ATOM      4  C   UNL A   1      40.508  21.206  26.619  1.00  0.00     0.305 C 
ATOM      5  O   UNL A   1      40.489  20.507  27.631  1.00  0.00    -0.252 OA
BRANCH   4   6
ATOM      6  C   UNL A   1      39.324  22.076  26.233  1.00  0.00     0.123 C 
BRANCH   6   7
ATOM      7  C   UNL A   1      38.197  21.460  25.415  1.00  0.00     0.014 C 
BRANCH   7   8
ATOM      8  C   UNL A   1      36.759  21.831  25.783  1.00  0.00     0.023 C 
BRANCH   8   9
ATOM      9  C   UNL A   1      36.252  23.233  25.367  1.00  0.00     0.125 C 
BRANCH   9  10
ATOM     10  N   UNL A   1      35.010  23.240  24.592  1.00  0.00    -0.312 N 
ATOM     11  C   UNL A   1      35.152  23.149  23.201  1.00  0.00     0.227 C 
ATOM     12  C   UNL A   1      33.712  23.157  25.207  1.00  0.00     0.047 A 
ATOM     13  O   UNL A   1      36.214  22.903  22.629  1.00  0.00    -0.275 OA
ATOM     14  C   UNL A   1      33.931  23.498  22.400  1.00  0.00     0.105 C 
ATOM     15  C   UNL A   1      32.577  22.968  24.388  1.00  0.00    -0.017 A 
ATOM     16  C   UNL A   1      33.502  23.207  26.595  1.00  0.00     0.034 A 
ATOM     17  C   UNL A   1      32.742  22.731  22.913  1.00  0.00     0.048 C 
ATOM     18  C   UNL A   1      31.283  22.896  24.937  1.00  0.00     0.091 A 
ATOM     19  C   UNL A   1      32.215  23.129  27.151  1.00  0.00     0.088 A 
ATOM     20  C   UNL A   1      31.106  22.998  26.316  1.00  0.00     0.269 A 
BRANCH  20  21
ATOM     21  N   UNL A   1      29.752  22.972  26.882  1.00  0.00     0.062 N 
ATOM     22  O   UNL A   1      29.300  24.031  27.345  1.00  0.00    -0.258 OA
ATOM     23  O   UNL A   1      29.150  21.889  26.897  1.00  0.00    -0.258 OA
ENDBRANCH  20  21
ENDBRANCH   9  10
ENDBRANCH   8   9
ENDBRANCH   7   8
ENDBRANCH   6   7
ENDBRANCH   4   6
ENDBRANCH   3   4
ENDBRANCH   2   3
ENDBRANCH   1   2
BRANCH   1  24
ATOM     24  O   UNL A   1      44.035  21.834  24.650  1.00  0.00    -0.374 OA
BRANCH  24  25
ATOM     25  C   UNL A   1      44.497  22.904  25.486  1.00  0.00     0.202 C 
BRANCH  25  26
ATOM     26  C   UNL A   1      44.167  24.291  24.929  1.00  0.00     0.261 C 
BRANCH  26  27
ATOM     27  O   UNL A   1      43.585  25.119  25.945  1.00  0.00    -0.460 OA
BRANCH  27  28
ATOM     28  C   UNL A   1      44.236  26.296  26.158  1.00  0.00     0.338 C 
ATOM     29  O   UNL A   1      45.076  26.801  25.444  1.00  0.00    -0.246 OA
BRANCH  28  30
ATOM     30  C   UNL A   1      43.609  26.994  27.313  1.00  0.00     0.060 A 
ATOM     31  C   UNL A   1      43.704  28.392  27.357  1.00  0.00     0.016 A 
ATOM     32  C   UNL A   1      42.879  26.311  28.292  1.00  0.00     0.016 A 
ATOM     33  C   UNL A   1      43.121  29.104  28.405  1.00  0.00     0.010 A 
ATOM     34  C   UNL A   1      42.290  27.023  29.339  1.00  0.00     0.010 A 
ATOM     35  C   UNL A   1      42.447  28.417  29.423  1.00  0.00    -0.014 A 
BRANCH  35  36
ATOM     36  C   UNL A   1      42.108  29.118  30.684  1.00  0.00     0.031 A 
ATOM     37  C   UNL A   1      40.862  29.962  30.704  1.00  0.00     0.074 A 
ATOM     38  C   UNL A   1      42.873  29.000  31.784  1.00  0.00     0.049 A 
ATOM     39  N   UNL A   1      40.367  30.693  31.665  1.00  0.00    -0.248 NA
ATOM     40  C   UNL A   1      40.072  29.988  29.459  1.00  0.00     0.031 C 
ATOM     41  C   UNL A   1      44.085  28.190  31.893  1.00  0.00     0.029 A 
ATOM     42  N   UNL A   1      42.739  29.573  33.024  1.00  0.00    -0.354 N 
ATOM     43  C   UNL A   1      39.216  31.272  31.143  1.00  0.00     0.074 A 
ATOM     44  C   UNL A   1      39.109  30.841  29.767  1.00  0.00     0.031 C 
ATOM     45  C   UNL A   1      44.585  28.321  33.135  1.00  0.00     0.029 A 
ATOM     46  C   UNL A   1      43.746  29.244  33.898  1.00  0.00     0.049 A 
ATOM     47  H   UNL A   1      41.990  30.166  33.264  1.00  0.00     0.167 HD
ATOM     48  C   UNL A   1      38.320  32.078  31.758  1.00  0.00     0.037 A 
ATOM     49  C   UNL A   1      43.965  29.652  35.164  1.00  0.00     0.037 A 
ATOM     50  C   UNL A   1      38.434  32.503  33.127  1.00  0.00     0.049 A 
ATOM     51  C   UNL A   1      42.986  30.601  35.810  1.00  0.00     0.074 A 
ATOM     52  C   UNL A   1      37.573  33.303  33.854  1.00  0.00     0.029 A 
ATOM     53  N   UNL A   1      39.482  32.167  33.973  1.00  0.00    -0.354 N 
ATOM     54  N   UNL A   1      41.884  31.115  35.317  1.00  0.00    -0.248 NA
ATOM     55  C   UNL A   1      43.278  31.020  37.188  1.00  0.00     0.031 C 
ATOM     56  C   UNL A   1      38.127  33.495  35.125  1.00  0.00     0.029 A 
ATOM     57  C   UNL A   1      39.302  32.765  35.209  1.00  0.00     0.049 A 
ATOM     58  H   UNL A   1      40.241  31.589  33.731  1.00  0.00     0.167 HD
ATOM     59  C   UNL A   1      41.332  31.887  36.335  1.00  0.00     0.074 A 
ATOM     60  C   UNL A   1      42.220  31.767  37.474  1.00  0.00     0.031 C 
ATOM     61  C   UNL A   1      40.193  32.625  36.333  1.00  0.00     0.037 A 
BRANCH  48  62
ATOM     62  C   UNL A   1      37.159  32.572  30.939  1.00  0.00     0.058 A 
ATOM     63  C   UNL A   1      35.942  31.873  30.879  1.00  0.00     0.135 A 
ATOM     64  C   UNL A   1      37.267  33.762  30.201  1.00  0.00     0.135 A 
ATOM     65  F   UNL A   1      35.792  30.716  31.545  1.00  0.00    -0.206 F 
ATOM     66  C   UNL A   1      34.886  32.318  30.090  1.00  0.00     0.059 A 
ATOM     67  C   UNL A   1      36.212  34.243  29.431  1.00  0.00     0.059 A 
ATOM     68  F   UNL A   1      38.409  34.467  30.217  1.00  0.00    -0.206 F 
ATOM     69  C   UNL A   1      35.032  33.503  29.368  1.00  0.00     0.060 A 
BRANCH  69  70
ATOM     70  S   UNL A   1      33.657  34.062  28.341  1.00  0.00     0.124 S 
ATOM     71  O   UNL A   1      33.269  32.821  27.676  1.00  0.00    -0.237 OA
ATOM     72  O   UNL A   1      32.714  34.571  29.332  1.00  0.00    -0.237 OA
ATOM     73  O   UNL A   1      34.264  35.071  27.480  1.00  0.00    -0.744 OA
ENDBRANCH  69  70
ENDBRANCH  48  62
BRANCH  49  74
ATOM     74  C   UNL A   1      45.155  29.161  35.914  1.00  0.00     0.058 A 
ATOM     75  C   UNL A   1      45.070  28.035  36.746  1.00  0.00     0.135 A 
ATOM     76  C   UNL A   1      46.395  29.810  35.822  1.00  0.00     0.135 A 
ATOM     77  F   UNL A   1      43.903  27.385  36.878  1.00  0.00    -0.206 F 
ATOM     78  C   UNL A   1      46.166  27.578  37.472  1.00  0.00     0.059 A 
ATOM     79  C   UNL A   1      47.513  29.358  36.517  1.00  0.00     0.059 A 
ATOM     80  F   UNL A   1      46.533  30.889  35.034  1.00  0.00    -0.206 F 
ATOM     81  C   UNL A   1      47.385  28.246  37.348  1.00  0.00     0.060 A 
BRANCH  81  82
ATOM     82  S   UNL A   1      48.813  27.615  38.257  1.00  0.00     0.124 S 
ATOM     83  O   UNL A   1      49.423  26.732  37.270  1.00  0.00    -0.237 OA
ATOM     84  O   UNL A   1      49.547  28.839  38.560  1.00  0.00    -0.237 OA
ATOM     85  O   UNL A   1      48.209  26.953  39.410  1.00  0.00    -0.744 OA
ENDBRANCH  81  82
ENDBRANCH  49  74
BRANCH  61  86
ATOM     86  C   UNL A   1      39.813  33.321  37.613  1.00  0.00     0.058 A 
ATOM     87  C   UNL A   1      40.416  34.523  38.013  1.00  0.00     0.135 A 
ATOM     88  C   UNL A   1      38.793  32.797  38.426  1.00  0.00     0.135 A 
ATOM     89  F   UNL A   1      41.398  35.065  37.275  1.00  0.00    -0.206 F 
ATOM     90  C   UNL A   1      40.045  35.165  39.190  1.00  0.00     0.059 A 
ATOM     91  C   UNL A   1      38.384  33.439  39.590  1.00  0.00     0.059 A 
ATOM     92  F   UNL A   1      38.172  31.657  38.082  1.00  0.00    -0.206 F 
ATOM     93  C   UNL A   1      39.026  34.615  39.972  1.00  0.00     0.060 A 
BRANCH  93  94
ATOM     94  S   UNL A   1      38.537  35.469  41.485  1.00  0.00     0.124 S 
ATOM     95  O   UNL A   1      37.183  34.964  41.683  1.00  0.00    -0.237 OA
ATOM     96  O   UNL A   1      39.535  35.003  42.443  1.00  0.00    -0.237 OA
ATOM     97  O   UNL A   1      38.634  36.881  41.126  1.00  0.00    -0.744 OA
ENDBRANCH  93  94
ENDBRANCH  61  86
ENDBRANCH  35  36
ENDBRANCH  28  30
ENDBRANCH  27  28
ENDBRANCH  26  27
ENDBRANCH  25  26
ENDBRANCH  24  25
ENDBRANCH   1  24
TORSDOF 22
ENDMDL
MODEL 3
REMARK VINA RESULT:      -9.5      3.620     10.277
REMARK SMILES O=C(CCCCN1C(=O)CCc2cc([N+](=O)[O-])ccc21)OCCOCCOC(=O)c1ccc(-c2c3nc(c(-c4c(F)cc(S(=O)(=O)[O-])cc4F)c4ccc([nH]4)c(-c4c(F)cc(S(=O)(=O)[O-])cc4F)c4nc(c(-c5c(F)cc(S(=O)(=O)[O-])cc5F)c5ccc2[nH]5)C=C4)C=C3)cc1
REMARK SMILES IDX 23 1 22 2 21 3 2 4 1 5 3 6 4 7 5 8 6 9 7 10 8 11 20 12 9 13
REMARK SMILES IDX 10 14 12 15 19 16 11 17 13 18 18 19 14 20 15 21 16 22 17 23
REMARK SMILES IDX 24 24 25 25 26 26 27 27 28 28 29 29 30 30 31 31 95 32 32 33
REMARK SMILES IDX 94 34 33 35 34 36 35 37 88 38 36 39 93 40 87 41 89 42 37 43
REMARK SMILES IDX 92 44 86 45 85 46 38 48 72 49 51 50 71 51 52 52 55 53 70 54
REMARK SMILES IDX 90 55 53 56 54 57 69 59 91 60 56 61 39 62 40 63 49 64 41 65
REMARK SMILES IDX 42 66 48 67 50 68 43 69 44 70 45 71 46 72 47 73 73 74 74 75
REMARK SMILES IDX 83 76 75 77 76 78 82 79 84 80 77 81 78 82 79 83 80 84 81 85
REMARK SMILES IDX 57 86 58 87 67 88 59 89 60 90 66 91 68 92 61 93 62 94 63 95
REMARK SMILES IDX 64 96 65 97
REMARK H PARENT 89 47 55 58
REMARK Flexibility Score: inf
ROOT
ATOM      1  C   UNL A   1      44.287  23.529  24.722  1.00  0.00     0.202 C 
ENDROOT
BRANCH   1   2
ATOM      2  C   UNL A   1      45.689  24.089  24.941  1.00  0.00     0.261 C 
BRANCH   2   3
ATOM      3  O   UNL A   1      45.892  25.502  24.765  1.00  0.00    -0.463 OA
BRANCH   3   4
ATOM      4  C   UNL A   1      46.583  26.219  25.672  1.00  0.00     0.305 C 
ATOM      5  O   UNL A   1      47.813  26.205  25.682  1.00  0.00    -0.252 OA
BRANCH   4   6
ATOM      6  C   UNL A   1      45.791  27.082  26.639  1.00  0.00     0.123 C 
BRANCH   6   7
ATOM      7  C   UNL A   1      45.252  28.421  26.154  1.00  0.00     0.014 C 
BRANCH   7   8
ATOM      8  C   UNL A   1      45.059  29.533  27.188  1.00  0.00     0.023 C 
BRANCH   8   9
ATOM      9  C   UNL A   1      43.946  30.574  26.919  1.00  0.00     0.125 C 
BRANCH   9  10
ATOM     10  N   UNL A   1      44.234  31.928  27.397  1.00  0.00    -0.312 N 
ATOM     11  C   UNL A   1      44.899  32.770  26.496  1.00  0.00     0.227 C 
ATOM     12  C   UNL A   1      43.712  32.441  28.636  1.00  0.00     0.047 A 
ATOM     13  O   UNL A   1      45.097  32.498  25.312  1.00  0.00    -0.275 OA
ATOM     14  C   UNL A   1      45.493  34.015  27.089  1.00  0.00     0.105 C 
ATOM     15  C   UNL A   1      43.869  33.813  28.929  1.00  0.00    -0.017 A 
ATOM     16  C   UNL A   1      43.006  31.661  29.567  1.00  0.00     0.034 A 
ATOM     17  C   UNL A   1      44.457  34.741  27.903  1.00  0.00     0.048 C 
ATOM     18  C   UNL A   1      43.392  34.363  30.133  1.00  0.00     0.091 A 
ATOM     19  C   UNL A   1      42.521  32.203  30.768  1.00  0.00     0.088 A 
ATOM     20  C   UNL A   1      42.737  33.549  31.058  1.00  0.00     0.269 A 
BRANCH  20  21
ATOM     21  N   UNL A   1      42.284  34.114  32.335  1.00  0.00     0.062 N 
ATOM     22  O   UNL A   1      41.066  34.300  32.483  1.00  0.00    -0.258 OA
ATOM     23  O   UNL A   1      43.144  34.403  33.179  1.00  0.00    -0.258 OA
ENDBRANCH  20  21
ENDBRANCH   9  10
ENDBRANCH   8   9
ENDBRANCH   7   8
ENDBRANCH   6   7
ENDBRANCH   4   6
ENDBRANCH   3   4
ENDBRANCH   2   3
ENDBRANCH   1   2
BRANCH   1  24
ATOM     24  O   UNL A   1      44.091  22.255  25.333  1.00  0.00    -0.374 OA
BRANCH  24  25
ATOM     25  C   UNL A   1      42.958  22.206  26.211  1.00  0.00     0.202 C 
BRANCH  25  26
ATOM     26  C   UNL A   1      42.779  23.482  27.038  1.00  0.00     0.261 C 
BRANCH  26  27
ATOM     27  O   UNL A   1      41.485  24.056  26.808  1.00  0.00    -0.460 OA
BRANCH  27  28
ATOM     28  C   UNL A   1      41.507  25.330  26.329  1.00  0.00     0.338 C 
ATOM     29  O   UNL A   1      41.603  25.668  25.168  1.00  0.00    -0.246 OA
BRANCH  28  30
ATOM     30  C   UNL A   1      41.180  26.269  27.436  1.00  0.00     0.060 A 
ATOM     31  C   UNL A   1      41.871  27.489  27.479  1.00  0.00     0.016 A 
ATOM     32  C   UNL A   1      40.170  26.004  28.368  1.00  0.00     0.016 A 
ATOM     33  C   UNL A   1      41.595  28.418  28.482  1.00  0.00     0.010 A 
ATOM     34  C   UNL A   1      39.890  26.936  29.369  1.00  0.00     0.010 A 
ATOM     35  C   UNL A   1      40.633  28.126  29.456  1.00  0.00    -0.014 A 
BRANCH  35  36
ATOM     36  C   UNL A   1      40.560  28.946  30.688  1.00  0.00     0.031 A 
ATOM     37  C   UNL A   1      39.517  30.030  30.748  1.00  0.00     0.074 A 
ATOM     38  C   UNL A   1      41.382  28.730  31.730  1.00  0.00     0.049 A 
ATOM     39  N   UNL A   1      39.270  30.897  31.692  1.00  0.00    -0.248 NA
ATOM     40  C   UNL A   1      38.637  30.154  29.571  1.00  0.00     0.031 C 
ATOM     41  C   UNL A   1      42.410  27.693  31.799  1.00  0.00     0.029 A 
ATOM     42  N   UNL A   1      41.481  29.382  32.933  1.00  0.00    -0.354 N 
ATOM     43  C   UNL A   1      38.216  31.674  31.224  1.00  0.00     0.074 A 
ATOM     44  C   UNL A   1      37.899  31.204  29.894  1.00  0.00     0.031 C 
ATOM     45  C   UNL A   1      43.039  27.781  32.985  1.00  0.00     0.029 A 
ATOM     46  C   UNL A   1      42.477  28.897  33.745  1.00  0.00     0.049 A 
ATOM     47  H   UNL A   1      40.893  30.129  33.190  1.00  0.00     0.167 HD
ATOM     48  C   UNL A   1      37.562  32.680  31.850  1.00  0.00     0.037 A 
ATOM     49  C   UNL A   1      42.889  29.315  34.959  1.00  0.00     0.037 A 
ATOM     50  C   UNL A   1      37.885  33.142  33.172  1.00  0.00     0.049 A 
ATOM     51  C   UNL A   1      42.186  30.479  35.613  1.00  0.00     0.074 A 
ATOM     52  C   UNL A   1      37.274  34.140  33.908  1.00  0.00     0.029 A 
ATOM     53  N   UNL A   1      38.917  32.640  33.954  1.00  0.00    -0.354 N 
ATOM     54  N   UNL A   1      41.169  31.185  35.174  1.00  0.00    -0.248 NA
ATOM     55  C   UNL A   1      42.681  30.900  36.931  1.00  0.00     0.031 C 
ATOM     56  C   UNL A   1      37.969  34.279  35.114  1.00  0.00     0.029 A 
ATOM     57  C   UNL A   1      38.975  33.326  35.156  1.00  0.00     0.049 A 
ATOM     58  H   UNL A   1      39.517  31.906  33.694  1.00  0.00     0.167 HD
ATOM     59  C   UNL A   1      40.881  32.106  36.177  1.00  0.00     0.074 A 
ATOM     60  C   UNL A   1      41.827  31.863  37.246  1.00  0.00     0.031 C 
ATOM     61  C   UNL A   1      39.919  33.063  36.213  1.00  0.00     0.037 A 
BRANCH  48  62
ATOM     62  C   UNL A   1      36.455  33.360  31.092  1.00  0.00     0.058 A 
ATOM     63  C   UNL A   1      36.712  34.183  29.984  1.00  0.00     0.135 A 
ATOM     64  C   UNL A   1      35.117  33.185  31.482  1.00  0.00     0.135 A 
ATOM     65  F   UNL A   1      37.974  34.405  29.582  1.00  0.00    -0.206 F 
ATOM     66  C   UNL A   1      35.684  34.837  29.311  1.00  0.00     0.059 A 
ATOM     67  C   UNL A   1      34.071  33.804  30.804  1.00  0.00     0.059 A 
ATOM     68  F   UNL A   1      34.816  32.414  32.538  1.00  0.00    -0.206 F 
ATOM     69  C   UNL A   1      34.368  34.642  29.730  1.00  0.00     0.060 A 
BRANCH  69  70
ATOM     70  S   UNL A   1      33.047  35.506  28.854  1.00  0.00     0.124 S 
ATOM     71  O   UNL A   1      33.801  36.504  28.102  1.00  0.00    -0.237 OA
ATOM     72  O   UNL A   1      32.446  34.436  28.063  1.00  0.00    -0.237 OA
ATOM     73  O   UNL A   1      32.212  36.031  29.930  1.00  0.00    -0.744 OA
ENDBRANCH  69  70
ENDBRANCH  48  62
BRANCH  49  74
ATOM     74  C   UNL A   1      44.019  28.628  35.645  1.00  0.00     0.058 A 
ATOM     75  C   UNL A   1      43.784  27.597  36.567  1.00  0.00     0.135 A 
ATOM     76  C   UNL A   1      45.352  28.993  35.401  1.00  0.00     0.135 A 
ATOM     77  F   UNL A   1      42.527  27.219  36.844  1.00  0.00    -0.206 F 
ATOM     78  C   UNL A   1      44.827  26.961  37.233  1.00  0.00     0.059 A 
ATOM     79  C   UNL A   1      46.414  28.355  36.035  1.00  0.00     0.059 A 
ATOM     80  F   UNL A   1      45.632  29.969  34.522  1.00  0.00    -0.206 F 
ATOM     81  C   UNL A   1      46.140  27.347  36.958  1.00  0.00     0.060 A 
BRANCH  81  82
ATOM     82  S   UNL A   1      47.489  26.481  37.793  1.00  0.00     0.124 S 
ATOM     83  O   UNL A   1      48.592  26.689  36.863  1.00  0.00    -0.237 OA
ATOM     84  O   UNL A   1      47.575  27.202  39.059  1.00  0.00    -0.237 OA
ATOM     85  O   UNL A   1      46.995  25.111  37.893  1.00  0.00    -0.744 OA
ENDBRANCH  81  82
ENDBRANCH  49  74
BRANCH  61  86
ATOM     86  C   UNL A   1      39.807  33.888  37.467  1.00  0.00     0.058 A 
ATOM     87  C   UNL A   1      40.473  35.114  37.613  1.00  0.00     0.135 A 
ATOM     88  C   UNL A   1      38.978  33.463  38.520  1.00  0.00     0.135 A 
ATOM     89  F   UNL A   1      41.279  35.565  36.638  1.00  0.00    -0.206 F 
ATOM     90  C   UNL A   1      40.348  35.875  38.770  1.00  0.00     0.059 A 
ATOM     91  C   UNL A   1      38.814  34.223  39.673  1.00  0.00     0.059 A 
ATOM     92  F   UNL A   1      38.306  32.305  38.427  1.00  0.00    -0.206 F 
ATOM     93  C   UNL A   1      39.515  35.422  39.795  1.00  0.00     0.060 A 
BRANCH  93  94
ATOM     94  S   UNL A   1      39.343  36.429  41.284  1.00  0.00     0.124 S 
ATOM     95  O   UNL A   1      38.332  35.685  42.027  1.00  0.00    -0.237 OA
ATOM     96  O   UNL A   1      40.692  36.396  41.840  1.00  0.00    -0.237 OA
ATOM     97  O   UNL A   1      38.916  37.727  40.770  1.00  0.00    -0.744 OA
ENDBRANCH  93  94
ENDBRANCH  61  86
ENDBRANCH  35  36
ENDBRANCH  28  30
ENDBRANCH  27  28
ENDBRANCH  26  27
ENDBRANCH  25  26
ENDBRANCH  24  25
ENDBRANCH   1  24
TORSDOF 22
ENDMDL
