MODEL 1
REMARK VINA RESULT:      -9.9      0.000      0.000
REMARK SMILES Cc1cc(C)n2ncc(C(=O)N(C)CCCC(=O)OCCOCCOC(=O)c3ccc(-c4c5nc(c(-c6c(F)cc(S(=O)(=O)[O-])cc6F)c6ccc([nH]6)c(-c6c(F)cc(S(=O)(=O)[O-])cc6F)c6nc(c(-c7c(F)cc(S(=O)(=O)[O-])cc7F)c7ccc4[nH]7)C=C6)C=C5)cc3)c2n1
REMARK SMILES IDX 21 1 20 2 19 3 17 4 18 5 16 6 15 7 14 8 12 9 13 10 10 11
REMARK SMILES IDX 11 12 9 13 1 14 2 15 3 16 95 17 4 18 94 19 5 20 6 21 7 22
REMARK SMILES IDX 8 23 22 24 23 25 24 26 25 27 26 28 27 29 28 30 29 31 93 32
REMARK SMILES IDX 30 33 92 34 31 35 32 36 33 37 86 38 34 39 91 40 85 41 87 42
REMARK SMILES IDX 35 43 90 44 84 45 83 46 36 48 70 49 49 50 69 51 50 52 53 53
REMARK SMILES IDX 68 54 88 55 51 56 52 57 67 59 89 60 54 61 37 62 38 63 47 64
REMARK SMILES IDX 39 65 40 66 46 67 48 68 41 69 42 70 43 71 44 72 45 73 71 74
REMARK SMILES IDX 72 75 81 76 73 77 74 78 80 79 82 80 75 81 76 82 77 83 78 84
REMARK SMILES IDX 79 85 55 86 56 87 65 88 57 89 58 90 64 91 66 92 59 93 60 94
REMARK SMILES IDX 61 95 62 96 63 97
REMARK H PARENT 87 47 53 58
REMARK Flexibility Score: inf
ROOT
ATOM      1  C   UNL A   1      35.473  33.167  33.207  1.00  0.00     0.202 C 
ENDROOT
BRANCH   1   2
ATOM      2  C   UNL A   1      36.037  33.696  34.521  1.00  0.00     0.261 C 
BRANCH   2   3
ATOM      3  O   UNL A   1      37.087  34.637  34.268  1.00  0.00    -0.463 OA
BRANCH   3   4
ATOM      4  C   UNL A   1      38.197  34.161  33.658  1.00  0.00     0.305 C 
ATOM      5  O   UNL A   1      38.716  34.639  32.655  1.00  0.00    -0.252 OA
BRANCH   4   6
ATOM      6  C   UNL A   1      38.812  32.992  34.401  1.00  0.00     0.124 C 
BRANCH   6   7
ATOM      7  C   UNL A   1      39.779  33.273  35.557  1.00  0.00     0.033 C 
BRANCH   7   8
ATOM      8  C   UNL A   1      39.639  32.443  36.843  1.00  0.00     0.120 C 
BRANCH   8   9
ATOM      9  N   UNL A   1      38.564  32.887  37.735  1.00  0.00    -0.342 N 
ATOM     10  C   UNL A   1      38.484  34.326  37.914  1.00  0.00     0.147 C 
BRANCH   9  11
ATOM     11  C   UNL A   1      37.596  31.933  38.089  1.00  0.00     0.259 C 
ATOM     12  O   UNL A   1      37.519  30.894  37.431  1.00  0.00    -0.269 OA
BRANCH  11  13
ATOM     13  C   UNL A   1      36.729  32.084  39.252  1.00  0.00     0.104 A 
ATOM     14  C   UNL A   1      39.682  30.447  42.850  1.00  0.00     0.067 C 
ATOM     15  C   UNL A   1      38.374  30.950  42.287  1.00  0.00     0.042 A 
ATOM     16  C   UNL A   1      37.195  30.949  43.205  1.00  0.00     0.047 A 
ATOM     17  N   UNL A   1      38.344  31.332  41.045  1.00  0.00    -0.233 NA
ATOM     18  C   UNL A   1      36.044  31.424  42.696  1.00  0.00     0.043 A 
ATOM     19  C   UNL A   1      37.137  31.753  40.544  1.00  0.00     0.168 A 
ATOM     20  C   UNL A   1      34.769  31.474  43.477  1.00  0.00     0.067 C 
ATOM     21  N   UNL A   1      36.012  31.855  41.363  1.00  0.00    -0.219 N 
ATOM     22  N   UNL A   1      34.959  32.375  40.690  1.00  0.00    -0.174 NA
ATOM     23  C   UNL A   1      35.387  32.469  39.431  1.00  0.00     0.151 A 
ENDBRANCH  11  13
ENDBRANCH   9  11
ENDBRANCH   8   9
ENDBRANCH   7   8
ENDBRANCH   6   7
ENDBRANCH   4   6
ENDBRANCH   3   4
ENDBRANCH   2   3
ENDBRANCH   1   2
BRANCH   1  24
ATOM     24  O   UNL A   1      34.522  33.998  32.540  1.00  0.00    -0.374 OA
BRANCH  24  25
ATOM     25  C   UNL A   1      34.905  34.659  31.337  1.00  0.00     0.202 C 
BRANCH  25  26
ATOM     26  C   UNL A   1      34.253  34.205  30.037  1.00  0.00     0.261 C 
BRANCH  26  27
ATOM     27  O   UNL A   1      34.419  32.815  29.768  1.00  0.00    -0.460 OA
BRANCH  27  28
ATOM     28  C   UNL A   1      35.375  32.569  28.836  1.00  0.00     0.338 C 
ATOM     29  O   UNL A   1      35.364  32.920  27.672  1.00  0.00    -0.246 OA
BRANCH  28  30
ATOM     30  C   UNL A   1      36.352  31.618  29.384  1.00  0.00     0.060 A 
ATOM     31  C   UNL A   1      37.493  32.185  29.948  1.00  0.00     0.016 A 
ATOM     32  C   UNL A   1      36.275  30.247  29.091  1.00  0.00     0.016 A 
ATOM     33  C   UNL A   1      38.631  31.416  30.022  1.00  0.00     0.010 A 
ATOM     34  C   UNL A   1      37.414  29.475  29.177  1.00  0.00     0.010 A 
ATOM     35  C   UNL A   1      38.600  30.090  29.561  1.00  0.00    -0.014 A 
BRANCH  35  36
ATOM     36  C   UNL A   1      39.835  29.339  29.643  1.00  0.00     0.031 A 
ATOM     37  C   UNL A   1      40.220  29.077  31.045  1.00  0.00     0.074 A 
ATOM     38  C   UNL A   1      40.558  28.928  28.584  1.00  0.00     0.049 A 
ATOM     39  N   UNL A   1      41.109  29.712  31.730  1.00  0.00    -0.248 NA
ATOM     40  C   UNL A   1      39.364  28.188  31.843  1.00  0.00     0.031 C 
ATOM     41  C   UNL A   1      40.201  28.928  27.166  1.00  0.00     0.029 A 
ATOM     42  N   UNL A   1      41.798  28.365  28.586  1.00  0.00    -0.354 N 
ATOM     43  C   UNL A   1      41.096  29.128  32.987  1.00  0.00     0.074 A 
ATOM     44  C   UNL A   1      39.878  28.363  33.060  1.00  0.00     0.031 C 
ATOM     45  C   UNL A   1      41.114  28.202  26.474  1.00  0.00     0.029 A 
ATOM     46  C   UNL A   1      42.191  27.816  27.371  1.00  0.00     0.049 A 
ATOM     47  H   UNL A   1      42.371  28.347  29.386  1.00  0.00     0.167 HD
ATOM     48  C   UNL A   1      42.225  29.104  33.743  1.00  0.00     0.037 A 
ATOM     49  C   UNL A   1      43.315  27.085  27.141  1.00  0.00     0.037 A 
ATOM     50  C   UNL A   1      43.168  30.102  33.291  1.00  0.00     0.049 A 
ATOM     51  C   UNL A   1      44.285  27.461  28.204  1.00  0.00     0.074 A 
ATOM     52  C   UNL A   1      43.149  31.478  33.178  1.00  0.00     0.029 A 
ATOM     53  N   UNL A   1      44.209  29.675  32.504  1.00  0.00    -0.354 N 
ATOM     54  N   UNL A   1      44.823  28.647  28.305  1.00  0.00    -0.248 NA
ATOM     55  C   UNL A   1      44.302  26.665  29.421  1.00  0.00     0.031 C 
ATOM     56  C   UNL A   1      43.874  31.765  31.984  1.00  0.00     0.029 A 
ATOM     57  C   UNL A   1      44.350  30.560  31.466  1.00  0.00     0.049 A 
ATOM     58  H   UNL A   1      44.760  28.872  32.658  1.00  0.00     0.167 HD
ATOM     59  C   UNL A   1      44.850  28.910  29.667  1.00  0.00     0.074 A 
ATOM     60  C   UNL A   1      44.594  27.621  30.307  1.00  0.00     0.031 C 
ATOM     61  C   UNL A   1      44.803  30.190  30.141  1.00  0.00     0.037 A 
BRANCH  48  62
ATOM     62  C   UNL A   1      42.638  27.915  34.579  1.00  0.00     0.058 A 
ATOM     63  C   UNL A   1      42.770  28.078  35.973  1.00  0.00     0.135 A 
ATOM     64  C   UNL A   1      43.189  26.722  34.053  1.00  0.00     0.135 A 
ATOM     65  F   UNL A   1      42.286  29.171  36.583  1.00  0.00    -0.206 F 
ATOM     66  C   UNL A   1      43.476  27.174  36.767  1.00  0.00     0.059 A 
ATOM     67  C   UNL A   1      43.849  25.784  34.834  1.00  0.00     0.059 A 
ATOM     68  F   UNL A   1      43.205  26.444  32.746  1.00  0.00    -0.206 F 
ATOM     69  C   UNL A   1      44.025  26.038  36.182  1.00  0.00     0.060 A 
BRANCH  69  70
ATOM     70  S   UNL A   1      45.018  24.920  37.180  1.00  0.00     0.124 S 
ATOM     71  O   UNL A   1      46.346  25.508  37.039  1.00  0.00    -0.237 OA
ATOM     72  O   UNL A   1      44.391  25.054  38.490  1.00  0.00    -0.237 OA
ATOM     73  O   UNL A   1      44.827  23.628  36.528  1.00  0.00    -0.744 OA
ENDBRANCH  69  70
ENDBRANCH  48  62
BRANCH  49  74
ATOM     74  C   UNL A   1      43.451  25.828  26.350  1.00  0.00     0.058 A 
ATOM     75  C   UNL A   1      44.489  25.671  25.406  1.00  0.00     0.135 A 
ATOM     76  C   UNL A   1      42.768  24.649  26.709  1.00  0.00     0.135 A 
ATOM     77  F   UNL A   1      45.206  26.734  25.011  1.00  0.00    -0.206 F 
ATOM     78  C   UNL A   1      44.869  24.418  24.907  1.00  0.00     0.059 A 
ATOM     79  C   UNL A   1      43.124  23.392  26.218  1.00  0.00     0.059 A 
ATOM     80  F   UNL A   1      41.787  24.670  27.623  1.00  0.00    -0.206 F 
ATOM     81  C   UNL A   1      44.195  23.279  25.340  1.00  0.00     0.060 A 
BRANCH  81  82
ATOM     82  S   UNL A   1      44.792  21.644  24.843  1.00  0.00     0.124 S 
ATOM     83  O   UNL A   1      43.939  20.757  25.626  1.00  0.00    -0.237 OA
ATOM     84  O   UNL A   1      44.550  21.653  23.404  1.00  0.00    -0.237 OA
ATOM     85  O   UNL A   1      46.199  21.663  25.234  1.00  0.00    -0.744 OA
ENDBRANCH  81  82
ENDBRANCH  49  74
BRANCH  61  86
ATOM     86  C   UNL A   1      45.027  31.325  29.172  1.00  0.00     0.058 A 
ATOM     87  C   UNL A   1      46.291  31.759  28.731  1.00  0.00     0.135 A 
ATOM     88  C   UNL A   1      43.905  31.862  28.524  1.00  0.00     0.135 A 
ATOM     89  F   UNL A   1      47.415  31.236  29.240  1.00  0.00    -0.206 F 
ATOM     90  C   UNL A   1      46.428  32.688  27.696  1.00  0.00     0.059 A 
ATOM     91  C   UNL A   1      44.018  32.767  27.474  1.00  0.00     0.059 A 
ATOM     92  F   UNL A   1      42.672  31.452  28.868  1.00  0.00    -0.206 F 
ATOM     93  C   UNL A   1      45.284  33.177  27.063  1.00  0.00     0.060 A 
BRANCH  93  94
ATOM     94  S   UNL A   1      45.464  34.287  25.648  1.00  0.00     0.124 S 
ATOM     95  O   UNL A   1      44.684  33.606  24.620  1.00  0.00    -0.237 OA
ATOM     96  O   UNL A   1      44.895  35.534  26.153  1.00  0.00    -0.237 OA
ATOM     97  O   UNL A   1      46.906  34.318  25.417  1.00  0.00    -0.744 OA
ENDBRANCH  93  94
ENDBRANCH  61  86
ENDBRANCH  35  36
ENDBRANCH  28  30
ENDBRANCH  27  28
ENDBRANCH  26  27
ENDBRANCH  25  26
ENDBRANCH  24  25
ENDBRANCH   1  24
TORSDOF 22
ENDMDL
MODEL 2
REMARK VINA RESULT:      -9.8      4.293      8.438
REMARK SMILES Cc1cc(C)n2ncc(C(=O)N(C)CCCC(=O)OCCOCCOC(=O)c3ccc(-c4c5nc(c(-c6c(F)cc(S(=O)(=O)[O-])cc6F)c6ccc([nH]6)c(-c6c(F)cc(S(=O)(=O)[O-])cc6F)c6nc(c(-c7c(F)cc(S(=O)(=O)[O-])cc7F)c7ccc4[nH]7)C=C6)C=C5)cc3)c2n1
REMARK SMILES IDX 21 1 20 2 19 3 17 4 18 5 16 6 15 7 14 8 12 9 13 10 10 11
REMARK SMILES IDX 11 12 9 13 1 14 2 15 3 16 95 17 4 18 94 19 5 20 6 21 7 22
REMARK SMILES IDX 8 23 22 24 23 25 24 26 25 27 26 28 27 29 28 30 29 31 93 32
REMARK SMILES IDX 30 33 92 34 31 35 32 36 33 37 86 38 34 39 91 40 85 41 87 42
REMARK SMILES IDX 35 43 90 44 84 45 83 46 36 48 70 49 49 50 69 51 50 52 53 53
REMARK SMILES IDX 68 54 88 55 51 56 52 57 67 59 89 60 54 61 37 62 38 63 47 64
REMARK SMILES IDX 39 65 40 66 46 67 48 68 41 69 42 70 43 71 44 72 45 73 71 74
REMARK SMILES IDX 72 75 81 76 73 77 74 78 80 79 82 80 75 81 76 82 77 83 78 84
REMARK SMILES IDX 79 85 55 86 56 87 65 88 57 89 58 90 64 91 66 92 59 93 60 94
REMARK SMILES IDX 61 95 62 96 63 97
REMARK H PARENT 87 47 53 58
REMARK Flexibility Score: inf
ROOT
ATOM      1  C   UNL A   1      34.824  31.476  27.920  1.00  0.00     0.202 C 
ENDROOT
BRANCH   1   2
ATOM      2  C   UNL A   1      34.294  30.099  27.536  1.00  0.00     0.261 C 
BRANCH   2   3
ATOM      3  O   UNL A   1      33.623  30.160  26.273  1.00  0.00    -0.463 OA
BRANCH   3   4
ATOM      4  C   UNL A   1      32.271  30.102  26.297  1.00  0.00     0.305 C 
ATOM      5  O   UNL A   1      31.517  31.029  26.023  1.00  0.00    -0.252 OA
BRANCH   4   6
ATOM      6  C   UNL A   1      31.755  28.715  26.624  1.00  0.00     0.124 C 
BRANCH   6   7
ATOM      7  C   UNL A   1      32.183  27.537  25.743  1.00  0.00     0.033 C 
BRANCH   7   8
ATOM      8  C   UNL A   1      32.670  26.251  26.430  1.00  0.00     0.120 C 
BRANCH   8   9
ATOM      9  N   UNL A   1      32.095  25.018  25.884  1.00  0.00    -0.342 N 
ATOM     10  C   UNL A   1      30.644  25.006  25.818  1.00  0.00     0.147 C 
BRANCH   9  11
ATOM     11  C   UNL A   1      32.981  24.127  25.257  1.00  0.00     0.259 C 
ATOM     12  O   UNL A   1      34.003  24.575  24.736  1.00  0.00    -0.269 OA
BRANCH  11  13
ATOM     13  C   UNL A   1      32.780  22.682  25.263  1.00  0.00     0.104 A 
ATOM     14  C   UNL A   1      37.444  21.084  25.042  1.00  0.00     0.067 C 
ATOM     15  C   UNL A   1      35.944  20.907  25.047  1.00  0.00     0.042 A 
ATOM     16  C   UNL A   1      35.423  19.531  24.785  1.00  0.00     0.047 A 
ATOM     17  N   UNL A   1      35.200  21.953  25.258  1.00  0.00    -0.233 NA
ATOM     18  C   UNL A   1      34.086  19.386  24.818  1.00  0.00     0.043 A 
ATOM     19  C   UNL A   1      33.840  21.775  25.223  1.00  0.00     0.168 A 
ATOM     20  C   UNL A   1      33.404  18.080  24.558  1.00  0.00     0.067 C 
ATOM     21  N   UNL A   1      33.281  20.507  25.064  1.00  0.00    -0.219 N 
ATOM     22  N   UNL A   1      31.931  20.549  25.151  1.00  0.00    -0.174 NA
ATOM     23  C   UNL A   1      31.647  21.849  25.230  1.00  0.00     0.151 A 
ENDBRANCH  11  13
ENDBRANCH   9  11
ENDBRANCH   8   9
ENDBRANCH   7   8
ENDBRANCH   6   7
ENDBRANCH   4   6
ENDBRANCH   3   4
ENDBRANCH   2   3
ENDBRANCH   1   2
BRANCH   1  24
ATOM     24  O   UNL A   1      33.857  32.519  28.052  1.00  0.00    -0.374 OA
BRANCH  24  25
ATOM     25  C   UNL A   1      34.069  33.539  29.022  1.00  0.00     0.202 C 
BRANCH  25  26
ATOM     26  C   UNL A   1      35.072  33.266  30.135  1.00  0.00     0.261 C 
BRANCH  26  27
ATOM     27  O   UNL A   1      34.585  32.383  31.142  1.00  0.00    -0.460 OA
BRANCH  27  28
ATOM     28  C   UNL A   1      35.549  31.994  32.016  1.00  0.00     0.338 C 
ATOM     29  O   UNL A   1      35.637  32.306  33.187  1.00  0.00    -0.246 OA
BRANCH  28  30
ATOM     30  C   UNL A   1      36.613  31.296  31.283  1.00  0.00     0.060 A 
ATOM     31  C   UNL A   1      36.419  29.928  31.097  1.00  0.00     0.016 A 
ATOM     32  C   UNL A   1      37.858  31.903  31.053  1.00  0.00     0.016 A 
ATOM     33  C   UNL A   1      37.526  29.138  30.887  1.00  0.00     0.010 A 
ATOM     34  C   UNL A   1      38.964  31.110  30.832  1.00  0.00     0.010 A 
ATOM     35  C   UNL A   1      38.797  29.730  30.836  1.00  0.00    -0.014 A 
BRANCH  35  36
ATOM     36  C   UNL A   1      39.925  28.844  30.636  1.00  0.00     0.031 A 
ATOM     37  C   UNL A   1      40.722  28.691  31.870  1.00  0.00     0.074 A 
ATOM     38  C   UNL A   1      40.227  28.232  29.475  1.00  0.00     0.049 A 
ATOM     39  N   UNL A   1      41.835  29.281  32.145  1.00  0.00    -0.248 NA
ATOM     40  C   UNL A   1      40.100  28.009  33.014  1.00  0.00     0.031 C 
ATOM     41  C   UNL A   1      39.429  28.122  28.254  1.00  0.00     0.029 A 
ATOM     42  N   UNL A   1      41.348  27.522  29.172  1.00  0.00    -0.354 N 
ATOM     43  C   UNL A   1      42.183  28.844  33.414  1.00  0.00     0.074 A 
ATOM     44  C   UNL A   1      40.995  28.251  33.973  1.00  0.00     0.031 C 
ATOM     45  C   UNL A   1      40.003  27.216  27.425  1.00  0.00     0.029 A 
ATOM     46  C   UNL A   1      41.277  26.799  27.986  1.00  0.00     0.049 A 
ATOM     47  H   UNL A   1      42.147  27.520  29.747  1.00  0.00     0.167 HD
ATOM     48  C   UNL A   1      43.491  28.762  33.776  1.00  0.00     0.037 A 
ATOM     49  C   UNL A   1      42.199  25.912  27.526  1.00  0.00     0.037 A 
ATOM     50  C   UNL A   1      44.315  29.577  32.914  1.00  0.00     0.049 A 
ATOM     51  C   UNL A   1      43.491  26.277  28.167  1.00  0.00     0.074 A 
ATOM     52  C   UNL A   1      44.375  30.925  32.615  1.00  0.00     0.029 A 
ATOM     53  N   UNL A   1      45.004  28.940  31.911  1.00  0.00    -0.354 N 
ATOM     54  N   UNL A   1      44.129  27.390  27.924  1.00  0.00    -0.248 NA
ATOM     55  C   UNL A   1      43.836  25.623  29.420  1.00  0.00     0.031 C 
ATOM     56  C   UNL A   1      44.694  30.986  31.227  1.00  0.00     0.029 A 
ATOM     57  C   UNL A   1      44.873  29.681  30.765  1.00  0.00     0.049 A 
ATOM     58  H   UNL A   1      45.506  28.096  31.999  1.00  0.00     0.167 HD
ATOM     59  C   UNL A   1      44.620  27.795  29.157  1.00  0.00     0.074 A 
ATOM     60  C   UNL A   1      44.479  26.626  30.023  1.00  0.00     0.031 C 
ATOM     61  C   UNL A   1      44.837  29.115  29.433  1.00  0.00     0.037 A 
BRANCH  48  62
ATOM     62  C   UNL A   1      44.052  27.628  34.603  1.00  0.00     0.058 A 
ATOM     63  C   UNL A   1      44.786  27.937  35.766  1.00  0.00     0.135 A 
ATOM     64  C   UNL A   1      44.157  26.290  34.156  1.00  0.00     0.135 A 
ATOM     65  F   UNL A   1      44.762  29.175  36.283  1.00  0.00    -0.206 F 
ATOM     66  C   UNL A   1      45.630  27.013  36.383  1.00  0.00     0.059 A 
ATOM     67  C   UNL A   1      44.950  25.342  34.786  1.00  0.00     0.059 A 
ATOM     68  F   UNL A   1      43.577  25.850  33.035  1.00  0.00    -0.206 F 
ATOM     69  C   UNL A   1      45.716  25.722  35.872  1.00  0.00     0.060 A 
BRANCH  69  70
ATOM     70  S   UNL A   1      46.876  24.558  36.601  1.00  0.00     0.124 S 
ATOM     71  O   UNL A   1      45.974  23.644  37.293  1.00  0.00    -0.237 OA
ATOM     72  O   UNL A   1      47.547  24.027  35.419  1.00  0.00    -0.237 OA
ATOM     73  O   UNL A   1      47.703  25.400  37.460  1.00  0.00    -0.744 OA
ENDBRANCH  69  70
ENDBRANCH  48  62
BRANCH  49  74
ATOM     74  C   UNL A   1      41.965  24.568  26.921  1.00  0.00     0.058 A 
ATOM     75  C   UNL A   1      42.873  24.022  25.988  1.00  0.00     0.135 A 
ATOM     76  C   UNL A   1      41.026  23.667  27.460  1.00  0.00     0.135 A 
ATOM     77  F   UNL A   1      43.813  24.799  25.429  1.00  0.00    -0.206 F 
ATOM     78  C   UNL A   1      42.892  22.659  25.666  1.00  0.00     0.059 A 
ATOM     79  C   UNL A   1      41.020  22.307  27.147  1.00  0.00     0.059 A 
ATOM     80  F   UNL A   1      40.136  24.064  28.381  1.00  0.00    -0.206 F 
ATOM     81  C   UNL A   1      41.975  21.802  26.273  1.00  0.00     0.060 A 
BRANCH  81  82
ATOM     82  S   UNL A   1      42.106  20.017  26.003  1.00  0.00     0.124 S 
ATOM     83  O   UNL A   1      43.243  19.930  25.094  1.00  0.00    -0.237 OA
ATOM     84  O   UNL A   1      42.332  19.517  27.355  1.00  0.00    -0.237 OA
ATOM     85  O   UNL A   1      40.813  19.666  25.421  1.00  0.00    -0.744 OA
ENDBRANCH  81  82
ENDBRANCH  49  74
BRANCH  61  86
ATOM     86  C   UNL A   1      44.828  30.100  28.290  1.00  0.00     0.058 A 
ATOM     87  C   UNL A   1      43.667  30.690  27.755  1.00  0.00     0.135 A 
ATOM     88  C   UNL A   1      46.061  30.606  27.853  1.00  0.00     0.135 A 
ATOM     89  F   UNL A   1      42.450  30.322  28.179  1.00  0.00    -0.206 F 
ATOM     90  C   UNL A   1      43.734  31.730  26.824  1.00  0.00     0.059 A 
ATOM     91  C   UNL A   1      46.151  31.660  26.949  1.00  0.00     0.059 A 
ATOM     92  F   UNL A   1      47.205  30.117  28.362  1.00  0.00    -0.206 F 
ATOM     93  C   UNL A   1      44.983  32.219  26.437  1.00  0.00     0.060 A 
BRANCH  93  94
ATOM     94  S   UNL A   1      45.069  33.642  25.326  1.00  0.00     0.124 S 
ATOM     95  O   UNL A   1      46.497  33.945  25.322  1.00  0.00    -0.237 OA
ATOM     96  O   UNL A   1      44.532  33.100  24.080  1.00  0.00    -0.237 OA
ATOM     97  O   UNL A   1      44.223  34.638  25.978  1.00  0.00    -0.744 OA
ENDBRANCH  93  94
ENDBRANCH  61  86
ENDBRANCH  35  36
ENDBRANCH  28  30
ENDBRANCH  27  28
ENDBRANCH  26  27
ENDBRANCH  25  26
ENDBRANCH  24  25
ENDBRANCH   1  24
TORSDOF 22
ENDMDL
MODEL 3
REMARK VINA RESULT:      -9.5      4.335      8.563
REMARK SMILES Cc1cc(C)n2ncc(C(=O)N(C)CCCC(=O)OCCOCCOC(=O)c3ccc(-c4c5nc(c(-c6c(F)cc(S(=O)(=O)[O-])cc6F)c6ccc([nH]6)c(-c6c(F)cc(S(=O)(=O)[O-])cc6F)c6nc(c(-c7c(F)cc(S(=O)(=O)[O-])cc7F)c7ccc4[nH]7)C=C6)C=C5)cc3)c2n1
REMARK SMILES IDX 21 1 20 2 19 3 17 4 18 5 16 6 15 7 14 8 12 9 13 10 10 11
REMARK SMILES IDX 11 12 9 13 1 14 2 15 3 16 95 17 4 18 94 19 5 20 6 21 7 22
REMARK SMILES IDX 8 23 22 24 23 25 24 26 25 27 26 28 27 29 28 30 29 31 93 32
REMARK SMILES IDX 30 33 92 34 31 35 32 36 33 37 86 38 34 39 91 40 85 41 87 42
REMARK SMILES IDX 35 43 90 44 84 45 83 46 36 48 70 49 49 50 69 51 50 52 53 53
REMARK SMILES IDX 68 54 88 55 51 56 52 57 67 59 89 60 54 61 37 62 38 63 47 64
REMARK SMILES IDX 39 65 40 66 46 67 48 68 41 69 42 70 43 71 44 72 45 73 71 74
REMARK SMILES IDX 72 75 81 76 73 77 74 78 80 79 82 80 75 81 76 82 77 83 78 84
REMARK SMILES IDX 79 85 55 86 56 87 65 88 57 89 58 90 64 91 66 92 59 93 60 94
REMARK SMILES IDX 61 95 62 96 63 97
REMARK H PARENT 87 47 53 58
REMARK Flexibility Score: inf
ROOT
ATOM      1  C   UNL A   1      33.743  30.983  27.353  1.00  0.00     0.202 C 
ENDROOT
BRANCH   1   2
ATOM      2  C   UNL A   1      32.644  29.968  27.058  1.00  0.00     0.261 C 
BRANCH   2   3
ATOM      3  O   UNL A   1      32.415  29.881  25.646  1.00  0.00    -0.463 OA
BRANCH   3   4
ATOM      4  C   UNL A   1      31.217  30.321  25.195  1.00  0.00     0.305 C 
ATOM      5  O   UNL A   1      30.712  31.405  25.467  1.00  0.00    -0.252 OA
BRANCH   4   6
ATOM      6  C   UNL A   1      30.572  29.354  24.223  1.00  0.00     0.124 C 
BRANCH   6   7
ATOM      7  C   UNL A   1      31.331  28.964  22.950  1.00  0.00     0.033 C 
BRANCH   7   8
ATOM      8  C   UNL A   1      31.684  27.483  22.738  1.00  0.00     0.120 C 
BRANCH   8   9
ATOM      9  N   UNL A   1      33.122  27.211  22.646  1.00  0.00    -0.342 N 
ATOM     10  C   UNL A   1      33.972  28.316  23.053  1.00  0.00     0.147 C 
BRANCH   9  11
ATOM     11  C   UNL A   1      33.505  25.875  22.444  1.00  0.00     0.259 C 
ATOM     12  O   UNL A   1      33.625  25.460  21.290  1.00  0.00    -0.269 OA
BRANCH  11  13
ATOM     13  C   UNL A   1      33.841  24.977  23.543  1.00  0.00     0.104 A 
ATOM     14  C   UNL A   1      31.780  20.772  21.990  1.00  0.00     0.067 C 
ATOM     15  C   UNL A   1      32.500  21.646  22.989  1.00  0.00     0.042 A 
ATOM     16  C   UNL A   1      32.738  21.069  24.347  1.00  0.00     0.047 A 
ATOM     17  N   UNL A   1      32.851  22.843  22.622  1.00  0.00    -0.233 NA
ATOM     18  C   UNL A   1      33.402  21.850  25.217  1.00  0.00     0.043 A 
ATOM     19  C   UNL A   1      33.473  23.632  23.556  1.00  0.00     0.168 A 
ATOM     20  C   UNL A   1      33.704  21.431  26.621  1.00  0.00     0.067 C 
ATOM     21  N   UNL A   1      33.800  23.135  24.819  1.00  0.00    -0.219 N 
ATOM     22  N   UNL A   1      34.486  24.047  25.544  1.00  0.00    -0.174 NA
ATOM     23  C   UNL A   1      34.469  25.147  24.791  1.00  0.00     0.151 A 
ENDBRANCH  11  13
ENDBRANCH   9  11
ENDBRANCH   8   9
ENDBRANCH   7   8
ENDBRANCH   6   7
ENDBRANCH   4   6
ENDBRANCH   3   4
ENDBRANCH   2   3
ENDBRANCH   1   2
BRANCH   1  24
ATOM     24  O   UNL A   1      33.373  32.362  27.290  1.00  0.00    -0.374 OA
BRANCH  24  25
ATOM     25  C   UNL A   1      33.937  33.272  28.228  1.00  0.00     0.202 C 
BRANCH  25  26
ATOM     26  C   UNL A   1      34.959  32.730  29.220  1.00  0.00     0.261 C 
BRANCH  26  27
ATOM     27  O   UNL A   1      34.389  32.300  30.453  1.00  0.00    -0.460 OA
BRANCH  27  28
ATOM     28  C   UNL A   1      35.323  32.000  31.391  1.00  0.00     0.338 C 
ATOM     29  O   UNL A   1      35.318  32.341  32.558  1.00  0.00    -0.246 OA
BRANCH  28  30
ATOM     30  C   UNL A   1      36.476  31.364  30.739  1.00  0.00     0.060 A 
ATOM     31  C   UNL A   1      36.448  29.971  30.690  1.00  0.00     0.016 A 
ATOM     32  C   UNL A   1      37.645  32.089  30.460  1.00  0.00     0.016 A 
ATOM     33  C   UNL A   1      37.644  29.302  30.568  1.00  0.00     0.010 A 
ATOM     34  C   UNL A   1      38.841  31.416  30.327  1.00  0.00     0.010 A 
ATOM     35  C   UNL A   1      38.838  30.033  30.467  1.00  0.00    -0.014 A 
BRANCH  35  36
ATOM     36  C   UNL A   1      40.066  29.272  30.366  1.00  0.00     0.031 A 
ATOM     37  C   UNL A   1      40.680  29.052  31.691  1.00  0.00     0.074 A 
ATOM     38  C   UNL A   1      40.597  28.819  29.215  1.00  0.00     0.049 A 
ATOM     39  N   UNL A   1      41.676  29.700  32.194  1.00  0.00    -0.248 NA
ATOM     40  C   UNL A   1      39.967  28.200  32.651  1.00  0.00     0.031 C 
ATOM     41  C   UNL A   1      40.005  28.776  27.878  1.00  0.00     0.029 A 
ATOM     42  N   UNL A   1      41.816  28.242  29.027  1.00  0.00    -0.354 N 
ATOM     43  C   UNL A   1      41.872  29.157  33.454  1.00  0.00     0.074 A 
ATOM     44  C   UNL A   1      40.680  28.409  33.758  1.00  0.00     0.031 C 
ATOM     45  C   UNL A   1      40.784  28.018  27.067  1.00  0.00     0.029 A 
ATOM     46  C   UNL A   1      41.995  27.650  27.782  1.00  0.00     0.049 A 
ATOM     47  H   UNL A   1      42.516  28.245  29.719  1.00  0.00     0.167 HD
ATOM     48  C   UNL A   1      43.113  29.146  34.009  1.00  0.00     0.037 A 
ATOM     49  C   UNL A   1      43.060  26.899  27.391  1.00  0.00     0.037 A 
ATOM     50  C   UNL A   1      43.971  30.118  33.371  1.00  0.00     0.049 A 
ATOM     51  C   UNL A   1      44.198  27.300  28.261  1.00  0.00     0.074 A 
ATOM     52  C   UNL A   1      43.940  31.490  33.215  1.00  0.00     0.029 A 
ATOM     53  N   UNL A   1      44.862  29.654  32.434  1.00  0.00    -0.354 N 
ATOM     54  N   UNL A   1      44.751  28.483  28.229  1.00  0.00    -0.248 NA
ATOM     55  C   UNL A   1      44.417  26.544  29.485  1.00  0.00     0.031 C 
ATOM     56  C   UNL A   1      44.455  31.730  31.907  1.00  0.00     0.029 A 
ATOM     57  C   UNL A   1      44.830  30.503  31.358  1.00  0.00     0.049 A 
ATOM     58  H   UNL A   1      45.427  28.851  32.520  1.00  0.00     0.167 HD
ATOM     59  C   UNL A   1      45.010  28.790  29.557  1.00  0.00     0.074 A 
ATOM     60  C   UNL A   1      44.859  27.525  30.275  1.00  0.00     0.031 C 
ATOM     61  C   UNL A   1      45.050  30.085  29.989  1.00  0.00     0.037 A 
BRANCH  48  62
ATOM     62  C   UNL A   1      43.655  27.981  34.803  1.00  0.00     0.058 A 
ATOM     63  C   UNL A   1      44.226  28.229  36.068  1.00  0.00     0.135 A 
ATOM     64  C   UNL A   1      43.906  26.696  34.266  1.00  0.00     0.135 A 
ATOM     65  F   UNL A   1      44.055  29.412  36.677  1.00  0.00    -0.206 F 
ATOM     66  C   UNL A   1      45.059  27.307  36.705  1.00  0.00     0.059 A 
ATOM     67  C   UNL A   1      44.688  25.746  34.907  1.00  0.00     0.059 A 
ATOM     68  F   UNL A   1      43.492  26.323  33.051  1.00  0.00    -0.206 F 
ATOM     69  C   UNL A   1      45.294  26.075  36.105  1.00  0.00     0.060 A 
BRANCH  69  70
ATOM     70  S   UNL A   1      46.443  24.923  36.872  1.00  0.00     0.124 S 
ATOM     71  O   UNL A   1      47.580  25.792  37.153  1.00  0.00    -0.237 OA
ATOM     72  O   UNL A   1      45.680  24.468  38.030  1.00  0.00    -0.237 OA
ATOM     73  O   UNL A   1      46.655  23.919  35.834  1.00  0.00    -0.744 OA
ENDBRANCH  69  70
ENDBRANCH  48  62
BRANCH  49  74
ATOM     74  C   UNL A   1      43.054  25.615  26.632  1.00  0.00     0.058 A 
ATOM     75  C   UNL A   1      43.820  25.462  25.456  1.00  0.00     0.135 A 
ATOM     76  C   UNL A   1      42.551  24.426  27.193  1.00  0.00     0.135 A 
ATOM     77  F   UNL A   1      44.353  26.537  24.854  1.00  0.00    -0.206 F 
ATOM     78  C   UNL A   1      44.125  24.206  24.915  1.00  0.00     0.059 A 
ATOM     79  C   UNL A   1      42.834  23.164  26.667  1.00  0.00     0.059 A 
ATOM     80  F   UNL A   1      41.839  24.444  28.329  1.00  0.00    -0.206 F 
ATOM     81  C   UNL A   1      43.646  23.059  25.545  1.00  0.00     0.060 A 
BRANCH  81  82
ATOM     82  S   UNL A   1      44.181  21.430  24.960  1.00  0.00     0.124 S 
ATOM     83  O   UNL A   1      44.399  21.674  23.539  1.00  0.00    -0.237 OA
ATOM     84  O   UNL A   1      45.380  21.196  25.758  1.00  0.00    -0.237 OA
ATOM     85  O   UNL A   1      43.047  20.566  25.279  1.00  0.00    -0.744 OA
ENDBRANCH  81  82
ENDBRANCH  49  74
BRANCH  61  86
ATOM     86  C   UNL A   1      45.113  31.185  28.957  1.00  0.00     0.058 A 
ATOM     87  C   UNL A   1      46.280  31.569  28.271  1.00  0.00     0.135 A 
ATOM     88  C   UNL A   1      43.901  31.736  28.515  1.00  0.00     0.135 A 
ATOM     89  F   UNL A   1      47.468  31.028  28.576  1.00  0.00    -0.206 F 
ATOM     90  C   UNL A   1      46.240  32.464  27.199  1.00  0.00     0.059 A 
ATOM     91  C   UNL A   1      43.835  32.607  27.432  1.00  0.00     0.059 A 
ATOM     92  F   UNL A   1      42.746  31.372  29.098  1.00  0.00    -0.206 F 
ATOM     93  C   UNL A   1      45.009  32.968  26.777  1.00  0.00     0.060 A 
BRANCH  93  94
ATOM     94  S   UNL A   1      44.943  34.032  25.317  1.00  0.00     0.124 S 
ATOM     95  O   UNL A   1      43.954  35.031  25.707  1.00  0.00    -0.237 OA
ATOM     96  O   UNL A   1      46.320  34.509  25.214  1.00  0.00    -0.237 OA
ATOM     97  O   UNL A   1      44.526  33.125  24.250  1.00  0.00    -0.744 OA
ENDBRANCH  93  94
ENDBRANCH  61  86
ENDBRANCH  35  36
ENDBRANCH  28  30
ENDBRANCH  27  28
ENDBRANCH  26  27
ENDBRANCH  25  26
ENDBRANCH  24  25
ENDBRANCH   1  24
TORSDOF 22
ENDMDL
