MODEL 1
REMARK VINA RESULT:     -10.1      0.000      0.000
REMARK SMILES CC[N@@H+](C[C@H]1CCCO1)[C@@H](C)c1ccc(C(=O)OCCOCCOC(=O)c2ccc(-c3c4nc(c(-c5c(F)cc(S(=O)(=O)[O-])cc5F)c5ccc([nH]5)c(-c5c(F)cc(S(=O)(=O)[O-])cc5F)c5nc(c(-c6c(F)cc(S(=O)(=O)[O-])cc6F)c6ccc3[nH]6)C=C5)C=C4)cc2)o1
REMARK SMILES IDX 20 1 19 2 18 3 16 4 17 5 15 6 12 7 13 8 93 9 14 10 10 11
REMARK SMILES IDX 11 12 3 13 2 15 1 16 4 17 5 18 6 19 9 20 7 21 8 22 21 23
REMARK SMILES IDX 22 24 23 25 24 26 25 27 26 28 27 29 28 30 92 31 29 32 91 33
REMARK SMILES IDX 30 34 31 35 32 36 85 37 33 38 90 39 84 40 86 41 34 42 89 43
REMARK SMILES IDX 83 44 82 45 35 47 69 48 48 49 68 50 49 51 52 52 67 53 87 54
REMARK SMILES IDX 50 55 51 56 66 58 88 59 53 60 36 61 37 62 46 63 38 64 39 65
REMARK SMILES IDX 45 66 47 67 40 68 41 69 42 70 43 71 44 72 70 73 71 74 80 75
REMARK SMILES IDX 72 76 73 77 79 78 81 79 74 80 75 81 76 82 77 83 78 84 54 85
REMARK SMILES IDX 55 86 64 87 56 88 57 89 63 90 65 91 58 92 59 93 60 94 61 95
REMARK SMILES IDX 62 96
REMARK H PARENT 3 14 86 46 52 57
REMARK Flexibility Score: inf
ROOT
ATOM      1  C   UNL A   1      33.176  28.136  23.934  1.00  0.00     0.202 C 
ENDROOT
BRANCH   1   2
ATOM      2  C   UNL A   1      33.411  27.362  22.631  1.00  0.00     0.261 C 
BRANCH   2   3
ATOM      3  O   UNL A   1      32.281  26.569  22.234  1.00  0.00    -0.457 OA
BRANCH   3   4
ATOM      4  C   UNL A   1      32.582  25.253  22.036  1.00  0.00     0.374 C 
ATOM      5  O   UNL A   1      33.277  24.833  21.115  1.00  0.00    -0.242 OA
BRANCH   4   6
ATOM      6  C   UNL A   1      32.102  24.442  23.126  1.00  0.00     0.212 A 
ATOM      7  C   UNL A   1      32.489  22.954  24.721  1.00  0.00     0.162 A 
ATOM      8  C   UNL A   1      31.118  23.129  24.665  1.00  0.00     0.053 A 
ATOM      9  O   UNL A   1      33.066  23.810  23.848  1.00  0.00    -0.448 OA
ATOM     10  C   UNL A   1      30.871  24.119  23.661  1.00  0.00     0.059 A 
BRANCH   7  11
ATOM     11  C   UNL A   1      33.432  22.103  25.542  1.00  0.00     0.248 C 
ATOM     12  C   UNL A   1      33.956  22.935  26.721  1.00  0.00     0.084 C 
BRANCH  11  13
ATOM     13  N   UNL A   1      34.443  21.378  24.724  1.00  0.00    -0.324 N 
ATOM     14  H   UNL A   1      34.255  21.796  23.813  1.00  0.00     0.348 HD
BRANCH  13  15
ATOM     15  C   UNL A   1      35.874  21.656  24.966  1.00  0.00     0.259 C 
ATOM     16  C   UNL A   1      36.657  22.386  23.884  1.00  0.00     0.071 C 
ENDBRANCH  13  15
BRANCH  13  17
ATOM     17  C   UNL A   1      34.222  19.913  24.676  1.00  0.00     0.295 C 
BRANCH  17  18
ATOM     18  C   UNL A   1      32.778  19.315  24.641  1.00  0.00     0.173 C 
ATOM     19  C   UNL A   1      32.555  18.406  23.438  1.00  0.00     0.040 C 
ATOM     20  O   UNL A   1      32.469  18.486  25.775  1.00  0.00    -0.372 OA
ATOM     21  C   UNL A   1      32.994  17.057  23.960  1.00  0.00     0.031 C 
ATOM     22  C   UNL A   1      32.561  17.106  25.406  1.00  0.00     0.161 C 
ENDBRANCH  17  18
ENDBRANCH  13  17
ENDBRANCH  11  13
ENDBRANCH   7  11
ENDBRANCH   4   6
ENDBRANCH   3   4
ENDBRANCH   2   3
ENDBRANCH   1   2
BRANCH   1  23
ATOM     23  O   UNL A   1      32.797  27.401  25.092  1.00  0.00    -0.374 OA
BRANCH  23  24
ATOM     24  C   UNL A   1      32.601  28.118  26.313  1.00  0.00     0.202 C 
BRANCH  24  25
ATOM     25  C   UNL A   1      33.841  28.674  27.027  1.00  0.00     0.261 C 
BRANCH  25  26
ATOM     26  O   UNL A   1      33.957  30.104  26.902  1.00  0.00    -0.460 OA
BRANCH  26  27
ATOM     27  C   UNL A   1      34.560  30.727  27.947  1.00  0.00     0.338 C 
ATOM     28  O   UNL A   1      34.056  31.515  28.728  1.00  0.00    -0.246 OA
BRANCH  27  29
ATOM     29  C   UNL A   1      35.904  30.151  28.147  1.00  0.00     0.060 A 
ATOM     30  C   UNL A   1      36.247  29.710  29.432  1.00  0.00     0.016 A 
ATOM     31  C   UNL A   1      36.828  30.089  27.103  1.00  0.00     0.016 A 
ATOM     32  C   UNL A   1      37.526  29.219  29.684  1.00  0.00     0.010 A 
ATOM     33  C   UNL A   1      38.116  29.611  27.361  1.00  0.00     0.010 A 
ATOM     34  C   UNL A   1      38.477  29.192  28.655  1.00  0.00    -0.014 A 
BRANCH  34  35
ATOM     35  C   UNL A   1      39.885  28.831  28.950  1.00  0.00     0.031 A 
ATOM     36  C   UNL A   1      40.798  29.870  29.538  1.00  0.00     0.074 A 
ATOM     37  C   UNL A   1      40.341  27.593  28.688  1.00  0.00     0.049 A 
ATOM     38  N   UNL A   1      42.079  29.799  29.787  1.00  0.00    -0.248 NA
ATOM     39  C   UNL A   1      40.183  31.159  29.888  1.00  0.00     0.031 C 
ATOM     40  C   UNL A   1      39.537  26.491  28.162  1.00  0.00     0.029 A 
ATOM     41  N   UNL A   1      41.599  27.061  28.818  1.00  0.00    -0.354 N 
ATOM     42  C   UNL A   1      42.429  31.036  30.317  1.00  0.00     0.074 A 
ATOM     43  C   UNL A   1      41.229  31.845  30.326  1.00  0.00     0.031 C 
ATOM     44  C   UNL A   1      40.327  25.416  27.997  1.00  0.00     0.029 A 
ATOM     45  C   UNL A   1      41.697  25.766  28.370  1.00  0.00     0.049 A 
ATOM     46  H   UNL A   1      42.359  27.560  29.196  1.00  0.00     0.167 HD
ATOM     47  C   UNL A   1      43.639  31.454  30.758  1.00  0.00     0.037 A 
ATOM     48  C   UNL A   1      42.775  24.966  28.245  1.00  0.00     0.037 A 
ATOM     49  C   UNL A   1      44.829  30.643  30.736  1.00  0.00     0.049 A 
ATOM     50  C   UNL A   1      44.128  25.482  28.658  1.00  0.00     0.074 A 
ATOM     51  C   UNL A   1      46.101  30.969  31.173  1.00  0.00     0.029 A 
ATOM     52  N   UNL A   1      44.897  29.348  30.241  1.00  0.00    -0.354 N 
ATOM     53  N   UNL A   1      44.445  26.648  29.171  1.00  0.00    -0.248 NA
ATOM     54  C   UNL A   1      45.271  24.578  28.472  1.00  0.00     0.031 C 
ATOM     55  C   UNL A   1      46.948  29.891  30.895  1.00  0.00     0.029 A 
ATOM     56  C   UNL A   1      46.194  28.873  30.334  1.00  0.00     0.049 A 
ATOM     57  H   UNL A   1      44.134  28.843  29.878  1.00  0.00     0.167 HD
ATOM     58  C   UNL A   1      45.818  26.607  29.394  1.00  0.00     0.074 A 
ATOM     59  C   UNL A   1      46.270  25.299  28.966  1.00  0.00     0.031 C 
ATOM     60  C   UNL A   1      46.629  27.565  29.908  1.00  0.00     0.037 A 
BRANCH  47  61
ATOM     61  C   UNL A   1      43.740  32.863  31.274  1.00  0.00     0.058 A 
ATOM     62  C   UNL A   1      43.577  33.165  32.635  1.00  0.00     0.135 A 
ATOM     63  C   UNL A   1      44.024  33.923  30.398  1.00  0.00     0.135 A 
ATOM     64  F   UNL A   1      43.288  32.192  33.514  1.00  0.00    -0.206 F 
ATOM     65  C   UNL A   1      43.660  34.472  33.106  1.00  0.00     0.059 A 
ATOM     66  C   UNL A   1      44.138  35.234  30.850  1.00  0.00     0.059 A 
ATOM     67  F   UNL A   1      44.188  33.690  29.087  1.00  0.00    -0.206 F 
ATOM     68  C   UNL A   1      43.937  35.500  32.203  1.00  0.00     0.060 A 
BRANCH  68  69
ATOM     69  S   UNL A   1      44.032  37.192  32.826  1.00  0.00     0.124 S 
ATOM     70  O   UNL A   1      43.787  37.963  31.611  1.00  0.00    -0.237 OA
ATOM     71  O   UNL A   1      42.964  37.221  33.820  1.00  0.00    -0.237 OA
ATOM     72  O   UNL A   1      45.387  37.283  33.362  1.00  0.00    -0.744 OA
ENDBRANCH  68  69
ENDBRANCH  47  61
BRANCH  48  73
ATOM     73  C   UNL A   1      42.619  23.595  27.688  1.00  0.00     0.058 A 
ATOM     74  C   UNL A   1      42.684  23.364  26.307  1.00  0.00     0.135 A 
ATOM     75  C   UNL A   1      42.413  22.488  28.528  1.00  0.00     0.135 A 
ATOM     76  F   UNL A   1      42.867  24.392  25.464  1.00  0.00    -0.206 F 
ATOM     77  C   UNL A   1      42.545  22.087  25.775  1.00  0.00     0.059 A 
ATOM     78  C   UNL A   1      42.295  21.198  28.021  1.00  0.00     0.059 A 
ATOM     79  F   UNL A   1      42.351  22.654  29.859  1.00  0.00    -0.206 F 
ATOM     80  C   UNL A   1      42.355  21.009  26.641  1.00  0.00     0.060 A 
BRANCH  80  81
ATOM     81  S   UNL A   1      42.233  19.348  25.943  1.00  0.00     0.124 S 
ATOM     82  O   UNL A   1      42.774  18.533  27.025  1.00  0.00    -0.237 OA
ATOM     83  O   UNL A   1      40.799  19.222  25.703  1.00  0.00    -0.237 OA
ATOM     84  O   UNL A   1      43.057  19.429  24.740  1.00  0.00    -0.744 OA
ENDBRANCH  80  81
ENDBRANCH  48  73
BRANCH  60  85
ATOM     85  C   UNL A   1      48.087  27.230  30.068  1.00  0.00     0.058 A 
ATOM     86  C   UNL A   1      49.029  27.539  29.075  1.00  0.00     0.135 A 
ATOM     87  C   UNL A   1      48.557  26.657  31.262  1.00  0.00     0.135 A 
ATOM     88  F   UNL A   1      48.632  28.080  27.913  1.00  0.00    -0.206 F 
ATOM     89  C   UNL A   1      50.385  27.279  29.253  1.00  0.00     0.059 A 
ATOM     90  C   UNL A   1      49.911  26.413  31.471  1.00  0.00     0.059 A 
ATOM     91  F   UNL A   1      47.699  26.350  32.247  1.00  0.00    -0.206 F 
ATOM     92  C   UNL A   1      50.816  26.720  30.458  1.00  0.00     0.060 A 
BRANCH  92  93
ATOM     93  S   UNL A   1      52.584  26.436  30.696  1.00  0.00     0.124 S 
ATOM     94  O   UNL A   1      52.983  27.645  31.410  1.00  0.00    -0.237 OA
ATOM     95  O   UNL A   1      52.599  25.203  31.478  1.00  0.00    -0.237 OA
ATOM     96  O   UNL A   1      53.095  26.312  29.334  1.00  0.00    -0.744 OA
ENDBRANCH  92  93
ENDBRANCH  60  85
ENDBRANCH  34  35
ENDBRANCH  27  29
ENDBRANCH  26  27
ENDBRANCH  25  26
ENDBRANCH  24  25
ENDBRANCH  23  24
ENDBRANCH   1  23
TORSDOF 22
ENDMDL
MODEL 2
REMARK VINA RESULT:     -10.0      2.382      3.312
REMARK SMILES CC[N@@H+](C[C@H]1CCCO1)[C@@H](C)c1ccc(C(=O)OCCOCCOC(=O)c2ccc(-c3c4nc(c(-c5c(F)cc(S(=O)(=O)[O-])cc5F)c5ccc([nH]5)c(-c5c(F)cc(S(=O)(=O)[O-])cc5F)c5nc(c(-c6c(F)cc(S(=O)(=O)[O-])cc6F)c6ccc3[nH]6)C=C5)C=C4)cc2)o1
REMARK SMILES IDX 20 1 19 2 18 3 16 4 17 5 15 6 12 7 13 8 93 9 14 10 10 11
REMARK SMILES IDX 11 12 3 13 2 15 1 16 4 17 5 18 6 19 9 20 7 21 8 22 21 23
REMARK SMILES IDX 22 24 23 25 24 26 25 27 26 28 27 29 28 30 92 31 29 32 91 33
REMARK SMILES IDX 30 34 31 35 32 36 85 37 33 38 90 39 84 40 86 41 34 42 89 43
REMARK SMILES IDX 83 44 82 45 35 47 69 48 48 49 68 50 49 51 52 52 67 53 87 54
REMARK SMILES IDX 50 55 51 56 66 58 88 59 53 60 36 61 37 62 46 63 38 64 39 65
REMARK SMILES IDX 45 66 47 67 40 68 41 69 42 70 43 71 44 72 70 73 71 74 80 75
REMARK SMILES IDX 72 76 73 77 79 78 81 79 74 80 75 81 76 82 77 83 78 84 54 85
REMARK SMILES IDX 55 86 64 87 56 88 57 89 63 90 65 91 58 92 59 93 60 94 61 95
REMARK SMILES IDX 62 96
REMARK H PARENT 3 14 86 46 52 57
REMARK Flexibility Score: inf
ROOT
ATOM      1  C   UNL A   1      33.992  28.608  26.934  1.00  0.00     0.202 C 
ENDROOT
BRANCH   1   2
ATOM      2  C   UNL A   1      32.731  27.832  26.536  1.00  0.00     0.261 C 
BRANCH   2   3
ATOM      3  O   UNL A   1      33.010  26.674  25.735  1.00  0.00    -0.457 OA
BRANCH   3   4
ATOM      4  C   UNL A   1      32.713  26.842  24.413  1.00  0.00     0.374 C 
ATOM      5  O   UNL A   1      32.494  27.929  23.886  1.00  0.00    -0.242 OA
BRANCH   4   6
ATOM      6  C   UNL A   1      32.836  25.600  23.693  1.00  0.00     0.212 A 
ATOM      7  C   UNL A   1      32.712  23.389  23.652  1.00  0.00     0.162 A 
ATOM      8  C   UNL A   1      33.266  23.778  22.446  1.00  0.00     0.053 A 
ATOM      9  O   UNL A   1      32.386  24.499  24.351  1.00  0.00    -0.448 OA
ATOM     10  C   UNL A   1      33.310  25.208  22.457  1.00  0.00     0.059 A 
BRANCH   7  11
ATOM     11  C   UNL A   1      32.358  22.067  24.297  1.00  0.00     0.248 C 
ATOM     12  C   UNL A   1      31.434  22.328  25.495  1.00  0.00     0.084 C 
BRANCH  11  13
ATOM     13  N   UNL A   1      33.536  21.186  24.530  1.00  0.00    -0.324 N 
ATOM     14  H   UNL A   1      33.769  20.955  23.565  1.00  0.00     0.348 HD
BRANCH  13  15
ATOM     15  C   UNL A   1      34.771  21.791  25.069  1.00  0.00     0.259 C 
ATOM     16  C   UNL A   1      36.018  20.922  25.157  1.00  0.00     0.071 C 
ENDBRANCH  13  15
BRANCH  13  17
ATOM     17  C   UNL A   1      33.211  19.957  25.293  1.00  0.00     0.295 C 
BRANCH  17  18
ATOM     18  C   UNL A   1      32.619  18.698  24.580  1.00  0.00     0.173 C 
ATOM     19  C   UNL A   1      33.660  17.961  23.746  1.00  0.00     0.040 C 
ATOM     20  O   UNL A   1      32.121  17.701  25.490  1.00  0.00    -0.372 OA
ATOM     21  C   UNL A   1      34.255  16.993  24.743  1.00  0.00     0.031 C 
ATOM     22  C   UNL A   1      33.067  16.632  25.603  1.00  0.00     0.161 C 
ENDBRANCH  17  18
ENDBRANCH  13  17
ENDBRANCH  11  13
ENDBRANCH   7  11
ENDBRANCH   4   6
ENDBRANCH   3   4
ENDBRANCH   2   3
ENDBRANCH   1   2
BRANCH   1  23
ATOM     23  O   UNL A   1      34.090  29.975  26.548  1.00  0.00    -0.374 OA
BRANCH  23  24
ATOM     24  C   UNL A   1      33.441  30.954  27.362  1.00  0.00     0.202 C 
BRANCH  24  25
ATOM     25  C   UNL A   1      34.257  31.605  28.489  1.00  0.00     0.261 C 
BRANCH  25  26
ATOM     26  O   UNL A   1      35.669  31.355  28.365  1.00  0.00    -0.460 OA
BRANCH  26  27
ATOM     27  C   UNL A   1      36.338  31.230  29.540  1.00  0.00     0.338 C 
ATOM     28  O   UNL A   1      35.915  31.461  30.660  1.00  0.00    -0.246 OA
BRANCH  27  29
ATOM     29  C   UNL A   1      37.628  30.557  29.295  1.00  0.00     0.060 A 
ATOM     30  C   UNL A   1      38.540  30.475  30.357  1.00  0.00     0.016 A 
ATOM     31  C   UNL A   1      37.957  30.057  28.034  1.00  0.00     0.016 A 
ATOM     32  C   UNL A   1      39.796  29.906  30.156  1.00  0.00     0.010 A 
ATOM     33  C   UNL A   1      39.223  29.502  27.831  1.00  0.00     0.010 A 
ATOM     34  C   UNL A   1      40.155  29.441  28.884  1.00  0.00    -0.014 A 
BRANCH  34  35
ATOM     35  C   UNL A   1      41.543  28.990  28.619  1.00  0.00     0.031 A 
ATOM     36  C   UNL A   1      42.657  29.997  28.652  1.00  0.00     0.074 A 
ATOM     37  C   UNL A   1      41.800  27.699  28.346  1.00  0.00     0.049 A 
ATOM     38  N   UNL A   1      43.922  29.841  28.363  1.00  0.00    -0.248 NA
ATOM     39  C   UNL A   1      42.295  31.362  29.064  1.00  0.00     0.031 C 
ATOM     40  C   UNL A   1      40.808  26.624  28.332  1.00  0.00     0.029 A 
ATOM     41  N   UNL A   1      42.977  27.076  28.013  1.00  0.00    -0.354 N 
ATOM     42  C   UNL A   1      44.508  31.088  28.549  1.00  0.00     0.074 A 
ATOM     43  C   UNL A   1      43.454  31.994  28.950  1.00  0.00     0.031 C 
ATOM     44  C   UNL A   1      41.416  25.475  27.990  1.00  0.00     0.029 A 
ATOM     45  C   UNL A   1      42.829  25.740  27.724  1.00  0.00     0.049 A 
ATOM     46  H   UNL A   1      43.844  27.541  27.984  1.00  0.00     0.167 HD
ATOM     47  C   UNL A   1      45.808  31.440  28.403  1.00  0.00     0.037 A 
ATOM     48  C   UNL A   1      43.725  24.843  27.267  1.00  0.00     0.037 A 
ATOM     49  C   UNL A   1      46.848  30.533  27.995  1.00  0.00     0.049 A 
ATOM     50  C   UNL A   1      45.147  25.278  27.026  1.00  0.00     0.074 A 
ATOM     51  C   UNL A   1      48.198  30.788  27.831  1.00  0.00     0.029 A 
ATOM     52  N   UNL A   1      46.654  29.196  27.676  1.00  0.00    -0.354 N 
ATOM     53  N   UNL A   1      45.693  26.455  27.219  1.00  0.00    -0.248 NA
ATOM     54  C   UNL A   1      46.073  24.266  26.500  1.00  0.00     0.031 C 
ATOM     55  C   UNL A   1      48.811  29.621  27.363  1.00  0.00     0.029 A 
ATOM     56  C   UNL A   1      47.853  28.622  27.288  1.00  0.00     0.049 A 
ATOM     57  H   UNL A   1      45.790  28.725  27.720  1.00  0.00     0.167 HD
ATOM     58  C   UNL A   1      47.032  26.318  26.865  1.00  0.00     0.074 A 
ATOM     59  C   UNL A   1      47.213  24.942  26.451  1.00  0.00     0.031 C 
ATOM     60  C   UNL A   1      48.020  27.247  26.882  1.00  0.00     0.037 A 
BRANCH  47  61
ATOM     61  C   UNL A   1      46.169  32.878  28.658  1.00  0.00     0.058 A 
ATOM     62  C   UNL A   1      46.133  33.842  27.638  1.00  0.00     0.135 A 
ATOM     63  C   UNL A   1      46.536  33.302  29.946  1.00  0.00     0.135 A 
ATOM     64  F   UNL A   1      45.804  33.489  26.386  1.00  0.00    -0.206 F 
ATOM     65  C   UNL A   1      46.478  35.168  27.877  1.00  0.00     0.059 A 
ATOM     66  C   UNL A   1      46.860  34.628  30.214  1.00  0.00     0.059 A 
ATOM     67  F   UNL A   1      46.588  32.421  30.957  1.00  0.00    -0.206 F 
ATOM     68  C   UNL A   1      46.845  35.550  29.170  1.00  0.00     0.060 A 
BRANCH  68  69
ATOM     69  S   UNL A   1      47.300  37.273  29.463  1.00  0.00     0.124 S 
ATOM     70  O   UNL A   1      47.031  37.870  28.159  1.00  0.00    -0.237 OA
ATOM     71  O   UNL A   1      46.390  37.659  30.537  1.00  0.00    -0.237 OA
ATOM     72  O   UNL A   1      48.709  37.193  29.837  1.00  0.00    -0.744 OA
ENDBRANCH  68  69
ENDBRANCH  47  61
BRANCH  48  73
ATOM     73  C   UNL A   1      43.299  23.444  26.994  1.00  0.00     0.058 A 
ATOM     74  C   UNL A   1      43.006  23.020  25.690  1.00  0.00     0.135 A 
ATOM     75  C   UNL A   1      43.187  22.502  28.029  1.00  0.00     0.135 A 
ATOM     76  F   UNL A   1      43.086  23.888  24.669  1.00  0.00    -0.206 F 
ATOM     77  C   UNL A   1      42.611  21.714  25.420  1.00  0.00     0.059 A 
ATOM     78  C   UNL A   1      42.817  21.184  27.780  1.00  0.00     0.059 A 
ATOM     79  F   UNL A   1      43.463  22.855  29.294  1.00  0.00    -0.206 F 
ATOM     80  C   UNL A   1      42.524  20.801  26.473  1.00  0.00     0.060 A 
BRANCH  80  81
ATOM     81  S   UNL A   1      42.066  19.094  26.103  1.00  0.00     0.124 S 
ATOM     82  O   UNL A   1      40.629  19.215  25.887  1.00  0.00    -0.237 OA
ATOM     83  O   UNL A   1      42.869  18.813  24.917  1.00  0.00    -0.237 OA
ATOM     84  O   UNL A   1      42.466  18.371  27.307  1.00  0.00    -0.744 OA
ENDBRANCH  80  81
ENDBRANCH  48  73
BRANCH  60  85
ATOM     85  C   UNL A   1      49.398  26.806  26.472  1.00  0.00     0.058 A 
ATOM     86  C   UNL A   1      50.240  26.104  27.348  1.00  0.00     0.135 A 
ATOM     87  C   UNL A   1      49.854  27.026  25.161  1.00  0.00     0.135 A 
ATOM     88  F   UNL A   1      49.856  25.874  28.614  1.00  0.00    -0.206 F 
ATOM     89  C   UNL A   1      51.491  25.648  26.945  1.00  0.00     0.059 A 
ATOM     90  C   UNL A   1      51.091  26.557  24.729  1.00  0.00     0.059 A 
ATOM     91  F   UNL A   1      49.085  27.685  24.280  1.00  0.00    -0.206 F 
ATOM     92  C   UNL A   1      51.906  25.875  25.631  1.00  0.00     0.060 A 
BRANCH  92  93
ATOM     93  S   UNL A   1      53.510  25.234  25.106  1.00  0.00     0.124 S 
ATOM     94  O   UNL A   1      53.348  23.803  25.345  1.00  0.00    -0.237 OA
ATOM     95  O   UNL A   1      53.565  25.639  23.705  1.00  0.00    -0.237 OA
ATOM     96  O   UNL A   1      54.454  25.915  25.986  1.00  0.00    -0.744 OA
ENDBRANCH  92  93
ENDBRANCH  60  85
ENDBRANCH  34  35
ENDBRANCH  27  29
ENDBRANCH  26  27
ENDBRANCH  25  26
ENDBRANCH  24  25
ENDBRANCH  23  24
ENDBRANCH   1  23
TORSDOF 22
ENDMDL
MODEL 3
REMARK VINA RESULT:      -9.7      5.062     10.110
REMARK SMILES CC[N@@H+](C[C@H]1CCCO1)[C@@H](C)c1ccc(C(=O)OCCOCCOC(=O)c2ccc(-c3c4nc(c(-c5c(F)cc(S(=O)(=O)[O-])cc5F)c5ccc([nH]5)c(-c5c(F)cc(S(=O)(=O)[O-])cc5F)c5nc(c(-c6c(F)cc(S(=O)(=O)[O-])cc6F)c6ccc3[nH]6)C=C5)C=C4)cc2)o1
REMARK SMILES IDX 20 1 19 2 18 3 16 4 17 5 15 6 12 7 13 8 93 9 14 10 10 11
REMARK SMILES IDX 11 12 3 13 2 15 1 16 4 17 5 18 6 19 9 20 7 21 8 22 21 23
REMARK SMILES IDX 22 24 23 25 24 26 25 27 26 28 27 29 28 30 92 31 29 32 91 33
REMARK SMILES IDX 30 34 31 35 32 36 85 37 33 38 90 39 84 40 86 41 34 42 89 43
REMARK SMILES IDX 83 44 82 45 35 47 69 48 48 49 68 50 49 51 52 52 67 53 87 54
REMARK SMILES IDX 50 55 51 56 66 58 88 59 53 60 36 61 37 62 46 63 38 64 39 65
REMARK SMILES IDX 45 66 47 67 40 68 41 69 42 70 43 71 44 72 70 73 71 74 80 75
REMARK SMILES IDX 72 76 73 77 79 78 81 79 74 80 75 81 76 82 77 83 78 84 54 85
REMARK SMILES IDX 55 86 64 87 56 88 57 89 63 90 65 91 58 92 59 93 60 94 61 95
REMARK SMILES IDX 62 96
REMARK H PARENT 3 14 86 46 52 57
REMARK Flexibility Score: inf
ROOT
ATOM      1  C   UNL A   1      36.427  23.060  23.743  1.00  0.00     0.202 C 
ENDROOT
BRANCH   1   2
ATOM      2  C   UNL A   1      34.991  23.073  23.205  1.00  0.00     0.261 C 
BRANCH   2   3
ATOM      3  O   UNL A   1      34.029  22.588  24.155  1.00  0.00    -0.457 OA
BRANCH   3   4
ATOM      4  C   UNL A   1      32.756  23.012  23.904  1.00  0.00     0.374 C 
ATOM      5  O   UNL A   1      32.007  22.500  23.076  1.00  0.00    -0.242 OA
BRANCH   4   6
ATOM      6  C   UNL A   1      32.358  24.036  24.836  1.00  0.00     0.212 A 
ATOM      7  C   UNL A   1      31.665  26.102  25.230  1.00  0.00     0.162 A 
ATOM      8  C   UNL A   1      31.953  25.539  26.460  1.00  0.00     0.053 A 
ATOM      9  O   UNL A   1      31.836  25.160  24.276  1.00  0.00    -0.448 OA
ATOM     10  C   UNL A   1      32.364  24.191  26.208  1.00  0.00     0.059 A 
BRANCH   7  11
ATOM     11  C   UNL A   1      31.172  27.451  24.753  1.00  0.00     0.248 C 
ATOM     12  C   UNL A   1      30.303  27.252  23.504  1.00  0.00     0.084 C 
BRANCH  11  13
ATOM     13  N   UNL A   1      32.245  28.481  24.674  1.00  0.00    -0.324 N 
ATOM     14  H   UNL A   1      33.017  27.954  25.080  1.00  0.00     0.348 HD
BRANCH  13  15
ATOM     15  C   UNL A   1      32.737  28.883  23.340  1.00  0.00     0.259 C 
ATOM     16  C   UNL A   1      33.859  28.067  22.713  1.00  0.00     0.071 C 
ENDBRANCH  13  15
BRANCH  13  17
ATOM     17  C   UNL A   1      31.962  29.690  25.484  1.00  0.00     0.295 C 
BRANCH  17  18
ATOM     18  C   UNL A   1      32.351  29.758  26.996  1.00  0.00     0.173 C 
ATOM     19  C   UNL A   1      33.396  28.714  27.374  1.00  0.00     0.040 C 
ATOM     20  O   UNL A   1      32.944  31.010  27.384  1.00  0.00    -0.372 OA
ATOM     21  C   UNL A   1      34.696  29.439  27.109  1.00  0.00     0.031 C 
ATOM     22  C   UNL A   1      34.363  30.862  27.492  1.00  0.00     0.161 C 
ENDBRANCH  17  18
ENDBRANCH  13  17
ENDBRANCH  11  13
ENDBRANCH   7  11
ENDBRANCH   4   6
ENDBRANCH   3   4
ENDBRANCH   2   3
ENDBRANCH   1   2
BRANCH   1  23
ATOM     23  O   UNL A   1      36.627  22.756  25.119  1.00  0.00    -0.374 OA
BRANCH  23  24
ATOM     24  C   UNL A   1      37.307  23.716  25.930  1.00  0.00     0.202 C 
BRANCH  24  25
ATOM     25  C   UNL A   1      38.785  23.461  26.259  1.00  0.00     0.261 C 
BRANCH  25  26
ATOM     26  O   UNL A   1      39.584  24.655  26.174  1.00  0.00    -0.460 OA
BRANCH  26  27
ATOM     27  C   UNL A   1      40.667  24.684  26.992  1.00  0.00     0.338 C 
ATOM     28  O   UNL A   1      41.716  24.078  26.851  1.00  0.00    -0.246 OA
BRANCH  27  29
ATOM     29  C   UNL A   1      40.484  25.741  28.005  1.00  0.00     0.060 A 
ATOM     30  C   UNL A   1      41.519  26.670  28.182  1.00  0.00     0.016 A 
ATOM     31  C   UNL A   1      39.338  25.792  28.800  1.00  0.00     0.016 A 
ATOM     32  C   UNL A   1      41.419  27.647  29.172  1.00  0.00     0.010 A 
ATOM     33  C   UNL A   1      39.247  26.762  29.802  1.00  0.00     0.010 A 
ATOM     34  C   UNL A   1      40.293  27.681  30.006  1.00  0.00    -0.014 A 
BRANCH  34  35
ATOM     35  C   UNL A   1      40.252  28.605  31.164  1.00  0.00     0.031 A 
ATOM     36  C   UNL A   1      39.294  29.762  31.141  1.00  0.00     0.074 A 
ATOM     37  C   UNL A   1      41.066  28.415  32.218  1.00  0.00     0.049 A 
ATOM     38  N   UNL A   1      39.155  30.738  31.999  1.00  0.00    -0.248 NA
ATOM     39  C   UNL A   1      38.371  29.826  29.997  1.00  0.00     0.031 C 
ATOM     40  C   UNL A   1      42.002  27.303  32.373  1.00  0.00     0.029 A 
ATOM     41  N   UNL A   1      41.242  29.166  33.353  1.00  0.00    -0.354 N 
ATOM     42  C   UNL A   1      38.136  31.540  31.497  1.00  0.00     0.074 A 
ATOM     43  C   UNL A   1      37.711  30.948  30.247  1.00  0.00     0.031 C 
ATOM     44  C   UNL A   1      42.669  27.454  33.530  1.00  0.00     0.029 A 
ATOM     45  C   UNL A   1      42.234  28.690  34.178  1.00  0.00     0.049 A 
ATOM     46  H   UNL A   1      40.710  29.968  33.558  1.00  0.00     0.167 HD
ATOM     47  C   UNL A   1      37.602  32.663  32.035  1.00  0.00     0.037 A 
ATOM     48  C   UNL A   1      42.752  29.211  35.308  1.00  0.00     0.037 A 
ATOM     49  C   UNL A   1      38.038  33.248  33.275  1.00  0.00     0.049 A 
ATOM     50  C   UNL A   1      42.204  30.509  35.841  1.00  0.00     0.074 A 
ATOM     51  C   UNL A   1      37.552  34.377  33.912  1.00  0.00     0.029 A 
ATOM     52  N   UNL A   1      39.069  32.758  34.064  1.00  0.00    -0.354 N 
ATOM     53  N   UNL A   1      41.231  31.250  35.366  1.00  0.00    -0.248 NA
ATOM     54  C   UNL A   1      42.826  31.044  37.059  1.00  0.00     0.031 C 
ATOM     55  C   UNL A   1      38.324  34.598  35.058  1.00  0.00     0.029 A 
ATOM     56  C   UNL A   1      39.255  33.578  35.165  1.00  0.00     0.049 A 
ATOM     57  H   UNL A   1      39.592  31.947  33.869  1.00  0.00     0.167 HD
ATOM     58  C   UNL A   1      41.106  32.324  36.242  1.00  0.00     0.074 A 
ATOM     59  C   UNL A   1      42.100  32.132  37.279  1.00  0.00     0.031 C 
ATOM     60  C   UNL A   1      40.246  33.371  36.193  1.00  0.00     0.037 A 
BRANCH  47  61
ATOM     61  C   UNL A   1      36.507  33.346  31.264  1.00  0.00     0.058 A 
ATOM     62  C   UNL A   1      36.767  34.058  30.082  1.00  0.00     0.135 A 
ATOM     63  C   UNL A   1      35.174  33.271  31.702  1.00  0.00     0.135 A 
ATOM     64  F   UNL A   1      38.024  34.175  29.627  1.00  0.00    -0.206 F 
ATOM     65  C   UNL A   1      35.751  34.698  29.379  1.00  0.00     0.059 A 
ATOM     66  C   UNL A   1      34.138  33.881  31.001  1.00  0.00     0.059 A 
ATOM     67  F   UNL A   1      34.869  32.604  32.826  1.00  0.00    -0.206 F 
ATOM     68  C   UNL A   1      34.440  34.606  29.850  1.00  0.00     0.060 A 
BRANCH  68  69
ATOM     69  S   UNL A   1      33.133  35.450  28.932  1.00  0.00     0.124 S 
ATOM     70  O   UNL A   1      33.904  36.404  28.141  1.00  0.00    -0.237 OA
ATOM     71  O   UNL A   1      32.519  34.357  28.185  1.00  0.00    -0.237 OA
ATOM     72  O   UNL A   1      32.303  36.034  29.982  1.00  0.00    -0.744 OA
ENDBRANCH  68  69
ENDBRANCH  47  61
BRANCH  48  73
ATOM     73  C   UNL A   1      43.864  28.509  36.004  1.00  0.00     0.058 A 
ATOM     74  C   UNL A   1      43.608  27.464  36.903  1.00  0.00     0.135 A 
ATOM     75  C   UNL A   1      45.204  28.863  35.777  1.00  0.00     0.135 A 
ATOM     76  F   UNL A   1      42.344  27.099  37.163  1.00  0.00    -0.206 F 
ATOM     77  C   UNL A   1      44.639  26.798  37.558  1.00  0.00     0.059 A 
ATOM     78  C   UNL A   1      46.252  28.196  36.401  1.00  0.00     0.059 A 
ATOM     79  F   UNL A   1      45.503  29.853  34.919  1.00  0.00    -0.206 F 
ATOM     80  C   UNL A   1      45.959  27.169  37.296  1.00  0.00     0.060 A 
BRANCH  80  81
ATOM     81  S   UNL A   1      47.291  26.258  38.107  1.00  0.00     0.124 S 
ATOM     82  O   UNL A   1      47.886  25.544  36.983  1.00  0.00    -0.237 OA
ATOM     83  O   UNL A   1      48.094  27.336  38.677  1.00  0.00    -0.237 OA
ATOM     84  O   UNL A   1      46.586  25.430  39.082  1.00  0.00    -0.744 OA
ENDBRANCH  80  81
ENDBRANCH  48  73
BRANCH  60  85
ATOM     85  C   UNL A   1      40.314  34.382  37.306  1.00  0.00     0.058 A 
ATOM     86  C   UNL A   1      41.106  35.536  37.208  1.00  0.00     0.135 A 
ATOM     87  C   UNL A   1      39.522  34.225  38.456  1.00  0.00     0.135 A 
ATOM     88  F   UNL A   1      41.888  35.730  36.134  1.00  0.00    -0.206 F 
ATOM     89  C   UNL A   1      41.120  36.495  38.216  1.00  0.00     0.059 A 
ATOM     90  C   UNL A   1      39.501  35.184  39.464  1.00  0.00     0.059 A 
ATOM     91  F   UNL A   1      38.740  33.143  38.596  1.00  0.00    -0.206 F 
ATOM     92  C   UNL A   1      40.310  36.312  39.339  1.00  0.00     0.060 A 
BRANCH  92  93
ATOM     93  S   UNL A   1      40.300  37.589  40.616  1.00  0.00     0.124 S 
ATOM     94  O   UNL A   1      40.778  36.846  41.778  1.00  0.00    -0.237 OA
ATOM     95  O   UNL A   1      41.222  38.581  40.074  1.00  0.00    -0.237 OA
ATOM     96  O   UNL A   1      38.901  38.006  40.669  1.00  0.00    -0.744 OA
ENDBRANCH  92  93
ENDBRANCH  60  85
ENDBRANCH  34  35
ENDBRANCH  27  29
ENDBRANCH  26  27
ENDBRANCH  25  26
ENDBRANCH  24  25
ENDBRANCH  23  24
ENDBRANCH   1  23
TORSDOF 22
ENDMDL
