MODEL 1
REMARK VINA RESULT:     -10.1      0.000      0.000
REMARK SMILES C[C@H](Oc1ccc(/C=C2/SC(=S)N(c3ccc(F)c(Cl)c3)C2=O)cc1)C(=O)OCCOCCOC(=O)c1ccc(-c2c3nc(c(-c4c(F)cc(S(=O)(=O)[O-])cc4F)c4ccc([nH]4)c(-c4c(F)cc(S(=O)(=O)[O-])cc4F)c4nc(c(-c5c(F)cc(S(=O)(=O)[O-])cc5F)c5ccc2[nH]5)C=C4)C=C3)cc1
REMARK SMILES IDX 30 1 29 2 28 3 26 4 27 5 2 6 1 7 3 8 4 9 5 10 25 11 6 12
REMARK SMILES IDX 24 13 7 14 8 15 9 16 10 17 22 18 11 19 13 20 23 21 12 22
REMARK SMILES IDX 14 23 15 24 21 25 16 26 19 27 17 28 20 29 18 30 31 31 32 32
REMARK SMILES IDX 33 33 34 34 35 35 36 36 37 37 38 38 102 39 39 40 101 41
REMARK SMILES IDX 40 42 41 43 42 44 95 45 43 46 100 47 94 48 96 49 44 50 99 51
REMARK SMILES IDX 93 52 92 53 45 55 79 56 58 57 78 58 59 59 62 60 77 61 97 62
REMARK SMILES IDX 60 63 61 64 76 66 98 67 63 68 46 69 47 70 56 71 48 72 49 73
REMARK SMILES IDX 55 74 57 75 50 76 51 77 52 78 53 79 54 80 80 81 81 82 90 83
REMARK SMILES IDX 82 84 83 85 89 86 91 87 84 88 85 89 86 90 87 91 88 92 64 93
REMARK SMILES IDX 65 94 74 95 66 96 67 97 73 98 75 99 68 100 69 101 70 102
REMARK SMILES IDX 71 103 72 104
REMARK H PARENT 96 54 62 65
REMARK Flexibility Score: inf
ROOT
ATOM      1  C   UNL A   1      32.922  35.057  28.772  1.00  0.00     0.202 C 
ENDROOT
BRANCH   1   2
ATOM      2  C   UNL A   1      33.584  36.288  29.392  1.00  0.00     0.261 C 
BRANCH   2   3
ATOM      3  O   UNL A   1      32.657  37.041  30.193  1.00  0.00    -0.461 OA
BRANCH   3   4
ATOM      4  C   UNL A   1      32.994  37.238  31.500  1.00  0.00     0.347 C 
ATOM      5  O   UNL A   1      33.272  38.321  32.004  1.00  0.00    -0.248 OA
BRANCH   4   6
ATOM      6  C   UNL A   1      33.052  35.917  32.270  1.00  0.00     0.279 C 
ATOM      7  C   UNL A   1      31.644  35.677  32.819  1.00  0.00     0.066 C 
BRANCH   6   8
ATOM      8  O   UNL A   1      34.067  35.978  33.278  1.00  0.00    -0.479 OA
BRANCH   8   9
ATOM      9  C   UNL A   1      34.778  34.841  33.553  1.00  0.00     0.120 A 
ATOM     10  C   UNL A   1      35.464  34.576  34.737  1.00  0.00     0.047 A 
ATOM     11  C   UNL A   1      34.836  33.911  32.515  1.00  0.00     0.047 A 
ATOM     12  C   UNL A   1      36.338  33.486  34.816  1.00  0.00     0.012 A 
ATOM     13  C   UNL A   1      35.678  32.798  32.609  1.00  0.00     0.012 A 
ATOM     14  C   UNL A   1      36.502  32.628  33.727  1.00  0.00    -0.024 A 
BRANCH  14  15
ATOM     15  C   UNL A   1      37.547  31.599  33.784  1.00  0.00     0.029 C 
ATOM     16  C   UNL A   1      38.834  31.755  33.427  1.00  0.00     0.081 C 
ATOM     17  S   UNL A   1      39.974  30.467  33.520  1.00  0.00    -0.054 SA
ATOM     18  C   UNL A   1      39.501  32.975  32.873  1.00  0.00     0.270 C 
ATOM     19  C   UNL A   1      41.245  31.395  32.724  1.00  0.00     0.152 C 
ATOM     20  N   UNL A   1      40.770  32.655  32.391  1.00  0.00    -0.261 N 
ATOM     21  O   UNL A   1      38.964  34.073  32.838  1.00  0.00    -0.268 OA
ATOM     22  S   UNL A   1      42.780  30.749  32.558  1.00  0.00    -0.051 S 
BRANCH  20  23
ATOM     23  C   UNL A   1      41.469  33.601  31.572  1.00  0.00     0.052 A 
ATOM     24  C   UNL A   1      42.600  34.284  32.052  1.00  0.00     0.030 A 
ATOM     25  C   UNL A   1      40.968  33.950  30.306  1.00  0.00     0.050 A 
ATOM     26  C   UNL A   1      43.219  35.279  31.287  1.00  0.00     0.043 A 
ATOM     27  C   UNL A   1      41.583  34.952  29.548  1.00  0.00     0.078 A 
ATOM     28  C   UNL A   1      42.704  35.610  30.041  1.00  0.00     0.141 A 
ATOM     29  Cl  UNL A   1      40.907  35.382  28.023  1.00  0.00    -0.081 Cl
ATOM     30  F   UNL A   1      43.295  36.582  29.333  1.00  0.00    -0.205 F 
ENDBRANCH  20  23
ENDBRANCH  14  15
ENDBRANCH   8   9
ENDBRANCH   6   8
ENDBRANCH   4   6
ENDBRANCH   3   4
ENDBRANCH   2   3
ENDBRANCH   1   2
BRANCH   1  31
ATOM     31  O   UNL A   1      33.811  33.994  28.424  1.00  0.00    -0.374 OA
BRANCH  31  32
ATOM     32  C   UNL A   1      35.202  34.227  28.642  1.00  0.00     0.202 C 
BRANCH  32  33
ATOM     33  C   UNL A   1      36.151  33.122  28.162  1.00  0.00     0.261 C 
BRANCH  33  34
ATOM     34  O   UNL A   1      36.690  32.348  29.249  1.00  0.00    -0.460 OA
BRANCH  34  35
ATOM     35  C   UNL A   1      36.503  31.013  29.137  1.00  0.00     0.338 C 
ATOM     36  O   UNL A   1      35.428  30.423  29.092  1.00  0.00    -0.246 OA
BRANCH  35  37
ATOM     37  C   UNL A   1      37.785  30.319  28.913  1.00  0.00     0.060 A 
ATOM     38  C   UNL A   1      38.671  30.247  29.995  1.00  0.00     0.016 A 
ATOM     39  C   UNL A   1      38.160  29.823  27.660  1.00  0.00     0.016 A 
ATOM     40  C   UNL A   1      39.953  29.735  29.815  1.00  0.00     0.010 A 
ATOM     41  C   UNL A   1      39.452  29.311  27.481  1.00  0.00     0.010 A 
ATOM     42  C   UNL A   1      40.368  29.300  28.548  1.00  0.00    -0.014 A 
BRANCH  42  43
ATOM     43  C   UNL A   1      41.797  28.952  28.346  1.00  0.00     0.031 A 
ATOM     44  C   UNL A   1      42.173  27.531  28.017  1.00  0.00     0.074 A 
ATOM     45  C   UNL A   1      42.742  29.910  28.374  1.00  0.00     0.049 A 
ATOM     46  N   UNL A   1      43.348  27.030  27.732  1.00  0.00    -0.248 NA
ATOM     47  C   UNL A   1      41.081  26.545  28.001  1.00  0.00     0.031 C 
ATOM     48  C   UNL A   1      42.500  31.324  28.666  1.00  0.00     0.029 A 
ATOM     49  N   UNL A   1      44.093  29.840  28.147  1.00  0.00    -0.354 N 
ATOM     50  C   UNL A   1      43.136  25.678  27.490  1.00  0.00     0.074 A 
ATOM     51  C   UNL A   1      41.727  25.428  27.703  1.00  0.00     0.031 C 
ATOM     52  C   UNL A   1      43.667  31.988  28.604  1.00  0.00     0.029 A 
ATOM     53  C   UNL A   1      44.738  31.046  28.282  1.00  0.00     0.049 A 
ATOM     54  H   UNL A   1      44.556  29.005  27.911  1.00  0.00     0.167 HD
ATOM     55  C   UNL A   1      44.030  24.734  27.105  1.00  0.00     0.037 A 
ATOM     56  C   UNL A   1      46.045  31.354  28.166  1.00  0.00     0.037 A 
ATOM     57  C   UNL A   1      45.435  24.983  26.901  1.00  0.00     0.049 A 
ATOM     58  C   UNL A   1      47.026  30.279  27.779  1.00  0.00     0.074 A 
ATOM     59  C   UNL A   1      46.420  24.092  26.513  1.00  0.00     0.029 A 
ATOM     60  N   UNL A   1      46.054  26.212  27.070  1.00  0.00    -0.354 N 
ATOM     61  N   UNL A   1      46.805  29.010  27.529  1.00  0.00    -0.248 NA
ATOM     62  C   UNL A   1      48.434  30.681  27.643  1.00  0.00     0.031 C 
ATOM     63  C   UNL A   1      47.642  24.774  26.481  1.00  0.00     0.029 A 
ATOM     64  C   UNL A   1      47.411  26.100  26.808  1.00  0.00     0.049 A 
ATOM     65  H   UNL A   1      45.598  27.042  27.337  1.00  0.00     0.167 HD
ATOM     66  C   UNL A   1      48.039  28.467  27.193  1.00  0.00     0.074 A 
ATOM     67  C   UNL A   1      48.999  29.550  27.246  1.00  0.00     0.031 C 
ATOM     68  C   UNL A   1      48.355  27.186  26.874  1.00  0.00     0.037 A 
BRANCH  55  69
ATOM     69  C   UNL A   1      43.516  23.339  26.880  1.00  0.00     0.058 A 
ATOM     70  C   UNL A   1      43.346  22.821  25.587  1.00  0.00     0.135 A 
ATOM     71  C   UNL A   1      43.242  22.492  27.965  1.00  0.00     0.135 A 
ATOM     72  F   UNL A   1      43.578  23.595  24.514  1.00  0.00    -0.206 F 
ATOM     73  C   UNL A   1      42.909  21.518  25.375  1.00  0.00     0.059 A 
ATOM     74  C   UNL A   1      42.825  21.177  27.779  1.00  0.00     0.059 A 
ATOM     75  F   UNL A   1      43.385  22.937  29.223  1.00  0.00    -0.206 F 
ATOM     76  C   UNL A   1      42.652  20.702  26.479  1.00  0.00     0.060 A 
BRANCH  76  77
ATOM     77  S   UNL A   1      42.109  19.005  26.189  1.00  0.00     0.124 S 
ATOM     78  O   UNL A   1      42.280  18.414  27.512  1.00  0.00    -0.237 OA
ATOM     79  O   UNL A   1      40.728  19.188  25.752  1.00  0.00    -0.237 OA
ATOM     80  O   UNL A   1      43.029  18.523  25.163  1.00  0.00    -0.744 OA
ENDBRANCH  76  77
ENDBRANCH  55  69
BRANCH  56  81
ATOM     81  C   UNL A   1      46.509  32.742  28.435  1.00  0.00     0.058 A 
ATOM     82  C   UNL A   1      46.821  33.172  29.733  1.00  0.00     0.135 A 
ATOM     83  C   UNL A   1      46.632  33.672  27.390  1.00  0.00     0.135 A 
ATOM     84  F   UNL A   1      46.710  32.323  30.766  1.00  0.00    -0.206 F 
ATOM     85  C   UNL A   1      47.217  34.481  29.991  1.00  0.00     0.059 A 
ATOM     86  C   UNL A   1      47.050  34.978  27.620  1.00  0.00     0.059 A 
ATOM     87  F   UNL A   1      46.358  33.306  26.128  1.00  0.00    -0.206 F 
ATOM     88  C   UNL A   1      47.326  35.378  28.927  1.00  0.00     0.060 A 
BRANCH  88  89
ATOM     89  S   UNL A   1      47.876  37.065  29.260  1.00  0.00     0.124 S 
ATOM     90  O   UNL A   1      48.973  36.836  30.194  1.00  0.00    -0.237 OA
ATOM     91  O   UNL A   1      48.255  37.536  27.931  1.00  0.00    -0.237 OA
ATOM     92  O   UNL A   1      46.687  37.699  29.824  1.00  0.00    -0.744 OA
ENDBRANCH  88  89
ENDBRANCH  56  81
BRANCH  68  93
ATOM     93  C   UNL A   1      49.794  26.897  26.543  1.00  0.00     0.058 A 
ATOM     94  C   UNL A   1      50.274  26.968  25.225  1.00  0.00     0.135 A 
ATOM     95  C   UNL A   1      50.705  26.551  27.554  1.00  0.00     0.135 A 
ATOM     96  F   UNL A   1      49.444  27.291  24.222  1.00  0.00    -0.206 F 
ATOM     97  C   UNL A   1      51.596  26.666  24.917  1.00  0.00     0.059 A 
ATOM     98  C   UNL A   1      52.038  26.271  27.271  1.00  0.00     0.059 A 
ATOM     99  F   UNL A   1      50.302  26.482  28.833  1.00  0.00    -0.206 F 
ATOM    100  C   UNL A   1      52.469  26.310  25.946  1.00  0.00     0.060 A 
BRANCH 100 101
ATOM    101  S   UNL A   1      54.181  25.909  25.534  1.00  0.00     0.124 S 
ATOM    102  O   UNL A   1      54.734  25.598  26.848  1.00  0.00    -0.237 OA
ATOM    103  O   UNL A   1      54.030  24.776  24.626  1.00  0.00    -0.237 OA
ATOM    104  O   UNL A   1      54.677  27.135  24.917  1.00  0.00    -0.744 OA
ENDBRANCH 100 101
ENDBRANCH  68  93
ENDBRANCH  42  43
ENDBRANCH  35  37
ENDBRANCH  34  35
ENDBRANCH  33  34
ENDBRANCH  32  33
ENDBRANCH  31  32
ENDBRANCH   1  31
TORSDOF 21
ENDMDL
MODEL 2
REMARK VINA RESULT:      -9.6      6.024     10.909
REMARK SMILES C[C@H](Oc1ccc(/C=C2/SC(=S)N(c3ccc(F)c(Cl)c3)C2=O)cc1)C(=O)OCCOCCOC(=O)c1ccc(-c2c3nc(c(-c4c(F)cc(S(=O)(=O)[O-])cc4F)c4ccc([nH]4)c(-c4c(F)cc(S(=O)(=O)[O-])cc4F)c4nc(c(-c5c(F)cc(S(=O)(=O)[O-])cc5F)c5ccc2[nH]5)C=C4)C=C3)cc1
REMARK SMILES IDX 30 1 29 2 28 3 26 4 27 5 2 6 1 7 3 8 4 9 5 10 25 11 6 12
REMARK SMILES IDX 24 13 7 14 8 15 9 16 10 17 22 18 11 19 13 20 23 21 12 22
REMARK SMILES IDX 14 23 15 24 21 25 16 26 19 27 17 28 20 29 18 30 31 31 32 32
REMARK SMILES IDX 33 33 34 34 35 35 36 36 37 37 38 38 102 39 39 40 101 41
REMARK SMILES IDX 40 42 41 43 42 44 95 45 43 46 100 47 94 48 96 49 44 50 99 51
REMARK SMILES IDX 93 52 92 53 45 55 79 56 58 57 78 58 59 59 62 60 77 61 97 62
REMARK SMILES IDX 60 63 61 64 76 66 98 67 63 68 46 69 47 70 56 71 48 72 49 73
REMARK SMILES IDX 55 74 57 75 50 76 51 77 52 78 53 79 54 80 80 81 81 82 90 83
REMARK SMILES IDX 82 84 83 85 89 86 91 87 84 88 85 89 86 90 87 91 88 92 64 93
REMARK SMILES IDX 65 94 74 95 66 96 67 97 73 98 75 99 68 100 69 101 70 102
REMARK SMILES IDX 71 103 72 104
REMARK H PARENT 96 54 62 65
REMARK Flexibility Score: inf
ROOT
ATOM      1  C   UNL A   1      36.015  23.324  26.131  1.00  0.00     0.202 C 
ENDROOT
BRANCH   1   2
ATOM      2  C   UNL A   1      34.979  24.112  25.329  1.00  0.00     0.261 C 
BRANCH   2   3
ATOM      3  O   UNL A   1      33.806  24.392  26.112  1.00  0.00    -0.461 OA
BRANCH   3   4
ATOM      4  C   UNL A   1      32.619  23.929  25.626  1.00  0.00     0.347 C 
ATOM      5  O   UNL A   1      32.492  23.016  24.817  1.00  0.00    -0.248 OA
BRANCH   4   6
ATOM      6  C   UNL A   1      31.437  24.737  26.168  1.00  0.00     0.279 C 
ATOM      7  C   UNL A   1      30.307  23.736  26.413  1.00  0.00     0.066 C 
BRANCH   6   8
ATOM      8  O   UNL A   1      31.098  25.786  25.254  1.00  0.00    -0.479 OA
BRANCH   8   9
ATOM      9  C   UNL A   1      31.270  27.082  25.662  1.00  0.00     0.120 A 
ATOM     10  C   UNL A   1      31.409  28.187  24.825  1.00  0.00     0.047 A 
ATOM     11  C   UNL A   1      31.356  27.265  27.042  1.00  0.00     0.047 A 
ATOM     12  C   UNL A   1      31.805  29.423  25.348  1.00  0.00     0.012 A 
ATOM     13  C   UNL A   1      31.710  28.510  27.571  1.00  0.00     0.012 A 
ATOM     14  C   UNL A   1      32.024  29.575  26.718  1.00  0.00    -0.024 A 
BRANCH  14  15
ATOM     15  C   UNL A   1      32.599  30.833  27.212  1.00  0.00     0.029 C 
ATOM     16  C   UNL A   1      33.888  31.046  27.524  1.00  0.00     0.081 C 
ATOM     17  S   UNL A   1      34.449  32.565  28.112  1.00  0.00    -0.054 SA
ATOM     18  C   UNL A   1      35.028  30.077  27.474  1.00  0.00     0.270 C 
ATOM     19  C   UNL A   1      36.070  31.955  28.447  1.00  0.00     0.152 C 
ATOM     20  N   UNL A   1      36.143  30.609  28.120  1.00  0.00    -0.261 N 
ATOM     21  O   UNL A   1      34.943  28.972  26.958  1.00  0.00    -0.268 OA
ATOM     22  S   UNL A   1      37.268  32.995  28.983  1.00  0.00    -0.051 S 
BRANCH  20  23
ATOM     23  C   UNL A   1      37.247  29.751  28.435  1.00  0.00     0.052 A 
ATOM     24  C   UNL A   1      37.344  29.117  29.686  1.00  0.00     0.030 A 
ATOM     25  C   UNL A   1      38.319  29.615  27.536  1.00  0.00     0.050 A 
ATOM     26  C   UNL A   1      38.471  28.363  30.026  1.00  0.00     0.043 A 
ATOM     27  C   UNL A   1      39.449  28.868  27.883  1.00  0.00     0.078 A 
ATOM     28  C   UNL A   1      39.520  28.245  29.124  1.00  0.00     0.141 A 
ATOM     29  Cl  UNL A   1      40.761  28.768  26.771  1.00  0.00    -0.081 Cl
ATOM     30  F   UNL A   1      40.602  27.538  29.476  1.00  0.00    -0.205 F 
ENDBRANCH  20  23
ENDBRANCH  14  15
ENDBRANCH   8   9
ENDBRANCH   6   8
ENDBRANCH   4   6
ENDBRANCH   3   4
ENDBRANCH   2   3
ENDBRANCH   1   2
BRANCH   1  31
ATOM     31  O   UNL A   1      36.943  22.566  25.352  1.00  0.00    -0.374 OA
BRANCH  31  32
ATOM     32  C   UNL A   1      38.312  22.624  25.754  1.00  0.00     0.202 C 
BRANCH  32  33
ATOM     33  C   UNL A   1      39.065  21.288  25.764  1.00  0.00     0.261 C 
BRANCH  33  34
ATOM     34  O   UNL A   1      39.965  21.171  26.881  1.00  0.00    -0.460 OA
BRANCH  34  35
ATOM     35  C   UNL A   1      41.276  21.251  26.560  1.00  0.00     0.338 C 
ATOM     36  O   UNL A   1      41.869  20.580  25.720  1.00  0.00    -0.246 OA
BRANCH  35  37
ATOM     37  C   UNL A   1      41.918  22.385  27.250  1.00  0.00     0.060 A 
ATOM     38  C   UNL A   1      43.314  22.466  27.183  1.00  0.00     0.016 A 
ATOM     39  C   UNL A   1      41.194  23.305  28.016  1.00  0.00     0.016 A 
ATOM     40  C   UNL A   1      43.995  23.426  27.928  1.00  0.00     0.010 A 
ATOM     41  C   UNL A   1      41.881  24.267  28.767  1.00  0.00     0.010 A 
ATOM     42  C   UNL A   1      43.287  24.309  28.756  1.00  0.00    -0.014 A 
BRANCH  42  43
ATOM     43  C   UNL A   1      44.048  25.180  29.686  1.00  0.00     0.031 A 
ATOM     44  C   UNL A   1      44.333  26.607  29.298  1.00  0.00     0.074 A 
ATOM     45  C   UNL A   1      44.410  24.727  30.901  1.00  0.00     0.049 A 
ATOM     46  N   UNL A   1      44.915  27.553  29.989  1.00  0.00    -0.248 NA
ATOM     47  C   UNL A   1      43.900  27.025  27.955  1.00  0.00     0.031 C 
ATOM     48  C   UNL A   1      44.178  23.371  31.399  1.00  0.00     0.029 A 
ATOM     49  N   UNL A   1      45.044  25.361  31.939  1.00  0.00    -0.354 N 
ATOM     50  C   UNL A   1      44.906  28.680  29.175  1.00  0.00     0.074 A 
ATOM     51  C   UNL A   1      44.299  28.288  27.921  1.00  0.00     0.031 C 
ATOM     52  C   UNL A   1      44.666  23.274  32.647  1.00  0.00     0.029 A 
ATOM     53  C   UNL A   1      45.257  24.555  33.031  1.00  0.00     0.049 A 
ATOM     54  H   UNL A   1      45.320  26.305  31.905  1.00  0.00     0.167 HD
ATOM     55  C   UNL A   1      45.345  29.932  29.453  1.00  0.00     0.037 A 
ATOM     56  C   UNL A   1      45.867  24.817  34.204  1.00  0.00     0.037 A 
ATOM     57  C   UNL A   1      45.956  30.319  30.699  1.00  0.00     0.049 A 
ATOM     58  C   UNL A   1      46.384  26.206  34.474  1.00  0.00     0.074 A 
ATOM     59  C   UNL A   1      46.434  31.562  31.075  1.00  0.00     0.029 A 
ATOM     60  N   UNL A   1      46.176  29.468  31.771  1.00  0.00    -0.354 N 
ATOM     61  N   UNL A   1      46.344  27.266  33.702  1.00  0.00    -0.248 NA
ATOM     62  C   UNL A   1      47.016  26.438  35.780  1.00  0.00     0.031 C 
ATOM     63  C   UNL A   1      46.975  31.456  32.361  1.00  0.00     0.029 A 
ATOM     64  C   UNL A   1      46.795  30.155  32.804  1.00  0.00     0.049 A 
ATOM     65  H   UNL A   1      45.928  28.516  31.796  1.00  0.00     0.167 HD
ATOM     66  C   UNL A   1      46.932  28.292  34.433  1.00  0.00     0.074 A 
ATOM     67  C   UNL A   1      47.294  27.732  35.719  1.00  0.00     0.031 C 
ATOM     68  C   UNL A   1      47.157  29.581  34.074  1.00  0.00     0.037 A 
BRANCH  55  69
ATOM     69  C   UNL A   1      45.181  30.980  28.387  1.00  0.00     0.058 A 
ATOM     70  C   UNL A   1      46.128  31.136  27.362  1.00  0.00     0.135 A 
ATOM     71  C   UNL A   1      44.043  31.800  28.356  1.00  0.00     0.135 A 
ATOM     72  F   UNL A   1      47.244  30.388  27.354  1.00  0.00    -0.206 F 
ATOM     73  C   UNL A   1      45.960  32.077  26.352  1.00  0.00     0.059 A 
ATOM     74  C   UNL A   1      43.842  32.734  27.342  1.00  0.00     0.059 A 
ATOM     75  F   UNL A   1      43.108  31.694  29.313  1.00  0.00    -0.206 F 
ATOM     76  C   UNL A   1      44.811  32.871  26.350  1.00  0.00     0.060 A 
BRANCH  76  77
ATOM     77  S   UNL A   1      44.595  34.072  25.019  1.00  0.00     0.124 S 
ATOM     78  O   UNL A   1      44.246  33.205  23.898  1.00  0.00    -0.237 OA
ATOM     79  O   UNL A   1      43.517  34.914  25.528  1.00  0.00    -0.237 OA
ATOM     80  O   UNL A   1      45.901  34.718  24.927  1.00  0.00    -0.744 OA
ENDBRANCH  76  77
ENDBRANCH  55  69
BRANCH  56  81
ATOM     81  C   UNL A   1      46.036  23.737  35.212  1.00  0.00     0.058 A 
ATOM     82  C   UNL A   1      45.083  23.516  36.217  1.00  0.00     0.135 A 
ATOM     83  C   UNL A   1      47.172  22.912  35.196  1.00  0.00     0.135 A 
ATOM     84  F   UNL A   1      43.985  24.284  36.281  1.00  0.00    -0.206 F 
ATOM     85  C   UNL A   1      45.259  22.531  37.185  1.00  0.00     0.059 A 
ATOM     86  C   UNL A   1      47.359  21.905  36.137  1.00  0.00     0.059 A 
ATOM     87  F   UNL A   1      48.108  23.073  34.247  1.00  0.00    -0.206 F 
ATOM     88  C   UNL A   1      46.403  21.732  37.137  1.00  0.00     0.060 A 
BRANCH  88  89
ATOM     89  S   UNL A   1      46.610  20.430  38.372  1.00  0.00     0.124 S 
ATOM     90  O   UNL A   1      48.047  20.191  38.307  1.00  0.00    -0.237 OA
ATOM     91  O   UNL A   1      46.122  21.076  39.586  1.00  0.00    -0.237 OA
ATOM     92  O   UNL A   1      45.766  19.352  37.864  1.00  0.00    -0.744 OA
ENDBRANCH  88  89
ENDBRANCH  56  81
BRANCH  68  93
ATOM     93  C   UNL A   1      47.812  30.473  35.095  1.00  0.00     0.058 A 
ATOM     94  C   UNL A   1      47.055  31.198  36.030  1.00  0.00     0.135 A 
ATOM     95  C   UNL A   1      49.209  30.598  35.145  1.00  0.00     0.135 A 
ATOM     96  F   UNL A   1      45.716  31.116  36.024  1.00  0.00    -0.206 F 
ATOM     97  C   UNL A   1      47.660  32.049  36.950  1.00  0.00     0.059 A 
ATOM     98  C   UNL A   1      49.836  31.422  36.074  1.00  0.00     0.059 A 
ATOM     99  F   UNL A   1      49.980  29.915  34.283  1.00  0.00    -0.206 F 
ATOM    100  C   UNL A   1      49.051  32.160  36.959  1.00  0.00     0.060 A 
BRANCH 100 101
ATOM    101  S   UNL A   1      49.825  33.275  38.150  1.00  0.00     0.124 S 
ATOM    102  O   UNL A   1      48.841  34.350  38.227  1.00  0.00    -0.237 OA
ATOM    103  O   UNL A   1      49.942  32.437  39.338  1.00  0.00    -0.237 OA
ATOM    104  O   UNL A   1      51.090  33.626  37.512  1.00  0.00    -0.744 OA
ENDBRANCH 100 101
ENDBRANCH  68  93
ENDBRANCH  42  43
ENDBRANCH  35  37
ENDBRANCH  34  35
ENDBRANCH  33  34
ENDBRANCH  32  33
ENDBRANCH  31  32
ENDBRANCH   1  31
TORSDOF 21
ENDMDL
MODEL 3
REMARK VINA RESULT:      -9.4      6.323     14.339
REMARK SMILES C[C@H](Oc1ccc(/C=C2/SC(=S)N(c3ccc(F)c(Cl)c3)C2=O)cc1)C(=O)OCCOCCOC(=O)c1ccc(-c2c3nc(c(-c4c(F)cc(S(=O)(=O)[O-])cc4F)c4ccc([nH]4)c(-c4c(F)cc(S(=O)(=O)[O-])cc4F)c4nc(c(-c5c(F)cc(S(=O)(=O)[O-])cc5F)c5ccc2[nH]5)C=C4)C=C3)cc1
REMARK SMILES IDX 30 1 29 2 28 3 26 4 27 5 2 6 1 7 3 8 4 9 5 10 25 11 6 12
REMARK SMILES IDX 24 13 7 14 8 15 9 16 10 17 22 18 11 19 13 20 23 21 12 22
REMARK SMILES IDX 14 23 15 24 21 25 16 26 19 27 17 28 20 29 18 30 31 31 32 32
REMARK SMILES IDX 33 33 34 34 35 35 36 36 37 37 38 38 102 39 39 40 101 41
REMARK SMILES IDX 40 42 41 43 42 44 95 45 43 46 100 47 94 48 96 49 44 50 99 51
REMARK SMILES IDX 93 52 92 53 45 55 79 56 58 57 78 58 59 59 62 60 77 61 97 62
REMARK SMILES IDX 60 63 61 64 76 66 98 67 63 68 46 69 47 70 56 71 48 72 49 73
REMARK SMILES IDX 55 74 57 75 50 76 51 77 52 78 53 79 54 80 80 81 81 82 90 83
REMARK SMILES IDX 82 84 83 85 89 86 91 87 84 88 85 89 86 90 87 91 88 92 64 93
REMARK SMILES IDX 65 94 74 95 66 96 67 97 73 98 75 99 68 100 69 101 70 102
REMARK SMILES IDX 71 103 72 104
REMARK H PARENT 96 54 62 65
REMARK Flexibility Score: inf
ROOT
ATOM      1  C   UNL A   1      45.145  20.238  25.362  1.00  0.00     0.202 C 
ENDROOT
BRANCH   1   2
ATOM      2  C   UNL A   1      43.961  19.339  25.006  1.00  0.00     0.261 C 
BRANCH   2   3
ATOM      3  O   UNL A   1      42.706  19.961  25.333  1.00  0.00    -0.461 OA
BRANCH   3   4
ATOM      4  C   UNL A   1      42.050  19.480  26.427  1.00  0.00     0.347 C 
ATOM      5  O   UNL A   1      42.412  18.526  27.109  1.00  0.00    -0.248 OA
BRANCH   4   6
ATOM      6  C   UNL A   1      40.746  20.241  26.678  1.00  0.00     0.279 C 
ATOM      7  C   UNL A   1      39.678  19.560  25.820  1.00  0.00     0.066 C 
BRANCH   6   8
ATOM      8  O   UNL A   1      40.925  21.632  26.389  1.00  0.00    -0.479 OA
BRANCH   8   9
ATOM      9  C   UNL A   1      39.810  22.408  26.221  1.00  0.00     0.120 A 
ATOM     10  C   UNL A   1      39.492  23.548  26.957  1.00  0.00     0.047 A 
ATOM     11  C   UNL A   1      38.913  21.960  25.251  1.00  0.00     0.047 A 
ATOM     12  C   UNL A   1      38.222  24.126  26.851  1.00  0.00     0.012 A 
ATOM     13  C   UNL A   1      37.659  22.563  25.114  1.00  0.00     0.012 A 
ATOM     14  C   UNL A   1      37.273  23.594  25.976  1.00  0.00    -0.024 A 
BRANCH  14  15
ATOM     15  C   UNL A   1      35.901  24.118  26.012  1.00  0.00     0.029 C 
ATOM     16  C   UNL A   1      34.774  23.386  26.010  1.00  0.00     0.081 C 
ATOM     17  S   UNL A   1      33.211  24.111  26.037  1.00  0.00    -0.054 SA
ATOM     18  C   UNL A   1      34.634  21.897  25.947  1.00  0.00     0.270 C 
ATOM     19  C   UNL A   1      32.379  22.572  25.812  1.00  0.00     0.152 C 
ATOM     20  N   UNL A   1      33.306  21.547  25.704  1.00  0.00    -0.261 N 
ATOM     21  O   UNL A   1      35.579  21.132  26.066  1.00  0.00    -0.268 OA
ATOM     22  S   UNL A   1      30.707  22.507  25.846  1.00  0.00    -0.051 S 
BRANCH  20  23
ATOM     23  C   UNL A   1      32.993  20.199  25.330  1.00  0.00     0.052 A 
ATOM     24  C   UNL A   1      33.035  19.154  26.270  1.00  0.00     0.030 A 
ATOM     25  C   UNL A   1      32.747  19.875  23.986  1.00  0.00     0.050 A 
ATOM     26  C   UNL A   1      32.828  17.826  25.881  1.00  0.00     0.043 A 
ATOM     27  C   UNL A   1      32.550  18.546  23.598  1.00  0.00     0.078 A 
ATOM     28  C   UNL A   1      32.590  17.529  24.545  1.00  0.00     0.141 A 
ATOM     29  Cl  UNL A   1      32.301  18.187  21.931  1.00  0.00    -0.081 Cl
ATOM     30  F   UNL A   1      32.418  16.250  24.187  1.00  0.00    -0.205 F 
ENDBRANCH  20  23
ENDBRANCH  14  15
ENDBRANCH   8   9
ENDBRANCH   6   8
ENDBRANCH   4   6
ENDBRANCH   3   4
ENDBRANCH   2   3
ENDBRANCH   1   2
BRANCH   1  31
ATOM     31  O   UNL A   1      45.114  21.545  24.788  1.00  0.00    -0.374 OA
BRANCH  31  32
ATOM     32  C   UNL A   1      45.337  22.640  25.676  1.00  0.00     0.202 C 
BRANCH  32  33
ATOM     33  C   UNL A   1      44.214  22.930  26.679  1.00  0.00     0.261 C 
BRANCH  33  34
ATOM     34  O   UNL A   1      44.145  24.321  27.043  1.00  0.00    -0.460 OA
BRANCH  34  35
ATOM     35  C   UNL A   1      43.139  25.008  26.455  1.00  0.00     0.338 C 
ATOM     36  O   UNL A   1      42.684  24.827  25.331  1.00  0.00    -0.246 OA
BRANCH  35  37
ATOM     37  C   UNL A   1      42.514  25.944  27.410  1.00  0.00     0.060 A 
ATOM     38  C   UNL A   1      43.081  27.219  27.518  1.00  0.00     0.016 A 
ATOM     39  C   UNL A   1      41.456  25.568  28.244  1.00  0.00     0.016 A 
ATOM     40  C   UNL A   1      42.634  28.101  28.498  1.00  0.00     0.010 A 
ATOM     41  C   UNL A   1      41.010  26.457  29.231  1.00  0.00     0.010 A 
ATOM     42  C   UNL A   1      41.623  27.713  29.388  1.00  0.00    -0.014 A 
BRANCH  42  43
ATOM     43  C   UNL A   1      41.311  28.594  30.542  1.00  0.00     0.031 A 
ATOM     44  C   UNL A   1      42.159  28.514  31.784  1.00  0.00     0.074 A 
ATOM     45  C   UNL A   1      40.333  29.514  30.452  1.00  0.00     0.049 A 
ATOM     46  N   UNL A   1      42.105  29.239  32.872  1.00  0.00    -0.248 NA
ATOM     47  C   UNL A   1      43.211  27.485  31.802  1.00  0.00     0.031 C 
ATOM     48  C   UNL A   1      39.454  29.699  29.297  1.00  0.00     0.029 A 
ATOM     49  N   UNL A   1      39.919  30.470  31.345  1.00  0.00    -0.354 N 
ATOM     50  C   UNL A   1      43.120  28.766  33.696  1.00  0.00     0.074 A 
ATOM     51  C   UNL A   1      43.747  27.663  33.000  1.00  0.00     0.031 C 
ATOM     52  C   UNL A   1      38.602  30.706  29.554  1.00  0.00     0.029 A 
ATOM     53  C   UNL A   1      38.865  31.227  30.894  1.00  0.00     0.049 A 
ATOM     54  H   UNL A   1      40.338  30.601  32.225  1.00  0.00     0.167 HD
ATOM     55  C   UNL A   1      43.507  29.221  34.912  1.00  0.00     0.037 A 
ATOM     56  C   UNL A   1      38.184  32.221  31.497  1.00  0.00     0.037 A 
ATOM     57  C   UNL A   1      42.877  30.314  35.608  1.00  0.00     0.049 A 
ATOM     58  C   UNL A   1      38.607  32.682  32.867  1.00  0.00     0.074 A 
ATOM     59  C   UNL A   1      43.197  30.848  36.844  1.00  0.00     0.029 A 
ATOM     60  N   UNL A   1      41.798  31.041  35.129  1.00  0.00    -0.354 N 
ATOM     61  N   UNL A   1      39.586  32.240  33.621  1.00  0.00    -0.248 NA
ATOM     62  C   UNL A   1      37.843  33.787  33.462  1.00  0.00     0.031 C 
ATOM     63  C   UNL A   1      42.289  31.874  37.129  1.00  0.00     0.029 A 
ATOM     64  C   UNL A   1      41.429  32.008  36.050  1.00  0.00     0.049 A 
ATOM     65  H   UNL A   1      41.357  30.892  34.262  1.00  0.00     0.167 HD
ATOM     66  C   UNL A   1      39.564  33.021  34.771  1.00  0.00     0.074 A 
ATOM     67  C   UNL A   1      38.492  33.980  34.602  1.00  0.00     0.031 C 
ATOM     68  C   UNL A   1      40.354  32.950  35.871  1.00  0.00     0.037 A 
BRANCH  55  69
ATOM     69  C   UNL A   1      44.671  28.536  35.574  1.00  0.00     0.058 A 
ATOM     70  C   UNL A   1      44.484  27.438  36.430  1.00  0.00     0.135 A 
ATOM     71  C   UNL A   1      45.988  28.942  35.309  1.00  0.00     0.135 A 
ATOM     72  F   UNL A   1      43.244  27.019  36.730  1.00  0.00    -0.206 F 
ATOM     73  C   UNL A   1      45.560  26.777  37.012  1.00  0.00     0.059 A 
ATOM     74  C   UNL A   1      47.082  28.281  35.862  1.00  0.00     0.059 A 
ATOM     75  F   UNL A   1      46.223  29.987  34.501  1.00  0.00    -0.206 F 
ATOM     76  C   UNL A   1      46.857  27.205  36.720  1.00  0.00     0.060 A 
BRANCH  76  77
ATOM     77  S   UNL A   1      48.245  26.321  37.464  1.00  0.00     0.124 S 
ATOM     78  O   UNL A   1      47.579  25.574  38.526  1.00  0.00    -0.237 OA
ATOM     79  O   UNL A   1      48.744  25.525  36.347  1.00  0.00    -0.237 OA
ATOM     80  O   UNL A   1      49.131  27.392  37.911  1.00  0.00    -0.744 OA
ENDBRANCH  76  77
ENDBRANCH  55  69
BRANCH  56  81
ATOM     81  C   UNL A   1      37.017  32.843  30.816  1.00  0.00     0.058 A 
ATOM     82  C   UNL A   1      37.184  33.803  29.806  1.00  0.00     0.135 A 
ATOM     83  C   UNL A   1      35.706  32.497  31.178  1.00  0.00     0.135 A 
ATOM     84  F   UNL A   1      38.417  34.175  29.431  1.00  0.00    -0.206 F 
ATOM     85  C   UNL A   1      36.093  34.415  29.195  1.00  0.00     0.059 A 
ATOM     86  C   UNL A   1      34.600  33.075  30.565  1.00  0.00     0.059 A 
ATOM     87  F   UNL A   1      35.492  31.573  32.129  1.00  0.00    -0.206 F 
ATOM     88  C   UNL A   1      34.804  34.045  29.584  1.00  0.00     0.060 A 
BRANCH  88  89
ATOM     89  S   UNL A   1      33.391  34.814  28.763  1.00  0.00     0.124 S 
ATOM     90  O   UNL A   1      34.003  35.999  28.175  1.00  0.00    -0.237 OA
ATOM     91  O   UNL A   1      32.976  33.775  27.825  1.00  0.00    -0.237 OA
ATOM     92  O   UNL A   1      32.460  35.061  29.861  1.00  0.00    -0.744 OA
ENDBRANCH  88  89
ENDBRANCH  56  81
BRANCH  68  93
ATOM     93  C   UNL A   1      40.095  33.949  36.967  1.00  0.00     0.058 A 
ATOM     94  C   UNL A   1      39.214  33.667  38.024  1.00  0.00     0.135 A 
ATOM     95  C   UNL A   1      40.738  35.196  36.965  1.00  0.00     0.135 A 
ATOM     96  F   UNL A   1      38.571  32.490  38.072  1.00  0.00    -0.206 F 
ATOM     97  C   UNL A   1      38.948  34.605  39.017  1.00  0.00     0.059 A 
ATOM     98  C   UNL A   1      40.508  36.139  37.963  1.00  0.00     0.059 A 
ATOM     99  F   UNL A   1      41.601  35.511  35.986  1.00  0.00    -0.206 F 
ATOM    100  C   UNL A   1      39.594  35.841  38.973  1.00  0.00     0.060 A 
BRANCH 100 101
ATOM    101  S   UNL A   1      39.234  37.055  40.260  1.00  0.00     0.124 S 
ATOM    102  O   UNL A   1      38.661  38.148  39.480  1.00  0.00    -0.237 OA
ATOM    103  O   UNL A   1      38.302  36.335  41.122  1.00  0.00    -0.237 OA
ATOM    104  O   UNL A   1      40.543  37.322  40.849  1.00  0.00    -0.744 OA
ENDBRANCH 100 101
ENDBRANCH  68  93
ENDBRANCH  42  43
ENDBRANCH  35  37
ENDBRANCH  34  35
ENDBRANCH  33  34
ENDBRANCH  32  33
ENDBRANCH  31  32
ENDBRANCH   1  31
TORSDOF 21
ENDMDL
