MODEL 1
REMARK VINA RESULT:     -12.7      0.000      0.000
REMARK SMILES CC1=Nc2ncnn2[C@H](c2ccc(F)cc2)[C@@H]1C(=O)OCCOCCOC(=O)c1ccc(-c2c3nc(c(-c4c(F)cc(S(=O)(=O)[O-])cc4F)c4ccc([nH]4)c(-c4c(F)cc(S(=O)(=O)[O-])cc4F)c4nc(c(-c5c(F)cc(S(=O)(=O)[O-])cc5F)c5ccc2[nH]5)C=C4)C=C3)cc1
REMARK SMILES IDX 24 1 23 2 22 3 21 4 20 5 18 6 19 7 17 8 1 9 2 10 3 11 4 12
REMARK SMILES IDX 9 13 5 14 8 15 6 16 7 17 10 18 11 19 16 20 12 21 15 22 13 23
REMARK SMILES IDX 14 24 25 25 26 26 27 27 28 28 29 29 30 30 94 31 31 32 93 33
REMARK SMILES IDX 32 34 33 35 34 36 87 37 35 38 92 39 86 40 88 41 36 42 91 43
REMARK SMILES IDX 85 44 84 45 37 47 71 48 50 49 70 50 51 51 54 52 69 53 89 54
REMARK SMILES IDX 52 55 53 56 68 58 90 59 55 60 38 61 39 62 48 63 40 64 41 65
REMARK SMILES IDX 47 66 49 67 42 68 43 69 44 70 45 71 46 72 72 73 73 74 82 75
REMARK SMILES IDX 74 76 75 77 81 78 83 79 76 80 77 81 78 82 79 83 80 84 56 85
REMARK SMILES IDX 57 86 66 87 58 88 59 89 65 90 67 91 60 92 61 93 62 94 63 95
REMARK SMILES IDX 64 96
REMARK H PARENT 88 46 54 57
REMARK Flexibility Score: inf
ROOT
ATOM      1  C   UNL A   1      40.208  21.275  26.569  1.00  0.00     0.202 C 
ENDROOT
BRANCH   1   2
ATOM      2  O   UNL A   1      39.085  21.924  25.596  1.00  0.00    -0.374 OA
BRANCH   2   3
ATOM      3  C   UNL A   1      37.644  21.952  25.665  1.00  0.00     0.202 C 
BRANCH   3   4
ATOM      4  C   UNL A   1      36.851  23.192  26.127  1.00  0.00     0.261 C 
BRANCH   4   5
ATOM      5  O   UNL A   1      36.413  24.073  25.088  1.00  0.00    -0.463 OA
BRANCH   5   6
ATOM      6  C   UNL A   1      35.314  23.676  24.404  1.00  0.00     0.317 C 
ATOM      7  O   UNL A   1      35.207  23.661  23.187  1.00  0.00    -0.251 OA
BRANCH   6   8
ATOM      8  C   UNL A   1      34.226  23.224  25.337  1.00  0.00     0.173 C 
ATOM      9  C   UNL A   1      34.374  20.777  24.434  1.00  0.00     0.063 C 
ATOM     10  C   UNL A   1      33.530  21.931  24.939  1.00  0.00     0.036 C 
ATOM     11  N   UNL A   1      32.278  21.669  25.159  1.00  0.00    -0.220 NA
ATOM     12  C   UNL A   1      31.510  22.600  25.767  1.00  0.00     0.248 A 
ATOM     13  C   UNL A   1      33.257  24.362  25.699  1.00  0.00     0.161 C 
ATOM     14  N   UNL A   1      30.287  22.494  26.238  1.00  0.00    -0.198 NA
ATOM     15  N   UNL A   1      31.942  23.868  26.030  1.00  0.00    -0.221 N 
ATOM     16  C   UNL A   1      30.041  23.715  26.805  1.00  0.00     0.248 A 
ATOM     17  N   UNL A   1      31.061  24.576  26.758  1.00  0.00    -0.157 NA
BRANCH  13  18
ATOM     18  C   UNL A   1      33.142  25.604  24.820  1.00  0.00    -0.022 A 
ATOM     19  C   UNL A   1      32.085  25.407  23.365  1.00  0.00     0.009 A 
ATOM     20  C   UNL A   1      33.672  27.258  25.283  1.00  0.00     0.009 A 
ATOM     21  C   UNL A   1      31.595  26.806  22.384  1.00  0.00     0.039 A 
ATOM     22  C   UNL A   1      33.119  28.709  24.280  1.00  0.00     0.039 A 
ATOM     23  C   UNL A   1      32.069  28.465  22.859  1.00  0.00     0.123 A 
ATOM     24  F   UNL A   1      31.756  29.493  22.063  1.00  0.00    -0.207 F 
ENDBRANCH  13  18
ENDBRANCH   6   8
ENDBRANCH   5   6
ENDBRANCH   4   5
ENDBRANCH   3   4
ENDBRANCH   2   3
ENDBRANCH   1   2
BRANCH   1  25
ATOM     25  C   UNL A   1      42.306  20.717  26.315  1.00  0.00     0.261 C 
BRANCH  25  26
ATOM     26  O   UNL A   1      43.214  20.935  25.043  1.00  0.00    -0.460 OA
BRANCH  26  27
ATOM     27  C   UNL A   1      44.568  20.854  25.066  1.00  0.00     0.338 C 
ATOM     28  O   UNL A   1      45.255  19.914  25.425  1.00  0.00    -0.246 OA
BRANCH  27  29
ATOM     29  C   UNL A   1      45.081  22.088  24.398  1.00  0.00     0.060 A 
ATOM     30  C   UNL A   1      46.184  22.593  25.074  1.00  0.00     0.016 A 
ATOM     31  C   UNL A   1      44.052  22.935  23.982  1.00  0.00     0.016 A 
ATOM     32  C   UNL A   1      45.907  23.622  25.937  1.00  0.00     0.010 A 
ATOM     33  C   UNL A   1      43.784  23.995  24.801  1.00  0.00     0.010 A 
ATOM     34  C   UNL A   1      44.632  24.205  25.885  1.00  0.00    -0.014 A 
BRANCH  34  35
ATOM     35  C   UNL A   1      44.310  25.276  26.799  1.00  0.00     0.031 A 
ATOM     36  C   UNL A   1      45.368  26.300  26.658  1.00  0.00     0.074 A 
ATOM     37  C   UNL A   1      43.191  25.336  27.551  1.00  0.00     0.049 A 
ATOM     38  N   UNL A   1      46.419  26.413  27.403  1.00  0.00    -0.248 NA
ATOM     39  C   UNL A   1      45.494  26.982  25.352  1.00  0.00     0.031 C 
ATOM     40  C   UNL A   1      42.029  24.443  27.595  1.00  0.00     0.029 A 
ATOM     41  N   UNL A   1      42.842  26.311  28.443  1.00  0.00    -0.354 N 
ATOM     42  C   UNL A   1      47.155  27.420  26.803  1.00  0.00     0.074 A 
ATOM     43  C   UNL A   1      46.736  27.463  25.431  1.00  0.00     0.031 C 
ATOM     44  C   UNL A   1      41.011  25.052  28.257  1.00  0.00     0.029 A 
ATOM     45  C   UNL A   1      41.486  26.308  28.808  1.00  0.00     0.049 A 
ATOM     46  H   UNL A   1      43.488  26.962  28.799  1.00  0.00     0.167 HD
ATOM     47  C   UNL A   1      47.720  28.394  27.562  1.00  0.00     0.037 A 
ATOM     48  C   UNL A   1      40.855  27.317  29.480  1.00  0.00     0.037 A 
ATOM     49  C   UNL A   1      47.809  27.977  28.940  1.00  0.00     0.049 A 
ATOM     50  C   UNL A   1      41.942  28.078  30.171  1.00  0.00     0.074 A 
ATOM     51  C   UNL A   1      48.446  26.938  29.591  1.00  0.00     0.029 A 
ATOM     52  N   UNL A   1      46.792  28.384  29.770  1.00  0.00    -0.354 N 
ATOM     53  N   UNL A   1      42.696  27.549  31.102  1.00  0.00    -0.248 NA
ATOM     54  C   UNL A   1      42.539  29.175  29.421  1.00  0.00     0.031 C 
ATOM     55  C   UNL A   1      47.509  26.474  30.558  1.00  0.00     0.029 A 
ATOM     56  C   UNL A   1      46.397  27.317  30.540  1.00  0.00     0.049 A 
ATOM     57  H   UNL A   1      46.409  29.290  29.807  1.00  0.00     0.167 HD
ATOM     58  C   UNL A   1      43.988  27.934  30.766  1.00  0.00     0.074 A 
ATOM     59  C   UNL A   1      43.822  28.942  29.716  1.00  0.00     0.031 C 
ATOM     60  C   UNL A   1      45.076  27.189  31.125  1.00  0.00     0.037 A 
BRANCH  47  61
ATOM     61  C   UNL A   1      47.761  29.835  27.129  1.00  0.00     0.058 A 
ATOM     62  C   UNL A   1      46.614  30.620  26.853  1.00  0.00     0.135 A 
ATOM     63  C   UNL A   1      48.972  30.542  27.208  1.00  0.00     0.135 A 
ATOM     64  F   UNL A   1      45.371  30.130  26.895  1.00  0.00    -0.206 F 
ATOM     65  C   UNL A   1      46.667  31.982  26.613  1.00  0.00     0.059 A 
ATOM     66  C   UNL A   1      49.040  31.926  27.033  1.00  0.00     0.059 A 
ATOM     67  F   UNL A   1      50.112  29.902  27.513  1.00  0.00    -0.206 F 
ATOM     68  C   UNL A   1      47.882  32.632  26.721  1.00  0.00     0.060 A 
BRANCH  68  69
ATOM     69  S   UNL A   1      47.883  34.417  26.507  1.00  0.00     0.124 S 
ATOM     70  O   UNL A   1      49.309  34.717  26.590  1.00  0.00    -0.237 OA
ATOM     71  O   UNL A   1      47.279  34.563  25.188  1.00  0.00    -0.237 OA
ATOM     72  O   UNL A   1      47.075  34.888  27.626  1.00  0.00    -0.744 OA
ENDBRANCH  68  69
ENDBRANCH  47  61
BRANCH  48  73
ATOM     73  C   UNL A   1      39.537  27.956  29.152  1.00  0.00     0.058 A 
ATOM     74  C   UNL A   1      39.366  28.685  27.960  1.00  0.00     0.135 A 
ATOM     75  C   UNL A   1      38.523  28.131  30.121  1.00  0.00     0.135 A 
ATOM     76  F   UNL A   1      40.286  28.634  26.986  1.00  0.00    -0.206 F 
ATOM     77  C   UNL A   1      38.299  29.561  27.755  1.00  0.00     0.059 A 
ATOM     78  C   UNL A   1      37.434  29.005  29.935  1.00  0.00     0.059 A 
ATOM     79  F   UNL A   1      38.605  27.499  31.301  1.00  0.00    -0.206 F 
ATOM     80  C   UNL A   1      37.350  29.740  28.754  1.00  0.00     0.060 A 
BRANCH  80  81
ATOM     81  S   UNL A   1      36.072  30.997  28.487  1.00  0.00     0.124 S 
ATOM     82  O   UNL A   1      35.163  30.312  27.574  1.00  0.00    -0.237 OA
ATOM     83  O   UNL A   1      35.564  31.207  29.839  1.00  0.00    -0.237 OA
ATOM     84  O   UNL A   1      36.807  32.121  27.915  1.00  0.00    -0.744 OA
ENDBRANCH  80  81
ENDBRANCH  48  73
BRANCH  60  85
ATOM     85  C   UNL A   1      44.894  26.047  32.100  1.00  0.00     0.058 A 
ATOM     86  C   UNL A   1      45.289  26.278  33.425  1.00  0.00     0.135 A 
ATOM     87  C   UNL A   1      44.570  24.721  31.750  1.00  0.00     0.135 A 
ATOM     88  F   UNL A   1      45.660  27.510  33.808  1.00  0.00    -0.206 F 
ATOM     89  C   UNL A   1      45.391  25.251  34.355  1.00  0.00     0.059 A 
ATOM     90  C   UNL A   1      44.636  23.673  32.680  1.00  0.00     0.059 A 
ATOM     91  F   UNL A   1      44.257  24.403  30.486  1.00  0.00    -0.206 F 
ATOM     92  C   UNL A   1      45.065  23.949  33.979  1.00  0.00     0.060 A 
BRANCH  92  93
ATOM     93  S   UNL A   1      45.247  22.651  35.221  1.00  0.00     0.124 S 
ATOM     94  O   UNL A   1      44.585  23.244  36.381  1.00  0.00    -0.237 OA
ATOM     95  O   UNL A   1      44.540  21.532  34.603  1.00  0.00    -0.237 OA
ATOM     96  O   UNL A   1      46.691  22.483  35.346  1.00  0.00    -0.744 OA
ENDBRANCH  92  93
ENDBRANCH  60  85
ENDBRANCH  34  35
ENDBRANCH  27  29
ENDBRANCH  26  27
ENDBRANCH  25  26
ENDBRANCH   1  25
TORSDOF 18
ENDMDL
MODEL 2
REMARK VINA RESULT:     -12.7      3.043      4.108
REMARK SMILES CC1=Nc2ncnn2[C@H](c2ccc(F)cc2)[C@@H]1C(=O)OCCOCCOC(=O)c1ccc(-c2c3nc(c(-c4c(F)cc(S(=O)(=O)[O-])cc4F)c4ccc([nH]4)c(-c4c(F)cc(S(=O)(=O)[O-])cc4F)c4nc(c(-c5c(F)cc(S(=O)(=O)[O-])cc5F)c5ccc2[nH]5)C=C4)C=C3)cc1
REMARK SMILES IDX 24 1 23 2 22 3 21 4 20 5 18 6 19 7 17 8 1 9 2 10 3 11 4 12
REMARK SMILES IDX 9 13 5 14 8 15 6 16 7 17 10 18 11 19 16 20 12 21 15 22 13 23
REMARK SMILES IDX 14 24 25 25 26 26 27 27 28 28 29 29 30 30 94 31 31 32 93 33
REMARK SMILES IDX 32 34 33 35 34 36 87 37 35 38 92 39 86 40 88 41 36 42 91 43
REMARK SMILES IDX 85 44 84 45 37 47 71 48 50 49 70 50 51 51 54 52 69 53 89 54
REMARK SMILES IDX 52 55 53 56 68 58 90 59 55 60 38 61 39 62 48 63 40 64 41 65
REMARK SMILES IDX 47 66 49 67 42 68 43 69 44 70 45 71 46 72 72 73 73 74 82 75
REMARK SMILES IDX 74 76 75 77 81 78 83 79 76 80 77 81 78 82 79 83 80 84 56 85
REMARK SMILES IDX 57 86 66 87 58 88 59 89 65 90 67 91 60 92 61 93 62 94 63 95
REMARK SMILES IDX 64 96
REMARK H PARENT 88 46 54 57
REMARK Flexibility Score: inf
ROOT
ATOM      1  C   UNL A   1      41.687  21.908  25.870  1.00  0.00     0.202 C 
ENDROOT
BRANCH   1   2
ATOM      2  O   UNL A   1      40.082  22.105  25.985  1.00  0.00    -0.374 OA
BRANCH   2   3
ATOM      3  C   UNL A   1      39.274  23.102  26.643  1.00  0.00     0.202 C 
BRANCH   3   4
ATOM      4  C   UNL A   1      38.077  23.797  25.960  1.00  0.00     0.261 C 
BRANCH   4   5
ATOM      5  O   UNL A   1      36.784  23.443  26.458  1.00  0.00    -0.463 OA
BRANCH   5   6
ATOM      6  C   UNL A   1      35.843  23.185  25.520  1.00  0.00     0.317 C 
ATOM      7  O   UNL A   1      36.018  23.236  24.312  1.00  0.00    -0.251 OA
BRANCH   6   8
ATOM      8  C   UNL A   1      34.535  22.798  26.152  1.00  0.00     0.173 C 
ATOM      9  C   UNL A   1      34.672  20.399  25.126  1.00  0.00     0.063 C 
ATOM     10  C   UNL A   1      33.839  21.605  25.515  1.00  0.00     0.036 C 
ATOM     11  N   UNL A   1      32.552  21.460  25.432  1.00  0.00    -0.220 NA
ATOM     12  C   UNL A   1      31.749  22.431  25.922  1.00  0.00     0.248 A 
ATOM     13  C   UNL A   1      33.613  24.008  26.374  1.00  0.00     0.161 C 
ATOM     14  N   UNL A   1      30.447  22.426  26.102  1.00  0.00    -0.198 NA
ATOM     15  N   UNL A   1      32.219  23.633  26.367  1.00  0.00    -0.221 N 
ATOM     16  C   UNL A   1      30.185  23.634  26.689  1.00  0.00     0.248 A 
ATOM     17  N   UNL A   1      31.261  24.388  26.933  1.00  0.00    -0.157 NA
BRANCH  13  18
ATOM     18  C   UNL A   1      33.810  25.300  25.586  1.00  0.00    -0.022 A 
ATOM     19  C   UNL A   1      33.479  25.163  23.812  1.00  0.00     0.009 A 
ATOM     20  C   UNL A   1      33.999  26.936  26.304  1.00  0.00     0.009 A 
ATOM     21  C   UNL A   1      33.372  26.606  22.781  1.00  0.00     0.039 A 
ATOM     22  C   UNL A   1      33.840  28.431  25.227  1.00  0.00     0.039 A 
ATOM     23  C   UNL A   1      33.505  28.245  23.485  1.00  0.00     0.123 A 
ATOM     24  F   UNL A   1      33.500  29.311  22.678  1.00  0.00    -0.207 F 
ENDBRANCH  13  18
ENDBRANCH   6   8
ENDBRANCH   5   6
ENDBRANCH   4   5
ENDBRANCH   3   4
ENDBRANCH   2   3
ENDBRANCH   1   2
BRANCH   1  25
ATOM     25  C   UNL A   1      43.281  22.965  24.811  1.00  0.00     0.261 C 
BRANCH  25  26
ATOM     26  O   UNL A   1      44.087  24.231  25.299  1.00  0.00    -0.460 OA
BRANCH  26  27
ATOM     27  C   UNL A   1      43.522  25.448  25.497  1.00  0.00     0.338 C 
ATOM     28  O   UNL A   1      43.924  26.531  25.111  1.00  0.00    -0.246 OA
BRANCH  27  29
ATOM     29  C   UNL A   1      42.197  25.204  26.143  1.00  0.00     0.060 A 
ATOM     30  C   UNL A   1      41.236  26.070  25.641  1.00  0.00     0.016 A 
ATOM     31  C   UNL A   1      42.309  24.984  27.518  1.00  0.00     0.016 A 
ATOM     32  C   UNL A   1      40.996  27.175  26.417  1.00  0.00     0.010 A 
ATOM     33  C   UNL A   1      42.031  26.056  28.317  1.00  0.00     0.010 A 
ATOM     34  C   UNL A   1      41.544  27.209  27.708  1.00  0.00    -0.014 A 
BRANCH  34  35
ATOM     35  C   UNL A   1      41.322  28.371  28.536  1.00  0.00     0.031 A 
ATOM     36  C   UNL A   1      42.486  29.266  28.350  1.00  0.00     0.074 A 
ATOM     37  C   UNL A   1      40.202  28.604  29.252  1.00  0.00     0.049 A 
ATOM     38  N   UNL A   1      43.529  29.321  29.112  1.00  0.00    -0.248 NA
ATOM     39  C   UNL A   1      42.707  29.833  27.003  1.00  0.00     0.031 C 
ATOM     40  C   UNL A   1      38.951  27.843  29.329  1.00  0.00     0.029 A 
ATOM     41  N   UNL A   1      39.943  29.672  30.064  1.00  0.00    -0.354 N 
ATOM     42  C   UNL A   1      44.379  30.199  28.461  1.00  0.00     0.074 A 
ATOM     43  C   UNL A   1      43.992  30.186  27.080  1.00  0.00     0.031 C 
ATOM     44  C   UNL A   1      37.992  28.602  29.921  1.00  0.00     0.029 A 
ATOM     45  C   UNL A   1      38.588  29.838  30.393  1.00  0.00     0.049 A 
ATOM     46  H   UNL A   1      40.648  30.276  30.390  1.00  0.00     0.167 HD
ATOM     47  C   UNL A   1      45.031  31.162  29.165  1.00  0.00     0.037 A 
ATOM     48  C   UNL A   1      38.056  30.954  30.976  1.00  0.00     0.037 A 
ATOM     49  C   UNL A   1      45.049  30.839  30.570  1.00  0.00     0.049 A 
ATOM     50  C   UNL A   1      39.205  31.646  31.639  1.00  0.00     0.074 A 
ATOM     51  C   UNL A   1      45.560  29.788  31.309  1.00  0.00     0.029 A 
ATOM     52  N   UNL A   1      44.067  31.410  31.343  1.00  0.00    -0.354 N 
ATOM     53  N   UNL A   1      39.881  31.109  32.624  1.00  0.00    -0.248 NA
ATOM     54  C   UNL A   1      39.930  32.616  30.829  1.00  0.00     0.031 C 
ATOM     55  C   UNL A   1      44.562  29.498  32.282  1.00  0.00     0.029 A 
ATOM     56  C   UNL A   1      43.546  30.450  32.176  1.00  0.00     0.049 A 
ATOM     57  H   UNL A   1      43.782  32.351  31.306  1.00  0.00     0.167 HD
ATOM     58  C   UNL A   1      41.213  31.331  32.295  1.00  0.00     0.074 A 
ATOM     59  C   UNL A   1      41.175  32.272  31.173  1.00  0.00     0.031 C 
ATOM     60  C   UNL A   1      42.209  30.504  32.734  1.00  0.00     0.037 A 
BRANCH  47  61
ATOM     61  C   UNL A   1      45.233  32.554  28.632  1.00  0.00     0.058 A 
ATOM     62  C   UNL A   1      44.195  33.503  28.458  1.00  0.00     0.135 A 
ATOM     63  C   UNL A   1      46.538  33.057  28.500  1.00  0.00     0.135 A 
ATOM     64  F   UNL A   1      42.909  33.225  28.698  1.00  0.00    -0.206 F 
ATOM     65  C   UNL A   1      44.424  34.825  28.120  1.00  0.00     0.059 A 
ATOM     66  C   UNL A   1      46.794  34.402  28.223  1.00  0.00     0.059 A 
ATOM     67  F   UNL A   1      47.597  32.255  28.694  1.00  0.00    -0.206 F 
ATOM     68  C   UNL A   1      45.728  35.272  28.021  1.00  0.00     0.060 A 
BRANCH  68  69
ATOM     69  S   UNL A   1      45.976  37.021  27.687  1.00  0.00     0.124 S 
ATOM     70  O   UNL A   1      44.676  37.572  28.056  1.00  0.00    -0.237 OA
ATOM     71  O   UNL A   1      47.082  37.345  28.581  1.00  0.00    -0.237 OA
ATOM     72  O   UNL A   1      46.289  37.048  26.263  1.00  0.00    -0.744 OA
ENDBRANCH  68  69
ENDBRANCH  47  61
BRANCH  48  73
ATOM     73  C   UNL A   1      36.820  31.703  30.570  1.00  0.00     0.058 A 
ATOM     74  C   UNL A   1      36.710  32.271  29.286  1.00  0.00     0.135 A 
ATOM     75  C   UNL A   1      35.861  32.141  31.511  1.00  0.00     0.135 A 
ATOM     76  F   UNL A   1      37.591  31.966  28.323  1.00  0.00    -0.206 F 
ATOM     77  C   UNL A   1      35.755  33.238  28.966  1.00  0.00     0.059 A 
ATOM     78  C   UNL A   1      34.885  33.110  31.210  1.00  0.00     0.059 A 
ATOM     79  F   UNL A   1      35.894  31.677  32.770  1.00  0.00    -0.206 F 
ATOM     80  C   UNL A   1      34.862  33.675  29.937  1.00  0.00     0.060 A 
BRANCH  80  81
ATOM     81  S   UNL A   1      33.745  35.034  29.501  1.00  0.00     0.124 S 
ATOM     82  O   UNL A   1      33.639  35.753  30.766  1.00  0.00    -0.237 OA
ATOM     83  O   UNL A   1      34.493  35.718  28.450  1.00  0.00    -0.237 OA
ATOM     84  O   UNL A   1      32.530  34.356  29.060  1.00  0.00    -0.744 OA
ENDBRANCH  80  81
ENDBRANCH  48  73
BRANCH  60  85
ATOM     85  C   UNL A   1      41.889  29.462  33.782  1.00  0.00     0.058 A 
ATOM     86  C   UNL A   1      42.296  29.738  35.095  1.00  0.00     0.135 A 
ATOM     87  C   UNL A   1      41.417  28.160  33.519  1.00  0.00     0.135 A 
ATOM     88  F   UNL A   1      42.803  30.944  35.398  1.00  0.00    -0.206 F 
ATOM     89  C   UNL A   1      42.271  28.774  36.094  1.00  0.00     0.059 A 
ATOM     90  C   UNL A   1      41.354  27.179  34.520  1.00  0.00     0.059 A 
ATOM     91  F   UNL A   1      41.079  27.791  32.276  1.00  0.00    -0.206 F 
ATOM     92  C   UNL A   1      41.801  27.495  35.803  1.00  0.00     0.060 A 
BRANCH  92  93
ATOM     93  S   UNL A   1      41.822  26.275  37.135  1.00  0.00     0.124 S 
ATOM     94  O   UNL A   1      40.529  26.501  37.776  1.00  0.00    -0.237 OA
ATOM     95  O   UNL A   1      41.945  25.019  36.400  1.00  0.00    -0.237 OA
ATOM     96  O   UNL A   1      42.985  26.646  37.934  1.00  0.00    -0.744 OA
ENDBRANCH  92  93
ENDBRANCH  60  85
ENDBRANCH  34  35
ENDBRANCH  27  29
ENDBRANCH  26  27
ENDBRANCH  25  26
ENDBRANCH   1  25
TORSDOF 18
ENDMDL
MODEL 3
REMARK VINA RESULT:     -12.3      3.363      4.551
REMARK SMILES CC1=Nc2ncnn2[C@H](c2ccc(F)cc2)[C@@H]1C(=O)OCCOCCOC(=O)c1ccc(-c2c3nc(c(-c4c(F)cc(S(=O)(=O)[O-])cc4F)c4ccc([nH]4)c(-c4c(F)cc(S(=O)(=O)[O-])cc4F)c4nc(c(-c5c(F)cc(S(=O)(=O)[O-])cc5F)c5ccc2[nH]5)C=C4)C=C3)cc1
REMARK SMILES IDX 24 1 23 2 22 3 21 4 20 5 18 6 19 7 17 8 1 9 2 10 3 11 4 12
REMARK SMILES IDX 9 13 5 14 8 15 6 16 7 17 10 18 11 19 16 20 12 21 15 22 13 23
REMARK SMILES IDX 14 24 25 25 26 26 27 27 28 28 29 29 30 30 94 31 31 32 93 33
REMARK SMILES IDX 32 34 33 35 34 36 87 37 35 38 92 39 86 40 88 41 36 42 91 43
REMARK SMILES IDX 85 44 84 45 37 47 71 48 50 49 70 50 51 51 54 52 69 53 89 54
REMARK SMILES IDX 52 55 53 56 68 58 90 59 55 60 38 61 39 62 48 63 40 64 41 65
REMARK SMILES IDX 47 66 49 67 42 68 43 69 44 70 45 71 46 72 72 73 73 74 82 75
REMARK SMILES IDX 74 76 75 77 81 78 83 79 76 80 77 81 78 82 79 83 80 84 56 85
REMARK SMILES IDX 57 86 66 87 58 88 59 89 65 90 67 91 60 92 61 93 62 94 63 95
REMARK SMILES IDX 64 96
REMARK H PARENT 88 46 54 57
REMARK Flexibility Score: inf
ROOT
ATOM      1  C   UNL A   1      36.719  22.361  25.754  1.00  0.00     0.202 C 
ENDROOT
BRANCH   1   2
ATOM      2  O   UNL A   1      35.298  21.689  26.151  1.00  0.00    -0.374 OA
BRANCH   2   3
ATOM      3  C   UNL A   1      34.446  21.837  27.305  1.00  0.00     0.202 C 
BRANCH   3   4
ATOM      4  C   UNL A   1      33.112  22.612  27.270  1.00  0.00     0.261 C 
BRANCH   4   5
ATOM      5  O   UNL A   1      32.857  23.359  26.077  1.00  0.00    -0.463 OA
BRANCH   5   6
ATOM      6  C   UNL A   1      31.582  23.329  25.625  1.00  0.00     0.317 C 
ATOM      7  O   UNL A   1      30.584  23.279  26.329  1.00  0.00    -0.251 OA
BRANCH   6   8
ATOM      8  C   UNL A   1      31.534  23.389  24.124  1.00  0.00     0.173 C 
ATOM      9  C   UNL A   1      32.707  21.063  23.925  1.00  0.00     0.063 C 
ATOM     10  C   UNL A   1      32.519  22.477  23.409  1.00  0.00     0.036 C 
ATOM     11  N   UNL A   1      33.093  22.753  22.279  1.00  0.00    -0.220 NA
ATOM     12  C   UNL A   1      32.829  23.936  21.680  1.00  0.00     0.248 A 
ATOM     13  C   UNL A   1      31.533  24.834  23.598  1.00  0.00     0.161 C 
ATOM     14  N   UNL A   1      33.151  24.351  20.475  1.00  0.00    -0.198 NA
ATOM     15  N   UNL A   1      32.103  24.927  22.275  1.00  0.00    -0.221 N 
ATOM     16  C   UNL A   1      32.567  25.586  20.381  1.00  0.00     0.248 A 
ATOM     17  N   UNL A   1      31.853  25.956  21.447  1.00  0.00    -0.157 NA
BRANCH  13  18
ATOM     18  C   UNL A   1      32.034  25.985  24.465  1.00  0.00    -0.022 A 
ATOM     19  C   UNL A   1      30.793  26.695  25.573  1.00  0.00     0.009 A 
ATOM     20  C   UNL A   1      33.759  26.432  24.701  1.00  0.00     0.009 A 
ATOM     21  C   UNL A   1      31.249  27.838  26.856  1.00  0.00     0.039 A 
ATOM     22  C   UNL A   1      34.224  27.587  26.069  1.00  0.00     0.039 A 
ATOM     23  C   UNL A   1      32.965  28.255  27.141  1.00  0.00     0.123 A 
ATOM     24  F   UNL A   1      33.275  29.177  28.059  1.00  0.00    -0.207 F 
ENDBRANCH  13  18
ENDBRANCH   6   8
ENDBRANCH   5   6
ENDBRANCH   4   5
ENDBRANCH   3   4
ENDBRANCH   2   3
ENDBRANCH   1   2
BRANCH   1  25
ATOM     25  C   UNL A   1      37.883  24.039  26.535  1.00  0.00     0.261 C 
BRANCH  25  26
ATOM     26  O   UNL A   1      39.350  24.460  26.139  1.00  0.00    -0.460 OA
BRANCH  26  27
ATOM     27  C   UNL A   1      40.461  23.938  26.715  1.00  0.00     0.338 C 
ATOM     28  O   UNL A   1      40.573  22.872  27.296  1.00  0.00    -0.246 OA
BRANCH  27  29
ATOM     29  C   UNL A   1      41.594  24.844  26.356  1.00  0.00     0.060 A 
ATOM     30  C   UNL A   1      42.487  24.960  27.413  1.00  0.00     0.016 A 
ATOM     31  C   UNL A   1      41.170  25.975  25.656  1.00  0.00     0.016 A 
ATOM     32  C   UNL A   1      42.321  26.081  28.185  1.00  0.00     0.010 A 
ATOM     33  C   UNL A   1      41.039  27.117  26.391  1.00  0.00     0.010 A 
ATOM     34  C   UNL A   1      41.459  27.085  27.719  1.00  0.00    -0.014 A 
BRANCH  34  35
ATOM     35  C   UNL A   1      41.252  28.265  28.525  1.00  0.00     0.031 A 
ATOM     36  C   UNL A   1      42.410  29.155  28.297  1.00  0.00     0.074 A 
ATOM     37  C   UNL A   1      40.146  28.512  29.258  1.00  0.00     0.049 A 
ATOM     38  N   UNL A   1      43.468  29.229  29.036  1.00  0.00    -0.248 NA
ATOM     39  C   UNL A   1      42.605  29.694  26.934  1.00  0.00     0.031 C 
ATOM     40  C   UNL A   1      38.897  27.753  29.376  1.00  0.00     0.029 A 
ATOM     41  N   UNL A   1      39.902  29.598  30.051  1.00  0.00    -0.354 N 
ATOM     42  C   UNL A   1      44.304  30.093  28.350  1.00  0.00     0.074 A 
ATOM     43  C   UNL A   1      43.891  30.048  26.977  1.00  0.00     0.031 C 
ATOM     44  C   UNL A   1      37.949  28.524  29.969  1.00  0.00     0.029 A 
ATOM     45  C   UNL A   1      38.553  29.770  30.403  1.00  0.00     0.049 A 
ATOM     46  H   UNL A   1      40.612  30.209  30.350  1.00  0.00     0.167 HD
ATOM     47  C   UNL A   1      44.969  31.071  29.019  1.00  0.00     0.037 A 
ATOM     48  C   UNL A   1      38.032  30.898  30.971  1.00  0.00     0.037 A 
ATOM     49  C   UNL A   1      45.015  30.779  30.431  1.00  0.00     0.049 A 
ATOM     50  C   UNL A   1      39.192  31.605  31.597  1.00  0.00     0.074 A 
ATOM     51  C   UNL A   1      45.541  29.745  31.183  1.00  0.00     0.029 A 
ATOM     52  N   UNL A   1      44.047  31.366  31.211  1.00  0.00    -0.354 N 
ATOM     53  N   UNL A   1      39.888  31.091  32.580  1.00  0.00    -0.248 NA
ATOM     54  C   UNL A   1      39.899  32.558  30.751  1.00  0.00     0.031 C 
ATOM     55  C   UNL A   1      44.563  29.475  32.182  1.00  0.00     0.029 A 
ATOM     56  C   UNL A   1      43.544  30.424  32.074  1.00  0.00     0.049 A 
ATOM     57  H   UNL A   1      43.761  32.306  31.159  1.00  0.00     0.167 HD
ATOM     58  C   UNL A   1      41.213  31.306  32.220  1.00  0.00     0.074 A 
ATOM     59  C   UNL A   1      41.152  32.222  31.078  1.00  0.00     0.031 C 
ATOM     60  C   UNL A   1      42.218  30.489  32.657  1.00  0.00     0.037 A 
BRANCH  47  61
ATOM     61  C   UNL A   1      45.159  32.452  28.452  1.00  0.00     0.058 A 
ATOM     62  C   UNL A   1      44.135  33.427  28.361  1.00  0.00     0.135 A 
ATOM     63  C   UNL A   1      46.460  32.916  28.196  1.00  0.00     0.135 A 
ATOM     64  F   UNL A   1      42.870  33.188  28.721  1.00  0.00    -0.206 F 
ATOM     65  C   UNL A   1      44.368  34.739  27.987  1.00  0.00     0.059 A 
ATOM     66  C   UNL A   1      46.726  34.250  27.880  1.00  0.00     0.059 A 
ATOM     67  F   UNL A   1      47.510  32.086  28.304  1.00  0.00    -0.206 F 
ATOM     68  C   UNL A   1      45.669  35.148  27.764  1.00  0.00     0.060 A 
BRANCH  68  69
ATOM     69  S   UNL A   1      45.933  36.886  27.386  1.00  0.00     0.124 S 
ATOM     70  O   UNL A   1      46.662  36.799  26.125  1.00  0.00    -0.237 OA
ATOM     71  O   UNL A   1      44.566  37.385  27.296  1.00  0.00    -0.237 OA
ATOM     72  O   UNL A   1      46.704  37.363  28.528  1.00  0.00    -0.744 OA
ENDBRANCH  68  69
ENDBRANCH  47  61
BRANCH  48  73
ATOM     73  C   UNL A   1      36.787  31.637  30.573  1.00  0.00     0.058 A 
ATOM     74  C   UNL A   1      36.633  32.140  29.267  1.00  0.00     0.135 A 
ATOM     75  C   UNL A   1      35.866  32.131  31.526  1.00  0.00     0.135 A 
ATOM     76  F   UNL A   1      37.476  31.779  28.289  1.00  0.00    -0.206 F 
ATOM     77  C   UNL A   1      35.675  33.099  28.933  1.00  0.00     0.059 A 
ATOM     78  C   UNL A   1      34.887  33.093  31.211  1.00  0.00     0.059 A 
ATOM     79  F   UNL A   1      35.943  31.731  32.804  1.00  0.00    -0.206 F 
ATOM     80  C   UNL A   1      34.822  33.593  29.912  1.00  0.00     0.060 A 
BRANCH  80  81
ATOM     81  S   UNL A   1      33.699  34.938  29.449  1.00  0.00     0.124 S 
ATOM     82  O   UNL A   1      33.479  35.600  30.731  1.00  0.00    -0.237 OA
ATOM     83  O   UNL A   1      34.502  35.686  28.486  1.00  0.00    -0.237 OA
ATOM     84  O   UNL A   1      32.541  34.247  28.892  1.00  0.00    -0.744 OA
ENDBRANCH  80  81
ENDBRANCH  48  73
BRANCH  60  85
ATOM     85  C   UNL A   1      41.920  29.470  33.734  1.00  0.00     0.058 A 
ATOM     86  C   UNL A   1      42.391  29.754  35.023  1.00  0.00     0.135 A 
ATOM     87  C   UNL A   1      41.406  28.177  33.512  1.00  0.00     0.135 A 
ATOM     88  F   UNL A   1      42.940  30.952  35.285  1.00  0.00    -0.206 F 
ATOM     89  C   UNL A   1      42.387  28.806  36.037  1.00  0.00     0.059 A 
ATOM     90  C   UNL A   1      41.363  27.212  34.529  1.00  0.00     0.059 A 
ATOM     91  F   UNL A   1      41.005  27.799  32.290  1.00  0.00    -0.206 F 
ATOM     92  C   UNL A   1      41.874  27.535  35.786  1.00  0.00     0.060 A 
BRANCH  92  93
ATOM     93  S   UNL A   1      41.924  26.333  37.134  1.00  0.00     0.124 S 
ATOM     94  O   UNL A   1      42.156  25.082  36.418  1.00  0.00    -0.237 OA
ATOM     95  O   UNL A   1      43.048  26.815  37.933  1.00  0.00    -0.237 OA
ATOM     96  O   UNL A   1      40.614  26.457  37.765  1.00  0.00    -0.744 OA
ENDBRANCH  92  93
ENDBRANCH  60  85
ENDBRANCH  34  35
ENDBRANCH  27  29
ENDBRANCH  26  27
ENDBRANCH  25  26
ENDBRANCH   1  25
TORSDOF 18
ENDMDL
