MODEL 1
REMARK VINA RESULT:      -9.4      0.000      0.000
REMARK SMILES Cc1[nH]c(=O)n(C)c(=O)c1CC(=O)OCCOCCOC(=O)c1ccc(-c2c3nc(c(-c4c(F)cc(S(=O)(=O)[O-])cc4F)c4ccc([nH]4)c(-c4c(F)cc(S(=O)(=O)[O-])cc4F)c4nc(c(-c5c(F)cc(S(=O)(=O)[O-])cc5F)c5ccc2[nH]5)C=C4)C=C3)cc1
REMARK SMILES IDX 18 1 17 2 16 3 15 4 14 5 12 6 13 7 11 8 10 9 1 10 2 11 3 12
REMARK SMILES IDX 4 13 8 15 5 16 6 17 9 18 7 19 19 20 20 21 21 22 22 23 23 24
REMARK SMILES IDX 24 25 88 26 25 27 87 28 26 29 27 30 28 31 81 32 29 33 86 34
REMARK SMILES IDX 80 35 82 36 30 37 85 38 79 39 78 40 31 42 65 43 44 44 64 45
REMARK SMILES IDX 45 46 48 47 63 48 83 49 46 50 47 51 62 53 84 54 49 55 32 56
REMARK SMILES IDX 33 57 42 58 34 59 35 60 41 61 43 62 36 63 37 64 38 65 39 66
REMARK SMILES IDX 40 67 66 68 67 69 76 70 68 71 69 72 75 73 77 74 70 75 71 76
REMARK SMILES IDX 72 77 73 78 74 79 50 80 51 81 60 82 52 83 53 84 59 85 61 86
REMARK SMILES IDX 54 87 55 88 56 89 57 90 58 91
REMARK H PARENT 3 14 82 41 48 52
REMARK Flexibility Score: inf
ROOT
ATOM      1  C   UNL A   1      41.246  19.768  26.833  1.00  0.00     0.202 C 
ENDROOT
BRANCH   1   2
ATOM      2  O   UNL A   1      42.561  19.225  26.720  1.00  0.00    -0.374 OA
BRANCH   2   3
ATOM      3  C   UNL A   1      43.079  19.053  25.402  1.00  0.00     0.202 C 
BRANCH   3   4
ATOM      4  C   UNL A   1      44.285  19.919  25.013  1.00  0.00     0.261 C 
BRANCH   4   5
ATOM      5  O   UNL A   1      44.217  21.259  25.545  1.00  0.00    -0.463 OA
BRANCH   5   6
ATOM      6  C   UNL A   1      44.267  22.256  24.623  1.00  0.00     0.310 C 
ATOM      7  O   UNL A   1      44.395  22.083  23.414  1.00  0.00    -0.252 OA
BRANCH   6   8
ATOM      8  C   UNL A   1      44.149  23.660  25.198  1.00  0.00     0.165 C 
BRANCH   8   9
ATOM      9  C   UNL A   1      45.209  24.133  26.160  1.00  0.00     0.048 A 
ATOM     10  C   UNL A   1      44.055  23.383  28.290  1.00  0.00     0.065 C 
ATOM     11  C   UNL A   1      45.178  23.992  27.497  1.00  0.00     0.026 A 
ATOM     12  N   UNL A   1      46.248  24.400  28.251  1.00  0.00    -0.311 N 
ATOM     13  C   UNL A   1      47.388  24.971  27.765  1.00  0.00     0.328 A 
ATOM     14  H   UNL A   1      46.188  24.271  29.225  1.00  0.00     0.171 HD
ATOM     15  C   UNL A   1      46.449  24.704  25.542  1.00  0.00     0.259 A 
ATOM     16  O   UNL A   1      48.296  25.276  28.536  1.00  0.00    -0.248 OA
ATOM     17  N   UNL A   1      47.440  25.144  26.398  1.00  0.00    -0.263 N 
ATOM     18  O   UNL A   1      46.558  24.734  24.316  1.00  0.00    -0.269 OA
ATOM     19  C   UNL A   1      48.640  25.751  25.858  1.00  0.00     0.158 C 
ENDBRANCH   8   9
ENDBRANCH   6   8
ENDBRANCH   5   6
ENDBRANCH   4   5
ENDBRANCH   3   4
ENDBRANCH   2   3
ENDBRANCH   1   2
BRANCH   1  20
ATOM     20  C   UNL A   1      41.136  21.182  27.416  1.00  0.00     0.261 C 
BRANCH  20  21
ATOM     21  O   UNL A   1      41.119  22.198  26.393  1.00  0.00    -0.460 OA
BRANCH  21  22
ATOM     22  C   UNL A   1      39.906  22.768  26.196  1.00  0.00     0.338 C 
ATOM     23  O   UNL A   1      38.916  22.242  25.702  1.00  0.00    -0.246 OA
BRANCH  22  24
ATOM     24  C   UNL A   1      39.842  24.099  26.824  1.00  0.00     0.060 A 
ATOM     25  C   UNL A   1      40.777  25.052  26.399  1.00  0.00     0.016 A 
ATOM     26  C   UNL A   1      38.981  24.374  27.888  1.00  0.00     0.016 A 
ATOM     27  C   UNL A   1      40.901  26.260  27.081  1.00  0.00     0.010 A 
ATOM     28  C   UNL A   1      39.116  25.585  28.580  1.00  0.00     0.010 A 
ATOM     29  C   UNL A   1      40.107  26.512  28.207  1.00  0.00    -0.014 A 
BRANCH  29  30
ATOM     30  C   UNL A   1      40.455  27.654  29.089  1.00  0.00     0.031 A 
ATOM     31  C   UNL A   1      41.790  27.646  29.788  1.00  0.00     0.074 A 
ATOM     32  C   UNL A   1      39.636  28.714  29.207  1.00  0.00     0.049 A 
ATOM     33  N   UNL A   1      42.311  28.537  30.592  1.00  0.00    -0.248 NA
ATOM     34  C   UNL A   1      42.656  26.482  29.541  1.00  0.00     0.031 C 
ATOM     35  C   UNL A   1      38.349  28.865  28.531  1.00  0.00     0.029 A 
ATOM     36  N   UNL A   1      39.773  29.871  29.932  1.00  0.00    -0.354 N 
ATOM     37  C   UNL A   1      43.565  28.047  30.939  1.00  0.00     0.074 A 
ATOM     38  C   UNL A   1      43.713  26.764  30.287  1.00  0.00     0.031 C 
ATOM     39  C   UNL A   1      37.813  30.050  28.873  1.00  0.00     0.029 A 
ATOM     40  C   UNL A   1      38.706  30.728  29.811  1.00  0.00     0.049 A 
ATOM     41  H   UNL A   1      40.562  30.069  30.487  1.00  0.00     0.167 HD
ATOM     42  C   UNL A   1      44.512  28.619  31.719  1.00  0.00     0.037 A 
ATOM     43  C   UNL A   1      38.471  31.918  30.401  1.00  0.00     0.037 A 
ATOM     44  C   UNL A   1      44.359  29.893  32.370  1.00  0.00     0.049 A 
ATOM     45  C   UNL A   1      39.501  32.493  31.337  1.00  0.00     0.074 A 
ATOM     46  C   UNL A   1      45.258  30.555  33.190  1.00  0.00     0.029 A 
ATOM     47  N   UNL A   1      43.234  30.698  32.279  1.00  0.00    -0.354 N 
ATOM     48  N   UNL A   1      40.677  32.013  31.666  1.00  0.00    -0.248 NA
ATOM     49  C   UNL A   1      39.171  33.770  31.987  1.00  0.00     0.031 C 
ATOM     50  C   UNL A   1      44.658  31.740  33.628  1.00  0.00     0.029 A 
ATOM     51  C   UNL A   1      43.403  31.839  33.046  1.00  0.00     0.049 A 
ATOM     52  H   UNL A   1      42.432  30.489  31.748  1.00  0.00     0.167 HD
ATOM     53  C   UNL A   1      41.233  32.934  32.548  1.00  0.00     0.074 A 
ATOM     54  C   UNL A   1      40.271  34.007  32.691  1.00  0.00     0.031 C 
ATOM     55  C   UNL A   1      42.431  32.894  33.183  1.00  0.00     0.037 A 
BRANCH  42  56
ATOM     56  C   UNL A   1      45.794  27.862  31.923  1.00  0.00     0.058 A 
ATOM     57  C   UNL A   1      46.935  28.126  31.149  1.00  0.00     0.135 A 
ATOM     58  C   UNL A   1      45.896  26.887  32.928  1.00  0.00     0.135 A 
ATOM     59  F   UNL A   1      46.887  29.035  30.162  1.00  0.00    -0.206 F 
ATOM     60  C   UNL A   1      48.127  27.437  31.351  1.00  0.00     0.059 A 
ATOM     61  C   UNL A   1      47.084  26.201  33.163  1.00  0.00     0.059 A 
ATOM     62  F   UNL A   1      44.833  26.592  33.693  1.00  0.00    -0.206 F 
ATOM     63  C   UNL A   1      48.191  26.476  32.362  1.00  0.00     0.060 A 
BRANCH  63  64
ATOM     64  S   UNL A   1      49.749  25.599  32.619  1.00  0.00     0.124 S 
ATOM     65  O   UNL A   1      49.422  24.751  33.760  1.00  0.00    -0.237 OA
ATOM     66  O   UNL A   1      49.930  24.907  31.346  1.00  0.00    -0.237 OA
ATOM     67  O   UNL A   1      50.703  26.671  32.887  1.00  0.00    -0.744 OA
ENDBRANCH  63  64
ENDBRANCH  42  56
BRANCH  43  68
ATOM     68  C   UNL A   1      37.202  32.642  30.127  1.00  0.00     0.058 A 
ATOM     69  C   UNL A   1      36.051  32.404  30.892  1.00  0.00     0.135 A 
ATOM     70  C   UNL A   1      37.119  33.596  29.101  1.00  0.00     0.135 A 
ATOM     71  F   UNL A   1      36.076  31.491  31.874  1.00  0.00    -0.206 F 
ATOM     72  C   UNL A   1      34.862  33.087  30.652  1.00  0.00     0.059 A 
ATOM     73  C   UNL A   1      35.948  34.308  28.856  1.00  0.00     0.059 A 
ATOM     74  F   UNL A   1      38.194  33.865  28.343  1.00  0.00    -0.206 F 
ATOM     75  C   UNL A   1      34.824  34.043  29.635  1.00  0.00     0.060 A 
BRANCH  75  76
ATOM     76  S   UNL A   1      33.297  34.974  29.379  1.00  0.00     0.124 S 
ATOM     77  O   UNL A   1      33.811  36.265  28.935  1.00  0.00    -0.237 OA
ATOM     78  O   UNL A   1      32.619  34.174  28.365  1.00  0.00    -0.237 OA
ATOM     79  O   UNL A   1      32.671  34.962  30.698  1.00  0.00    -0.744 OA
ENDBRANCH  75  76
ENDBRANCH  43  68
BRANCH  55  80
ATOM     80  C   UNL A   1      42.775  34.045  34.088  1.00  0.00     0.058 A 
ATOM     81  C   UNL A   1      42.547  33.981  35.471  1.00  0.00     0.135 A 
ATOM     82  C   UNL A   1      43.391  35.197  33.576  1.00  0.00     0.135 A 
ATOM     83  F   UNL A   1      41.956  32.903  36.010  1.00  0.00    -0.206 F 
ATOM     84  C   UNL A   1      42.901  35.030  36.314  1.00  0.00     0.059 A 
ATOM     85  C   UNL A   1      43.776  36.248  34.403  1.00  0.00     0.059 A 
ATOM     86  F   UNL A   1      43.641  35.304  32.261  1.00  0.00    -0.206 F 
ATOM     87  C   UNL A   1      43.516  36.159  35.771  1.00  0.00     0.060 A 
BRANCH  87  88
ATOM     88  S   UNL A   1      43.998  37.499  36.881  1.00  0.00     0.124 S 
ATOM     89  O   UNL A   1      42.872  37.531  37.809  1.00  0.00    -0.237 OA
ATOM     90  O   UNL A   1      45.259  37.010  37.432  1.00  0.00    -0.237 OA
ATOM     91  O   UNL A   1      44.113  38.652  35.994  1.00  0.00    -0.744 OA
ENDBRANCH  87  88
ENDBRANCH  55  80
ENDBRANCH  29  30
ENDBRANCH  22  24
ENDBRANCH  21  22
ENDBRANCH  20  21
ENDBRANCH   1  20
TORSDOF 18
ENDMDL
MODEL 2
REMARK VINA RESULT:      -9.3      5.367     12.540
REMARK SMILES Cc1[nH]c(=O)n(C)c(=O)c1CC(=O)OCCOCCOC(=O)c1ccc(-c2c3nc(c(-c4c(F)cc(S(=O)(=O)[O-])cc4F)c4ccc([nH]4)c(-c4c(F)cc(S(=O)(=O)[O-])cc4F)c4nc(c(-c5c(F)cc(S(=O)(=O)[O-])cc5F)c5ccc2[nH]5)C=C4)C=C3)cc1
REMARK SMILES IDX 18 1 17 2 16 3 15 4 14 5 12 6 13 7 11 8 10 9 1 10 2 11 3 12
REMARK SMILES IDX 4 13 8 15 5 16 6 17 9 18 7 19 19 20 20 21 21 22 22 23 23 24
REMARK SMILES IDX 24 25 88 26 25 27 87 28 26 29 27 30 28 31 81 32 29 33 86 34
REMARK SMILES IDX 80 35 82 36 30 37 85 38 79 39 78 40 31 42 65 43 44 44 64 45
REMARK SMILES IDX 45 46 48 47 63 48 83 49 46 50 47 51 62 53 84 54 49 55 32 56
REMARK SMILES IDX 33 57 42 58 34 59 35 60 41 61 43 62 36 63 37 64 38 65 39 66
REMARK SMILES IDX 40 67 66 68 67 69 76 70 68 71 69 72 75 73 77 74 70 75 71 76
REMARK SMILES IDX 72 77 73 78 74 79 50 80 51 81 60 82 52 83 53 84 59 85 61 86
REMARK SMILES IDX 54 87 55 88 56 89 57 90 58 91
REMARK H PARENT 3 14 82 41 48 52
REMARK Flexibility Score: inf
ROOT
ATOM      1  C   UNL A   1      34.054  32.323  28.254  1.00  0.00     0.202 C 
ENDROOT
BRANCH   1   2
ATOM      2  O   UNL A   1      34.346  31.151  27.495  1.00  0.00    -0.374 OA
BRANCH   2   3
ATOM      3  C   UNL A   1      33.234  30.399  27.012  1.00  0.00     0.202 C 
BRANCH   3   4
ATOM      4  C   UNL A   1      33.476  28.912  26.724  1.00  0.00     0.261 C 
BRANCH   4   5
ATOM      5  O   UNL A   1      32.379  28.284  26.026  1.00  0.00    -0.463 OA
BRANCH   5   6
ATOM      6  C   UNL A   1      32.623  27.029  25.564  1.00  0.00     0.310 C 
ATOM      7  O   UNL A   1      33.276  26.179  26.165  1.00  0.00    -0.252 OA
BRANCH   6   8
ATOM      8  C   UNL A   1      32.014  26.722  24.204  1.00  0.00     0.165 C 
BRANCH   8   9
ATOM      9  C   UNL A   1      31.331  27.837  23.455  1.00  0.00     0.048 A 
ATOM     10  C   UNL A   1      33.430  28.949  22.567  1.00  0.00     0.065 C 
ATOM     11  C   UNL A   1      31.944  28.788  22.728  1.00  0.00     0.026 A 
ATOM     12  N   UNL A   1      31.196  29.702  22.031  1.00  0.00    -0.311 N 
ATOM     13  C   UNL A   1      29.834  29.757  22.007  1.00  0.00     0.328 A 
ATOM     14  H   UNL A   1      31.684  30.375  21.505  1.00  0.00     0.171 HD
ATOM     15  C   UNL A   1      29.833  27.797  23.439  1.00  0.00     0.259 A 
ATOM     16  O   UNL A   1      29.268  30.609  21.324  1.00  0.00    -0.248 OA
ATOM     17  N   UNL A   1      29.178  28.804  22.758  1.00  0.00    -0.263 N 
ATOM     18  O   UNL A   1      29.245  26.868  23.994  1.00  0.00    -0.269 OA
ATOM     19  C   UNL A   1      27.729  28.844  22.751  1.00  0.00     0.158 C 
ENDBRANCH   8   9
ENDBRANCH   6   8
ENDBRANCH   5   6
ENDBRANCH   4   5
ENDBRANCH   3   4
ENDBRANCH   2   3
ENDBRANCH   1   2
BRANCH   1  20
ATOM     20  C   UNL A   1      34.894  32.551  29.516  1.00  0.00     0.261 C 
BRANCH  20  21
ATOM     21  O   UNL A   1      36.242  32.062  29.375  1.00  0.00    -0.460 OA
BRANCH  21  22
ATOM     22  C   UNL A   1      36.595  31.130  30.293  1.00  0.00     0.338 C 
ATOM     23  O   UNL A   1      36.014  30.870  31.339  1.00  0.00    -0.246 OA
BRANCH  22  24
ATOM     24  C   UNL A   1      37.705  30.298  29.798  1.00  0.00     0.060 A 
ATOM     25  C   UNL A   1      38.619  29.822  30.747  1.00  0.00     0.016 A 
ATOM     26  C   UNL A   1      37.925  30.094  28.434  1.00  0.00     0.016 A 
ATOM     27  C   UNL A   1      39.793  29.197  30.333  1.00  0.00     0.010 A 
ATOM     28  C   UNL A   1      39.112  29.476  28.020  1.00  0.00     0.010 A 
ATOM     29  C   UNL A   1      40.070  29.067  28.966  1.00  0.00    -0.014 A 
BRANCH  29  30
ATOM     30  C   UNL A   1      41.441  28.678  28.546  1.00  0.00     0.031 A 
ATOM     31  C   UNL A   1      42.526  29.724  28.565  1.00  0.00     0.074 A 
ATOM     32  C   UNL A   1      41.735  27.405  28.229  1.00  0.00     0.049 A 
ATOM     33  N   UNL A   1      43.791  29.613  28.254  1.00  0.00    -0.248 NA
ATOM     34  C   UNL A   1      42.131  31.074  29.000  1.00  0.00     0.031 C 
ATOM     35  C   UNL A   1      40.785  26.294  28.236  1.00  0.00     0.029 A 
ATOM     36  N   UNL A   1      42.922  26.831  27.850  1.00  0.00    -0.354 N 
ATOM     37  C   UNL A   1      44.345  30.871  28.463  1.00  0.00     0.074 A 
ATOM     38  C   UNL A   1      43.271  31.740  28.893  1.00  0.00     0.031 C 
ATOM     39  C   UNL A   1      41.429  25.169  27.878  1.00  0.00     0.029 A 
ATOM     40  C   UNL A   1      42.826  25.485  27.591  1.00  0.00     0.049 A 
ATOM     41  H   UNL A   1      43.763  27.337  27.770  1.00  0.00     0.167 HD
ATOM     42  C   UNL A   1      45.633  31.263  28.322  1.00  0.00     0.037 A 
ATOM     43  C   UNL A   1      43.759  24.612  27.159  1.00  0.00     0.037 A 
ATOM     44  C   UNL A   1      46.698  30.398  27.889  1.00  0.00     0.049 A 
ATOM     45  C   UNL A   1      45.166  25.093  26.922  1.00  0.00     0.074 A 
ATOM     46  C   UNL A   1      48.035  30.703  27.705  1.00  0.00     0.029 A 
ATOM     47  N   UNL A   1      46.546  29.057  27.569  1.00  0.00    -0.354 N 
ATOM     48  N   UNL A   1      45.673  26.288  27.112  1.00  0.00    -0.248 NA
ATOM     49  C   UNL A   1      46.129  24.107  26.407  1.00  0.00     0.031 C 
ATOM     50  C   UNL A   1      48.684  29.557  27.233  1.00  0.00     0.029 A 
ATOM     51  C   UNL A   1      47.760  28.526  27.165  1.00  0.00     0.049 A 
ATOM     52  H   UNL A   1      45.700  28.557  27.620  1.00  0.00     0.167 HD
ATOM     53  C   UNL A   1      47.015  26.195  26.754  1.00  0.00     0.074 A 
ATOM     54  C   UNL A   1      47.245  24.823  26.351  1.00  0.00     0.031 C 
ATOM     55  C   UNL A   1      47.969  27.159  26.759  1.00  0.00     0.037 A 
BRANCH  42  56
ATOM     56  C   UNL A   1      45.959  32.699  28.625  1.00  0.00     0.058 A 
ATOM     57  C   UNL A   1      45.891  33.693  27.635  1.00  0.00     0.135 A 
ATOM     58  C   UNL A   1      46.307  33.094  29.927  1.00  0.00     0.135 A 
ATOM     59  F   UNL A   1      45.582  33.366  26.371  1.00  0.00    -0.206 F 
ATOM     60  C   UNL A   1      46.175  35.024  27.922  1.00  0.00     0.059 A 
ATOM     61  C   UNL A   1      46.573  34.424  30.240  1.00  0.00     0.059 A 
ATOM     62  F   UNL A   1      46.392  32.183  30.909  1.00  0.00    -0.206 F 
ATOM     63  C   UNL A   1      46.515  35.380  29.228  1.00  0.00     0.060 A 
BRANCH  63  64
ATOM     64  S   UNL A   1      46.869  37.115  29.584  1.00  0.00     0.124 S 
ATOM     65  O   UNL A   1      45.565  37.594  30.028  1.00  0.00    -0.237 OA
ATOM     66  O   UNL A   1      47.895  37.017  30.618  1.00  0.00    -0.237 OA
ATOM     67  O   UNL A   1      47.326  37.639  28.300  1.00  0.00    -0.744 OA
ENDBRANCH  63  64
ENDBRANCH  42  56
BRANCH  43  68
ATOM     68  C   UNL A   1      43.388  23.192  26.917  1.00  0.00     0.058 A 
ATOM     69  C   UNL A   1      43.136  22.316  27.983  1.00  0.00     0.135 A 
ATOM     70  C   UNL A   1      43.265  22.688  25.613  1.00  0.00     0.135 A 
ATOM     71  F   UNL A   1      43.255  22.747  29.247  1.00  0.00    -0.206 F 
ATOM     72  C   UNL A   1      42.774  20.990  27.766  1.00  0.00     0.059 A 
ATOM     73  C   UNL A   1      42.882  21.372  25.371  1.00  0.00     0.059 A 
ATOM     74  F   UNL A   1      43.489  23.487  24.559  1.00  0.00    -0.206 F 
ATOM     75  C   UNL A   1      42.643  20.530  26.455  1.00  0.00     0.060 A 
BRANCH  75  76
ATOM     76  S   UNL A   1      42.103  18.827  26.184  1.00  0.00     0.124 S 
ATOM     77  O   UNL A   1      43.038  18.381  25.157  1.00  0.00    -0.237 OA
ATOM     78  O   UNL A   1      42.279  18.237  27.507  1.00  0.00    -0.237 OA
ATOM     79  O   UNL A   1      40.716  18.980  25.754  1.00  0.00    -0.744 OA
ENDBRANCH  75  76
ENDBRANCH  43  68
BRANCH  55  80
ATOM     80  C   UNL A   1      49.353  26.767  26.319  1.00  0.00     0.058 A 
ATOM     81  C   UNL A   1      50.233  26.099  27.184  1.00  0.00     0.135 A 
ATOM     82  C   UNL A   1      49.780  27.008  25.004  1.00  0.00     0.135 A 
ATOM     83  F   UNL A   1      49.874  25.849  28.453  1.00  0.00    -0.206 F 
ATOM     84  C   UNL A   1      51.498  25.702  26.765  1.00  0.00     0.059 A 
ATOM     85  C   UNL A   1      51.032  26.597  24.556  1.00  0.00     0.059 A 
ATOM     86  F   UNL A   1      48.971  27.633  24.133  1.00  0.00    -0.206 F 
ATOM     87  C   UNL A   1      51.889  25.954  25.449  1.00  0.00     0.060 A 
BRANCH  87  88
ATOM     88  S   UNL A   1      53.523  25.404  24.911  1.00  0.00     0.124 S 
ATOM     89  O   UNL A   1      53.456  25.646  23.474  1.00  0.00    -0.237 OA
ATOM     90  O   UNL A   1      54.411  26.287  25.662  1.00  0.00    -0.237 OA
ATOM     91  O   UNL A   1      53.559  24.001  25.311  1.00  0.00    -0.744 OA
ENDBRANCH  87  88
ENDBRANCH  55  80
ENDBRANCH  29  30
ENDBRANCH  22  24
ENDBRANCH  21  22
ENDBRANCH  20  21
ENDBRANCH   1  20
TORSDOF 18
ENDMDL
MODEL 3
REMARK VINA RESULT:      -9.3      3.754      6.151
REMARK SMILES Cc1[nH]c(=O)n(C)c(=O)c1CC(=O)OCCOCCOC(=O)c1ccc(-c2c3nc(c(-c4c(F)cc(S(=O)(=O)[O-])cc4F)c4ccc([nH]4)c(-c4c(F)cc(S(=O)(=O)[O-])cc4F)c4nc(c(-c5c(F)cc(S(=O)(=O)[O-])cc5F)c5ccc2[nH]5)C=C4)C=C3)cc1
REMARK SMILES IDX 18 1 17 2 16 3 15 4 14 5 12 6 13 7 11 8 10 9 1 10 2 11 3 12
REMARK SMILES IDX 4 13 8 15 5 16 6 17 9 18 7 19 19 20 20 21 21 22 22 23 23 24
REMARK SMILES IDX 24 25 88 26 25 27 87 28 26 29 27 30 28 31 81 32 29 33 86 34
REMARK SMILES IDX 80 35 82 36 30 37 85 38 79 39 78 40 31 42 65 43 44 44 64 45
REMARK SMILES IDX 45 46 48 47 63 48 83 49 46 50 47 51 62 53 84 54 49 55 32 56
REMARK SMILES IDX 33 57 42 58 34 59 35 60 41 61 43 62 36 63 37 64 38 65 39 66
REMARK SMILES IDX 40 67 66 68 67 69 76 70 68 71 69 72 75 73 77 74 70 75 71 76
REMARK SMILES IDX 72 77 73 78 74 79 50 80 51 81 60 82 52 83 53 84 59 85 61 86
REMARK SMILES IDX 54 87 55 88 56 89 57 90 58 91
REMARK H PARENT 3 14 82 41 48 52
REMARK Flexibility Score: inf
ROOT
ATOM      1  C   UNL A   1      39.214  21.773  26.171  1.00  0.00     0.202 C 
ENDROOT
BRANCH   1   2
ATOM      2  O   UNL A   1      38.164  22.099  25.262  1.00  0.00    -0.374 OA
BRANCH   2   3
ATOM      3  C   UNL A   1      37.013  21.257  25.275  1.00  0.00     0.202 C 
BRANCH   3   4
ATOM      4  C   UNL A   1      35.653  21.943  25.454  1.00  0.00     0.261 C 
BRANCH   4   5
ATOM      5  O   UNL A   1      34.789  21.800  24.307  1.00  0.00    -0.463 OA
BRANCH   5   6
ATOM      6  C   UNL A   1      34.789  22.848  23.441  1.00  0.00     0.310 C 
ATOM      7  O   UNL A   1      35.748  23.180  22.749  1.00  0.00    -0.252 OA
BRANCH   6   8
ATOM      8  C   UNL A   1      33.478  23.617  23.373  1.00  0.00     0.165 C 
BRANCH   8   9
ATOM      9  C   UNL A   1      33.442  25.022  23.919  1.00  0.00     0.048 A 
ATOM     10  C   UNL A   1      33.138  24.400  26.359  1.00  0.00     0.065 C 
ATOM     11  C   UNL A   1      33.318  25.360  25.215  1.00  0.00     0.026 A 
ATOM     12  N   UNL A   1      33.377  26.678  25.585  1.00  0.00    -0.311 N 
ATOM     13  C   UNL A   1      33.544  27.732  24.736  1.00  0.00     0.328 A 
ATOM     14  H   UNL A   1      33.290  26.881  26.544  1.00  0.00     0.171 HD
ATOM     15  C   UNL A   1      33.682  26.119  22.927  1.00  0.00     0.259 A 
ATOM     16  O   UNL A   1      33.607  28.875  25.184  1.00  0.00    -0.248 OA
ATOM     17  N   UNL A   1      33.657  27.417  23.398  1.00  0.00    -0.263 N 
ATOM     18  O   UNL A   1      33.920  25.834  21.754  1.00  0.00    -0.269 OA
ATOM     19  C   UNL A   1      33.833  28.521  22.475  1.00  0.00     0.158 C 
ENDBRANCH   8   9
ENDBRANCH   6   8
ENDBRANCH   5   6
ENDBRANCH   4   5
ENDBRANCH   3   4
ENDBRANCH   2   3
ENDBRANCH   1   2
BRANCH   1  20
ATOM     20  C   UNL A   1      40.146  22.919  26.584  1.00  0.00     0.261 C 
BRANCH  20  21
ATOM     21  O   UNL A   1      39.516  24.210  26.461  1.00  0.00    -0.460 OA
BRANCH  21  22
ATOM     22  C   UNL A   1      40.383  25.239  26.298  1.00  0.00     0.338 C 
ATOM     23  O   UNL A   1      40.842  25.654  25.242  1.00  0.00    -0.246 OA
BRANCH  22  24
ATOM     24  C   UNL A   1      40.595  25.953  27.569  1.00  0.00     0.060 A 
ATOM     25  C   UNL A   1      39.592  25.842  28.540  1.00  0.00     0.016 A 
ATOM     26  C   UNL A   1      41.678  26.813  27.761  1.00  0.00     0.016 A 
ATOM     27  C   UNL A   1      39.633  26.640  29.681  1.00  0.00     0.010 A 
ATOM     28  C   UNL A   1      41.711  27.623  28.904  1.00  0.00     0.010 A 
ATOM     29  C   UNL A   1      40.665  27.572  29.844  1.00  0.00    -0.014 A 
BRANCH  29  30
ATOM     30  C   UNL A   1      40.534  28.611  30.898  1.00  0.00     0.031 A 
ATOM     31  C   UNL A   1      41.489  28.582  32.063  1.00  0.00     0.074 A 
ATOM     32  C   UNL A   1      39.636  29.605  30.783  1.00  0.00     0.049 A 
ATOM     33  N   UNL A   1      41.570  29.389  33.089  1.00  0.00    -0.248 NA
ATOM     34  C   UNL A   1      42.490  27.502  32.067  1.00  0.00     0.031 C 
ATOM     35  C   UNL A   1      38.702  29.774  29.671  1.00  0.00     0.029 A 
ATOM     36  N   UNL A   1      39.371  30.667  31.610  1.00  0.00    -0.354 N 
ATOM     37  C   UNL A   1      42.633  28.922  33.854  1.00  0.00     0.074 A 
ATOM     38  C   UNL A   1      43.144  27.741  33.195  1.00  0.00     0.031 C 
ATOM     39  C   UNL A   1      37.966  30.879  29.885  1.00  0.00     0.029 A 
ATOM     40  C   UNL A   1      38.356  31.477  31.161  1.00  0.00     0.049 A 
ATOM     41  H   UNL A   1      39.861  30.832  32.448  1.00  0.00     0.167 HD
ATOM     42  C   UNL A   1      43.145  29.439  34.996  1.00  0.00     0.037 A 
ATOM     43  C   UNL A   1      37.799  32.570  31.721  1.00  0.00     0.037 A 
ATOM     44  C   UNL A   1      42.631  30.611  35.654  1.00  0.00     0.049 A 
ATOM     45  C   UNL A   1      38.327  33.074  33.038  1.00  0.00     0.074 A 
ATOM     46  C   UNL A   1      43.075  31.209  36.821  1.00  0.00     0.029 A 
ATOM     47  N   UNL A   1      41.557  31.364  35.203  1.00  0.00    -0.354 N 
ATOM     48  N   UNL A   1      39.324  32.615  33.758  1.00  0.00    -0.248 NA
ATOM     49  C   UNL A   1      37.650  34.241  33.625  1.00  0.00     0.031 C 
ATOM     50  C   UNL A   1      42.242  32.298  37.097  1.00  0.00     0.029 A 
ATOM     51  C   UNL A   1      41.307  32.406  36.080  1.00  0.00     0.049 A 
ATOM     52  H   UNL A   1      41.047  31.184  34.380  1.00  0.00     0.167 HD
ATOM     53  C   UNL A   1      39.404  33.445  34.871  1.00  0.00     0.074 A 
ATOM     54  C   UNL A   1      38.364  34.442  34.725  1.00  0.00     0.031 C 
ATOM     55  C   UNL A   1      40.261  33.386  35.922  1.00  0.00     0.037 A 
BRANCH  42  56
ATOM     56  C   UNL A   1      44.314  28.727  35.618  1.00  0.00     0.058 A 
ATOM     57  C   UNL A   1      45.638  29.072  35.299  1.00  0.00     0.135 A 
ATOM     58  C   UNL A   1      44.111  27.715  36.568  1.00  0.00     0.135 A 
ATOM     59  F   UNL A   1      45.888  30.020  34.382  1.00  0.00    -0.206 F 
ATOM     60  C   UNL A   1      46.719  28.424  35.889  1.00  0.00     0.059 A 
ATOM     61  C   UNL A   1      45.178  27.069  37.187  1.00  0.00     0.059 A 
ATOM     62  F   UNL A   1      42.866  27.342  36.904  1.00  0.00    -0.206 F 
ATOM     63  C   UNL A   1      46.479  27.424  36.833  1.00  0.00     0.060 A 
BRANCH  63  64
ATOM     64  S   UNL A   1      47.894  26.602  37.595  1.00  0.00     0.124 S 
ATOM     65  O   UNL A   1      48.855  27.696  37.683  1.00  0.00    -0.237 OA
ATOM     66  O   UNL A   1      47.340  26.141  38.864  1.00  0.00    -0.237 OA
ATOM     67  O   UNL A   1      48.230  25.548  36.642  1.00  0.00    -0.744 OA
ENDBRANCH  63  64
ENDBRANCH  42  56
BRANCH  43  68
ATOM     68  C   UNL A   1      36.672  33.259  31.038  1.00  0.00     0.058 A 
ATOM     69  C   UNL A   1      35.353  33.116  31.492  1.00  0.00     0.135 A 
ATOM     70  C   UNL A   1      36.895  34.084  29.924  1.00  0.00     0.135 A 
ATOM     71  F   UNL A   1      35.088  32.326  32.543  1.00  0.00    -0.206 F 
ATOM     72  C   UNL A   1      34.293  33.767  30.868  1.00  0.00     0.059 A 
ATOM     73  C   UNL A   1      35.854  34.763  29.297  1.00  0.00     0.059 A 
ATOM     74  F   UNL A   1      38.139  34.258  29.454  1.00  0.00    -0.206 F 
ATOM     75  C   UNL A   1      34.556  34.594  29.775  1.00  0.00     0.060 A 
BRANCH  75  76
ATOM     76  S   UNL A   1      33.183  35.491  29.017  1.00  0.00     0.124 S 
ATOM     77  O   UNL A   1      32.511  34.430  28.276  1.00  0.00    -0.237 OA
ATOM     78  O   UNL A   1      32.473  36.004  30.184  1.00  0.00    -0.237 OA
ATOM     79  O   UNL A   1      33.852  36.504  28.205  1.00  0.00    -0.744 OA
ENDBRANCH  75  76
ENDBRANCH  43  68
BRANCH  55  80
ATOM     80  C   UNL A   1      40.116  34.429  36.995  1.00  0.00     0.058 A 
ATOM     81  C   UNL A   1      40.889  35.601  36.984  1.00  0.00     0.135 A 
ATOM     82  C   UNL A   1      39.156  34.284  38.008  1.00  0.00     0.135 A 
ATOM     83  F   UNL A   1      41.824  35.785  36.040  1.00  0.00    -0.206 F 
ATOM     84  C   UNL A   1      40.727  36.584  37.955  1.00  0.00     0.059 A 
ATOM     85  C   UNL A   1      38.961  35.266  38.975  1.00  0.00     0.059 A 
ATOM     86  F   UNL A   1      38.383  33.187  38.056  1.00  0.00    -0.206 F 
ATOM     87  C   UNL A   1      39.760  36.409  38.945  1.00  0.00     0.060 A 
BRANCH  87  88
ATOM     88  S   UNL A   1      39.541  37.709  40.180  1.00  0.00     0.124 S 
ATOM     89  O   UNL A   1      40.540  38.685  39.758  1.00  0.00    -0.237 OA
ATOM     90  O   UNL A   1      38.149  38.098  39.979  1.00  0.00    -0.237 OA
ATOM     91  O   UNL A   1      39.820  37.030  41.441  1.00  0.00    -0.744 OA
ENDBRANCH  87  88
ENDBRANCH  55  80
ENDBRANCH  29  30
ENDBRANCH  22  24
ENDBRANCH  21  22
ENDBRANCH  20  21
ENDBRANCH   1  20
TORSDOF 18
ENDMDL
