MODEL 1
REMARK VINA RESULT:     -11.2      0.000      0.000
REMARK SMILES Cc1cc(Cl)c2c(c1)C=C(C(=O)OCCOCCOC(=O)c1ccc(-c3c4nc(c(-c5c(F)cc(S(=O)(=O)[O-])cc5F)c5ccc([nH]5)c(-c5c(F)cc(S(=O)(=O)[O-])cc5F)c5nc(c(-c6c(F)cc(S(=O)(=O)[O-])cc6F)c6ccc3[nH]6)C=C5)C=C4)cc1)[C@@H](C(F)(F)F)O2
REMARK SMILES IDX 17 1 16 2 15 3 14 4 13 5 11 6 12 7 10 8 1 9 2 10 3 11 8 12
REMARK SMILES IDX 4 13 7 14 5 15 6 16 9 17 93 18 88 19 89 20 90 21 91 22 92 23
REMARK SMILES IDX 18 24 19 25 20 26 21 27 22 28 23 29 87 30 24 31 86 32 25 33
REMARK SMILES IDX 26 34 27 35 80 36 28 37 85 38 79 39 81 40 29 41 84 42 78 43
REMARK SMILES IDX 77 44 30 46 64 47 43 48 63 49 44 50 47 51 62 52 82 53 45 54
REMARK SMILES IDX 46 55 61 57 83 58 48 59 31 60 32 61 41 62 33 63 34 64 40 65
REMARK SMILES IDX 42 66 35 67 36 68 37 69 38 70 39 71 65 72 66 73 75 74 67 75
REMARK SMILES IDX 68 76 74 77 76 78 69 79 70 80 71 81 72 82 73 83 49 84 50 85
REMARK SMILES IDX 59 86 51 87 52 88 58 89 60 90 53 91 54 92 55 93 56 94 57 95
REMARK H PARENT 81 45 47 56
REMARK Flexibility Score: inf
ROOT
ATOM      1  C   UNL A   1      38.802  21.941  25.754  1.00  0.00     0.202 C 
ENDROOT
BRANCH   1   2
ATOM      2  O   UNL A   1      37.377  22.009  25.771  1.00  0.00    -0.374 OA
BRANCH   2   3
ATOM      3  C   UNL A   1      36.671  21.628  24.592  1.00  0.00     0.202 C 
BRANCH   3   4
ATOM      4  C   UNL A   1      35.279  22.231  24.372  1.00  0.00     0.261 C 
BRANCH   4   5
ATOM      5  O   UNL A   1      35.229  23.619  24.735  1.00  0.00    -0.460 OA
BRANCH   5   6
ATOM      6  C   UNL A   1      34.224  23.939  25.581  1.00  0.00     0.338 C 
ATOM      7  O   UNL A   1      34.007  23.455  26.681  1.00  0.00    -0.246 OA
BRANCH   6   8
ATOM      8  C   UNL A   1      33.475  25.095  25.054  1.00  0.00     0.087 C 
ATOM      9  C   UNL A   1      32.072  30.851  26.694  1.00  0.00     0.044 C 
ATOM     10  C   UNL A   1      32.017  29.617  25.844  1.00  0.00    -0.049 A 
ATOM     11  C   UNL A   1      31.137  29.516  24.762  1.00  0.00     0.028 A 
ATOM     12  C   UNL A   1      32.869  28.543  26.123  1.00  0.00     0.015 A 
ATOM     13  C   UNL A   1      31.113  28.361  23.972  1.00  0.00     0.084 A 
ATOM     14  C   UNL A   1      32.821  27.374  25.353  1.00  0.00     0.019 A 
ATOM     15  Cl  UNL A   1      29.992  28.297  22.658  1.00  0.00    -0.080 Cl
ATOM     16  C   UNL A   1      31.957  27.281  24.261  1.00  0.00     0.146 A 
ATOM     17  C   UNL A   1      33.627  26.233  25.741  1.00  0.00     0.027 C 
ATOM     18  O   UNL A   1      31.909  26.180  23.449  1.00  0.00    -0.474 OA
ATOM     19  C   UNL A   1      32.594  24.958  23.844  1.00  0.00     0.316 C 
BRANCH  19  20
ATOM     20  C   UNL A   1      31.549  23.843  24.001  1.00  0.00     0.430 C 
ATOM     21  F   UNL A   1      30.447  24.094  23.256  1.00  0.00    -0.167 F 
ATOM     22  F   UNL A   1      32.032  22.646  23.596  1.00  0.00    -0.167 F 
ATOM     23  F   UNL A   1      31.153  23.708  25.287  1.00  0.00    -0.167 F 
ENDBRANCH  19  20
ENDBRANCH   6   8
ENDBRANCH   5   6
ENDBRANCH   4   5
ENDBRANCH   3   4
ENDBRANCH   2   3
ENDBRANCH   1   2
BRANCH   1  24
ATOM     24  C   UNL A   1      39.590  22.866  26.691  1.00  0.00     0.261 C 
BRANCH  24  25
ATOM     25  O   UNL A   1      39.224  24.250  26.550  1.00  0.00    -0.460 OA
BRANCH  25  26
ATOM     26  C   UNL A   1      40.269  25.107  26.436  1.00  0.00     0.338 C 
ATOM     27  O   UNL A   1      40.961  25.300  25.446  1.00  0.00    -0.246 OA
BRANCH  26  28
ATOM     28  C   UNL A   1      40.350  25.947  27.642  1.00  0.00     0.060 A 
ATOM     29  C   UNL A   1      39.329  25.834  28.593  1.00  0.00     0.016 A 
ATOM     30  C   UNL A   1      41.380  26.876  27.807  1.00  0.00     0.016 A 
ATOM     31  C   UNL A   1      39.325  26.665  29.709  1.00  0.00     0.010 A 
ATOM     32  C   UNL A   1      41.366  27.716  28.925  1.00  0.00     0.010 A 
ATOM     33  C   UNL A   1      40.328  27.631  29.870  1.00  0.00    -0.014 A 
BRANCH  33  34
ATOM     34  C   UNL A   1      40.218  28.615  30.974  1.00  0.00     0.031 A 
ATOM     35  C   UNL A   1      41.149  28.507  32.151  1.00  0.00     0.074 A 
ATOM     36  C   UNL A   1      39.330  29.622  30.899  1.00  0.00     0.049 A 
ATOM     37  N   UNL A   1      41.249  29.285  33.197  1.00  0.00    -0.248 NA
ATOM     38  C   UNL A   1      42.094  27.378  32.147  1.00  0.00     0.031 C 
ATOM     39  C   UNL A   1      38.398  29.841  29.793  1.00  0.00     0.029 A 
ATOM     40  N   UNL A   1      39.074  30.658  31.762  1.00  0.00    -0.354 N 
ATOM     41  C   UNL A   1      42.272  28.748  33.971  1.00  0.00     0.074 A 
ATOM     42  C   UNL A   1      42.729  27.552  33.298  1.00  0.00     0.031 C 
ATOM     43  C   UNL A   1      37.681  30.950  30.039  1.00  0.00     0.029 A 
ATOM     44  C   UNL A   1      38.081  31.506  31.330  1.00  0.00     0.049 A 
ATOM     45  H   UNL A   1      39.556  30.782  32.611  1.00  0.00     0.167 HD
ATOM     46  C   UNL A   1      42.796  29.224  35.124  1.00  0.00     0.037 A 
ATOM     47  C   UNL A   1      37.554  32.603  31.912  1.00  0.00     0.037 A 
ATOM     48  C   UNL A   1      42.333  30.416  35.785  1.00  0.00     0.049 A 
ATOM     49  C   UNL A   1      38.100  33.068  33.237  1.00  0.00     0.074 A 
ATOM     50  C   UNL A   1      42.807  30.985  36.955  1.00  0.00     0.029 A 
ATOM     51  N   UNL A   1      41.292  31.217  35.342  1.00  0.00    -0.354 N 
ATOM     52  N   UNL A   1      39.089  32.568  33.940  1.00  0.00    -0.248 NA
ATOM     53  C   UNL A   1      37.463  34.244  33.850  1.00  0.00     0.031 C 
ATOM     54  C   UNL A   1      42.017  32.099  37.247  1.00  0.00     0.029 A 
ATOM     55  C   UNL A   1      41.090  32.262  36.229  1.00  0.00     0.049 A 
ATOM     56  H   UNL A   1      40.773  31.067  34.519  1.00  0.00     0.167 HD
ATOM     57  C   UNL A   1      39.213  33.385  35.060  1.00  0.00     0.074 A 
ATOM     58  C   UNL A   1      38.200  34.413  34.942  1.00  0.00     0.031 C 
ATOM     59  C   UNL A   1      40.090  33.291  36.088  1.00  0.00     0.037 A 
BRANCH  46  60
ATOM     60  C   UNL A   1      43.928  28.460  35.752  1.00  0.00     0.058 A 
ATOM     61  C   UNL A   1      43.693  27.414  36.658  1.00  0.00     0.135 A 
ATOM     62  C   UNL A   1      45.259  28.730  35.393  1.00  0.00     0.135 A 
ATOM     63  F   UNL A   1      42.441  27.125  37.048  1.00  0.00    -0.206 F 
ATOM     64  C   UNL A   1      44.738  26.674  37.200  1.00  0.00     0.059 A 
ATOM     65  C   UNL A   1      46.318  27.983  35.902  1.00  0.00     0.059 A 
ATOM     66  F   UNL A   1      45.539  29.720  34.532  1.00  0.00    -0.206 F 
ATOM     67  C   UNL A   1      46.048  26.962  36.811  1.00  0.00     0.060 A 
BRANCH  67  68
ATOM     68  S   UNL A   1      47.388  25.977  37.512  1.00  0.00     0.124 S 
ATOM     69  O   UNL A   1      47.540  24.931  36.503  1.00  0.00    -0.237 OA
ATOM     70  O   UNL A   1      48.476  26.945  37.589  1.00  0.00    -0.237 OA
ATOM     71  O   UNL A   1      46.852  25.534  38.794  1.00  0.00    -0.744 OA
ENDBRANCH  67  68
ENDBRANCH  46  60
BRANCH  47  72
ATOM     72  C   UNL A   1      36.461  33.347  31.231  1.00  0.00     0.058 A 
ATOM     73  C   UNL A   1      36.724  34.163  30.120  1.00  0.00     0.135 A 
ATOM     74  C   UNL A   1      35.127  33.240  31.659  1.00  0.00     0.135 A 
ATOM     75  F   UNL A   1      37.983  34.306  29.677  1.00  0.00    -0.206 F 
ATOM     76  C   UNL A   1      35.709  34.850  29.462  1.00  0.00     0.059 A 
ATOM     77  C   UNL A   1      34.092  33.897  31.002  1.00  0.00     0.059 A 
ATOM     78  F   UNL A   1      34.820  32.465  32.710  1.00  0.00    -0.206 F 
ATOM     79  C   UNL A   1      34.393  34.705  29.907  1.00  0.00     0.060 A 
BRANCH  79  80
ATOM     80  S   UNL A   1      33.081  35.561  29.010  1.00  0.00     0.124 S 
ATOM     81  O   UNL A   1      32.309  36.144  30.101  1.00  0.00    -0.237 OA
ATOM     82  O   UNL A   1      33.839  36.501  28.190  1.00  0.00    -0.237 OA
ATOM     83  O   UNL A   1      32.421  34.487  28.273  1.00  0.00    -0.744 OA
ENDBRANCH  79  80
ENDBRANCH  47  72
BRANCH  59  84
ATOM     84  C   UNL A   1      40.036  34.334  37.171  1.00  0.00     0.058 A 
ATOM     85  C   UNL A   1      40.603  35.605  36.995  1.00  0.00     0.135 A 
ATOM     86  C   UNL A   1      39.279  34.108  38.333  1.00  0.00     0.135 A 
ATOM     87  F   UNL A   1      41.342  35.870  35.906  1.00  0.00    -0.206 F 
ATOM     88  C   UNL A   1      40.409  36.621  37.925  1.00  0.00     0.059 A 
ATOM     89  C   UNL A   1      39.051  35.116  39.264  1.00  0.00     0.059 A 
ATOM     90  F   UNL A   1      38.708  32.911  38.545  1.00  0.00    -0.206 F 
ATOM     91  C   UNL A   1      39.617  36.372  39.048  1.00  0.00     0.060 A 
BRANCH  91  92
ATOM     92  S   UNL A   1      39.290  37.732  40.189  1.00  0.00     0.124 S 
ATOM     93  O   UNL A   1      38.929  37.018  41.409  1.00  0.00    -0.237 OA
ATOM     94  O   UNL A   1      40.574  38.427  40.218  1.00  0.00    -0.237 OA
ATOM     95  O   UNL A   1      38.202  38.465  39.546  1.00  0.00    -0.744 OA
ENDBRANCH  91  92
ENDBRANCH  59  84
ENDBRANCH  33  34
ENDBRANCH  26  28
ENDBRANCH  25  26
ENDBRANCH  24  25
ENDBRANCH   1  24
TORSDOF 18
ENDMDL
MODEL 2
REMARK VINA RESULT:     -11.1      6.782     12.213
REMARK SMILES Cc1cc(Cl)c2c(c1)C=C(C(=O)OCCOCCOC(=O)c1ccc(-c3c4nc(c(-c5c(F)cc(S(=O)(=O)[O-])cc5F)c5ccc([nH]5)c(-c5c(F)cc(S(=O)(=O)[O-])cc5F)c5nc(c(-c6c(F)cc(S(=O)(=O)[O-])cc6F)c6ccc3[nH]6)C=C5)C=C4)cc1)[C@@H](C(F)(F)F)O2
REMARK SMILES IDX 17 1 16 2 15 3 14 4 13 5 11 6 12 7 10 8 1 9 2 10 3 11 8 12
REMARK SMILES IDX 4 13 7 14 5 15 6 16 9 17 93 18 88 19 89 20 90 21 91 22 92 23
REMARK SMILES IDX 18 24 19 25 20 26 21 27 22 28 23 29 87 30 24 31 86 32 25 33
REMARK SMILES IDX 26 34 27 35 80 36 28 37 85 38 79 39 81 40 29 41 84 42 78 43
REMARK SMILES IDX 77 44 30 46 64 47 43 48 63 49 44 50 47 51 62 52 82 53 45 54
REMARK SMILES IDX 46 55 61 57 83 58 48 59 31 60 32 61 41 62 33 63 34 64 40 65
REMARK SMILES IDX 42 66 35 67 36 68 37 69 38 70 39 71 65 72 66 73 75 74 67 75
REMARK SMILES IDX 68 76 74 77 76 78 69 79 70 80 71 81 72 82 73 83 49 84 50 85
REMARK SMILES IDX 59 86 51 87 52 88 58 89 60 90 53 91 54 92 55 93 56 94 57 95
REMARK H PARENT 81 45 47 56
REMARK Flexibility Score: inf
ROOT
ATOM      1  C   UNL A   1      34.125  30.472  27.268  1.00  0.00     0.202 C 
ENDROOT
BRANCH   1   2
ATOM      2  O   UNL A   1      32.762  30.052  27.299  1.00  0.00    -0.374 OA
BRANCH   2   3
ATOM      3  C   UNL A   1      32.108  29.796  26.058  1.00  0.00     0.202 C 
BRANCH   3   4
ATOM      4  C   UNL A   1      31.632  28.365  25.789  1.00  0.00     0.261 C 
BRANCH   4   5
ATOM      5  O   UNL A   1      32.679  27.402  25.982  1.00  0.00    -0.460 OA
BRANCH   5   6
ATOM      6  C   UNL A   1      33.168  26.871  24.839  1.00  0.00     0.338 C 
ATOM      7  O   UNL A   1      33.608  27.480  23.875  1.00  0.00    -0.246 OA
BRANCH   6   8
ATOM      8  C   UNL A   1      33.243  25.403  24.960  1.00  0.00     0.087 C 
ATOM      9  C   UNL A   1      37.475  20.947  24.812  1.00  0.00     0.044 C 
ATOM     10  C   UNL A   1      36.091  21.520  24.869  1.00  0.00    -0.049 A 
ATOM     11  C   UNL A   1      34.960  20.699  24.811  1.00  0.00     0.028 A 
ATOM     12  C   UNL A   1      35.915  22.902  24.996  1.00  0.00     0.015 A 
ATOM     13  C   UNL A   1      33.676  21.253  24.882  1.00  0.00     0.084 A 
ATOM     14  C   UNL A   1      34.631  23.459  25.032  1.00  0.00     0.019 A 
ATOM     15  Cl  UNL A   1      32.322  20.184  24.791  1.00  0.00    -0.080 Cl
ATOM     16  C   UNL A   1      33.502  22.639  24.995  1.00  0.00     0.146 A 
ATOM     17  C   UNL A   1      34.481  24.901  25.040  1.00  0.00     0.027 C 
ATOM     18  O   UNL A   1      32.228  23.131  25.078  1.00  0.00    -0.474 OA
ATOM     19  C   UNL A   1      31.997  24.564  24.964  1.00  0.00     0.316 C 
BRANCH  19  20
ATOM     20  C   UNL A   1      31.112  24.819  23.734  1.00  0.00     0.430 C 
ATOM     21  F   UNL A   1      30.353  23.737  23.442  1.00  0.00    -0.167 F 
ATOM     22  F   UNL A   1      30.262  25.852  23.936  1.00  0.00    -0.167 F 
ATOM     23  F   UNL A   1      31.852  25.108  22.639  1.00  0.00    -0.167 F 
ENDBRANCH  19  20
ENDBRANCH   6   8
ENDBRANCH   5   6
ENDBRANCH   4   5
ENDBRANCH   3   4
ENDBRANCH   2   3
ENDBRANCH   1   2
BRANCH   1  24
ATOM     24  C   UNL A   1      34.604  31.481  28.321  1.00  0.00     0.261 C 
BRANCH  24  25
ATOM     25  O   UNL A   1      36.037  31.549  28.421  1.00  0.00    -0.460 OA
BRANCH  25  26
ATOM     26  C   UNL A   1      36.563  30.937  29.510  1.00  0.00     0.338 C 
ATOM     27  O   UNL A   1      36.028  30.779  30.599  1.00  0.00    -0.246 OA
BRANCH  26  28
ATOM     28  C   UNL A   1      37.836  30.292  29.146  1.00  0.00     0.060 A 
ATOM     29  C   UNL A   1      38.823  30.185  30.132  1.00  0.00     0.016 A 
ATOM     30  C   UNL A   1      38.078  29.855  27.842  1.00  0.00     0.016 A 
ATOM     31  C   UNL A   1      40.070  29.653  29.811  1.00  0.00     0.010 A 
ATOM     32  C   UNL A   1      39.334  29.332  27.521  1.00  0.00     0.010 A 
ATOM     33  C   UNL A   1      40.343  29.249  28.497  1.00  0.00    -0.014 A 
BRANCH  33  34
ATOM     34  C   UNL A   1      41.723  28.841  28.136  1.00  0.00     0.031 A 
ATOM     35  C   UNL A   1      42.823  29.866  28.160  1.00  0.00     0.074 A 
ATOM     36  C   UNL A   1      41.995  27.556  27.843  1.00  0.00     0.049 A 
ATOM     37  N   UNL A   1      44.099  29.710  27.923  1.00  0.00    -0.248 NA
ATOM     38  C   UNL A   1      42.437  31.245  28.499  1.00  0.00     0.031 C 
ATOM     39  C   UNL A   1      41.012  26.473  27.816  1.00  0.00     0.029 A 
ATOM     40  N   UNL A   1      43.179  26.941  27.522  1.00  0.00    -0.354 N 
ATOM     41  C   UNL A   1      44.671  30.966  28.094  1.00  0.00     0.074 A 
ATOM     42  C   UNL A   1      43.596  31.882  28.408  1.00  0.00     0.031 C 
ATOM     43  C   UNL A   1      41.637  25.324  27.510  1.00  0.00     0.029 A 
ATOM     44  C   UNL A   1      43.057  25.591  27.291  1.00  0.00     0.049 A 
ATOM     45  H   UNL A   1      44.036  27.422  27.463  1.00  0.00     0.167 HD
ATOM     46  C   UNL A   1      45.976  31.317  28.018  1.00  0.00     0.037 A 
ATOM     47  C   UNL A   1      43.984  24.677  26.940  1.00  0.00     0.037 A 
ATOM     48  C   UNL A   1      47.039  30.397  27.705  1.00  0.00     0.049 A 
ATOM     49  C   UNL A   1      45.420  25.108  26.783  1.00  0.00     0.074 A 
ATOM     50  C   UNL A   1      48.395  30.655  27.613  1.00  0.00     0.029 A 
ATOM     51  N   UNL A   1      46.866  29.050  27.427  1.00  0.00    -0.354 N 
ATOM     52  N   UNL A   1      45.949  26.292  26.979  1.00  0.00    -0.248 NA
ATOM     53  C   UNL A   1      46.386  24.083  26.357  1.00  0.00     0.031 C 
ATOM     54  C   UNL A   1      49.037  29.476  27.228  1.00  0.00     0.029 A 
ATOM     55  C   UNL A   1      48.089  28.468  27.138  1.00  0.00     0.049 A 
ATOM     56  H   UNL A   1      46.003  28.576  27.435  1.00  0.00     0.167 HD
ATOM     57  C   UNL A   1      47.312  26.147  26.733  1.00  0.00     0.074 A 
ATOM     58  C   UNL A   1      47.527  24.762  26.374  1.00  0.00     0.031 C 
ATOM     59  C   UNL A   1      48.292  27.080  26.802  1.00  0.00     0.037 A 
BRANCH  46  60
ATOM     60  C   UNL A   1      46.336  32.753  28.276  1.00  0.00     0.058 A 
ATOM     61  C   UNL A   1      46.704  33.198  29.556  1.00  0.00     0.135 A 
ATOM     62  C   UNL A   1      46.380  33.681  27.223  1.00  0.00     0.135 A 
ATOM     63  F   UNL A   1      46.665  32.356  30.602  1.00  0.00    -0.206 F 
ATOM     64  C   UNL A   1      47.087  34.515  29.785  1.00  0.00     0.059 A 
ATOM     65  C   UNL A   1      46.787  34.997  27.424  1.00  0.00     0.059 A 
ATOM     66  F   UNL A   1      46.037  33.309  25.980  1.00  0.00    -0.206 F 
ATOM     67  C   UNL A   1      47.130  35.406  28.711  1.00  0.00     0.060 A 
BRANCH  67  68
ATOM     68  S   UNL A   1      47.647  37.106  29.028  1.00  0.00     0.124 S 
ATOM     69  O   UNL A   1      48.574  36.926  30.143  1.00  0.00    -0.237 OA
ATOM     70  O   UNL A   1      48.253  37.487  27.757  1.00  0.00    -0.237 OA
ATOM     71  O   UNL A   1      46.400  37.787  29.356  1.00  0.00    -0.744 OA
ENDBRANCH  67  68
ENDBRANCH  46  60
BRANCH  47  72
ATOM     72  C   UNL A   1      43.584  23.259  26.735  1.00  0.00     0.058 A 
ATOM     73  C   UNL A   1      43.532  22.701  25.449  1.00  0.00     0.135 A 
ATOM     74  C   UNL A   1      43.270  22.425  27.820  1.00  0.00     0.135 A 
ATOM     75  F   UNL A   1      43.814  23.460  24.378  1.00  0.00    -0.206 F 
ATOM     76  C   UNL A   1      43.177  21.372  25.243  1.00  0.00     0.059 A 
ATOM     77  C   UNL A   1      42.937  21.086  27.642  1.00  0.00     0.059 A 
ATOM     78  F   UNL A   1      43.315  22.906  29.072  1.00  0.00    -0.206 F 
ATOM     79  C   UNL A   1      42.888  20.569  26.349  1.00  0.00     0.060 A 
BRANCH  79  80
ATOM     80  S   UNL A   1      42.481  18.832  26.069  1.00  0.00     0.124 S 
ATOM     81  O   UNL A   1      43.425  18.474  25.017  1.00  0.00    -0.237 OA
ATOM     82  O   UNL A   1      42.735  18.247  27.382  1.00  0.00    -0.237 OA
ATOM     83  O   UNL A   1      41.077  18.875  25.670  1.00  0.00    -0.744 OA
ENDBRANCH  79  80
ENDBRANCH  47  72
BRANCH  59  84
ATOM     84  C   UNL A   1      49.706  26.653  26.517  1.00  0.00     0.058 A 
ATOM     85  C   UNL A   1      50.487  26.007  27.486  1.00  0.00     0.135 A 
ATOM     86  C   UNL A   1      50.228  26.757  25.216  1.00  0.00     0.135 A 
ATOM     87  F   UNL A   1      50.038  25.888  28.746  1.00  0.00    -0.206 F 
ATOM     88  C   UNL A   1      51.729  25.464  27.173  1.00  0.00     0.059 A 
ATOM     89  C   UNL A   1      51.456  26.200  24.874  1.00  0.00     0.059 A 
ATOM     90  F   UNL A   1      49.516  27.358  24.249  1.00  0.00    -0.206 F 
ATOM     91  C   UNL A   1      52.197  25.551  25.860  1.00  0.00     0.060 A 
BRANCH  91  92
ATOM     92  S   UNL A   1      53.762  24.749  25.450  1.00  0.00     0.124 S 
ATOM     93  O   UNL A   1      53.322  23.407  25.082  1.00  0.00    -0.237 OA
ATOM     94  O   UNL A   1      54.257  25.577  24.354  1.00  0.00    -0.237 OA
ATOM     95  O   UNL A   1      54.528  24.839  26.691  1.00  0.00    -0.744 OA
ENDBRANCH  91  92
ENDBRANCH  59  84
ENDBRANCH  33  34
ENDBRANCH  26  28
ENDBRANCH  25  26
ENDBRANCH  24  25
ENDBRANCH   1  24
TORSDOF 18
ENDMDL
MODEL 3
REMARK VINA RESULT:     -11.0      4.642     10.385
REMARK SMILES Cc1cc(Cl)c2c(c1)C=C(C(=O)OCCOCCOC(=O)c1ccc(-c3c4nc(c(-c5c(F)cc(S(=O)(=O)[O-])cc5F)c5ccc([nH]5)c(-c5c(F)cc(S(=O)(=O)[O-])cc5F)c5nc(c(-c6c(F)cc(S(=O)(=O)[O-])cc6F)c6ccc3[nH]6)C=C5)C=C4)cc1)[C@@H](C(F)(F)F)O2
REMARK SMILES IDX 17 1 16 2 15 3 14 4 13 5 11 6 12 7 10 8 1 9 2 10 3 11 8 12
REMARK SMILES IDX 4 13 7 14 5 15 6 16 9 17 93 18 88 19 89 20 90 21 91 22 92 23
REMARK SMILES IDX 18 24 19 25 20 26 21 27 22 28 23 29 87 30 24 31 86 32 25 33
REMARK SMILES IDX 26 34 27 35 80 36 28 37 85 38 79 39 81 40 29 41 84 42 78 43
REMARK SMILES IDX 77 44 30 46 64 47 43 48 63 49 44 50 47 51 62 52 82 53 45 54
REMARK SMILES IDX 46 55 61 57 83 58 48 59 31 60 32 61 41 62 33 63 34 64 40 65
REMARK SMILES IDX 42 66 35 67 36 68 37 69 38 70 39 71 65 72 66 73 75 74 67 75
REMARK SMILES IDX 68 76 74 77 76 78 69 79 70 80 71 81 72 82 73 83 49 84 50 85
REMARK SMILES IDX 59 86 51 87 52 88 58 89 60 90 53 91 54 92 55 93 56 94 57 95
REMARK H PARENT 81 45 47 56
REMARK Flexibility Score: inf
ROOT
ATOM      1  C   UNL A   1      31.963  30.286  25.813  1.00  0.00     0.202 C 
ENDROOT
BRANCH   1   2
ATOM      2  O   UNL A   1      32.099  29.197  24.900  1.00  0.00    -0.374 OA
BRANCH   2   3
ATOM      3  C   UNL A   1      30.914  28.554  24.437  1.00  0.00     0.202 C 
BRANCH   3   4
ATOM      4  C   UNL A   1      31.031  27.099  23.971  1.00  0.00     0.261 C 
BRANCH   4   5
ATOM      5  O   UNL A   1      32.017  26.371  24.719  1.00  0.00    -0.460 OA
BRANCH   5   6
ATOM      6  C   UNL A   1      33.169  26.140  24.048  1.00  0.00     0.338 C 
ATOM      7  O   UNL A   1      33.777  26.927  23.339  1.00  0.00    -0.246 OA
BRANCH   6   8
ATOM      8  C   UNL A   1      33.700  24.812  24.408  1.00  0.00     0.087 C 
ATOM      9  C   UNL A   1      39.017  22.257  26.137  1.00  0.00     0.044 C 
ATOM     10  C   UNL A   1      37.578  22.273  25.715  1.00  0.00    -0.049 A 
ATOM     11  C   UNL A   1      36.879  21.087  25.467  1.00  0.00     0.028 A 
ATOM     12  C   UNL A   1      36.909  23.493  25.574  1.00  0.00     0.015 A 
ATOM     13  C   UNL A   1      35.531  21.125  25.088  1.00  0.00     0.084 A 
ATOM     14  C   UNL A   1      35.571  23.531  25.162  1.00  0.00     0.019 A 
ATOM     15  Cl  UNL A   1      34.730  19.624  24.785  1.00  0.00    -0.080 Cl
ATOM     16  C   UNL A   1      34.866  22.348  24.935  1.00  0.00     0.146 A 
ATOM     17  C   UNL A   1      34.941  24.812  24.908  1.00  0.00     0.027 C 
ATOM     18  O   UNL A   1      33.545  22.332  24.581  1.00  0.00    -0.474 OA
ATOM     19  C   UNL A   1      32.885  23.569  24.189  1.00  0.00     0.316 C 
BRANCH  19  20
ATOM     20  C   UNL A   1      32.406  23.428  22.737  1.00  0.00     0.430 C 
ATOM     21  F   UNL A   1      32.207  22.129  22.409  1.00  0.00    -0.167 F 
ATOM     22  F   UNL A   1      31.232  24.068  22.533  1.00  0.00    -0.167 F 
ATOM     23  F   UNL A   1      33.304  23.938  21.863  1.00  0.00    -0.167 F 
ENDBRANCH  19  20
ENDBRANCH   6   8
ENDBRANCH   5   6
ENDBRANCH   4   5
ENDBRANCH   3   4
ENDBRANCH   2   3
ENDBRANCH   1   2
BRANCH   1  24
ATOM     24  C   UNL A   1      32.369  30.069  27.277  1.00  0.00     0.261 C 
BRANCH  24  25
ATOM     25  O   UNL A   1      33.745  29.678  27.425  1.00  0.00    -0.460 OA
BRANCH  25  26
ATOM     26  C   UNL A   1      34.535  30.595  28.034  1.00  0.00     0.338 C 
ATOM     27  O   UNL A   1      34.185  31.651  28.546  1.00  0.00    -0.246 OA
BRANCH  26  28
ATOM     28  C   UNL A   1      35.897  30.054  28.178  1.00  0.00     0.060 A 
ATOM     29  C   UNL A   1      36.285  29.575  29.435  1.00  0.00     0.016 A 
ATOM     30  C   UNL A   1      36.798  30.071  27.111  1.00  0.00     0.016 A 
ATOM     31  C   UNL A   1      37.588  29.126  29.634  1.00  0.00     0.010 A 
ATOM     32  C   UNL A   1      38.108  29.630  27.319  1.00  0.00     0.010 A 
ATOM     33  C   UNL A   1      38.517  29.176  28.585  1.00  0.00    -0.014 A 
BRANCH  33  34
ATOM     34  C   UNL A   1      39.938  28.851  28.859  1.00  0.00     0.031 A 
ATOM     35  C   UNL A   1      40.806  29.868  29.546  1.00  0.00     0.074 A 
ATOM     36  C   UNL A   1      40.428  27.639  28.543  1.00  0.00     0.049 A 
ATOM     37  N   UNL A   1      42.056  29.769  29.916  1.00  0.00    -0.248 NA
ATOM     38  C   UNL A   1      40.185  31.165  29.862  1.00  0.00     0.031 C 
ATOM     39  C   UNL A   1      39.670  26.565  27.901  1.00  0.00     0.029 A 
ATOM     40  N   UNL A   1      41.677  27.100  28.730  1.00  0.00    -0.354 N 
ATOM     41  C   UNL A   1      42.370  30.983  30.516  1.00  0.00     0.074 A 
ATOM     42  C   UNL A   1      41.194  31.820  30.419  1.00  0.00     0.031 C 
ATOM     43  C   UNL A   1      40.465  25.492  27.759  1.00  0.00     0.029 A 
ATOM     44  C   UNL A   1      41.796  25.808  28.274  1.00  0.00     0.049 A 
ATOM     45  H   UNL A   1      42.418  27.593  29.150  1.00  0.00     0.167 HD
ATOM     46  C   UNL A   1      43.526  31.356  31.113  1.00  0.00     0.037 A 
ATOM     47  C   UNL A   1      42.859  24.978  28.269  1.00  0.00     0.037 A 
ATOM     48  C   UNL A   1      44.691  30.515  31.205  1.00  0.00     0.049 A 
ATOM     49  C   UNL A   1      44.161  25.444  28.869  1.00  0.00     0.074 A 
ATOM     50  C   UNL A   1      45.908  30.799  31.799  1.00  0.00     0.029 A 
ATOM     51  N   UNL A   1      44.787  29.233  30.685  1.00  0.00    -0.354 N 
ATOM     52  N   UNL A   1      44.431  26.584  29.461  1.00  0.00    -0.248 NA
ATOM     53  C   UNL A   1      45.301  24.518  28.802  1.00  0.00     0.031 C 
ATOM     54  C   UNL A   1      46.758  29.711  31.592  1.00  0.00     0.029 A 
ATOM     55  C   UNL A   1      46.053  28.722  30.922  1.00  0.00     0.049 A 
ATOM     56  H   UNL A   1      44.064  28.756  30.217  1.00  0.00     0.167 HD
ATOM     57  C   UNL A   1      45.761  26.497  29.865  1.00  0.00     0.074 A 
ATOM     58  C   UNL A   1      46.240  25.196  29.450  1.00  0.00     0.031 C 
ATOM     59  C   UNL A   1      46.511  27.415  30.522  1.00  0.00     0.037 A 
BRANCH  46  60
ATOM     60  C   UNL A   1      43.596  32.730  31.717  1.00  0.00     0.058 A 
ATOM     61  C   UNL A   1      43.207  32.969  33.045  1.00  0.00     0.135 A 
ATOM     62  C   UNL A   1      44.121  33.809  30.986  1.00  0.00     0.135 A 
ATOM     63  F   UNL A   1      42.684  31.977  33.785  1.00  0.00    -0.206 F 
ATOM     64  C   UNL A   1      43.320  34.229  33.621  1.00  0.00     0.059 A 
ATOM     65  C   UNL A   1      44.268  35.072  31.550  1.00  0.00     0.059 A 
ATOM     66  F   UNL A   1      44.506  33.636  29.712  1.00  0.00    -0.206 F 
ATOM     67  C   UNL A   1      43.857  35.274  32.866  1.00  0.00     0.060 A 
BRANCH  67  68
ATOM     68  S   UNL A   1      44.012  36.898  33.638  1.00  0.00     0.124 S 
ATOM     69  O   UNL A   1      45.425  36.913  34.007  1.00  0.00    -0.237 OA
ATOM     70  O   UNL A   1      43.632  37.795  32.552  1.00  0.00    -0.237 OA
ATOM     71  O   UNL A   1      43.075  36.836  34.756  1.00  0.00    -0.744 OA
ENDBRANCH  67  68
ENDBRANCH  46  60
BRANCH  47  72
ATOM     72  C   UNL A   1      42.727  23.612  27.695  1.00  0.00     0.058 A 
ATOM     73  C   UNL A   1      42.502  22.500  28.520  1.00  0.00     0.135 A 
ATOM     74  C   UNL A   1      42.798  23.392  26.310  1.00  0.00     0.135 A 
ATOM     75  F   UNL A   1      42.435  22.655  29.851  1.00  0.00    -0.206 F 
ATOM     76  C   UNL A   1      42.358  21.219  27.996  1.00  0.00     0.059 A 
ATOM     77  C   UNL A   1      42.632  22.125  25.760  1.00  0.00     0.059 A 
ATOM     78  F   UNL A   1      43.002  24.423  25.476  1.00  0.00    -0.206 F 
ATOM     79  C   UNL A   1      42.418  21.043  26.611  1.00  0.00     0.060 A 
BRANCH  79  80
ATOM     80  S   UNL A   1      42.176  19.383  25.943  1.00  0.00     0.124 S 
ATOM     81  O   UNL A   1      43.004  19.424  24.744  1.00  0.00    -0.237 OA
ATOM     82  O   UNL A   1      42.668  18.544  27.031  1.00  0.00    -0.237 OA
ATOM     83  O   UNL A   1      40.735  19.319  25.713  1.00  0.00    -0.744 OA
ENDBRANCH  79  80
ENDBRANCH  47  72
BRANCH  59  84
ATOM     84  C   UNL A   1      47.929  27.058  30.874  1.00  0.00     0.058 A 
ATOM     85  C   UNL A   1      48.999  27.383  30.028  1.00  0.00     0.135 A 
ATOM     86  C   UNL A   1      48.230  26.521  32.138  1.00  0.00     0.135 A 
ATOM     87  F   UNL A   1      48.766  27.891  28.808  1.00  0.00    -0.206 F 
ATOM     88  C   UNL A   1      50.320  27.204  30.428  1.00  0.00     0.059 A 
ATOM     89  C   UNL A   1      49.543  26.358  32.568  1.00  0.00     0.059 A 
ATOM     90  F   UNL A   1      47.242  26.201  32.989  1.00  0.00    -0.206 F 
ATOM     91  C   UNL A   1      50.582  26.707  31.707  1.00  0.00     0.060 A 
BRANCH  91  92
ATOM     92  S   UNL A   1      52.300  26.581  32.246  1.00  0.00     0.124 S 
ATOM     93  O   UNL A   1      52.648  27.982  32.461  1.00  0.00    -0.237 OA
ATOM     94  O   UNL A   1      52.188  25.764  33.450  1.00  0.00    -0.237 OA
ATOM     95  O   UNL A   1      52.967  25.936  31.118  1.00  0.00    -0.744 OA
ENDBRANCH  91  92
ENDBRANCH  59  84
ENDBRANCH  33  34
ENDBRANCH  26  28
ENDBRANCH  25  26
ENDBRANCH  24  25
ENDBRANCH   1  24
TORSDOF 18
ENDMDL
