MODEL 1
REMARK VINA RESULT:     -10.0      0.000      0.000
REMARK SMILES CCN1C(=O)[C@@H](CC(=O)Nc2cccc(C(=O)OCCOCCOC(=O)c3ccc(-c4c5nc(c(-c6c(F)cc(S(=O)(=O)[O-])cc6F)c6ccc([nH]6)c(-c6c(F)cc(S(=O)(=O)[O-])cc6F)c6nc(c(-c7c(F)cc(S(=O)(=O)[O-])cc7F)c7ccc4[nH]7)C=C6)C=C5)cc3)c2)S/C1=[NH+]\c1cc(Cl)c(O)c(Cl)c1
REMARK SMILES IDX 20 1 19 2 18 3 16 4 17 5 15 6 11 7 12 8 93 9 13 10 14 11
REMARK SMILES IDX 10 12 8 13 9 14 7 16 6 17 3 18 4 19 95 20 5 21 94 22 96 23
REMARK SMILES IDX 2 25 1 26 97 27 98 28 105 29 99 30 103 31 100 32 101 33
REMARK SMILES IDX 104 34 102 35 21 37 22 38 23 39 24 40 25 41 26 42 27 43
REMARK SMILES IDX 28 44 92 45 29 46 91 47 30 48 31 49 32 50 85 51 33 52 90 53
REMARK SMILES IDX 84 54 86 55 34 56 89 57 83 58 82 59 35 61 69 62 48 63 68 64
REMARK SMILES IDX 49 65 52 66 67 67 87 68 50 69 51 70 66 72 88 73 53 74 36 75
REMARK SMILES IDX 37 76 46 77 38 78 39 79 45 80 47 81 40 82 41 83 42 84 43 85
REMARK SMILES IDX 44 86 70 87 71 88 80 89 72 90 73 91 79 92 81 93 74 94 75 95
REMARK SMILES IDX 76 96 77 97 78 98 54 99 55 100 64 101 56 102 57 103 63 104
REMARK SMILES IDX 65 105 58 106 59 107 60 108 61 109 62 110
REMARK H PARENT 10 15 96 24 102 36 86 60 52 71
REMARK Flexibility Score: inf
ROOT
ATOM      1  C   UNL A   1      37.741  28.904  28.771  1.00  0.00     0.202 C 
ENDROOT
BRANCH   1   2
ATOM      2  C   UNL A   1      36.857  30.019  28.118  1.00  0.00     0.261 C 
BRANCH   2   3
ATOM      3  O   UNL A   1      35.436  29.657  27.999  1.00  0.00    -0.460 OA
BRANCH   3   4
ATOM      4  C   UNL A   1      34.493  30.567  27.593  1.00  0.00     0.338 C 
ATOM      5  O   UNL A   1      34.464  31.729  27.966  1.00  0.00    -0.246 OA
BRANCH   4   6
ATOM      6  C   UNL A   1      33.493  30.025  26.560  1.00  0.00     0.062 A 
ATOM      7  C   UNL A   1      32.918  28.776  24.482  1.00  0.00     0.042 A 
ATOM      8  C   UNL A   1      31.647  29.361  24.542  1.00  0.00     0.026 A 
ATOM      9  C   UNL A   1      33.763  29.028  25.568  1.00  0.00     0.041 A 
ATOM     10  C   UNL A   1      31.297  30.240  25.576  1.00  0.00     0.003 A 
ATOM     11  C   UNL A   1      32.223  30.598  26.561  1.00  0.00     0.016 A 
BRANCH   7  12
ATOM     12  N   UNL A   1      33.241  28.146  23.244  1.00  0.00    -0.326 N 
ATOM     13  C   UNL A   1      33.458  26.912  22.704  1.00  0.00     0.226 C 
ATOM     14  O   UNL A   1      34.030  26.911  21.604  1.00  0.00    -0.275 OA
ATOM     15  H   UNL A   1      33.338  28.832  22.545  1.00  0.00     0.169 HD
BRANCH  13  16
ATOM     16  C   UNL A   1      33.037  25.581  23.272  1.00  0.00     0.128 C 
BRANCH  16  17
ATOM     17  C   UNL A   1      31.785  24.887  22.666  1.00  0.00     0.183 C 
ATOM     18  N   UNL A   1      30.728  24.532  24.734  1.00  0.00    -0.190 N 
ATOM     19  C   UNL A   1      30.652  25.290  23.569  1.00  0.00     0.324 C 
ATOM     20  C   UNL A   1      31.389  23.287  24.539  1.00  0.00     0.319 C 
ATOM     21  O   UNL A   1      29.948  26.273  23.389  1.00  0.00    -0.245 OA
ATOM     22  S   UNL A   1      31.691  23.089  22.830  1.00  0.00    -0.022 SA
ATOM     23  N   UNL A   1      31.835  22.463  25.435  1.00  0.00    -0.235 N 
ATOM     24  H   UNL A   1      31.521  22.651  26.348  1.00  0.00     0.313 HD
BRANCH  18  25
ATOM     25  C   UNL A   1      30.584  25.377  25.946  1.00  0.00     0.243 C 
ATOM     26  C   UNL A   1      31.774  26.083  26.585  1.00  0.00     0.054 C 
ENDBRANCH  18  25
BRANCH  23  27
ATOM     27  C   UNL A   1      32.709  21.320  25.337  1.00  0.00     0.128 A 
ATOM     28  C   UNL A   1      34.088  21.568  25.162  1.00  0.00     0.076 A 
ATOM     29  C   UNL A   1      32.344  19.984  25.144  1.00  0.00     0.076 A 
ATOM     30  C   UNL A   1      35.063  20.573  25.016  1.00  0.00     0.088 A 
ATOM     31  C   UNL A   1      33.304  18.977  24.883  1.00  0.00     0.088 A 
ATOM     32  Cl  UNL A   1      36.727  21.037  24.986  1.00  0.00    -0.080 Cl
ATOM     33  C   UNL A   1      34.670  19.258  24.865  1.00  0.00     0.153 A 
ATOM     34  Cl  UNL A   1      32.767  17.383  24.489  1.00  0.00    -0.080 Cl
BRANCH  33  35
ATOM     35  O   UNL A   1      35.611  18.289  24.643  1.00  0.00    -0.505 OA
ATOM     36  H   UNL A   1      36.247  18.399  23.965  1.00  0.00     0.293 HD
ENDBRANCH  33  35
ENDBRANCH  23  27
ENDBRANCH  16  17
ENDBRANCH  13  16
ENDBRANCH   7  12
ENDBRANCH   4   6
ENDBRANCH   3   4
ENDBRANCH   2   3
ENDBRANCH   1   2
BRANCH   1  37
ATOM     37  O   UNL A   1      38.291  29.237  30.061  1.00  0.00    -0.374 OA
BRANCH  37  38
ATOM     38  C   UNL A   1      37.359  29.020  31.111  1.00  0.00     0.202 C 
BRANCH  38  39
ATOM     39  C   UNL A   1      36.663  30.253  31.683  1.00  0.00     0.261 C 
BRANCH  39  40
ATOM     40  O   UNL A   1      37.486  31.415  31.516  1.00  0.00    -0.460 OA
BRANCH  40  41
ATOM     41  C   UNL A   1      38.381  31.580  32.507  1.00  0.00     0.338 C 
ATOM     42  O   UNL A   1      38.146  31.802  33.694  1.00  0.00    -0.246 OA
BRANCH  41  43
ATOM     43  C   UNL A   1      39.739  31.368  32.004  1.00  0.00     0.060 A 
ATOM     44  C   UNL A   1      40.024  31.859  30.727  1.00  0.00     0.016 A 
ATOM     45  C   UNL A   1      40.672  30.604  32.710  1.00  0.00     0.016 A 
ATOM     46  C   UNL A   1      41.226  31.530  30.117  1.00  0.00     0.010 A 
ATOM     47  C   UNL A   1      41.883  30.279  32.098  1.00  0.00     0.010 A 
ATOM     48  C   UNL A   1      42.144  30.708  30.784  1.00  0.00    -0.014 A 
BRANCH  48  49
ATOM     49  C   UNL A   1      43.340  30.216  30.068  1.00  0.00     0.031 A 
ATOM     50  C   UNL A   1      43.313  28.848  29.446  1.00  0.00     0.074 A 
ATOM     51  C   UNL A   1      44.426  31.002  29.976  1.00  0.00     0.049 A 
ATOM     52  N   UNL A   1      44.271  28.197  28.840  1.00  0.00    -0.248 NA
ATOM     53  C   UNL A   1      42.040  28.113  29.521  1.00  0.00     0.031 C 
ATOM     54  C   UNL A   1      44.530  32.358  30.515  1.00  0.00     0.029 A 
ATOM     55  N   UNL A   1      45.652  30.769  29.411  1.00  0.00    -0.354 N 
ATOM     56  C   UNL A   1      43.723  26.973  28.472  1.00  0.00     0.074 A 
ATOM     57  C   UNL A   1      42.356  26.962  28.945  1.00  0.00     0.031 C 
ATOM     58  C   UNL A   1      45.761  32.833  30.269  1.00  0.00     0.029 A 
ATOM     59  C   UNL A   1      46.543  31.798  29.596  1.00  0.00     0.049 A 
ATOM     60  H   UNL A   1      45.873  29.944  28.921  1.00  0.00     0.167 HD
ATOM     61  C   UNL A   1      44.312  25.959  27.795  1.00  0.00     0.037 A 
ATOM     62  C   UNL A   1      47.851  31.877  29.289  1.00  0.00     0.037 A 
ATOM     63  C   UNL A   1      45.677  25.998  27.336  1.00  0.00     0.049 A 
ATOM     64  C   UNL A   1      48.506  30.706  28.606  1.00  0.00     0.074 A 
ATOM     65  C   UNL A   1      46.371  25.042  26.617  1.00  0.00     0.029 A 
ATOM     66  N   UNL A   1      46.559  27.046  27.564  1.00  0.00    -0.354 N 
ATOM     67  N   UNL A   1      47.970  29.568  28.230  1.00  0.00    -0.248 NA
ATOM     68  C   UNL A   1      49.939  30.823  28.309  1.00  0.00     0.031 C 
ATOM     69  C   UNL A   1      47.689  25.484  26.466  1.00  0.00     0.029 A 
ATOM     70  C   UNL A   1      47.802  26.743  27.036  1.00  0.00     0.049 A 
ATOM     71  H   UNL A   1      46.333  27.882  28.033  1.00  0.00     0.167 HD
ATOM     72  C   UNL A   1      48.996  28.840  27.637  1.00  0.00     0.074 A 
ATOM     73  C   UNL A   1      50.179  29.676  27.688  1.00  0.00     0.031 C 
ATOM     74  C   UNL A   1      48.965  27.596  27.099  1.00  0.00     0.037 A 
BRANCH  61  75
ATOM     75  C   UNL A   1      43.502  24.716  27.538  1.00  0.00     0.058 A 
ATOM     76  C   UNL A   1      42.652  24.598  26.427  1.00  0.00     0.135 A 
ATOM     77  C   UNL A   1      43.610  23.608  28.396  1.00  0.00     0.135 A 
ATOM     78  F   UNL A   1      42.497  25.629  25.581  1.00  0.00    -0.206 F 
ATOM     79  C   UNL A   1      41.922  23.437  26.187  1.00  0.00     0.059 A 
ATOM     80  C   UNL A   1      42.912  22.426  28.160  1.00  0.00     0.059 A 
ATOM     81  F   UNL A   1      44.405  23.664  29.476  1.00  0.00    -0.206 F 
ATOM     82  C   UNL A   1      42.060  22.355  27.060  1.00  0.00     0.060 A 
BRANCH  82  83
ATOM     83  S   UNL A   1      41.114  20.852  26.727  1.00  0.00     0.124 S 
ATOM     84  O   UNL A   1      40.726  20.449  28.075  1.00  0.00    -0.237 OA
ATOM     85  O   UNL A   1      40.035  21.346  25.878  1.00  0.00    -0.237 OA
ATOM     86  O   UNL A   1      42.080  19.980  26.067  1.00  0.00    -0.744 OA
ENDBRANCH  82  83
ENDBRANCH  61  75
BRANCH  62  87
ATOM     87  C   UNL A   1      48.623  33.097  29.649  1.00  0.00     0.058 A 
ATOM     88  C   UNL A   1      49.294  33.194  30.877  1.00  0.00     0.135 A 
ATOM     89  C   UNL A   1      48.726  34.180  28.761  1.00  0.00     0.135 A 
ATOM     90  F   UNL A   1      49.221  32.189  31.762  1.00  0.00    -0.206 F 
ATOM     91  C   UNL A   1      50.028  34.325  31.217  1.00  0.00     0.059 A 
ATOM     92  C   UNL A   1      49.479  35.309  29.067  1.00  0.00     0.059 A 
ATOM     93  F   UNL A   1      48.113  34.134  27.568  1.00  0.00    -0.206 F 
ATOM     94  C   UNL A   1      50.119  35.376  30.302  1.00  0.00     0.060 A 
BRANCH  94  95
ATOM     95  S   UNL A   1      51.116  36.818  30.737  1.00  0.00     0.124 S 
ATOM     96  O   UNL A   1      52.422  36.213  30.972  1.00  0.00    -0.237 OA
ATOM     97  O   UNL A   1      51.001  37.642  29.537  1.00  0.00    -0.237 OA
ATOM     98  O   UNL A   1      50.444  37.348  31.920  1.00  0.00    -0.744 OA
ENDBRANCH  94  95
ENDBRANCH  62  87
BRANCH  74  99
ATOM     99  C   UNL A   1      50.241  27.063  26.508  1.00  0.00     0.058 A 
ATOM    100  C   UNL A   1      50.566  27.270  25.159  1.00  0.00     0.135 A 
ATOM    101  C   UNL A   1      51.185  26.414  27.320  1.00  0.00     0.135 A 
ATOM    102  F   UNL A   1      49.695  27.875  24.337  1.00  0.00    -0.206 F 
ATOM    103  C   UNL A   1      51.781  26.844  24.633  1.00  0.00     0.059 A 
ATOM    104  C   UNL A   1      52.419  26.007  26.822  1.00  0.00     0.059 A 
ATOM    105  F   UNL A   1      50.925  26.198  28.620  1.00  0.00    -0.206 F 
ATOM    106  C   UNL A   1      52.705  26.222  25.476  1.00  0.00     0.060 A 
BRANCH 106 107
ATOM    107  S   UNL A   1      54.304  25.737  24.792  1.00  0.00     0.124 S 
ATOM    108  O   UNL A   1      54.113  26.012  23.372  1.00  0.00    -0.237 OA
ATOM    109  O   UNL A   1      55.224  26.628  25.492  1.00  0.00    -0.237 OA
ATOM    110  O   UNL A   1      54.412  24.326  25.149  1.00  0.00    -0.744 OA
ENDBRANCH 106 107
ENDBRANCH  74  99
ENDBRANCH  48  49
ENDBRANCH  41  43
ENDBRANCH  40  41
ENDBRANCH  39  40
ENDBRANCH  38  39
ENDBRANCH  37  38
ENDBRANCH   1  37
TORSDOF 23
ENDMDL
MODEL 2
REMARK VINA RESULT:      -9.5      7.693     12.204
REMARK SMILES CCN1C(=O)[C@@H](CC(=O)Nc2cccc(C(=O)OCCOCCOC(=O)c3ccc(-c4c5nc(c(-c6c(F)cc(S(=O)(=O)[O-])cc6F)c6ccc([nH]6)c(-c6c(F)cc(S(=O)(=O)[O-])cc6F)c6nc(c(-c7c(F)cc(S(=O)(=O)[O-])cc7F)c7ccc4[nH]7)C=C6)C=C5)cc3)c2)S/C1=[NH+]\c1cc(Cl)c(O)c(Cl)c1
REMARK SMILES IDX 20 1 19 2 18 3 16 4 17 5 15 6 11 7 12 8 93 9 13 10 14 11
REMARK SMILES IDX 10 12 8 13 9 14 7 16 6 17 3 18 4 19 95 20 5 21 94 22 96 23
REMARK SMILES IDX 2 25 1 26 97 27 98 28 105 29 99 30 103 31 100 32 101 33
REMARK SMILES IDX 104 34 102 35 21 37 22 38 23 39 24 40 25 41 26 42 27 43
REMARK SMILES IDX 28 44 92 45 29 46 91 47 30 48 31 49 32 50 85 51 33 52 90 53
REMARK SMILES IDX 84 54 86 55 34 56 89 57 83 58 82 59 35 61 69 62 48 63 68 64
REMARK SMILES IDX 49 65 52 66 67 67 87 68 50 69 51 70 66 72 88 73 53 74 36 75
REMARK SMILES IDX 37 76 46 77 38 78 39 79 45 80 47 81 40 82 41 83 42 84 43 85
REMARK SMILES IDX 44 86 70 87 71 88 80 89 72 90 73 91 79 92 81 93 74 94 75 95
REMARK SMILES IDX 76 96 77 97 78 98 54 99 55 100 64 101 56 102 57 103 63 104
REMARK SMILES IDX 65 105 58 106 59 107 60 108 61 109 62 110
REMARK H PARENT 10 15 96 24 102 36 86 60 52 71
REMARK Flexibility Score: inf
ROOT
ATOM      1  C   UNL A   1      33.006  36.111  28.843  1.00  0.00     0.202 C 
ENDROOT
BRANCH   1   2
ATOM      2  C   UNL A   1      34.510  35.731  28.625  1.00  0.00     0.261 C 
BRANCH   2   3
ATOM      3  O   UNL A   1      34.761  34.282  28.612  1.00  0.00    -0.460 OA
BRANCH   3   4
ATOM      4  C   UNL A   1      33.858  33.400  28.076  1.00  0.00     0.338 C 
ATOM      5  O   UNL A   1      32.723  33.705  27.745  1.00  0.00    -0.246 OA
BRANCH   4   6
ATOM      6  C   UNL A   1      34.410  31.983  27.857  1.00  0.00     0.062 A 
ATOM      7  C   UNL A   1      34.139  29.558  27.347  1.00  0.00     0.042 A 
ATOM      8  C   UNL A   1      35.448  29.367  27.806  1.00  0.00     0.026 A 
ATOM      9  C   UNL A   1      33.703  30.886  27.267  1.00  0.00     0.041 A 
ATOM     10  C   UNL A   1      36.224  30.440  28.268  1.00  0.00     0.003 A 
ATOM     11  C   UNL A   1      35.698  31.735  28.325  1.00  0.00     0.016 A 
BRANCH   7  12
ATOM     12  N   UNL A   1      33.370  28.369  27.188  1.00  0.00    -0.326 N 
ATOM     13  C   UNL A   1      32.251  27.901  26.561  1.00  0.00     0.226 C 
ATOM     14  O   UNL A   1      31.811  26.827  26.997  1.00  0.00    -0.275 OA
ATOM     15  H   UNL A   1      33.786  27.640  27.701  1.00  0.00     0.169 HD
BRANCH  13  16
ATOM     16  C   UNL A   1      31.540  28.520  25.385  1.00  0.00     0.128 C 
BRANCH  16  17
ATOM     17  C   UNL A   1      32.303  28.617  24.034  1.00  0.00     0.183 C 
ATOM     18  N   UNL A   1      31.094  26.893  22.993  1.00  0.00    -0.190 N 
ATOM     19  C   UNL A   1      31.275  28.273  22.991  1.00  0.00     0.324 C 
ATOM     20  C   UNL A   1      32.233  26.188  23.471  1.00  0.00     0.319 C 
ATOM     21  O   UNL A   1      30.572  29.096  22.424  1.00  0.00    -0.245 OA
ATOM     22  S   UNL A   1      33.532  27.334  23.698  1.00  0.00    -0.022 SA
ATOM     23  N   UNL A   1      32.321  24.943  23.823  1.00  0.00    -0.235 N 
ATOM     24  H   UNL A   1      31.547  24.395  23.562  1.00  0.00     0.313 HD
BRANCH  18  25
ATOM     25  C   UNL A   1      29.654  26.532  22.998  1.00  0.00     0.243 C 
ATOM     26  C   UNL A   1      28.866  26.369  24.291  1.00  0.00     0.054 C 
ENDBRANCH  18  25
BRANCH  23  27
ATOM     27  C   UNL A   1      33.346  24.215  24.528  1.00  0.00     0.128 A 
ATOM     28  C   UNL A   1      34.432  23.722  23.772  1.00  0.00     0.076 A 
ATOM     29  C   UNL A   1      33.291  23.716  25.834  1.00  0.00     0.076 A 
ATOM     30  C   UNL A   1      35.491  22.970  24.297  1.00  0.00     0.088 A 
ATOM     31  C   UNL A   1      34.295  22.862  26.350  1.00  0.00     0.088 A 
ATOM     32  Cl  UNL A   1      36.829  22.590  23.272  1.00  0.00    -0.080 Cl
ATOM     33  C   UNL A   1      35.422  22.523  25.601  1.00  0.00     0.153 A 
ATOM     34  Cl  UNL A   1      34.074  22.150  27.909  1.00  0.00    -0.080 Cl
BRANCH  33  35
ATOM     35  O   UNL A   1      36.414  21.722  26.099  1.00  0.00    -0.505 OA
ATOM     36  H   UNL A   1      36.895  21.987  26.857  1.00  0.00     0.293 HD
ENDBRANCH  33  35
ENDBRANCH  23  27
ENDBRANCH  16  17
ENDBRANCH  13  16
ENDBRANCH   7  12
ENDBRANCH   4   6
ENDBRANCH   3   4
ENDBRANCH   2   3
ENDBRANCH   1   2
BRANCH   1  37
ATOM     37  O   UNL A   1      32.468  35.758  30.133  1.00  0.00    -0.374 OA
BRANCH  37  38
ATOM     38  C   UNL A   1      33.062  36.508  31.183  1.00  0.00     0.202 C 
BRANCH  38  39
ATOM     39  C   UNL A   1      33.477  35.737  32.435  1.00  0.00     0.261 C 
BRANCH  39  40
ATOM     40  O   UNL A   1      34.722  35.060  32.215  1.00  0.00    -0.460 OA
BRANCH  40  41
ATOM     41  C   UNL A   1      34.650  33.733  32.428  1.00  0.00     0.338 C 
ATOM     42  O   UNL A   1      34.003  32.909  31.784  1.00  0.00    -0.246 OA
BRANCH  41  43
ATOM     43  C   UNL A   1      35.548  33.345  33.518  1.00  0.00     0.060 A 
ATOM     44  C   UNL A   1      35.629  34.215  34.609  1.00  0.00     0.016 A 
ATOM     45  C   UNL A   1      36.378  32.225  33.422  1.00  0.00     0.016 A 
ATOM     46  C   UNL A   1      36.595  34.005  35.584  1.00  0.00     0.010 A 
ATOM     47  C   UNL A   1      37.343  32.012  34.406  1.00  0.00     0.010 A 
ATOM     48  C   UNL A   1      37.480  32.926  35.467  1.00  0.00    -0.014 A 
BRANCH  48  49
ATOM     49  C   UNL A   1      38.614  32.806  36.408  1.00  0.00     0.031 A 
ATOM     50  C   UNL A   1      40.017  32.789  35.869  1.00  0.00     0.074 A 
ATOM     51  C   UNL A   1      38.374  32.723  37.727  1.00  0.00     0.049 A 
ATOM     52  N   UNL A   1      41.145  32.619  36.506  1.00  0.00    -0.248 NA
ATOM     53  C   UNL A   1      40.169  32.985  34.417  1.00  0.00     0.031 C 
ATOM     54  C   UNL A   1      37.048  32.769  38.344  1.00  0.00     0.029 A 
ATOM     55  N   UNL A   1      39.232  32.568  38.783  1.00  0.00    -0.354 N 
ATOM     56  C   UNL A   1      42.140  32.675  35.536  1.00  0.00     0.074 A 
ATOM     57  C   UNL A   1      41.481  32.869  34.263  1.00  0.00     0.031 C 
ATOM     58  C   UNL A   1      37.180  32.628  39.673  1.00  0.00     0.029 A 
ATOM     59  C   UNL A   1      38.592  32.438  39.992  1.00  0.00     0.049 A 
ATOM     60  H   UNL A   1      40.211  32.550  38.685  1.00  0.00     0.167 HD
ATOM     61  C   UNL A   1      43.481  32.578  35.702  1.00  0.00     0.037 A 
ATOM     62  C   UNL A   1      39.092  32.160  41.211  1.00  0.00     0.037 A 
ATOM     63  C   UNL A   1      44.110  32.383  36.983  1.00  0.00     0.049 A 
ATOM     64  C   UNL A   1      40.579  31.978  41.359  1.00  0.00     0.074 A 
ATOM     65  C   UNL A   1      45.459  32.299  37.276  1.00  0.00     0.029 A 
ATOM     66  N   UNL A   1      43.430  32.230  38.184  1.00  0.00    -0.354 N 
ATOM     67  N   UNL A   1      41.515  32.068  40.443  1.00  0.00    -0.248 NA
ATOM     68  C   UNL A   1      41.080  31.653  42.700  1.00  0.00     0.031 C 
ATOM     69  C   UNL A   1      45.591  32.031  38.641  1.00  0.00     0.029 A 
ATOM     70  C   UNL A   1      44.328  32.010  39.213  1.00  0.00     0.049 A 
ATOM     71  H   UNL A   1      42.451  32.271  38.288  1.00  0.00     0.167 HD
ATOM     72  C   UNL A   1      42.717  31.829  41.099  1.00  0.00     0.074 A 
ATOM     73  C   UNL A   1      42.390  31.608  42.493  1.00  0.00     0.031 C 
ATOM     74  C   UNL A   1      43.976  31.794  40.596  1.00  0.00     0.037 A 
BRANCH  61  75
ATOM     75  C   UNL A   1      44.352  32.648  34.476  1.00  0.00     0.058 A 
ATOM     76  C   UNL A   1      44.705  31.501  33.748  1.00  0.00     0.135 A 
ATOM     77  C   UNL A   1      44.803  33.889  33.996  1.00  0.00     0.135 A 
ATOM     78  F   UNL A   1      44.315  30.286  34.167  1.00  0.00    -0.206 F 
ATOM     79  C   UNL A   1      45.495  31.578  32.604  1.00  0.00     0.059 A 
ATOM     80  C   UNL A   1      45.570  33.993  32.837  1.00  0.00     0.059 A 
ATOM     81  F   UNL A   1      44.498  35.020  34.652  1.00  0.00    -0.206 F 
ATOM     82  C   UNL A   1      45.921  32.830  32.155  1.00  0.00     0.060 A 
BRANCH  82  83
ATOM     83  S   UNL A   1      46.935  32.912  30.662  1.00  0.00     0.124 S 
ATOM     84  O   UNL A   1      48.281  32.924  31.225  1.00  0.00    -0.237 OA
ATOM     85  O   UNL A   1      46.554  31.690  29.960  1.00  0.00    -0.237 OA
ATOM     86  O   UNL A   1      46.509  34.156  30.029  1.00  0.00    -0.744 OA
ENDBRANCH  82  83
ENDBRANCH  61  75
BRANCH  62  87
ATOM     87  C   UNL A   1      38.172  32.012  42.371  1.00  0.00     0.058 A 
ATOM     88  C   UNL A   1      37.749  33.127  43.107  1.00  0.00     0.135 A 
ATOM     89  C   UNL A   1      37.679  30.753  42.750  1.00  0.00     0.135 A 
ATOM     90  F   UNL A   1      38.197  34.351  42.789  1.00  0.00    -0.206 F 
ATOM     91  C   UNL A   1      36.879  33.000  44.186  1.00  0.00     0.059 A 
ATOM     92  C   UNL A   1      36.786  30.603  43.806  1.00  0.00     0.059 A 
ATOM     93  F   UNL A   1      38.044  29.653  42.072  1.00  0.00    -0.206 F 
ATOM     94  C   UNL A   1      36.399  31.733  44.525  1.00  0.00     0.060 A 
BRANCH  94  95
ATOM     95  S   UNL A   1      35.233  31.587  45.896  1.00  0.00     0.124 S 
ATOM     96  O   UNL A   1      36.127  31.309  47.014  1.00  0.00    -0.237 OA
ATOM     97  O   UNL A   1      34.598  32.902  45.898  1.00  0.00    -0.237 OA
ATOM     98  O   UNL A   1      34.370  30.482  45.489  1.00  0.00    -0.744 OA
ENDBRANCH  94  95
ENDBRANCH  62  87
BRANCH  74  99
ATOM     99  C   UNL A   1      45.099  31.522  41.558  1.00  0.00     0.058 A 
ATOM    100  C   UNL A   1      45.578  30.222  41.777  1.00  0.00     0.135 A 
ATOM    101  C   UNL A   1      45.757  32.583  42.201  1.00  0.00     0.135 A 
ATOM    102  F   UNL A   1      44.978  29.172  41.195  1.00  0.00    -0.206 F 
ATOM    103  C   UNL A   1      46.667  29.981  42.608  1.00  0.00     0.059 A 
ATOM    104  C   UNL A   1      46.867  32.368  43.013  1.00  0.00     0.059 A 
ATOM    105  F   UNL A   1      45.343  33.847  42.020  1.00  0.00    -0.206 F 
ATOM    106  C   UNL A   1      47.312  31.062  43.213  1.00  0.00     0.060 A 
BRANCH 106 107
ATOM    107  S   UNL A   1      48.765  30.738  44.234  1.00  0.00     0.124 S 
ATOM    108  O   UNL A   1      48.204  30.819  45.579  1.00  0.00    -0.237 OA
ATOM    109  O   UNL A   1      49.162  29.404  43.792  1.00  0.00    -0.237 OA
ATOM    110  O   UNL A   1      49.683  31.812  43.871  1.00  0.00    -0.744 OA
ENDBRANCH 106 107
ENDBRANCH  74  99
ENDBRANCH  48  49
ENDBRANCH  41  43
ENDBRANCH  40  41
ENDBRANCH  39  40
ENDBRANCH  38  39
ENDBRANCH  37  38
ENDBRANCH   1  37
TORSDOF 23
ENDMDL
MODEL 3
REMARK VINA RESULT:      -9.4      5.884      9.116
REMARK SMILES CCN1C(=O)[C@@H](CC(=O)Nc2cccc(C(=O)OCCOCCOC(=O)c3ccc(-c4c5nc(c(-c6c(F)cc(S(=O)(=O)[O-])cc6F)c6ccc([nH]6)c(-c6c(F)cc(S(=O)(=O)[O-])cc6F)c6nc(c(-c7c(F)cc(S(=O)(=O)[O-])cc7F)c7ccc4[nH]7)C=C6)C=C5)cc3)c2)S/C1=[NH+]\c1cc(Cl)c(O)c(Cl)c1
REMARK SMILES IDX 20 1 19 2 18 3 16 4 17 5 15 6 11 7 12 8 93 9 13 10 14 11
REMARK SMILES IDX 10 12 8 13 9 14 7 16 6 17 3 18 4 19 95 20 5 21 94 22 96 23
REMARK SMILES IDX 2 25 1 26 97 27 98 28 105 29 99 30 103 31 100 32 101 33
REMARK SMILES IDX 104 34 102 35 21 37 22 38 23 39 24 40 25 41 26 42 27 43
REMARK SMILES IDX 28 44 92 45 29 46 91 47 30 48 31 49 32 50 85 51 33 52 90 53
REMARK SMILES IDX 84 54 86 55 34 56 89 57 83 58 82 59 35 61 69 62 48 63 68 64
REMARK SMILES IDX 49 65 52 66 67 67 87 68 50 69 51 70 66 72 88 73 53 74 36 75
REMARK SMILES IDX 37 76 46 77 38 78 39 79 45 80 47 81 40 82 41 83 42 84 43 85
REMARK SMILES IDX 44 86 70 87 71 88 80 89 72 90 73 91 79 92 81 93 74 94 75 95
REMARK SMILES IDX 76 96 77 97 78 98 54 99 55 100 64 101 56 102 57 103 63 104
REMARK SMILES IDX 65 105 58 106 59 107 60 108 61 109 62 110
REMARK H PARENT 10 15 96 24 102 36 86 60 52 71
REMARK Flexibility Score: inf
ROOT
ATOM      1  C   UNL A   1      32.836  30.689  27.344  1.00  0.00     0.202 C 
ENDROOT
BRANCH   1   2
ATOM      2  C   UNL A   1      32.138  30.283  26.002  1.00  0.00     0.261 C 
BRANCH   2   3
ATOM      3  O   UNL A   1      33.071  29.821  24.963  1.00  0.00    -0.460 OA
BRANCH   3   4
ATOM      4  C   UNL A   1      32.678  28.950  23.979  1.00  0.00     0.338 C 
ATOM      5  O   UNL A   1      33.208  28.879  22.882  1.00  0.00    -0.246 OA
BRANCH   4   6
ATOM      6  C   UNL A   1      31.538  28.004  24.388  1.00  0.00     0.062 A 
ATOM      7  C   UNL A   1      30.585  26.153  25.756  1.00  0.00     0.042 A 
ATOM      8  C   UNL A   1      29.524  26.092  24.844  1.00  0.00     0.026 A 
ATOM      9  C   UNL A   1      31.497  27.198  25.570  1.00  0.00     0.041 A 
ATOM     10  C   UNL A   1      29.458  26.958  23.744  1.00  0.00     0.003 A 
ATOM     11  C   UNL A   1      30.474  27.887  23.497  1.00  0.00     0.016 A 
BRANCH   7  12
ATOM     12  N   UNL A   1      30.687  25.044  26.646  1.00  0.00    -0.326 N 
ATOM     13  C   UNL A   1      31.436  23.924  26.870  1.00  0.00     0.226 C 
ATOM     14  O   UNL A   1      30.917  23.083  27.619  1.00  0.00    -0.275 OA
ATOM     15  H   UNL A   1      29.980  25.106  27.329  1.00  0.00     0.169 HD
BRANCH  13  16
ATOM     16  C   UNL A   1      32.821  23.636  26.350  1.00  0.00     0.128 C 
BRANCH  16  17
ATOM     17  C   UNL A   1      33.328  24.448  25.125  1.00  0.00     0.183 C 
ATOM     18  N   UNL A   1      33.760  22.561  23.794  1.00  0.00    -0.190 N 
ATOM     19  C   UNL A   1      32.896  23.644  23.929  1.00  0.00     0.324 C 
ATOM     20  C   UNL A   1      35.041  22.804  24.359  1.00  0.00     0.319 C 
ATOM     21  O   UNL A   1      31.835  23.802  23.344  1.00  0.00    -0.245 OA
ATOM     22  S   UNL A   1      35.115  24.479  24.851  1.00  0.00    -0.022 SA
ATOM     23  N   UNL A   1      35.984  21.951  24.617  1.00  0.00    -0.235 N 
ATOM     24  H   UNL A   1      35.847  21.065  24.211  1.00  0.00     0.313 HD
BRANCH  18  25
ATOM     25  C   UNL A   1      33.016  21.294  23.578  1.00  0.00     0.243 C 
ATOM     26  C   UNL A   1      32.108  20.697  24.647  1.00  0.00     0.054 C 
ENDBRANCH  18  25
BRANCH  23  27
ATOM     27  C   UNL A   1      37.195  22.064  25.390  1.00  0.00     0.128 A 
ATOM     28  C   UNL A   1      37.550  23.348  25.861  1.00  0.00     0.076 A 
ATOM     29  C   UNL A   1      38.207  21.109  25.534  1.00  0.00     0.076 A 
ATOM     30  C   UNL A   1      38.708  23.634  26.595  1.00  0.00     0.088 A 
ATOM     31  C   UNL A   1      39.432  21.409  26.175  1.00  0.00     0.088 A 
ATOM     32  Cl  UNL A   1      38.909  25.223  27.244  1.00  0.00    -0.080 Cl
ATOM     33  C   UNL A   1      39.670  22.657  26.749  1.00  0.00     0.153 A 
ATOM     34  Cl  UNL A   1      40.697  20.231  26.166  1.00  0.00    -0.080 Cl
BRANCH  33  35
ATOM     35  O   UNL A   1      40.840  22.951  27.397  1.00  0.00    -0.505 OA
ATOM     36  H   UNL A   1      41.627  23.084  26.908  1.00  0.00     0.293 HD
ENDBRANCH  33  35
ENDBRANCH  23  27
ENDBRANCH  16  17
ENDBRANCH  13  16
ENDBRANCH   7  12
ENDBRANCH   4   6
ENDBRANCH   3   4
ENDBRANCH   2   3
ENDBRANCH   1   2
BRANCH   1  37
ATOM     37  O   UNL A   1      33.913  31.638  27.210  1.00  0.00    -0.374 OA
BRANCH  37  38
ATOM     38  C   UNL A   1      33.618  32.873  27.846  1.00  0.00     0.202 C 
BRANCH  38  39
ATOM     39  C   UNL A   1      34.050  33.022  29.304  1.00  0.00     0.261 C 
BRANCH  39  40
ATOM     40  O   UNL A   1      34.049  34.403  29.687  1.00  0.00    -0.460 OA
BRANCH  40  41
ATOM     41  C   UNL A   1      33.710  34.597  30.975  1.00  0.00     0.338 C 
ATOM     42  O   UNL A   1      32.615  34.946  31.413  1.00  0.00    -0.246 OA
BRANCH  41  43
ATOM     43  C   UNL A   1      34.827  34.241  31.852  1.00  0.00     0.060 A 
ATOM     44  C   UNL A   1      35.986  35.014  31.745  1.00  0.00     0.016 A 
ATOM     45  C   UNL A   1      34.786  33.108  32.670  1.00  0.00     0.016 A 
ATOM     46  C   UNL A   1      37.140  34.617  32.406  1.00  0.00     0.010 A 
ATOM     47  C   UNL A   1      35.945  32.715  33.339  1.00  0.00     0.010 A 
ATOM     48  C   UNL A   1      37.135  33.446  33.175  1.00  0.00    -0.014 A 
BRANCH  48  49
ATOM     49  C   UNL A   1      38.404  32.933  33.733  1.00  0.00     0.031 A 
ATOM     50  C   UNL A   1      39.248  32.005  32.906  1.00  0.00     0.074 A 
ATOM     51  C   UNL A   1      38.785  33.310  34.965  1.00  0.00     0.049 A 
ATOM     52  N   UNL A   1      40.352  31.384  33.228  1.00  0.00    -0.248 NA
ATOM     53  C   UNL A   1      38.784  31.736  31.534  1.00  0.00     0.031 C 
ATOM     54  C   UNL A   1      38.050  34.236  35.826  1.00  0.00     0.029 A 
ATOM     55  N   UNL A   1      39.877  32.951  35.711  1.00  0.00    -0.354 N 
ATOM     56  C   UNL A   1      40.710  30.643  32.107  1.00  0.00     0.074 A 
ATOM     57  C   UNL A   1      39.692  30.871  31.105  1.00  0.00     0.031 C 
ATOM     58  C   UNL A   1      38.703  34.361  36.992  1.00  0.00     0.029 A 
ATOM     59  C   UNL A   1      39.875  33.490  36.974  1.00  0.00     0.049 A 
ATOM     60  H   UNL A   1      40.591  32.363  35.374  1.00  0.00     0.167 HD
ATOM     61  C   UNL A   1      41.795  29.851  31.936  1.00  0.00     0.037 A 
ATOM     62  C   UNL A   1      40.709  33.273  38.010  1.00  0.00     0.037 A 
ATOM     63  C   UNL A   1      42.793  29.641  32.953  1.00  0.00     0.049 A 
ATOM     64  C   UNL A   1      41.865  32.327  37.822  1.00  0.00     0.074 A 
ATOM     65  C   UNL A   1      43.948  28.884  32.883  1.00  0.00     0.029 A 
ATOM     66  N   UNL A   1      42.747  30.183  34.231  1.00  0.00    -0.354 N 
ATOM     67  N   UNL A   1      42.215  31.659  36.747  1.00  0.00    -0.248 NA
ATOM     68  C   UNL A   1      42.735  32.100  38.982  1.00  0.00     0.031 C 
ATOM     69  C   UNL A   1      44.565  28.916  34.137  1.00  0.00     0.029 A 
ATOM     70  C   UNL A   1      43.831  29.743  34.971  1.00  0.00     0.049 A 
ATOM     71  H   UNL A   1      42.046  30.790  34.562  1.00  0.00     0.167 HD
ATOM     72  C   UNL A   1      43.357  30.946  37.096  1.00  0.00     0.074 A 
ATOM     73  C   UNL A   1      43.647  31.280  38.476  1.00  0.00     0.031 C 
ATOM     74  C   UNL A   1      44.098  30.093  36.346  1.00  0.00     0.037 A 
BRANCH  61  75
ATOM     75  C   UNL A   1      41.944  29.130  30.622  1.00  0.00     0.058 A 
ATOM     76  C   UNL A   1      42.832  29.572  29.628  1.00  0.00     0.135 A 
ATOM     77  C   UNL A   1      41.218  27.954  30.371  1.00  0.00     0.135 A 
ATOM     78  F   UNL A   1      43.541  30.697  29.805  1.00  0.00    -0.206 F 
ATOM     79  C   UNL A   1      42.977  28.887  28.424  1.00  0.00     0.059 A 
ATOM     80  C   UNL A   1      41.369  27.237  29.186  1.00  0.00     0.059 A 
ATOM     81  F   UNL A   1      40.353  27.486  31.284  1.00  0.00    -0.206 F 
ATOM     82  C   UNL A   1      42.242  27.719  28.213  1.00  0.00     0.060 A 
BRANCH  82  83
ATOM     83  S   UNL A   1      42.451  26.838  26.651  1.00  0.00     0.124 S 
ATOM     84  O   UNL A   1      42.047  25.485  27.023  1.00  0.00    -0.237 OA
ATOM     85  O   UNL A   1      41.536  27.551  25.766  1.00  0.00    -0.237 OA
ATOM     86  O   UNL A   1      43.870  27.006  26.351  1.00  0.00    -0.744 OA
ENDBRANCH  82  83
ENDBRANCH  61  75
BRANCH  62  87
ATOM     87  C   UNL A   1      40.458  33.944  39.314  1.00  0.00     0.058 A 
ATOM     88  C   UNL A   1      41.141  35.115  39.670  1.00  0.00     0.135 A 
ATOM     89  C   UNL A   1      39.512  33.438  40.220  1.00  0.00     0.135 A 
ATOM     90  F   UNL A   1      42.060  35.634  38.841  1.00  0.00    -0.206 F 
ATOM     91  C   UNL A   1      40.905  35.756  40.882  1.00  0.00     0.059 A 
ATOM     92  C   UNL A   1      39.237  34.077  41.425  1.00  0.00     0.059 A 
ATOM     93  F   UNL A   1      38.822  32.326  39.924  1.00  0.00    -0.206 F 
ATOM     94  C   UNL A   1      39.946  35.231  41.751  1.00  0.00     0.060 A 
BRANCH  94  95
ATOM     95  S   UNL A   1      39.614  36.100  43.299  1.00  0.00     0.124 S 
ATOM     96  O   UNL A   1      38.234  35.711  43.564  1.00  0.00    -0.237 OA
ATOM     97  O   UNL A   1      40.621  35.531  44.191  1.00  0.00    -0.237 OA
ATOM     98  O   UNL A   1      39.817  37.502  42.949  1.00  0.00    -0.744 OA
ENDBRANCH  94  95
ENDBRANCH  62  87
BRANCH  74  99
ATOM     99  C   UNL A   1      45.304  29.469  36.993  1.00  0.00     0.058 A 
ATOM    100  C   UNL A   1      46.549  30.115  36.996  1.00  0.00     0.135 A 
ATOM    101  C   UNL A   1      45.191  28.255  37.688  1.00  0.00     0.135 A 
ATOM    102  F   UNL A   1      46.714  31.273  36.338  1.00  0.00    -0.206 F 
ATOM    103  C   UNL A   1      47.645  29.573  37.660  1.00  0.00     0.059 A 
ATOM    104  C   UNL A   1      46.265  27.710  38.384  1.00  0.00     0.059 A 
ATOM    105  F   UNL A   1      44.019  27.600  37.721  1.00  0.00    -0.206 F 
ATOM    106  C   UNL A   1      47.489  28.375  38.361  1.00  0.00     0.060 A 
BRANCH 106 107
ATOM    107  S   UNL A   1      48.903  27.721  39.273  1.00  0.00     0.124 S 
ATOM    108  O   UNL A   1      48.302  26.597  39.982  1.00  0.00    -0.237 OA
ATOM    109  O   UNL A   1      49.830  27.372  38.200  1.00  0.00    -0.237 OA
ATOM    110  O   UNL A   1      49.316  28.843  40.111  1.00  0.00    -0.744 OA
ENDBRANCH 106 107
ENDBRANCH  74  99
ENDBRANCH  48  49
ENDBRANCH  41  43
ENDBRANCH  40  41
ENDBRANCH  39  40
ENDBRANCH  38  39
ENDBRANCH  37  38
ENDBRANCH   1  37
TORSDOF 23
ENDMDL
