MODEL 1
REMARK VINA RESULT:     -10.9      0.000      0.000
REMARK SMILES C[N@H+]1CC[C@@H](Cc2nccnc2C(=O)OCCOCCOC(=O)c2ccc(-c3c4nc(c(-c5c(F)cc(S(=O)(=O)[O-])cc5F)c5ccc([nH]5)c(-c5c(F)cc(S(=O)(=O)[O-])cc5F)c5nc(c(-c6c(F)cc(S(=O)(=O)[O-])cc6F)c6ccc3[nH]6)C=C5)C=C4)cc2)C1
REMARK SMILES IDX 19 1 18 2 17 3 16 4 15 5 13 6 14 7 12 8 7 9 8 10 9 11 11 12
REMARK SMILES IDX 10 13 6 14 5 15 1 16 2 17 3 18 90 19 4 21 20 22 21 23 22 24
REMARK SMILES IDX 23 25 24 26 25 27 89 28 26 29 88 30 27 31 28 32 29 33 82 34
REMARK SMILES IDX 30 35 87 36 81 37 83 38 31 39 86 40 80 41 79 42 32 44 66 45
REMARK SMILES IDX 45 46 65 47 46 48 49 49 64 50 84 51 47 52 48 53 63 55 85 56
REMARK SMILES IDX 50 57 33 58 34 59 43 60 35 61 36 62 42 63 44 64 37 65 38 66
REMARK SMILES IDX 39 67 40 68 41 69 67 70 68 71 77 72 69 73 70 74 76 75 78 76
REMARK SMILES IDX 71 77 72 78 73 79 74 80 75 81 51 82 52 83 61 84 53 85 54 86
REMARK SMILES IDX 60 87 62 88 55 89 56 90 57 91 58 92 59 93
REMARK H PARENT 2 20 83 43 49 54
REMARK Flexibility Score: inf
ROOT
ATOM      1  C   UNL A   1      40.395  21.080  26.388  1.00  0.00     0.202 C 
ENDROOT
BRANCH   1   2
ATOM      2  O   UNL A   1      39.390  21.603  25.518  1.00  0.00    -0.374 OA
BRANCH   2   3
ATOM      3  C   UNL A   1      38.043  21.212  25.793  1.00  0.00     0.202 C 
BRANCH   3   4
ATOM      4  C   UNL A   1      37.073  21.355  24.621  1.00  0.00     0.261 C 
BRANCH   4   5
ATOM      5  O   UNL A   1      35.737  21.548  25.123  1.00  0.00    -0.458 OA
BRANCH   5   6
ATOM      6  C   UNL A   1      34.915  22.308  24.364  1.00  0.00     0.358 C 
ATOM      7  O   UNL A   1      35.234  22.853  23.317  1.00  0.00    -0.244 OA
BRANCH   6   8
ATOM      8  C   UNL A   1      33.502  22.280  24.872  1.00  0.00     0.169 A 
ATOM      9  C   UNL A   1      32.587  21.223  24.775  1.00  0.00     0.074 A 
ATOM     10  N   UNL A   1      31.347  21.338  25.347  1.00  0.00    -0.257 NA
ATOM     11  C   UNL A   1      31.028  22.508  25.935  1.00  0.00     0.131 A 
ATOM     12  N   UNL A   1      33.150  23.468  25.462  1.00  0.00    -0.246 NA
ATOM     13  C   UNL A   1      31.910  23.559  25.976  1.00  0.00     0.132 A 
BRANCH   9  14
ATOM     14  C   UNL A   1      32.829  19.887  24.113  1.00  0.00     0.068 C 
BRANCH  14  15
ATOM     15  C   UNL A   1      33.536  18.869  25.036  1.00  0.00     0.056 C 
ATOM     16  C   UNL A   1      32.785  15.333  25.724  1.00  0.00     0.332 C 
ATOM     17  N   UNL A   1      33.507  16.590  25.601  1.00  0.00    -0.337 N 
ATOM     18  C   UNL A   1      34.325  16.675  24.393  1.00  0.00     0.262 C 
ATOM     19  C   UNL A   1      32.608  17.738  25.502  1.00  0.00     0.266 C 
ATOM     20  H   UNL A   1      34.081  16.611  26.443  1.00  0.00     0.347 HD
ATOM     21  C   UNL A   1      34.702  18.146  24.343  1.00  0.00     0.071 C 
ENDBRANCH  14  15
ENDBRANCH   9  14
ENDBRANCH   6   8
ENDBRANCH   5   6
ENDBRANCH   4   5
ENDBRANCH   3   4
ENDBRANCH   2   3
ENDBRANCH   1   2
BRANCH   1  22
ATOM     22  C   UNL A   1      40.721  21.933  27.621  1.00  0.00     0.261 C 
BRANCH  22  23
ATOM     23  O   UNL A   1      40.239  23.283  27.500  1.00  0.00    -0.460 OA
BRANCH  23  24
ATOM     24  C   UNL A   1      41.170  24.211  27.162  1.00  0.00     0.338 C 
ATOM     25  O   UNL A   1      41.967  24.161  26.240  1.00  0.00    -0.246 OA
BRANCH  24  26
ATOM     26  C   UNL A   1      40.965  25.406  28.001  1.00  0.00     0.060 A 
ATOM     27  C   UNL A   1      41.977  26.369  28.083  1.00  0.00     0.016 A 
ATOM     28  C   UNL A   1      39.782  25.569  28.718  1.00  0.00     0.016 A 
ATOM     29  C   UNL A   1      41.808  27.492  28.899  1.00  0.00     0.010 A 
ATOM     30  C   UNL A   1      39.592  26.719  29.485  1.00  0.00     0.010 A 
ATOM     31  C   UNL A   1      40.620  27.668  29.623  1.00  0.00    -0.014 A 
BRANCH  31  32
ATOM     32  C   UNL A   1      40.493  28.724  30.667  1.00  0.00     0.031 A 
ATOM     33  C   UNL A   1      41.387  28.639  31.881  1.00  0.00     0.074 A 
ATOM     34  C   UNL A   1      39.594  29.722  30.565  1.00  0.00     0.049 A 
ATOM     35  N   UNL A   1      41.366  29.343  32.982  1.00  0.00    -0.248 NA
ATOM     36  C   UNL A   1      42.421  27.590  31.862  1.00  0.00     0.031 C 
ATOM     37  C   UNL A   1      38.675  29.932  29.447  1.00  0.00     0.029 A 
ATOM     38  N   UNL A   1      39.298  30.746  31.434  1.00  0.00    -0.354 N 
ATOM     39  C   UNL A   1      42.351  28.796  33.797  1.00  0.00     0.074 A 
ATOM     40  C   UNL A   1      42.910  27.667  33.089  1.00  0.00     0.031 C 
ATOM     41  C   UNL A   1      37.923  31.019  29.694  1.00  0.00     0.029 A 
ATOM     42  C   UNL A   1      38.273  31.559  31.007  1.00  0.00     0.049 A 
ATOM     43  H   UNL A   1      39.776  30.885  32.283  1.00  0.00     0.167 HD
ATOM     44  C   UNL A   1      42.775  29.208  35.015  1.00  0.00     0.037 A 
ATOM     45  C   UNL A   1      37.674  32.606  31.614  1.00  0.00     0.037 A 
ATOM     46  C   UNL A   1      42.254  30.363  35.695  1.00  0.00     0.049 A 
ATOM     47  C   UNL A   1      38.148  33.039  32.979  1.00  0.00     0.074 A 
ATOM     48  C   UNL A   1      42.649  30.895  36.909  1.00  0.00     0.029 A 
ATOM     49  N   UNL A   1      41.230  31.167  35.218  1.00  0.00    -0.354 N 
ATOM     50  N   UNL A   1      39.099  32.527  33.725  1.00  0.00    -0.248 NA
ATOM     51  C   UNL A   1      37.472  34.198  33.585  1.00  0.00     0.031 C 
ATOM     52  C   UNL A   1      41.830  31.992  37.191  1.00  0.00     0.029 A 
ATOM     53  C   UNL A   1      40.968  32.182  36.122  1.00  0.00     0.049 A 
ATOM     54  H   UNL A   1      40.759  31.036  34.363  1.00  0.00     0.167 HD
ATOM     55  C   UNL A   1      39.161  33.325  34.866  1.00  0.00     0.074 A 
ATOM     56  C   UNL A   1      38.155  34.353  34.711  1.00  0.00     0.031 C 
ATOM     57  C   UNL A   1      39.981  33.217  35.941  1.00  0.00     0.037 A 
BRANCH  44  58
ATOM     58  C   UNL A   1      43.855  28.404  35.689  1.00  0.00     0.058 A 
ATOM     59  C   UNL A   1      45.218  28.657  35.470  1.00  0.00     0.135 A 
ATOM     60  C   UNL A   1      43.518  27.379  36.589  1.00  0.00     0.135 A 
ATOM     61  F   UNL A   1      45.599  29.612  34.606  1.00  0.00    -0.206 F 
ATOM     62  C   UNL A   1      46.208  27.900  36.088  1.00  0.00     0.059 A 
ATOM     63  C   UNL A   1      44.491  26.634  37.246  1.00  0.00     0.059 A 
ATOM     64  F   UNL A   1      42.230  27.091  36.836  1.00  0.00    -0.206 F 
ATOM     65  C   UNL A   1      45.834  26.892  36.976  1.00  0.00     0.060 A 
BRANCH  65  66
ATOM     66  S   UNL A   1      47.132  25.926  37.776  1.00  0.00     0.124 S 
ATOM     67  O   UNL A   1      46.357  25.124  38.719  1.00  0.00    -0.237 OA
ATOM     68  O   UNL A   1      47.713  25.197  36.654  1.00  0.00    -0.237 OA
ATOM     69  O   UNL A   1      47.993  26.940  38.375  1.00  0.00    -0.744 OA
ENDBRANCH  65  66
ENDBRANCH  44  58
BRANCH  45  70
ATOM     70  C   UNL A   1      36.560  33.327  30.936  1.00  0.00     0.058 A 
ATOM     71  C   UNL A   1      35.231  33.165  31.358  1.00  0.00     0.135 A 
ATOM     72  C   UNL A   1      36.797  34.185  29.851  1.00  0.00     0.135 A 
ATOM     73  F   UNL A   1      34.947  32.347  32.382  1.00  0.00    -0.206 F 
ATOM     74  C   UNL A   1      34.177  33.813  30.720  1.00  0.00     0.059 A 
ATOM     75  C   UNL A   1      35.763  34.867  29.214  1.00  0.00     0.059 A 
ATOM     76  F   UNL A   1      38.051  34.384  29.412  1.00  0.00    -0.206 F 
ATOM     77  C   UNL A   1      34.454  34.667  29.650  1.00  0.00     0.060 A 
BRANCH  77  78
ATOM     78  S   UNL A   1      33.085  35.542  28.864  1.00  0.00     0.124 S 
ATOM     79  O   UNL A   1      33.791  36.541  28.069  1.00  0.00    -0.237 OA
ATOM     80  O   UNL A   1      32.432  34.474  28.113  1.00  0.00    -0.237 OA
ATOM     81  O   UNL A   1      32.323  36.060  29.996  1.00  0.00    -0.744 OA
ENDBRANCH  77  78
ENDBRANCH  45  70
BRANCH  57  82
ATOM     82  C   UNL A   1      39.884  34.271  37.012  1.00  0.00     0.058 A 
ATOM     83  C   UNL A   1      40.549  35.502  36.910  1.00  0.00     0.135 A 
ATOM     84  C   UNL A   1      39.041  34.073  38.119  1.00  0.00     0.135 A 
ATOM     85  F   UNL A   1      41.370  35.744  35.875  1.00  0.00    -0.206 F 
ATOM     86  C   UNL A   1      40.396  36.493  37.875  1.00  0.00     0.059 A 
ATOM     87  C   UNL A   1      38.848  35.060  39.079  1.00  0.00     0.059 A 
ATOM     88  F   UNL A   1      38.370  32.917  38.259  1.00  0.00    -0.206 F 
ATOM     89  C   UNL A   1      39.537  36.265  38.953  1.00  0.00     0.060 A 
BRANCH  89  90
ATOM     90  S   UNL A   1      39.308  37.577  40.171  1.00  0.00     0.124 S 
ATOM     91  O   UNL A   1      38.262  38.380  39.547  1.00  0.00    -0.237 OA
ATOM     92  O   UNL A   1      38.909  36.831  41.361  1.00  0.00    -0.237 OA
ATOM     93  O   UNL A   1      40.622  38.208  40.246  1.00  0.00    -0.744 OA
ENDBRANCH  89  90
ENDBRANCH  57  82
ENDBRANCH  31  32
ENDBRANCH  24  26
ENDBRANCH  23  24
ENDBRANCH  22  23
ENDBRANCH   1  22
TORSDOF 19
ENDMDL
MODEL 2
REMARK VINA RESULT:     -10.5      0.629      8.325
REMARK SMILES C[N@H+]1CC[C@@H](Cc2nccnc2C(=O)OCCOCCOC(=O)c2ccc(-c3c4nc(c(-c5c(F)cc(S(=O)(=O)[O-])cc5F)c5ccc([nH]5)c(-c5c(F)cc(S(=O)(=O)[O-])cc5F)c5nc(c(-c6c(F)cc(S(=O)(=O)[O-])cc6F)c6ccc3[nH]6)C=C5)C=C4)cc2)C1
REMARK SMILES IDX 19 1 18 2 17 3 16 4 15 5 13 6 14 7 12 8 7 9 8 10 9 11 11 12
REMARK SMILES IDX 10 13 6 14 5 15 1 16 2 17 3 18 90 19 4 21 20 22 21 23 22 24
REMARK SMILES IDX 23 25 24 26 25 27 89 28 26 29 88 30 27 31 28 32 29 33 82 34
REMARK SMILES IDX 30 35 87 36 81 37 83 38 31 39 86 40 80 41 79 42 32 44 66 45
REMARK SMILES IDX 45 46 65 47 46 48 49 49 64 50 84 51 47 52 48 53 63 55 85 56
REMARK SMILES IDX 50 57 33 58 34 59 43 60 35 61 36 62 42 63 44 64 37 65 38 66
REMARK SMILES IDX 39 67 40 68 41 69 67 70 68 71 77 72 69 73 70 74 76 75 78 76
REMARK SMILES IDX 71 77 72 78 73 79 74 80 75 81 51 82 52 83 61 84 53 85 54 86
REMARK SMILES IDX 60 87 62 88 55 89 56 90 57 91 58 92 59 93
REMARK H PARENT 2 20 83 43 49 54
REMARK Flexibility Score: inf
ROOT
ATOM      1  C   UNL A   1      39.987  21.581  25.932  1.00  0.00     0.202 C 
ENDROOT
BRANCH   1   2
ATOM      2  O   UNL A   1      38.584  21.468  26.174  1.00  0.00    -0.374 OA
BRANCH   2   3
ATOM      3  C   UNL A   1      37.727  22.240  25.330  1.00  0.00     0.202 C 
BRANCH   3   4
ATOM      4  C   UNL A   1      36.232  21.996  25.526  1.00  0.00     0.261 C 
BRANCH   4   5
ATOM      5  O   UNL A   1      35.629  21.664  24.261  1.00  0.00    -0.458 OA
BRANCH   5   6
ATOM      6  C   UNL A   1      34.718  22.540  23.781  1.00  0.00     0.358 C 
ATOM      7  O   UNL A   1      34.868  23.229  22.781  1.00  0.00    -0.244 OA
BRANCH   6   8
ATOM      8  C   UNL A   1      33.418  22.462  24.529  1.00  0.00     0.169 A 
ATOM      9  C   UNL A   1      32.590  21.340  24.673  1.00  0.00     0.074 A 
ATOM     10  N   UNL A   1      31.459  21.420  25.443  1.00  0.00    -0.257 NA
ATOM     11  C   UNL A   1      31.149  22.613  25.989  1.00  0.00     0.131 A 
ATOM     12  N   UNL A   1      33.074  23.670  25.082  1.00  0.00    -0.246 NA
ATOM     13  C   UNL A   1      31.936  23.721  25.797  1.00  0.00     0.132 A 
BRANCH   9  14
ATOM     14  C   UNL A   1      32.825  19.971  24.080  1.00  0.00     0.068 C 
BRANCH  14  15
ATOM     15  C   UNL A   1      33.488  18.985  25.069  1.00  0.00     0.056 C 
ATOM     16  C   UNL A   1      32.614  15.519  25.945  1.00  0.00     0.332 C 
ATOM     17  N   UNL A   1      33.378  16.743  25.761  1.00  0.00    -0.337 N 
ATOM     18  C   UNL A   1      34.213  16.734  24.563  1.00  0.00     0.262 C 
ATOM     19  C   UNL A   1      32.517  17.912  25.585  1.00  0.00     0.266 C 
ATOM     20  H   UNL A   1      33.942  16.794  26.609  1.00  0.00     0.347 HD
ATOM     21  C   UNL A   1      34.639  18.188  24.434  1.00  0.00     0.071 C 
ENDBRANCH  14  15
ENDBRANCH   9  14
ENDBRANCH   6   8
ENDBRANCH   5   6
ENDBRANCH   4   5
ENDBRANCH   3   4
ENDBRANCH   2   3
ENDBRANCH   1   2
BRANCH   1  22
ATOM     22  C   UNL A   1      40.734  22.610  26.790  1.00  0.00     0.261 C 
BRANCH  22  23
ATOM     23  O   UNL A   1      40.254  23.951  26.583  1.00  0.00    -0.460 OA
BRANCH  23  24
ATOM     24  C   UNL A   1      41.210  24.909  26.485  1.00  0.00     0.338 C 
ATOM     25  O   UNL A   1      42.040  25.040  25.601  1.00  0.00    -0.246 OA
BRANCH  24  26
ATOM     26  C   UNL A   1      40.991  25.900  27.554  1.00  0.00     0.060 A 
ATOM     27  C   UNL A   1      41.868  26.983  27.676  1.00  0.00     0.016 A 
ATOM     28  C   UNL A   1      39.931  25.753  28.445  1.00  0.00     0.016 A 
ATOM     29  C   UNL A   1      41.691  27.914  28.704  1.00  0.00     0.010 A 
ATOM     30  C   UNL A   1      39.721  26.714  29.434  1.00  0.00     0.010 A 
ATOM     31  C   UNL A   1      40.626  27.778  29.605  1.00  0.00    -0.014 A 
BRANCH  31  32
ATOM     32  C   UNL A   1      40.535  28.612  30.837  1.00  0.00     0.031 A 
ATOM     33  C   UNL A   1      39.503  29.713  30.878  1.00  0.00     0.074 A 
ATOM     34  C   UNL A   1      41.358  28.425  31.887  1.00  0.00     0.049 A 
ATOM     35  N   UNL A   1      39.328  30.658  31.765  1.00  0.00    -0.248 NA
ATOM     36  C   UNL A   1      38.565  29.777  29.744  1.00  0.00     0.031 C 
ATOM     37  C   UNL A   1      42.393  27.396  31.987  1.00  0.00     0.029 A 
ATOM     38  N   UNL A   1      41.459  29.112  33.073  1.00  0.00    -0.354 N 
ATOM     39  C   UNL A   1      38.292  31.446  31.274  1.00  0.00     0.074 A 
ATOM     40  C   UNL A   1      37.919  30.906  29.988  1.00  0.00     0.031 C 
ATOM     41  C   UNL A   1      43.019  27.516  33.170  1.00  0.00     0.029 A 
ATOM     42  C   UNL A   1      42.463  28.657  33.896  1.00  0.00     0.049 A 
ATOM     43  H   UNL A   1      40.867  29.862  33.311  1.00  0.00     0.167 HD
ATOM     44  C   UNL A   1      37.685  32.510  31.851  1.00  0.00     0.037 A 
ATOM     45  C   UNL A   1      42.895  29.118  35.089  1.00  0.00     0.037 A 
ATOM     46  C   UNL A   1      38.023  33.015  33.155  1.00  0.00     0.049 A 
ATOM     47  C   UNL A   1      42.218  30.317  35.708  1.00  0.00     0.074 A 
ATOM     48  C   UNL A   1      37.435  34.055  33.851  1.00  0.00     0.029 A 
ATOM     49  N   UNL A   1      39.033  32.511  33.961  1.00  0.00    -0.354 N 
ATOM     50  N   UNL A   1      41.223  31.035  35.243  1.00  0.00    -0.248 NA
ATOM     51  C   UNL A   1      42.717  30.764  37.017  1.00  0.00     0.031 C 
ATOM     52  C   UNL A   1      38.123  34.215  35.057  1.00  0.00     0.029 A 
ATOM     53  C   UNL A   1      39.096  33.231  35.141  1.00  0.00     0.049 A 
ATOM     54  H   UNL A   1      39.617  31.754  33.729  1.00  0.00     0.167 HD
ATOM     55  C   UNL A   1      40.953  31.992  36.220  1.00  0.00     0.074 A 
ATOM     56  C   UNL A   1      41.887  31.759  37.300  1.00  0.00     0.031 C 
ATOM     57  C   UNL A   1      40.014  32.970  36.222  1.00  0.00     0.037 A 
BRANCH  44  58
ATOM     58  C   UNL A   1      36.595  33.200  31.074  1.00  0.00     0.058 A 
ATOM     59  C   UNL A   1      36.879  34.109  30.043  1.00  0.00     0.135 A 
ATOM     60  C   UNL A   1      35.245  32.927  31.351  1.00  0.00     0.135 A 
ATOM     61  F   UNL A   1      38.150  34.424  29.747  1.00  0.00    -0.206 F 
ATOM     62  C   UNL A   1      35.865  34.752  29.339  1.00  0.00     0.059 A 
ATOM     63  C   UNL A   1      34.216  33.530  30.636  1.00  0.00     0.059 A 
ATOM     64  F   UNL A   1      34.915  32.067  32.328  1.00  0.00    -0.206 F 
ATOM     65  C   UNL A   1      34.536  34.453  29.642  1.00  0.00     0.060 A 
BRANCH  65  66
ATOM     66  S   UNL A   1      33.234  35.289  28.713  1.00  0.00     0.124 S 
ATOM     67  O   UNL A   1      34.012  36.213  27.891  1.00  0.00    -0.237 OA
ATOM     68  O   UNL A   1      32.604  34.184  27.999  1.00  0.00    -0.237 OA
ATOM     69  O   UNL A   1      32.418  35.909  29.751  1.00  0.00    -0.744 OA
ENDBRANCH  65  66
ENDBRANCH  44  58
BRANCH  45  70
ATOM     70  C   UNL A   1      44.026  28.445  35.787  1.00  0.00     0.058 A 
ATOM     71  C   UNL A   1      45.357  28.806  35.524  1.00  0.00     0.135 A 
ATOM     72  C   UNL A   1      43.804  27.424  36.724  1.00  0.00     0.135 A 
ATOM     73  F   UNL A   1      45.626  29.768  34.628  1.00  0.00    -0.206 F 
ATOM     74  C   UNL A   1      46.425  28.171  36.151  1.00  0.00     0.059 A 
ATOM     75  C   UNL A   1      44.854  26.792  37.385  1.00  0.00     0.059 A 
ATOM     76  F   UNL A   1      42.550  27.045  37.022  1.00  0.00    -0.206 F 
ATOM     77  C   UNL A   1      46.163  27.166  37.084  1.00  0.00     0.060 A 
BRANCH  77  78
ATOM     78  S   UNL A   1      47.554  26.384  37.929  1.00  0.00     0.124 S 
ATOM     79  O   UNL A   1      47.198  24.972  37.840  1.00  0.00    -0.237 OA
ATOM     80  O   UNL A   1      48.685  26.810  37.110  1.00  0.00    -0.237 OA
ATOM     81  O   UNL A   1      47.504  26.965  39.267  1.00  0.00    -0.744 OA
ENDBRANCH  77  78
ENDBRANCH  45  70
BRANCH  57  82
ATOM     82  C   UNL A   1      39.890  33.828  37.453  1.00  0.00     0.058 A 
ATOM     83  C   UNL A   1      40.562  35.053  37.579  1.00  0.00     0.135 A 
ATOM     84  C   UNL A   1      39.014  33.452  38.486  1.00  0.00     0.135 A 
ATOM     85  F   UNL A   1      41.414  35.459  36.624  1.00  0.00    -0.206 F 
ATOM     86  C   UNL A   1      40.384  35.867  38.694  1.00  0.00     0.059 A 
ATOM     87  C   UNL A   1      38.797  34.264  39.594  1.00  0.00     0.059 A 
ATOM     88  F   UNL A   1      38.336  32.295  38.410  1.00  0.00    -0.206 F 
ATOM     89  C   UNL A   1      39.494  35.467  39.694  1.00  0.00     0.060 A 
BRANCH  89  90
ATOM     90  S   UNL A   1      39.234  36.556  41.110  1.00  0.00     0.124 S 
ATOM     91  O   UNL A   1      38.949  37.828  40.455  1.00  0.00    -0.237 OA
ATOM     92  O   UNL A   1      38.106  35.923  41.786  1.00  0.00    -0.237 OA
ATOM     93  O   UNL A   1      40.503  36.492  41.828  1.00  0.00    -0.744 OA
ENDBRANCH  89  90
ENDBRANCH  57  82
ENDBRANCH  31  32
ENDBRANCH  24  26
ENDBRANCH  23  24
ENDBRANCH  22  23
ENDBRANCH   1  22
TORSDOF 19
ENDMDL
MODEL 3
REMARK VINA RESULT:     -10.5      0.890      1.647
REMARK SMILES C[N@H+]1CC[C@@H](Cc2nccnc2C(=O)OCCOCCOC(=O)c2ccc(-c3c4nc(c(-c5c(F)cc(S(=O)(=O)[O-])cc5F)c5ccc([nH]5)c(-c5c(F)cc(S(=O)(=O)[O-])cc5F)c5nc(c(-c6c(F)cc(S(=O)(=O)[O-])cc6F)c6ccc3[nH]6)C=C5)C=C4)cc2)C1
REMARK SMILES IDX 19 1 18 2 17 3 16 4 15 5 13 6 14 7 12 8 7 9 8 10 9 11 11 12
REMARK SMILES IDX 10 13 6 14 5 15 1 16 2 17 3 18 90 19 4 21 20 22 21 23 22 24
REMARK SMILES IDX 23 25 24 26 25 27 89 28 26 29 88 30 27 31 28 32 29 33 82 34
REMARK SMILES IDX 30 35 87 36 81 37 83 38 31 39 86 40 80 41 79 42 32 44 66 45
REMARK SMILES IDX 45 46 65 47 46 48 49 49 64 50 84 51 47 52 48 53 63 55 85 56
REMARK SMILES IDX 50 57 33 58 34 59 43 60 35 61 36 62 42 63 44 64 37 65 38 66
REMARK SMILES IDX 39 67 40 68 41 69 67 70 68 71 77 72 69 73 70 74 76 75 78 76
REMARK SMILES IDX 71 77 72 78 73 79 74 80 75 81 51 82 52 83 61 84 53 85 54 86
REMARK SMILES IDX 60 87 62 88 55 89 56 90 57 91 58 92 59 93
REMARK H PARENT 2 20 83 43 49 54
REMARK Flexibility Score: inf
ROOT
ATOM      1  C   UNL A   1      40.797  21.435  26.525  1.00  0.00     0.202 C 
ENDROOT
BRANCH   1   2
ATOM      2  O   UNL A   1      39.645  20.978  25.814  1.00  0.00    -0.374 OA
BRANCH   2   3
ATOM      3  C   UNL A   1      38.524  21.862  25.781  1.00  0.00     0.202 C 
BRANCH   3   4
ATOM      4  C   UNL A   1      37.436  21.493  24.773  1.00  0.00     0.261 C 
BRANCH   4   5
ATOM      5  O   UNL A   1      36.236  21.118  25.476  1.00  0.00    -0.458 OA
BRANCH   5   6
ATOM      6  C   UNL A   1      35.299  22.081  25.622  1.00  0.00     0.358 C 
ATOM      7  O   UNL A   1      35.331  22.966  26.466  1.00  0.00    -0.244 OA
BRANCH   6   8
ATOM      8  C   UNL A   1      34.281  22.044  24.518  1.00  0.00     0.169 A 
ATOM      9  C   UNL A   1      33.256  21.105  24.344  1.00  0.00     0.074 A 
ATOM     10  N   UNL A   1      32.367  21.248  23.309  1.00  0.00    -0.257 NA
ATOM     11  C   UNL A   1      32.557  22.268  22.450  1.00  0.00     0.131 A 
ATOM     12  N   UNL A   1      34.464  23.066  23.621  1.00  0.00    -0.246 NA
ATOM     13  C   UNL A   1      33.598  23.151  22.596  1.00  0.00     0.132 A 
BRANCH   9  14
ATOM     14  C   UNL A   1      32.973  19.911  25.225  1.00  0.00     0.068 C 
BRANCH  14  15
ATOM     15  C   UNL A   1      33.196  18.560  24.509  1.00  0.00     0.056 C 
ATOM     16  C   UNL A   1      35.501  15.794  25.272  1.00  0.00     0.332 C 
ATOM     17  N   UNL A   1      34.364  16.536  24.750  1.00  0.00    -0.337 N 
ATOM     18  C   UNL A   1      33.149  16.375  25.546  1.00  0.00     0.262 C 
ATOM     19  C   UNL A   1      34.597  17.980  24.748  1.00  0.00     0.266 C 
ATOM     20  H   UNL A   1      34.249  16.155  23.812  1.00  0.00     0.347 HD
ATOM     21  C   UNL A   1      32.238  17.461  24.997  1.00  0.00     0.071 C 
ENDBRANCH  14  15
ENDBRANCH   9  14
ENDBRANCH   6   8
ENDBRANCH   5   6
ENDBRANCH   4   5
ENDBRANCH   3   4
ENDBRANCH   2   3
ENDBRANCH   1   2
BRANCH   1  22
ATOM     22  C   UNL A   1      41.545  22.618  25.895  1.00  0.00     0.261 C 
BRANCH  22  23
ATOM     23  O   UNL A   1      41.787  23.679  26.836  1.00  0.00    -0.460 OA
BRANCH  23  24
ATOM     24  C   UNL A   1      41.434  24.923  26.423  1.00  0.00     0.338 C 
ATOM     25  O   UNL A   1      41.106  25.266  25.300  1.00  0.00    -0.246 OA
BRANCH  24  26
ATOM     26  C   UNL A   1      41.344  25.800  27.604  1.00  0.00     0.060 A 
ATOM     27  C   UNL A   1      40.211  25.734  28.424  1.00  0.00     0.016 A 
ATOM     28  C   UNL A   1      42.368  26.698  27.895  1.00  0.00     0.016 A 
ATOM     29  C   UNL A   1      40.098  26.581  29.530  1.00  0.00     0.010 A 
ATOM     30  C   UNL A   1      42.280  27.502  29.032  1.00  0.00     0.010 A 
ATOM     31  C   UNL A   1      41.125  27.487  29.834  1.00  0.00    -0.014 A 
BRANCH  31  32
ATOM     32  C   UNL A   1      40.945  28.552  30.861  1.00  0.00     0.031 A 
ATOM     33  C   UNL A   1      41.839  28.529  32.078  1.00  0.00     0.074 A 
ATOM     34  C   UNL A   1      40.000  29.505  30.741  1.00  0.00     0.049 A 
ATOM     35  N   UNL A   1      41.781  29.249  33.167  1.00  0.00    -0.248 NA
ATOM     36  C   UNL A   1      42.922  27.530  32.077  1.00  0.00     0.031 C 
ATOM     37  C   UNL A   1      39.074  29.653  29.618  1.00  0.00     0.029 A 
ATOM     38  N   UNL A   1      39.653  30.528  31.593  1.00  0.00    -0.354 N 
ATOM     39  C   UNL A   1      42.790  28.762  33.992  1.00  0.00     0.074 A 
ATOM     40  C   UNL A   1      43.404  27.651  33.304  1.00  0.00     0.031 C 
ATOM     41  C   UNL A   1      38.271  30.707  29.847  1.00  0.00     0.029 A 
ATOM     42  C   UNL A   1      38.592  31.284  31.151  1.00  0.00     0.049 A 
ATOM     43  H   UNL A   1      40.122  30.703  32.441  1.00  0.00     0.167 HD
ATOM     44  C   UNL A   1      43.191  29.214  35.204  1.00  0.00     0.037 A 
ATOM     45  C   UNL A   1      37.943  32.311  31.740  1.00  0.00     0.037 A 
ATOM     46  C   UNL A   1      42.614  30.353  35.865  1.00  0.00     0.049 A 
ATOM     47  C   UNL A   1      38.393  32.788  33.099  1.00  0.00     0.074 A 
ATOM     48  C   UNL A   1      42.980  30.923  37.071  1.00  0.00     0.029 A 
ATOM     49  N   UNL A   1      41.554  31.100  35.373  1.00  0.00    -0.354 N 
ATOM     50  N   UNL A   1      39.365  32.334  33.855  1.00  0.00    -0.248 NA
ATOM     51  C   UNL A   1      37.661  33.923  33.685  1.00  0.00     0.031 C 
ATOM     52  C   UNL A   1      42.109  31.984  37.334  1.00  0.00     0.029 A 
ATOM     53  C   UNL A   1      41.242  32.116  36.260  1.00  0.00     0.049 A 
ATOM     54  H   UNL A   1      41.092  30.934  34.520  1.00  0.00     0.167 HD
ATOM     55  C   UNL A   1      39.386  33.152  34.983  1.00  0.00     0.074 A 
ATOM     56  C   UNL A   1      38.332  34.128  34.809  1.00  0.00     0.031 C 
ATOM     57  C   UNL A   1      40.207  33.100  36.061  1.00  0.00     0.037 A 
BRANCH  44  58
ATOM     58  C   UNL A   1      44.305  28.473  35.894  1.00  0.00     0.058 A 
ATOM     59  C   UNL A   1      45.655  28.802  35.690  1.00  0.00     0.135 A 
ATOM     60  C   UNL A   1      44.016  27.432  36.791  1.00  0.00     0.135 A 
ATOM     61  F   UNL A   1      45.993  29.775  34.829  1.00  0.00    -0.206 F 
ATOM     62  C   UNL A   1      46.679  28.103  36.321  1.00  0.00     0.059 A 
ATOM     63  C   UNL A   1      45.022  26.743  37.461  1.00  0.00     0.059 A 
ATOM     64  F   UNL A   1      42.743  27.072  37.023  1.00  0.00    -0.206 F 
ATOM     65  C   UNL A   1      46.351  27.076  37.207  1.00  0.00     0.060 A 
BRANCH  65  66
ATOM     66  S   UNL A   1      47.691  26.186  38.025  1.00  0.00     0.124 S 
ATOM     67  O   UNL A   1      47.929  25.093  37.085  1.00  0.00    -0.237 OA
ATOM     68  O   UNL A   1      48.739  27.199  38.096  1.00  0.00    -0.237 OA
ATOM     69  O   UNL A   1      47.111  25.796  39.306  1.00  0.00    -0.744 OA
ENDBRANCH  65  66
ENDBRANCH  44  58
BRANCH  45  70
ATOM     70  C   UNL A   1      36.798  32.967  31.049  1.00  0.00     0.058 A 
ATOM     71  C   UNL A   1      37.008  33.854  29.981  1.00  0.00     0.135 A 
ATOM     72  C   UNL A   1      35.472  32.730  31.444  1.00  0.00     0.135 A 
ATOM     73  F   UNL A   1      38.256  34.126  29.571  1.00  0.00    -0.206 F 
ATOM     74  C   UNL A   1      35.950  34.493  29.342  1.00  0.00     0.059 A 
ATOM     75  C   UNL A   1      34.395  33.335  30.802  1.00  0.00     0.059 A 
ATOM     76  F   UNL A   1      35.212  31.883  32.453  1.00  0.00    -0.206 F 
ATOM     77  C   UNL A   1      34.645  34.223  29.757  1.00  0.00     0.060 A 
BRANCH  77  78
ATOM     78  S   UNL A   1      33.277  35.018  28.885  1.00  0.00     0.124 S 
ATOM     79  O   UNL A   1      32.855  33.961  27.972  1.00  0.00    -0.237 OA
ATOM     80  O   UNL A   1      32.358  35.324  29.977  1.00  0.00    -0.237 OA
ATOM     81  O   UNL A   1      33.906  36.178  28.261  1.00  0.00    -0.744 OA
ENDBRANCH  77  78
ENDBRANCH  45  70
BRANCH  57  82
ATOM     82  C   UNL A   1      40.058  34.165  37.115  1.00  0.00     0.058 A 
ATOM     83  C   UNL A   1      40.622  35.442  36.970  1.00  0.00     0.135 A 
ATOM     84  C   UNL A   1      39.263  33.925  38.249  1.00  0.00     0.135 A 
ATOM     85  F   UNL A   1      41.394  35.725  35.908  1.00  0.00    -0.206 F 
ATOM     86  C   UNL A   1      40.418  36.437  37.921  1.00  0.00     0.059 A 
ATOM     87  C   UNL A   1      39.020  34.915  39.195  1.00  0.00     0.059 A 
ATOM     88  F   UNL A   1      38.689  32.725  38.429  1.00  0.00    -0.206 F 
ATOM     89  C   UNL A   1      39.609  36.166  39.027  1.00  0.00     0.060 A 
BRANCH  89  90
ATOM     90  S   UNL A   1      39.312  37.482  40.227  1.00  0.00     0.124 S 
ATOM     91  O   UNL A   1      38.727  36.740  41.339  1.00  0.00    -0.237 OA
ATOM     92  O   UNL A   1      40.656  38.007  40.452  1.00  0.00    -0.237 OA
ATOM     93  O   UNL A   1      38.403  38.384  39.528  1.00  0.00    -0.744 OA
ENDBRANCH  89  90
ENDBRANCH  57  82
ENDBRANCH  31  32
ENDBRANCH  24  26
ENDBRANCH  23  24
ENDBRANCH  22  23
ENDBRANCH   1  22
TORSDOF 19
ENDMDL
