MODEL 1
REMARK VINA RESULT:      -9.9      0.000      0.000
REMARK SMILES O=C(OCCOCCOC(=O)[C@]1(NC(=O)c2nc(C3CC3)n[nH]2)CCSC1)c1ccc(-c2c3nc(c(-c4c(F)cc(S(=O)(=O)[O-])cc4F)c4ccc([nH]4)c(-c4c(F)cc(S(=O)(=O)[O-])cc4F)c4nc(c(-c5c(F)cc(S(=O)(=O)[O-])cc5F)c5ccc2[nH]5)C=C4)C=C3)cc1
REMARK SMILES IDX 6 1 5 2 4 3 3 4 2 5 1 6 28 7 29 8 93 9 30 10 92 11 31 12
REMARK SMILES IDX 32 13 33 14 86 15 34 16 91 17 85 18 87 19 35 20 90 21 84 22
REMARK SMILES IDX 83 23 36 25 70 26 49 27 69 28 50 29 53 30 68 31 88 32 51 33
REMARK SMILES IDX 52 34 67 36 89 37 54 38 37 39 38 40 47 41 39 42 40 43 46 44
REMARK SMILES IDX 48 45 41 46 42 47 43 48 44 49 45 50 71 51 72 52 81 53 73 54
REMARK SMILES IDX 74 55 80 56 82 57 75 58 76 59 77 60 78 61 79 62 55 63 56 64
REMARK SMILES IDX 65 65 57 66 58 67 64 68 66 69 59 70 60 71 61 72 62 73 63 74
REMARK SMILES IDX 7 75 8 76 9 77 10 78 11 79 12 80 24 81 27 82 25 83 26 84
REMARK SMILES IDX 13 85 14 86 15 88 16 89 17 90 23 91 18 92 22 93 19 95 20 96
REMARK SMILES IDX 21 97
REMARK H PARENT 87 24 53 35 13 87 23 94
REMARK Flexibility Score: inf
ROOT
ATOM      1  O   UNL A   1      33.557  28.019  24.664  1.00  0.00    -0.374 OA
ENDROOT
BRANCH   1   2
ATOM      2  C   UNL A   1      33.611  29.124  25.566  1.00  0.00     0.202 C 
BRANCH   2   3
ATOM      3  C   UNL A   1      33.245  28.746  27.001  1.00  0.00     0.261 C 
BRANCH   3   4
ATOM      4  O   UNL A   1      33.398  29.874  27.877  1.00  0.00    -0.460 OA
BRANCH   4   5
ATOM      5  C   UNL A   1      34.508  30.648  28.003  1.00  0.00     0.338 C 
ATOM      6  O   UNL A   1      34.388  31.867  27.885  1.00  0.00    -0.246 OA
BRANCH   5   7
ATOM      7  C   UNL A   1      35.863  30.102  28.332  1.00  0.00     0.060 A 
ATOM      8  C   UNL A   1      36.253  29.613  29.580  1.00  0.00     0.016 A 
ATOM      9  C   UNL A   1      36.801  30.041  27.286  1.00  0.00     0.016 A 
ATOM     10  C   UNL A   1      37.521  29.145  29.820  1.00  0.00     0.010 A 
ATOM     11  C   UNL A   1      38.100  29.572  27.514  1.00  0.00     0.010 A 
ATOM     12  C   UNL A   1      38.457  29.155  28.799  1.00  0.00    -0.014 A 
BRANCH  12  13
ATOM     13  C   UNL A   1      39.836  28.951  29.248  1.00  0.00     0.031 A 
ATOM     14  C   UNL A   1      40.506  27.686  28.808  1.00  0.00     0.074 A 
ATOM     15  C   UNL A   1      40.518  30.002  29.733  1.00  0.00     0.049 A 
ATOM     16  N   UNL A   1      41.725  27.282  29.013  1.00  0.00    -0.248 NA
ATOM     17  C   UNL A   1      39.698  26.765  27.982  1.00  0.00     0.031 C 
ATOM     18  C   UNL A   1      39.961  31.346  29.935  1.00  0.00     0.029 A 
ATOM     19  N   UNL A   1      41.835  30.135  30.063  1.00  0.00    -0.354 N 
ATOM     20  C   UNL A   1      41.818  26.046  28.388  1.00  0.00     0.074 A 
ATOM     21  C   UNL A   1      40.546  25.776  27.762  1.00  0.00     0.031 C 
ATOM     22  C   UNL A   1      40.943  32.173  30.324  1.00  0.00     0.029 A 
ATOM     23  C   UNL A   1      42.169  31.401  30.483  1.00  0.00     0.049 A 
ATOM     24  H   UNL A   1      42.484  29.397  30.007  1.00  0.00     0.167 HD
ATOM     25  C   UNL A   1      42.875  25.205  28.379  1.00  0.00     0.037 A 
ATOM     26  C   UNL A   1      43.335  31.851  30.980  1.00  0.00     0.037 A 
ATOM     27  C   UNL A   1      44.111  25.527  29.035  1.00  0.00     0.049 A 
ATOM     28  C   UNL A   1      44.454  30.850  31.093  1.00  0.00     0.074 A 
ATOM     29  C   UNL A   1      45.218  24.733  29.247  1.00  0.00     0.029 A 
ATOM     30  N   UNL A   1      44.390  26.771  29.594  1.00  0.00    -0.354 N 
ATOM     31  N   UNL A   1      44.498  29.612  30.650  1.00  0.00    -0.248 NA
ATOM     32  C   UNL A   1      45.662  31.281  31.801  1.00  0.00     0.031 C 
ATOM     33  C   UNL A   1      46.146  25.481  29.981  1.00  0.00     0.029 A 
ATOM     34  C   UNL A   1      45.643  26.762  30.172  1.00  0.00     0.049 A 
ATOM     35  H   UNL A   1      43.781  27.545  29.578  1.00  0.00     0.167 HD
ATOM     36  C   UNL A   1      45.741  29.117  31.020  1.00  0.00     0.074 A 
ATOM     37  C   UNL A   1      46.426  30.202  31.700  1.00  0.00     0.031 C 
ATOM     38  C   UNL A   1      46.272  27.883  30.830  1.00  0.00     0.037 A 
BRANCH  25  39
ATOM     39  C   UNL A   1      42.658  23.847  27.777  1.00  0.00     0.058 A 
ATOM     40  C   UNL A   1      42.419  22.703  28.554  1.00  0.00     0.135 A 
ATOM     41  C   UNL A   1      42.780  23.679  26.388  1.00  0.00     0.135 A 
ATOM     42  F   UNL A   1      42.340  22.796  29.891  1.00  0.00    -0.206 F 
ATOM     43  C   UNL A   1      42.340  21.435  27.978  1.00  0.00     0.059 A 
ATOM     44  C   UNL A   1      42.682  22.427  25.789  1.00  0.00     0.059 A 
ATOM     45  F   UNL A   1      43.035  24.736  25.601  1.00  0.00    -0.206 F 
ATOM     46  C   UNL A   1      42.481  21.309  26.594  1.00  0.00     0.060 A 
BRANCH  46  47
ATOM     47  S   UNL A   1      42.418  19.659  25.862  1.00  0.00     0.124 S 
ATOM     48  O   UNL A   1      42.768  18.819  27.003  1.00  0.00    -0.237 OA
ATOM     49  O   UNL A   1      41.034  19.570  25.410  1.00  0.00    -0.237 OA
ATOM     50  O   UNL A   1      43.418  19.721  24.799  1.00  0.00    -0.744 OA
ENDBRANCH  46  47
ENDBRANCH  25  39
BRANCH  26  51
ATOM     51  C   UNL A   1      43.465  33.247  31.482  1.00  0.00     0.058 A 
ATOM     52  C   UNL A   1      43.882  34.293  30.646  1.00  0.00     0.135 A 
ATOM     53  C   UNL A   1      43.188  33.563  32.824  1.00  0.00     0.135 A 
ATOM     54  F   UNL A   1      44.167  34.049  29.359  1.00  0.00    -0.206 F 
ATOM     55  C   UNL A   1      44.039  35.593  31.125  1.00  0.00     0.059 A 
ATOM     56  C   UNL A   1      43.306  34.859  33.317  1.00  0.00     0.059 A 
ATOM     57  F   UNL A   1      42.780  32.607  33.674  1.00  0.00    -0.206 F 
ATOM     58  C   UNL A   1      43.750  35.865  32.463  1.00  0.00     0.060 A 
BRANCH  58  59
ATOM     59  S   UNL A   1      43.951  37.552  33.075  1.00  0.00     0.124 S 
ATOM     60  O   UNL A   1      42.808  37.675  33.973  1.00  0.00    -0.237 OA
ATOM     61  O   UNL A   1      45.262  37.494  33.713  1.00  0.00    -0.237 OA
ATOM     62  O   UNL A   1      43.888  38.360  31.861  1.00  0.00    -0.744 OA
ENDBRANCH  58  59
ENDBRANCH  26  51
BRANCH  38  63
ATOM     63  C   UNL A   1      47.665  27.666  31.339  1.00  0.00     0.058 A 
ATOM     64  C   UNL A   1      48.786  27.921  30.537  1.00  0.00     0.135 A 
ATOM     65  C   UNL A   1      47.872  27.263  32.667  1.00  0.00     0.135 A 
ATOM     66  F   UNL A   1      48.633  28.302  29.258  1.00  0.00    -0.206 F 
ATOM     67  C   UNL A   1      50.074  27.761  31.031  1.00  0.00     0.059 A 
ATOM     68  C   UNL A   1      49.150  27.127  33.189  1.00  0.00     0.059 A 
ATOM     69  F   UNL A   1      46.825  27.022  33.473  1.00  0.00    -0.206 F 
ATOM     70  C   UNL A   1      50.245  27.368  32.360  1.00  0.00     0.060 A 
BRANCH  70  71
ATOM     71  S   UNL A   1      51.921  27.208  33.004  1.00  0.00     0.124 S 
ATOM     72  O   UNL A   1      52.350  28.602  33.051  1.00  0.00    -0.237 OA
ATOM     73  O   UNL A   1      51.698  26.568  34.297  1.00  0.00    -0.237 OA
ATOM     74  O   UNL A   1      52.590  26.377  32.008  1.00  0.00    -0.744 OA
ENDBRANCH  70  71
ENDBRANCH  38  63
ENDBRANCH  12  13
ENDBRANCH   5   7
ENDBRANCH   4   5
ENDBRANCH   3   4
ENDBRANCH   2   3
ENDBRANCH   1   2
BRANCH   1  75
ATOM     75  C   UNL A   1      34.159  26.806  25.091  1.00  0.00     0.202 C 
BRANCH  75  76
ATOM     76  C   UNL A   1      33.481  25.629  24.403  1.00  0.00     0.261 C 
BRANCH  76  77
ATOM     77  O   UNL A   1      33.909  24.369  24.950  1.00  0.00    -0.461 OA
BRANCH  77  78
ATOM     78  C   UNL A   1      34.411  23.465  24.058  1.00  0.00     0.332 C 
ATOM     79  O   UNL A   1      34.500  23.623  22.854  1.00  0.00    -0.249 OA
BRANCH  78  80
ATOM     80  C   UNL A   1      34.803  22.160  24.760  1.00  0.00     0.148 C 
ATOM     81  C   UNL A   1      35.121  22.420  26.257  1.00  0.00     0.052 C 
ATOM     82  C   UNL A   1      36.135  21.651  24.177  1.00  0.00     0.110 C 
ATOM     83  C   UNL A   1      36.426  23.186  26.376  1.00  0.00     0.072 C 
ATOM     84  S   UNL A   1      37.479  22.519  25.069  1.00  0.00    -0.159 SA
BRANCH  80  85
ATOM     85  N   UNL A   1      33.741  21.120  24.702  1.00  0.00    -0.333 N 
ATOM     86  C   UNL A   1      32.433  21.048  25.130  1.00  0.00     0.289 C 
ATOM     87  H   UNL A   1      34.041  20.295  24.256  1.00  0.00     0.165 HD
ATOM     88  O   UNL A   1      31.921  19.928  25.064  1.00  0.00    -0.266 OA
BRANCH  86  89
ATOM     89  C   UNL A   1      31.751  22.150  25.756  1.00  0.00     0.214 A 
ATOM     90  N   UNL A   1      30.784  22.906  25.273  1.00  0.00    -0.207 NA
ATOM     91  N   UNL A   1      32.020  22.561  27.029  1.00  0.00    -0.255 N 
ATOM     92  C   UNL A   1      30.631  23.884  26.236  1.00  0.00     0.154 A 
ATOM     93  N   UNL A   1      31.403  23.713  27.318  1.00  0.00    -0.158 NA
ATOM     94  H   UNL A   1      32.598  22.070  27.658  1.00  0.00     0.192 HD
BRANCH  92  95
ATOM     95  C   UNL A   1      29.804  25.156  26.070  1.00  0.00     0.060 C 
ATOM     96  C   UNL A   1      30.524  26.491  26.033  1.00  0.00     0.012 C 
ATOM     97  C   UNL A   1      29.864  25.975  24.802  1.00  0.00     0.012 C 
ENDBRANCH  92  95
ENDBRANCH  86  89
ENDBRANCH  80  85
ENDBRANCH  78  80
ENDBRANCH  77  78
ENDBRANCH  76  77
ENDBRANCH  75  76
ENDBRANCH   1  75
TORSDOF 20
ENDMDL
MODEL 2
REMARK VINA RESULT:      -9.7      3.426      4.668
REMARK SMILES O=C(OCCOCCOC(=O)[C@]1(NC(=O)c2nc(C3CC3)n[nH]2)CCSC1)c1ccc(-c2c3nc(c(-c4c(F)cc(S(=O)(=O)[O-])cc4F)c4ccc([nH]4)c(-c4c(F)cc(S(=O)(=O)[O-])cc4F)c4nc(c(-c5c(F)cc(S(=O)(=O)[O-])cc5F)c5ccc2[nH]5)C=C4)C=C3)cc1
REMARK SMILES IDX 6 1 5 2 4 3 3 4 2 5 1 6 28 7 29 8 93 9 30 10 92 11 31 12
REMARK SMILES IDX 32 13 33 14 86 15 34 16 91 17 85 18 87 19 35 20 90 21 84 22
REMARK SMILES IDX 83 23 36 25 70 26 49 27 69 28 50 29 53 30 68 31 88 32 51 33
REMARK SMILES IDX 52 34 67 36 89 37 54 38 37 39 38 40 47 41 39 42 40 43 46 44
REMARK SMILES IDX 48 45 41 46 42 47 43 48 44 49 45 50 71 51 72 52 81 53 73 54
REMARK SMILES IDX 74 55 80 56 82 57 75 58 76 59 77 60 78 61 79 62 55 63 56 64
REMARK SMILES IDX 65 65 57 66 58 67 64 68 66 69 59 70 60 71 61 72 62 73 63 74
REMARK SMILES IDX 7 75 8 76 9 77 10 78 11 79 12 80 24 81 27 82 25 83 26 84
REMARK SMILES IDX 13 85 14 86 15 88 16 89 17 90 23 91 18 92 22 93 19 95 20 96
REMARK SMILES IDX 21 97
REMARK H PARENT 87 24 53 35 13 87 23 94
REMARK Flexibility Score: inf
ROOT
ATOM      1  O   UNL A   1      33.932  30.092  27.668  1.00  0.00    -0.374 OA
ENDROOT
BRANCH   1   2
ATOM      2  C   UNL A   1      34.112  31.508  27.647  1.00  0.00     0.202 C 
BRANCH   2   3
ATOM      3  C   UNL A   1      35.106  32.002  28.697  1.00  0.00     0.261 C 
BRANCH   3   4
ATOM      4  O   UNL A   1      35.890  30.912  29.207  1.00  0.00    -0.460 OA
BRANCH   4   5
ATOM      5  C   UNL A   1      36.997  31.015  29.989  1.00  0.00     0.338 C 
ATOM      6  O   UNL A   1      36.917  31.663  31.031  1.00  0.00    -0.246 OA
BRANCH   5   7
ATOM      7  C   UNL A   1      38.295  30.337  29.677  1.00  0.00     0.060 A 
ATOM      8  C   UNL A   1      39.281  30.017  30.612  1.00  0.00     0.016 A 
ATOM      9  C   UNL A   1      38.516  29.959  28.341  1.00  0.00     0.016 A 
ATOM     10  C   UNL A   1      40.461  29.413  30.255  1.00  0.00     0.010 A 
ATOM     11  C   UNL A   1      39.715  29.347  27.959  1.00  0.00     0.010 A 
ATOM     12  C   UNL A   1      40.696  29.108  28.925  1.00  0.00    -0.014 A 
BRANCH  12  13
ATOM     13  C   UNL A   1      42.091  28.780  28.623  1.00  0.00     0.031 A 
ATOM     14  C   UNL A   1      42.363  27.395  28.122  1.00  0.00     0.074 A 
ATOM     15  C   UNL A   1      42.976  29.783  28.498  1.00  0.00     0.049 A 
ATOM     16  N   UNL A   1      43.484  26.863  27.732  1.00  0.00    -0.248 NA
ATOM     17  C   UNL A   1      41.196  26.497  28.003  1.00  0.00     0.031 C 
ATOM     18  C   UNL A   1      42.677  31.203  28.728  1.00  0.00     0.029 A 
ATOM     19  N   UNL A   1      44.272  29.781  28.072  1.00  0.00    -0.354 N 
ATOM     20  C   UNL A   1      43.171  25.560  27.369  1.00  0.00     0.074 A 
ATOM     21  C   UNL A   1      41.750  25.386  27.548  1.00  0.00     0.031 C 
ATOM     22  C   UNL A   1      43.755  31.935  28.405  1.00  0.00     0.029 A 
ATOM     23  C   UNL A   1      44.839  31.033  28.036  1.00  0.00     0.049 A 
ATOM     24  H   UNL A   1      44.755  28.963  27.814  1.00  0.00     0.167 HD
ATOM     25  C   UNL A   1      44.019  24.593  26.957  1.00  0.00     0.037 A 
ATOM     26  C   UNL A   1      46.110  31.383  27.774  1.00  0.00     0.037 A 
ATOM     27  C   UNL A   1      45.429  24.826  26.814  1.00  0.00     0.049 A 
ATOM     28  C   UNL A   1      47.069  30.265  27.459  1.00  0.00     0.074 A 
ATOM     29  C   UNL A   1      46.440  23.925  26.553  1.00  0.00     0.029 A 
ATOM     30  N   UNL A   1      46.021  26.081  26.927  1.00  0.00    -0.354 N 
ATOM     31  N   UNL A   1      46.811  28.988  27.275  1.00  0.00    -0.248 NA
ATOM     32  C   UNL A   1      48.488  30.616  27.356  1.00  0.00     0.031 C 
ATOM     33  C   UNL A   1      47.650  24.627  26.562  1.00  0.00     0.029 A 
ATOM     34  C   UNL A   1      47.388  25.977  26.765  1.00  0.00     0.049 A 
ATOM     35  H   UNL A   1      45.536  26.920  27.098  1.00  0.00     0.167 HD
ATOM     36  C   UNL A   1      48.035  28.383  27.026  1.00  0.00     0.074 A 
ATOM     37  C   UNL A   1      49.028  29.441  27.058  1.00  0.00     0.031 C 
ATOM     38  C   UNL A   1      48.324  27.075  26.802  1.00  0.00     0.037 A 
BRANCH  25  39
ATOM     39  C   UNL A   1      43.451  23.213  26.795  1.00  0.00     0.058 A 
ATOM     40  C   UNL A   1      43.066  22.418  27.886  1.00  0.00     0.135 A 
ATOM     41  C   UNL A   1      43.372  22.644  25.513  1.00  0.00     0.135 A 
ATOM     42  F   UNL A   1      43.163  22.894  29.138  1.00  0.00    -0.206 F 
ATOM     43  C   UNL A   1      42.653  21.098  27.715  1.00  0.00     0.059 A 
ATOM     44  C   UNL A   1      42.942  21.336  25.316  1.00  0.00     0.059 A 
ATOM     45  F   UNL A   1      43.753  23.350  24.437  1.00  0.00    -0.206 F 
ATOM     46  C   UNL A   1      42.603  20.564  26.425  1.00  0.00     0.060 A 
BRANCH  46  47
ATOM     47  S   UNL A   1      42.107  18.840  26.216  1.00  0.00     0.124 S 
ATOM     48  O   UNL A   1      42.280  18.320  27.570  1.00  0.00    -0.237 OA
ATOM     49  O   UNL A   1      40.727  18.965  25.758  1.00  0.00    -0.237 OA
ATOM     50  O   UNL A   1      43.051  18.332  25.225  1.00  0.00    -0.744 OA
ENDBRANCH  46  47
ENDBRANCH  25  39
BRANCH  26  51
ATOM     51  C   UNL A   1      46.555  32.799  27.890  1.00  0.00     0.058 A 
ATOM     52  C   UNL A   1      46.352  33.722  26.854  1.00  0.00     0.135 A 
ATOM     53  C   UNL A   1      47.211  33.260  29.046  1.00  0.00     0.135 A 
ATOM     54  F   UNL A   1      45.738  33.337  25.726  1.00  0.00    -0.206 F 
ATOM     55  C   UNL A   1      46.800  35.039  26.948  1.00  0.00     0.059 A 
ATOM     56  C   UNL A   1      47.639  34.577  29.176  1.00  0.00     0.059 A 
ATOM     57  F   UNL A   1      47.431  32.427  30.076  1.00  0.00    -0.206 F 
ATOM     58  C   UNL A   1      47.445  35.456  28.114  1.00  0.00     0.060 A 
BRANCH  58  59
ATOM     59  S   UNL A   1      48.018  37.164  28.232  1.00  0.00     0.124 S 
ATOM     60  O   UNL A   1      46.944  37.781  29.002  1.00  0.00    -0.237 OA
ATOM     61  O   UNL A   1      49.295  37.014  28.922  1.00  0.00    -0.237 OA
ATOM     62  O   UNL A   1      48.114  37.584  26.837  1.00  0.00    -0.744 OA
ENDBRANCH  58  59
ENDBRANCH  26  51
BRANCH  38  63
ATOM     63  C   UNL A   1      49.761  26.741  26.545  1.00  0.00     0.058 A 
ATOM     64  C   UNL A   1      50.609  26.305  27.574  1.00  0.00     0.135 A 
ATOM     65  C   UNL A   1      50.272  26.796  25.239  1.00  0.00     0.135 A 
ATOM     66  F   UNL A   1      50.163  26.244  28.839  1.00  0.00    -0.206 F 
ATOM     67  C   UNL A   1      51.927  25.953  27.318  1.00  0.00     0.059 A 
ATOM     68  C   UNL A   1      51.577  26.419  24.957  1.00  0.00     0.059 A 
ATOM     69  F   UNL A   1      49.489  27.194  24.223  1.00  0.00    -0.206 F 
ATOM     70  C   UNL A   1      52.400  26.009  26.005  1.00  0.00     0.060 A 
BRANCH  70  71
ATOM     71  S   UNL A   1      54.100  25.507  25.678  1.00  0.00     0.124 S 
ATOM     72  O   UNL A   1      53.902  24.232  24.995  1.00  0.00    -0.237 OA
ATOM     73  O   UNL A   1      54.595  26.601  24.848  1.00  0.00    -0.237 OA
ATOM     74  O   UNL A   1      54.692  25.421  27.009  1.00  0.00    -0.744 OA
ENDBRANCH  70  71
ENDBRANCH  38  63
ENDBRANCH  12  13
ENDBRANCH   5   7
ENDBRANCH   4   5
ENDBRANCH   3   4
ENDBRANCH   2   3
ENDBRANCH   1   2
BRANCH   1  75
ATOM     75  C   UNL A   1      34.349  29.371  26.517  1.00  0.00     0.202 C 
BRANCH  75  76
ATOM     76  C   UNL A   1      33.168  29.188  25.573  1.00  0.00     0.261 C 
BRANCH  76  77
ATOM     77  O   UNL A   1      32.413  28.003  25.881  1.00  0.00    -0.461 OA
BRANCH  77  78
ATOM     78  C   UNL A   1      32.655  26.913  25.094  1.00  0.00     0.332 C 
ATOM     79  O   UNL A   1      33.738  26.582  24.646  1.00  0.00    -0.249 OA
BRANCH  78  80
ATOM     80  C   UNL A   1      31.356  26.168  24.774  1.00  0.00     0.148 C 
ATOM     81  C   UNL A   1      31.482  25.403  23.429  1.00  0.00     0.052 C 
ATOM     82  C   UNL A   1      30.233  27.192  24.520  1.00  0.00     0.110 C 
ATOM     83  C   UNL A   1      31.507  26.394  22.280  1.00  0.00     0.072 C 
ATOM     84  S   UNL A   1      30.357  27.700  22.764  1.00  0.00    -0.159 SA
BRANCH  80  85
ATOM     85  N   UNL A   1      30.974  25.178  25.818  1.00  0.00    -0.333 N 
ATOM     86  C   UNL A   1      31.587  24.078  26.379  1.00  0.00     0.289 C 
ATOM     87  H   UNL A   1      30.080  25.347  26.193  1.00  0.00     0.165 HD
ATOM     88  O   UNL A   1      30.864  23.386  27.099  1.00  0.00    -0.266 OA
BRANCH  86  89
ATOM     89  C   UNL A   1      32.923  23.666  26.036  1.00  0.00     0.214 A 
ATOM     90  N   UNL A   1      33.381  23.227  24.879  1.00  0.00    -0.207 NA
ATOM     91  N   UNL A   1      33.961  23.708  26.919  1.00  0.00    -0.255 N 
ATOM     92  C   UNL A   1      34.674  22.840  25.173  1.00  0.00     0.154 A 
ATOM     93  N   UNL A   1      35.049  23.099  26.433  1.00  0.00    -0.158 NA
ATOM     94  H   UNL A   1      33.915  24.135  27.806  1.00  0.00     0.192 HD
BRANCH  92  95
ATOM     95  C   UNL A   1      35.581  22.037  24.245  1.00  0.00     0.060 C 
ATOM     96  C   UNL A   1      36.554  22.787  23.354  1.00  0.00     0.012 C 
ATOM     97  C   UNL A   1      37.072  21.957  24.477  1.00  0.00     0.012 C 
ENDBRANCH  92  95
ENDBRANCH  86  89
ENDBRANCH  80  85
ENDBRANCH  78  80
ENDBRANCH  77  78
ENDBRANCH  76  77
ENDBRANCH  75  76
ENDBRANCH   1  75
TORSDOF 20
ENDMDL
MODEL 3
REMARK VINA RESULT:      -9.6      6.834     13.903
REMARK SMILES O=C(OCCOCCOC(=O)[C@]1(NC(=O)c2nc(C3CC3)n[nH]2)CCSC1)c1ccc(-c2c3nc(c(-c4c(F)cc(S(=O)(=O)[O-])cc4F)c4ccc([nH]4)c(-c4c(F)cc(S(=O)(=O)[O-])cc4F)c4nc(c(-c5c(F)cc(S(=O)(=O)[O-])cc5F)c5ccc2[nH]5)C=C4)C=C3)cc1
REMARK SMILES IDX 6 1 5 2 4 3 3 4 2 5 1 6 28 7 29 8 93 9 30 10 92 11 31 12
REMARK SMILES IDX 32 13 33 14 86 15 34 16 91 17 85 18 87 19 35 20 90 21 84 22
REMARK SMILES IDX 83 23 36 25 70 26 49 27 69 28 50 29 53 30 68 31 88 32 51 33
REMARK SMILES IDX 52 34 67 36 89 37 54 38 37 39 38 40 47 41 39 42 40 43 46 44
REMARK SMILES IDX 48 45 41 46 42 47 43 48 44 49 45 50 71 51 72 52 81 53 73 54
REMARK SMILES IDX 74 55 80 56 82 57 75 58 76 59 77 60 78 61 79 62 55 63 56 64
REMARK SMILES IDX 65 65 57 66 58 67 64 68 66 69 59 70 60 71 61 72 62 73 63 74
REMARK SMILES IDX 7 75 8 76 9 77 10 78 11 79 12 80 24 81 27 82 25 83 26 84
REMARK SMILES IDX 13 85 14 86 15 88 16 89 17 90 23 91 18 92 22 93 19 95 20 96
REMARK SMILES IDX 21 97
REMARK H PARENT 87 24 53 35 13 87 23 94
REMARK Flexibility Score: inf
ROOT
ATOM      1  O   UNL A   1      47.317  40.822  25.376  1.00  0.00    -0.374 OA
ENDROOT
BRANCH   1   2
ATOM      2  C   UNL A   1      46.965  39.455  25.164  1.00  0.00     0.202 C 
BRANCH   2   3
ATOM      3  C   UNL A   1      47.774  38.486  26.025  1.00  0.00     0.261 C 
BRANCH   3   4
ATOM      4  O   UNL A   1      46.951  37.917  27.057  1.00  0.00    -0.460 OA
BRANCH   4   5
ATOM      5  C   UNL A   1      47.347  37.016  27.993  1.00  0.00     0.338 C 
ATOM      6  O   UNL A   1      47.849  37.437  29.035  1.00  0.00    -0.246 OA
BRANCH   5   7
ATOM      7  C   UNL A   1      47.158  35.537  27.850  1.00  0.00     0.060 A 
ATOM      8  C   UNL A   1      46.958  34.865  26.643  1.00  0.00     0.016 A 
ATOM      9  C   UNL A   1      47.228  34.765  29.023  1.00  0.00     0.016 A 
ATOM     10  C   UNL A   1      46.769  33.506  26.584  1.00  0.00     0.010 A 
ATOM     11  C   UNL A   1      47.033  33.380  28.982  1.00  0.00     0.010 A 
ATOM     12  C   UNL A   1      46.771  32.766  27.755  1.00  0.00    -0.014 A 
BRANCH  12  13
ATOM     13  C   UNL A   1      46.239  31.409  27.606  1.00  0.00     0.031 A 
ATOM     14  C   UNL A   1      47.234  30.324  27.330  1.00  0.00     0.074 A 
ATOM     15  C   UNL A   1      44.989  31.157  28.031  1.00  0.00     0.049 A 
ATOM     16  N   UNL A   1      47.046  29.042  27.210  1.00  0.00    -0.248 NA
ATOM     17  C   UNL A   1      48.647  30.738  27.216  1.00  0.00     0.031 C 
ATOM     18  C   UNL A   1      44.062  32.164  28.562  1.00  0.00     0.029 A 
ATOM     19  N   UNL A   1      44.313  29.980  28.162  1.00  0.00    -0.354 N 
ATOM     20  C   UNL A   1      48.301  28.504  26.960  1.00  0.00     0.074 A 
ATOM     21  C   UNL A   1      49.253  29.587  26.980  1.00  0.00     0.031 C 
ATOM     22  C   UNL A   1      42.949  31.550  28.992  1.00  0.00     0.029 A 
ATOM     23  C   UNL A   1      43.050  30.129  28.686  1.00  0.00     0.049 A 
ATOM     24  H   UNL A   1      44.691  29.107  27.907  1.00  0.00     0.167 HD
ATOM     25  C   UNL A   1      48.607  27.214  26.701  1.00  0.00     0.037 A 
ATOM     26  C   UNL A   1      42.084  29.209  28.848  1.00  0.00     0.037 A 
ATOM     27  C   UNL A   1      47.608  26.183  26.681  1.00  0.00     0.049 A 
ATOM     28  C   UNL A   1      42.406  27.803  28.414  1.00  0.00     0.074 A 
ATOM     29  C   UNL A   1      47.725  24.864  26.293  1.00  0.00     0.029 A 
ATOM     30  N   UNL A   1      46.287  26.377  27.072  1.00  0.00    -0.354 N 
ATOM     31  N   UNL A   1      43.559  27.311  28.012  1.00  0.00    -0.248 NA
ATOM     32  C   UNL A   1      41.305  26.838  28.413  1.00  0.00     0.031 C 
ATOM     33  C   UNL A   1      46.459  24.275  26.401  1.00  0.00     0.029 A 
ATOM     34  C   UNL A   1      45.568  25.209  26.915  1.00  0.00     0.049 A 
ATOM     35  H   UNL A   1      45.918  27.224  27.412  1.00  0.00     0.167 HD
ATOM     36  C   UNL A   1      43.322  25.975  27.717  1.00  0.00     0.074 A 
ATOM     37  C   UNL A   1      41.922  25.734  28.013  1.00  0.00     0.031 C 
ATOM     38  C   UNL A   1      44.172  25.033  27.236  1.00  0.00     0.037 A 
BRANCH  25  39
ATOM     39  C   UNL A   1      50.020  26.921  26.287  1.00  0.00     0.058 A 
ATOM     40  C   UNL A   1      50.450  26.991  24.953  1.00  0.00     0.135 A 
ATOM     41  C   UNL A   1      50.942  26.473  27.248  1.00  0.00     0.135 A 
ATOM     42  F   UNL A   1      49.598  27.368  23.986  1.00  0.00    -0.206 F 
ATOM     43  C   UNL A   1      51.735  26.599  24.581  1.00  0.00     0.059 A 
ATOM     44  C   UNL A   1      52.237  26.097  26.903  1.00  0.00     0.059 A 
ATOM     45  F   UNL A   1      50.576  26.361  28.534  1.00  0.00    -0.206 F 
ATOM     46  C   UNL A   1      52.618  26.146  25.564  1.00  0.00     0.060 A 
BRANCH  46  47
ATOM     47  S   UNL A   1      54.266  25.600  25.067  1.00  0.00     0.124 S 
ATOM     48  O   UNL A   1      54.088  24.153  25.002  1.00  0.00    -0.237 OA
ATOM     49  O   UNL A   1      54.446  26.274  23.786  1.00  0.00    -0.237 OA
ATOM     50  O   UNL A   1      55.123  26.078  26.149  1.00  0.00    -0.744 OA
ENDBRANCH  46  47
ENDBRANCH  25  39
BRANCH  26  51
ATOM     51  C   UNL A   1      40.733  29.596  29.340  1.00  0.00     0.058 A 
ATOM     52  C   UNL A   1      39.645  29.741  28.467  1.00  0.00     0.135 A 
ATOM     53  C   UNL A   1      40.503  29.846  30.706  1.00  0.00     0.135 A 
ATOM     54  F   UNL A   1      39.807  29.523  27.154  1.00  0.00    -0.206 F 
ATOM     55  C   UNL A   1      38.389  30.139  28.923  1.00  0.00     0.059 A 
ATOM     56  C   UNL A   1      39.251  30.212  31.188  1.00  0.00     0.059 A 
ATOM     57  F   UNL A   1      41.502  29.719  31.593  1.00  0.00    -0.206 F 
ATOM     58  C   UNL A   1      38.203  30.374  30.286  1.00  0.00     0.060 A 
BRANCH  58  59
ATOM     59  S   UNL A   1      36.572  30.884  30.871  1.00  0.00     0.124 S 
ATOM     60  O   UNL A   1      36.846  32.228  31.366  1.00  0.00    -0.237 OA
ATOM     61  O   UNL A   1      35.770  30.802  29.655  1.00  0.00    -0.237 OA
ATOM     62  O   UNL A   1      36.255  29.889  31.891  1.00  0.00    -0.744 OA
ENDBRANCH  58  59
ENDBRANCH  26  51
BRANCH  38  63
ATOM     63  C   UNL A   1      43.607  23.659  27.038  1.00  0.00     0.058 A 
ATOM     64  C   UNL A   1      43.334  22.815  28.124  1.00  0.00     0.135 A 
ATOM     65  C   UNL A   1      43.274  23.216  25.749  1.00  0.00     0.135 A 
ATOM     66  F   UNL A   1      43.643  23.196  29.374  1.00  0.00    -0.206 F 
ATOM     67  C   UNL A   1      42.768  21.561  27.935  1.00  0.00     0.059 A 
ATOM     68  C   UNL A   1      42.679  21.980  25.541  1.00  0.00     0.059 A 
ATOM     69  F   UNL A   1      43.505  24.000  24.683  1.00  0.00    -0.206 F 
ATOM     70  C   UNL A   1      42.440  21.155  26.639  1.00  0.00     0.060 A 
BRANCH  70  71
ATOM     71  S   UNL A   1      41.664  19.545  26.410  1.00  0.00     0.124 S 
ATOM     72  O   UNL A   1      42.037  18.861  27.644  1.00  0.00    -0.237 OA
ATOM     73  O   UNL A   1      40.252  19.895  26.280  1.00  0.00    -0.237 OA
ATOM     74  O   UNL A   1      42.290  19.035  25.194  1.00  0.00    -0.744 OA
ENDBRANCH  70  71
ENDBRANCH  38  63
ENDBRANCH  12  13
ENDBRANCH   5   7
ENDBRANCH   4   5
ENDBRANCH   3   4
ENDBRANCH   2   3
ENDBRANCH   1   2
BRANCH   1  75
ATOM     75  C   UNL A   1      46.464  41.805  24.807  1.00  0.00     0.202 C 
BRANCH  75  76
ATOM     76  C   UNL A   1      46.888  42.081  23.371  1.00  0.00     0.261 C 
BRANCH  76  77
ATOM     77  O   UNL A   1      46.015  43.026  22.727  1.00  0.00    -0.461 OA
BRANCH  77  78
ATOM     78  C   UNL A   1      45.418  42.604  21.573  1.00  0.00     0.332 C 
ATOM     79  O   UNL A   1      45.441  41.470  21.129  1.00  0.00    -0.249 OA
BRANCH  78  80
ATOM     80  C   UNL A   1      44.750  43.773  20.841  1.00  0.00     0.148 C 
ATOM     81  C   UNL A   1      45.217  43.830  19.361  1.00  0.00     0.052 C 
ATOM     82  C   UNL A   1      45.250  45.101  21.443  1.00  0.00     0.110 C 
ATOM     83  C   UNL A   1      46.666  44.275  19.301  1.00  0.00     0.072 C 
ATOM     84  S   UNL A   1      46.833  45.504  20.614  1.00  0.00    -0.159 SA
BRANCH  80  85
ATOM     85  N   UNL A   1      43.264  43.693  20.839  1.00  0.00    -0.333 N 
ATOM     86  C   UNL A   1      42.315  43.292  21.754  1.00  0.00     0.289 C 
ATOM     87  H   UNL A   1      42.868  43.995  19.989  1.00  0.00     0.165 HD
ATOM     88  O   UNL A   1      41.169  43.192  21.312  1.00  0.00    -0.266 OA
BRANCH  86  89
ATOM     89  C   UNL A   1      42.646  42.865  23.089  1.00  0.00     0.214 A 
ATOM     90  N   UNL A   1      42.435  41.694  23.658  1.00  0.00    -0.207 NA
ATOM     91  N   UNL A   1      43.289  43.666  23.985  1.00  0.00    -0.255 N 
ATOM     92  C   UNL A   1      42.809  41.904  24.971  1.00  0.00     0.154 A 
ATOM     93  N   UNL A   1      43.312  43.122  25.208  1.00  0.00    -0.158 NA
ATOM     94  H   UNL A   1      43.688  44.538  23.760  1.00  0.00     0.192 HD
BRANCH  92  95
ATOM     95  C   UNL A   1      42.542  40.939  26.124  1.00  0.00     0.060 C 
ATOM     96  C   UNL A   1      43.441  39.727  26.279  1.00  0.00     0.012 C 
ATOM     97  C   UNL A   1      43.497  40.821  27.288  1.00  0.00     0.012 C 
ENDBRANCH  92  95
ENDBRANCH  86  89
ENDBRANCH  80  85
ENDBRANCH  78  80
ENDBRANCH  77  78
ENDBRANCH  76  77
ENDBRANCH  75  76
ENDBRANCH   1  75
TORSDOF 20
ENDMDL
