MODEL 1
REMARK VINA RESULT:     -11.9      0.000      0.000
REMARK SMILES O=C(OCCOCCOC(=O)c1nccnc1C(=O)Nc1ccc(-n2cncn2)c(Cl)c1)c1ccc(-c2c3nc(c(-c4c(F)cc(S(=O)(=O)[O-])cc4F)c4ccc([nH]4)c(-c4c(F)cc(S(=O)(=O)[O-])cc4F)c4nc(c(-c5c(F)cc(S(=O)(=O)[O-])cc5F)c5ccc2[nH]5)C=C4)C=C3)cc1
REMARK SMILES IDX 6 1 5 2 4 3 3 4 2 5 1 6 33 7 34 8 98 9 35 10 97 11 36 12
REMARK SMILES IDX 37 13 38 14 91 15 39 16 96 17 90 18 92 19 40 20 95 21 89 22
REMARK SMILES IDX 88 23 41 25 75 26 54 27 74 28 55 29 58 30 73 31 93 32 56 33
REMARK SMILES IDX 57 34 72 36 94 37 59 38 42 39 43 40 52 41 44 42 45 43 51 44
REMARK SMILES IDX 53 45 46 46 47 47 48 48 49 49 50 50 76 51 77 52 86 53 78 54
REMARK SMILES IDX 79 55 85 56 87 57 80 58 81 59 82 60 83 61 84 62 60 63 61 64
REMARK SMILES IDX 70 65 62 66 63 67 69 68 71 69 64 70 65 71 66 72 67 73 68 74
REMARK SMILES IDX 7 75 8 76 9 77 10 78 11 79 12 80 13 81 17 82 14 83 16 84
REMARK SMILES IDX 15 85 18 86 19 87 20 88 21 90 22 91 32 92 23 93 30 94 24 95
REMARK SMILES IDX 31 96 25 97 26 98 29 99 27 100 28 101
REMARK H PARENT 92 24 58 35 20 89
REMARK Flexibility Score: inf
ROOT
ATOM      1  O   UNL A   1      39.091  21.452  25.599  1.00  0.00    -0.374 OA
ENDROOT
BRANCH   1   2
ATOM      2  C   UNL A   1      39.927  21.429  26.742  1.00  0.00     0.202 C 
BRANCH   2   3
ATOM      3  C   UNL A   1      40.913  20.256  26.803  1.00  0.00     0.261 C 
BRANCH   3   4
ATOM      4  O   UNL A   1      41.740  20.150  25.638  1.00  0.00    -0.460 OA
BRANCH   4   5
ATOM      5  C   UNL A   1      42.999  20.629  25.492  1.00  0.00     0.338 C 
ATOM      6  O   UNL A   1      43.837  19.907  24.950  1.00  0.00    -0.246 OA
BRANCH   5   7
ATOM      7  C   UNL A   1      43.409  22.008  25.878  1.00  0.00     0.060 A 
ATOM      8  C   UNL A   1      44.328  22.344  26.877  1.00  0.00     0.016 A 
ATOM      9  C   UNL A   1      42.724  23.037  25.213  1.00  0.00     0.016 A 
ATOM     10  C   UNL A   1      44.362  23.610  27.395  1.00  0.00     0.010 A 
ATOM     11  C   UNL A   1      42.774  24.324  25.701  1.00  0.00     0.010 A 
ATOM     12  C   UNL A   1      43.505  24.553  26.858  1.00  0.00    -0.014 A 
BRANCH  12  13
ATOM     13  C   UNL A   1      43.432  25.808  27.561  1.00  0.00     0.031 A 
ATOM     14  C   UNL A   1      44.599  26.682  27.305  1.00  0.00     0.074 A 
ATOM     15  C   UNL A   1      42.350  26.068  28.316  1.00  0.00     0.049 A 
ATOM     16  N   UNL A   1      45.481  27.105  28.147  1.00  0.00    -0.248 NA
ATOM     17  C   UNL A   1      44.944  26.941  25.896  1.00  0.00     0.031 C 
ATOM     18  C   UNL A   1      41.113  25.282  28.394  1.00  0.00     0.029 A 
ATOM     19  N   UNL A   1      42.062  27.156  29.069  1.00  0.00    -0.354 N 
ATOM     20  C   UNL A   1      46.321  27.927  27.402  1.00  0.00     0.074 A 
ATOM     21  C   UNL A   1      46.098  27.594  26.022  1.00  0.00     0.031 C 
ATOM     22  C   UNL A   1      40.136  26.050  28.919  1.00  0.00     0.029 A 
ATOM     23  C   UNL A   1      40.705  27.326  29.312  1.00  0.00     0.049 A 
ATOM     24  H   UNL A   1      42.750  27.770  29.413  1.00  0.00     0.167 HD
ATOM     25  C   UNL A   1      46.849  29.050  27.960  1.00  0.00     0.037 A 
ATOM     26  C   UNL A   1      40.107  28.489  29.672  1.00  0.00     0.037 A 
ATOM     27  C   UNL A   1      46.926  28.924  29.396  1.00  0.00     0.049 A 
ATOM     28  C   UNL A   1      41.180  29.378  30.205  1.00  0.00     0.074 A 
ATOM     29  C   UNL A   1      47.491  27.994  30.251  1.00  0.00     0.029 A 
ATOM     30  N   UNL A   1      46.030  29.633  30.159  1.00  0.00    -0.354 N 
ATOM     31  N   UNL A   1      41.838  29.141  31.309  1.00  0.00    -0.248 NA
ATOM     32  C   UNL A   1      41.853  30.266  29.266  1.00  0.00     0.031 C 
ATOM     33  C   UNL A   1      46.571  27.875  31.333  1.00  0.00     0.029 A 
ATOM     34  C   UNL A   1      45.538  28.788  31.120  1.00  0.00     0.049 A 
ATOM     35  H   UNL A   1      45.783  30.580  30.038  1.00  0.00     0.167 HD
ATOM     36  C   UNL A   1      43.153  29.486  31.026  1.00  0.00     0.074 A 
ATOM     37  C   UNL A   1      43.086  30.251  29.783  1.00  0.00     0.031 C 
ATOM     38  C   UNL A   1      44.198  28.875  31.660  1.00  0.00     0.037 A 
BRANCH  25  39
ATOM     39  C   UNL A   1      46.847  30.387  27.246  1.00  0.00     0.058 A 
ATOM     40  C   UNL A   1      48.022  31.165  27.258  1.00  0.00     0.135 A 
ATOM     41  C   UNL A   1      45.681  31.065  26.815  1.00  0.00     0.135 A 
ATOM     42  F   UNL A   1      49.191  30.628  27.643  1.00  0.00    -0.206 F 
ATOM     43  C   UNL A   1      48.017  32.529  26.966  1.00  0.00     0.059 A 
ATOM     44  C   UNL A   1      45.665  32.408  26.470  1.00  0.00     0.059 A 
ATOM     45  F   UNL A   1      44.470  30.499  26.793  1.00  0.00    -0.206 F 
ATOM     46  C   UNL A   1      46.827  33.144  26.593  1.00  0.00     0.060 A 
BRANCH  46  47
ATOM     47  S   UNL A   1      46.786  34.922  26.325  1.00  0.00     0.124 S 
ATOM     48  O   UNL A   1      46.669  34.990  24.873  1.00  0.00    -0.237 OA
ATOM     49  O   UNL A   1      45.603  35.311  27.085  1.00  0.00    -0.237 OA
ATOM     50  O   UNL A   1      48.058  35.374  26.881  1.00  0.00    -0.744 OA
ENDBRANCH  46  47
ENDBRANCH  25  39
BRANCH  26  51
ATOM     51  C   UNL A   1      38.782  28.992  29.217  1.00  0.00     0.058 A 
ATOM     52  C   UNL A   1      37.743  29.220  30.137  1.00  0.00     0.135 A 
ATOM     53  C   UNL A   1      38.575  29.502  27.917  1.00  0.00     0.135 A 
ATOM     54  F   UNL A   1      37.859  28.792  31.404  1.00  0.00    -0.206 F 
ATOM     55  C   UNL A   1      36.594  29.946  29.802  1.00  0.00     0.059 A 
ATOM     56  C   UNL A   1      37.431  30.209  27.554  1.00  0.00     0.059 A 
ATOM     57  F   UNL A   1      39.519  29.411  26.970  1.00  0.00    -0.206 F 
ATOM     58  C   UNL A   1      36.454  30.452  28.510  1.00  0.00     0.060 A 
BRANCH  58  59
ATOM     59  S   UNL A   1      35.060  31.533  28.116  1.00  0.00     0.124 S 
ATOM     60  O   UNL A   1      34.228  30.663  27.292  1.00  0.00    -0.237 OA
ATOM     61  O   UNL A   1      34.534  31.853  29.438  1.00  0.00    -0.237 OA
ATOM     62  O   UNL A   1      35.684  32.650  27.410  1.00  0.00    -0.744 OA
ENDBRANCH  58  59
ENDBRANCH  26  51
BRANCH  38  63
ATOM     63  C   UNL A   1      43.907  28.048  32.886  1.00  0.00     0.058 A 
ATOM     64  C   UNL A   1      43.732  26.653  32.887  1.00  0.00     0.135 A 
ATOM     65  C   UNL A   1      43.950  28.688  34.134  1.00  0.00     0.135 A 
ATOM     66  F   UNL A   1      43.798  25.949  31.748  1.00  0.00    -0.206 F 
ATOM     67  C   UNL A   1      43.549  25.935  34.072  1.00  0.00     0.059 A 
ATOM     68  C   UNL A   1      43.805  27.988  35.328  1.00  0.00     0.059 A 
ATOM     69  F   UNL A   1      44.184  30.008  34.207  1.00  0.00    -0.206 F 
ATOM     70  C   UNL A   1      43.585  26.614  35.289  1.00  0.00     0.060 A 
BRANCH  70  71
ATOM     71  S   UNL A   1      43.405  25.682  36.825  1.00  0.00     0.124 S 
ATOM     72  O   UNL A   1      42.211  24.887  36.563  1.00  0.00    -0.237 OA
ATOM     73  O   UNL A   1      44.660  24.938  36.895  1.00  0.00    -0.237 OA
ATOM     74  O   UNL A   1      43.252  26.722  37.840  1.00  0.00    -0.744 OA
ENDBRANCH  70  71
ENDBRANCH  38  63
ENDBRANCH  12  13
ENDBRANCH   5   7
ENDBRANCH   4   5
ENDBRANCH   3   4
ENDBRANCH   2   3
ENDBRANCH   1   2
BRANCH   1  75
ATOM     75  C   UNL A   1      37.776  22.010  25.657  1.00  0.00     0.202 C 
BRANCH  75  76
ATOM     76  C   UNL A   1      37.507  23.522  25.586  1.00  0.00     0.261 C 
BRANCH  76  77
ATOM     77  O   UNL A   1      36.103  23.830  25.589  1.00  0.00    -0.458 OA
BRANCH  77  78
ATOM     78  C   UNL A   1      35.534  24.059  24.407  1.00  0.00     0.359 C 
ATOM     79  O   UNL A   1      35.940  23.635  23.315  1.00  0.00    -0.244 OA
BRANCH  78  80
ATOM     80  C   UNL A   1      34.339  24.924  24.520  1.00  0.00     0.179 A 
ATOM     81  N   UNL A   1      34.280  25.524  25.760  1.00  0.00    -0.245 NA
ATOM     82  C   UNL A   1      33.387  25.198  23.540  1.00  0.00     0.161 A 
ATOM     83  C   UNL A   1      33.229  26.324  26.014  1.00  0.00     0.132 A 
ATOM     84  N   UNL A   1      32.344  26.054  23.825  1.00  0.00    -0.247 NA
ATOM     85  C   UNL A   1      32.272  26.580  25.063  1.00  0.00     0.132 A 
BRANCH  82  86
ATOM     86  C   UNL A   1      33.166  24.597  22.192  1.00  0.00     0.276 C 
ATOM     87  O   UNL A   1      33.213  25.385  21.234  1.00  0.00    -0.267 OA
ATOM     88  N   UNL A   1      32.936  23.288  21.828  1.00  0.00    -0.321 N 
ATOM     89  H   UNL A   1      33.073  23.141  20.864  1.00  0.00     0.170 HD
BRANCH  88  90
ATOM     90  C   UNL A   1      32.557  22.117  22.489  1.00  0.00     0.043 A 
ATOM     91  C   UNL A   1      31.963  21.033  21.868  1.00  0.00     0.028 A 
ATOM     92  C   UNL A   1      32.942  22.011  23.838  1.00  0.00     0.049 A 
ATOM     93  C   UNL A   1      31.984  19.785  22.489  1.00  0.00     0.032 A 
ATOM     94  C   UNL A   1      32.945  20.769  24.483  1.00  0.00     0.068 A 
ATOM     95  C   UNL A   1      32.531  19.644  23.773  1.00  0.00     0.085 A 
ATOM     96  Cl  UNL A   1      33.456  20.702  26.129  1.00  0.00    -0.082 Cl
BRANCH  95  97
ATOM     97  N   UNL A   1      32.825  18.337  24.206  1.00  0.00    -0.220 N 
ATOM     98  C   UNL A   1      34.006  17.662  24.029  1.00  0.00     0.226 A 
ATOM     99  N   UNL A   1      32.147  17.788  25.243  1.00  0.00    -0.155 NA
ATOM    100  N   UNL A   1      34.148  16.731  24.941  1.00  0.00    -0.223 NA
ATOM    101  C   UNL A   1      33.009  16.865  25.679  1.00  0.00     0.246 A 
ENDBRANCH  95  97
ENDBRANCH  88  90
ENDBRANCH  82  86
ENDBRANCH  78  80
ENDBRANCH  77  78
ENDBRANCH  76  77
ENDBRANCH  75  76
ENDBRANCH   1  75
TORSDOF 20
ENDMDL
MODEL 2
REMARK VINA RESULT:     -11.8      2.209      4.269
REMARK SMILES O=C(OCCOCCOC(=O)c1nccnc1C(=O)Nc1ccc(-n2cncn2)c(Cl)c1)c1ccc(-c2c3nc(c(-c4c(F)cc(S(=O)(=O)[O-])cc4F)c4ccc([nH]4)c(-c4c(F)cc(S(=O)(=O)[O-])cc4F)c4nc(c(-c5c(F)cc(S(=O)(=O)[O-])cc5F)c5ccc2[nH]5)C=C4)C=C3)cc1
REMARK SMILES IDX 6 1 5 2 4 3 3 4 2 5 1 6 33 7 34 8 98 9 35 10 97 11 36 12
REMARK SMILES IDX 37 13 38 14 91 15 39 16 96 17 90 18 92 19 40 20 95 21 89 22
REMARK SMILES IDX 88 23 41 25 75 26 54 27 74 28 55 29 58 30 73 31 93 32 56 33
REMARK SMILES IDX 57 34 72 36 94 37 59 38 42 39 43 40 52 41 44 42 45 43 51 44
REMARK SMILES IDX 53 45 46 46 47 47 48 48 49 49 50 50 76 51 77 52 86 53 78 54
REMARK SMILES IDX 79 55 85 56 87 57 80 58 81 59 82 60 83 61 84 62 60 63 61 64
REMARK SMILES IDX 70 65 62 66 63 67 69 68 71 69 64 70 65 71 66 72 67 73 68 74
REMARK SMILES IDX 7 75 8 76 9 77 10 78 11 79 12 80 13 81 17 82 14 83 16 84
REMARK SMILES IDX 15 85 18 86 19 87 20 88 21 90 22 91 32 92 23 93 30 94 24 95
REMARK SMILES IDX 31 96 25 97 26 98 29 99 27 100 28 101
REMARK H PARENT 92 24 58 35 20 89
REMARK Flexibility Score: inf
ROOT
ATOM      1  O   UNL A   1      38.899  21.866  25.708  1.00  0.00    -0.374 OA
ENDROOT
BRANCH   1   2
ATOM      2  C   UNL A   1      39.721  22.403  26.730  1.00  0.00     0.202 C 
BRANCH   2   3
ATOM      3  C   UNL A   1      41.039  21.655  26.965  1.00  0.00     0.261 C 
BRANCH   3   4
ATOM      4  O   UNL A   1      41.838  21.531  25.782  1.00  0.00    -0.460 OA
BRANCH   4   5
ATOM      5  C   UNL A   1      42.958  22.234  25.484  1.00  0.00     0.338 C 
ATOM      6  O   UNL A   1      43.703  21.796  24.607  1.00  0.00    -0.246 OA
BRANCH   5   7
ATOM      7  C   UNL A   1      43.299  23.547  26.100  1.00  0.00     0.060 A 
ATOM      8  C   UNL A   1      44.076  23.741  27.246  1.00  0.00     0.016 A 
ATOM      9  C   UNL A   1      42.695  24.660  25.494  1.00  0.00     0.016 A 
ATOM     10  C   UNL A   1      44.027  24.926  27.928  1.00  0.00     0.010 A 
ATOM     11  C   UNL A   1      42.666  25.870  26.150  1.00  0.00     0.010 A 
ATOM     12  C   UNL A   1      43.238  25.938  27.414  1.00  0.00    -0.014 A 
BRANCH  12  13
ATOM     13  C   UNL A   1      43.060  27.089  28.261  1.00  0.00     0.031 A 
ATOM     14  C   UNL A   1      44.206  28.024  28.213  1.00  0.00     0.074 A 
ATOM     15  C   UNL A   1      41.914  27.216  28.953  1.00  0.00     0.049 A 
ATOM     16  N   UNL A   1      45.003  28.362  29.171  1.00  0.00    -0.248 NA
ATOM     17  C   UNL A   1      44.648  28.474  26.882  1.00  0.00     0.031 C 
ATOM     18  C   UNL A   1      40.707  26.389  28.830  1.00  0.00     0.029 A 
ATOM     19  N   UNL A   1      41.524  28.188  29.812  1.00  0.00    -0.354 N 
ATOM     20  C   UNL A   1      45.863  29.298  28.607  1.00  0.00     0.074 A 
ATOM     21  C   UNL A   1      45.761  29.140  27.183  1.00  0.00     0.031 C 
ATOM     22  C   UNL A   1      39.662  27.052  29.366  1.00  0.00     0.029 A 
ATOM     23  C   UNL A   1      40.147  28.283  29.963  1.00  0.00     0.049 A 
ATOM     24  H   UNL A   1      42.159  28.773  30.285  1.00  0.00     0.167 HD
ATOM     25  C   UNL A   1      46.301  30.355  29.344  1.00  0.00     0.037 A 
ATOM     26  C   UNL A   1      39.476  29.371  30.418  1.00  0.00     0.037 A 
ATOM     27  C   UNL A   1      46.272  30.047  30.754  1.00  0.00     0.049 A 
ATOM     28  C   UNL A   1      40.469  30.216  31.144  1.00  0.00     0.074 A 
ATOM     29  C   UNL A   1      46.809  29.032  31.527  1.00  0.00     0.029 A 
ATOM     30  N   UNL A   1      45.292  30.624  31.525  1.00  0.00    -0.354 N 
ATOM     31  N   UNL A   1      41.049  29.858  32.259  1.00  0.00    -0.248 NA
ATOM     32  C   UNL A   1      41.174  31.238  30.382  1.00  0.00     0.031 C 
ATOM     33  C   UNL A   1      45.814  28.745  32.507  1.00  0.00     0.029 A 
ATOM     34  C   UNL A   1      44.763  29.646  32.328  1.00  0.00     0.049 A 
ATOM     35  H   UNL A   1      45.017  31.570  31.505  1.00  0.00     0.167 HD
ATOM     36  C   UNL A   1      42.367  30.278  32.130  1.00  0.00     0.074 A 
ATOM     37  C   UNL A   1      42.363  31.194  30.992  1.00  0.00     0.031 C 
ATOM     38  C   UNL A   1      43.384  29.622  32.764  1.00  0.00     0.037 A 
BRANCH  25  39
ATOM     39  C   UNL A   1      46.299  31.773  28.806  1.00  0.00     0.058 A 
ATOM     40  C   UNL A   1      45.103  32.298  28.279  1.00  0.00     0.135 A 
ATOM     41  C   UNL A   1      47.466  32.521  28.513  1.00  0.00     0.135 A 
ATOM     42  F   UNL A   1      43.932  31.677  28.495  1.00  0.00    -0.206 F 
ATOM     43  C   UNL A   1      45.083  33.415  27.444  1.00  0.00     0.059 A 
ATOM     44  C   UNL A   1      47.460  33.664  27.729  1.00  0.00     0.059 A 
ATOM     45  F   UNL A   1      48.693  32.142  28.886  1.00  0.00    -0.206 F 
ATOM     46  C   UNL A   1      46.271  34.078  27.159  1.00  0.00     0.060 A 
BRANCH  46  47
ATOM     47  S   UNL A   1      46.274  35.449  25.995  1.00  0.00     0.124 S 
ATOM     48  O   UNL A   1      46.660  34.775  24.760  1.00  0.00    -0.237 OA
ATOM     49  O   UNL A   1      44.891  35.908  26.072  1.00  0.00    -0.237 OA
ATOM     50  O   UNL A   1      47.264  36.363  26.556  1.00  0.00    -0.744 OA
ENDBRANCH  46  47
ENDBRANCH  25  39
BRANCH  26  51
ATOM     51  C   UNL A   1      38.170  29.887  29.924  1.00  0.00     0.058 A 
ATOM     52  C   UNL A   1      37.208  30.387  30.819  1.00  0.00     0.135 A 
ATOM     53  C   UNL A   1      37.929  30.142  28.556  1.00  0.00     0.135 A 
ATOM     54  F   UNL A   1      37.363  30.213  32.141  1.00  0.00    -0.206 F 
ATOM     55  C   UNL A   1      36.101  31.130  30.389  1.00  0.00     0.059 A 
ATOM     56  C   UNL A   1      36.825  30.860  28.103  1.00  0.00     0.059 A 
ATOM     57  F   UNL A   1      38.806  29.780  27.610  1.00  0.00    -0.206 F 
ATOM     58  C   UNL A   1      35.927  31.376  29.028  1.00  0.00     0.060 A 
BRANCH  58  59
ATOM     59  S   UNL A   1      34.602  32.474  28.478  1.00  0.00     0.124 S 
ATOM     60  O   UNL A   1      34.105  33.005  29.744  1.00  0.00    -0.237 OA
ATOM     61  O   UNL A   1      35.316  33.419  27.627  1.00  0.00    -0.237 OA
ATOM     62  O   UNL A   1      33.685  31.578  27.777  1.00  0.00    -0.744 OA
ENDBRANCH  58  59
ENDBRANCH  26  51
BRANCH  38  63
ATOM     63  C   UNL A   1      43.034  28.635  33.848  1.00  0.00     0.058 A 
ATOM     64  C   UNL A   1      42.692  28.984  35.167  1.00  0.00     0.135 A 
ATOM     65  C   UNL A   1      42.903  27.285  33.489  1.00  0.00     0.135 A 
ATOM     66  F   UNL A   1      42.674  30.265  35.559  1.00  0.00    -0.206 F 
ATOM     67  C   UNL A   1      42.294  28.024  36.102  1.00  0.00     0.059 A 
ATOM     68  C   UNL A   1      42.475  26.318  34.394  1.00  0.00     0.059 A 
ATOM     69  F   UNL A   1      43.146  26.897  32.227  1.00  0.00    -0.206 F 
ATOM     70  C   UNL A   1      42.191  26.691  35.704  1.00  0.00     0.060 A 
BRANCH  70  71
ATOM     71  S   UNL A   1      41.623  25.458  36.895  1.00  0.00     0.124 S 
ATOM     72  O   UNL A   1      41.376  24.300  36.043  1.00  0.00    -0.237 OA
ATOM     73  O   UNL A   1      42.761  25.346  37.803  1.00  0.00    -0.237 OA
ATOM     74  O   UNL A   1      40.431  26.069  37.479  1.00  0.00    -0.744 OA
ENDBRANCH  70  71
ENDBRANCH  38  63
ENDBRANCH  12  13
ENDBRANCH   5   7
ENDBRANCH   4   5
ENDBRANCH   3   4
ENDBRANCH   2   3
ENDBRANCH   1   2
BRANCH   1  75
ATOM     75  C   UNL A   1      37.515  22.210  25.618  1.00  0.00     0.202 C 
BRANCH  75  76
ATOM     76  C   UNL A   1      36.999  23.648  25.791  1.00  0.00     0.261 C 
BRANCH  76  77
ATOM     77  O   UNL A   1      35.640  23.692  26.257  1.00  0.00    -0.458 OA
BRANCH  77  78
ATOM     78  C   UNL A   1      34.710  24.042  25.372  1.00  0.00     0.359 C 
ATOM     79  O   UNL A   1      34.633  25.138  24.799  1.00  0.00    -0.244 OA
BRANCH  78  80
ATOM     80  C   UNL A   1      33.720  22.966  25.147  1.00  0.00     0.179 A 
ATOM     81  N   UNL A   1      34.201  22.031  24.255  1.00  0.00    -0.245 NA
ATOM     82  C   UNL A   1      32.476  22.809  25.756  1.00  0.00     0.161 A 
ATOM     83  C   UNL A   1      33.394  21.003  23.937  1.00  0.00     0.132 A 
ATOM     84  N   UNL A   1      31.693  21.721  25.433  1.00  0.00    -0.247 NA
ATOM     85  C   UNL A   1      32.156  20.853  24.512  1.00  0.00     0.132 A 
BRANCH  82  86
ATOM     86  C   UNL A   1      31.696  23.721  26.642  1.00  0.00     0.276 C 
ATOM     87  O   UNL A   1      31.385  23.261  27.753  1.00  0.00    -0.267 OA
ATOM     88  N   UNL A   1      31.275  25.017  26.436  1.00  0.00    -0.321 N 
ATOM     89  H   UNL A   1      31.000  25.455  27.274  1.00  0.00     0.170 HD
BRANCH  88  90
ATOM     90  C   UNL A   1      31.143  25.863  25.333  1.00  0.00     0.043 A 
ATOM     91  C   UNL A   1      30.678  25.458  24.095  1.00  0.00     0.028 A 
ATOM     92  C   UNL A   1      31.372  27.232  25.567  1.00  0.00     0.049 A 
ATOM     93  C   UNL A   1      30.204  26.408  23.191  1.00  0.00     0.032 A 
ATOM     94  C   UNL A   1      30.924  28.196  24.657  1.00  0.00     0.068 A 
ATOM     95  C   UNL A   1      30.272  27.774  23.500  1.00  0.00     0.085 A 
ATOM     96  Cl  UNL A   1      31.211  29.858  25.018  1.00  0.00    -0.082 Cl
BRANCH  95  97
ATOM     97  N   UNL A   1      29.493  28.649  22.720  1.00  0.00    -0.220 N 
ATOM     98  C   UNL A   1      28.318  29.252  23.093  1.00  0.00     0.226 A 
ATOM     99  N   UNL A   1      30.056  29.353  21.708  1.00  0.00    -0.155 NA
ATOM    100  N   UNL A   1      28.120  30.347  22.400  1.00  0.00    -0.223 NA
ATOM    101  C   UNL A   1      29.219  30.388  21.592  1.00  0.00     0.246 A 
ENDBRANCH  95  97
ENDBRANCH  88  90
ENDBRANCH  82  86
ENDBRANCH  78  80
ENDBRANCH  77  78
ENDBRANCH  76  77
ENDBRANCH  75  76
ENDBRANCH   1  75
TORSDOF 20
ENDMDL
MODEL 3
REMARK VINA RESULT:     -11.7      2.947      4.690
REMARK SMILES O=C(OCCOCCOC(=O)c1nccnc1C(=O)Nc1ccc(-n2cncn2)c(Cl)c1)c1ccc(-c2c3nc(c(-c4c(F)cc(S(=O)(=O)[O-])cc4F)c4ccc([nH]4)c(-c4c(F)cc(S(=O)(=O)[O-])cc4F)c4nc(c(-c5c(F)cc(S(=O)(=O)[O-])cc5F)c5ccc2[nH]5)C=C4)C=C3)cc1
REMARK SMILES IDX 6 1 5 2 4 3 3 4 2 5 1 6 33 7 34 8 98 9 35 10 97 11 36 12
REMARK SMILES IDX 37 13 38 14 91 15 39 16 96 17 90 18 92 19 40 20 95 21 89 22
REMARK SMILES IDX 88 23 41 25 75 26 54 27 74 28 55 29 58 30 73 31 93 32 56 33
REMARK SMILES IDX 57 34 72 36 94 37 59 38 42 39 43 40 52 41 44 42 45 43 51 44
REMARK SMILES IDX 53 45 46 46 47 47 48 48 49 49 50 50 76 51 77 52 86 53 78 54
REMARK SMILES IDX 79 55 85 56 87 57 80 58 81 59 82 60 83 61 84 62 60 63 61 64
REMARK SMILES IDX 70 65 62 66 63 67 69 68 71 69 64 70 65 71 66 72 67 73 68 74
REMARK SMILES IDX 7 75 8 76 9 77 10 78 11 79 12 80 13 81 17 82 14 83 16 84
REMARK SMILES IDX 15 85 18 86 19 87 20 88 21 90 22 91 32 92 23 93 30 94 24 95
REMARK SMILES IDX 31 96 25 97 26 98 29 99 27 100 28 101
REMARK H PARENT 92 24 58 35 20 89
REMARK Flexibility Score: inf
ROOT
ATOM      1  O   UNL A   1      38.055  23.239  25.785  1.00  0.00    -0.374 OA
ENDROOT
BRANCH   1   2
ATOM      2  C   UNL A   1      38.799  22.055  26.019  1.00  0.00     0.202 C 
BRANCH   2   3
ATOM      3  C   UNL A   1      40.189  22.271  26.631  1.00  0.00     0.261 C 
BRANCH   3   4
ATOM      4  O   UNL A   1      41.255  21.816  25.789  1.00  0.00    -0.460 OA
BRANCH   4   5
ATOM      5  C   UNL A   1      42.403  22.479  25.508  1.00  0.00     0.338 C 
ATOM      6  O   UNL A   1      43.141  22.018  24.637  1.00  0.00    -0.246 OA
BRANCH   5   7
ATOM      7  C   UNL A   1      42.786  23.774  26.136  1.00  0.00     0.060 A 
ATOM      8  C   UNL A   1      43.556  23.932  27.292  1.00  0.00     0.016 A 
ATOM      9  C   UNL A   1      42.231  24.913  25.530  1.00  0.00     0.016 A 
ATOM     10  C   UNL A   1      43.544  25.114  27.981  1.00  0.00     0.010 A 
ATOM     11  C   UNL A   1      42.240  26.119  26.194  1.00  0.00     0.010 A 
ATOM     12  C   UNL A   1      42.799  26.159  27.464  1.00  0.00    -0.014 A 
BRANCH  12  13
ATOM     13  C   UNL A   1      42.655  27.311  28.316  1.00  0.00     0.031 A 
ATOM     14  C   UNL A   1      43.834  28.203  28.285  1.00  0.00     0.074 A 
ATOM     15  C   UNL A   1      41.507  27.474  28.998  1.00  0.00     0.049 A 
ATOM     16  N   UNL A   1      44.634  28.507  29.252  1.00  0.00    -0.248 NA
ATOM     17  C   UNL A   1      44.305  28.644  26.960  1.00  0.00     0.031 C 
ATOM     18  C   UNL A   1      40.273  26.692  28.859  1.00  0.00     0.029 A 
ATOM     19  N   UNL A   1      41.145  28.455  29.859  1.00  0.00    -0.354 N 
ATOM     20  C   UNL A   1      45.532  29.415  28.702  1.00  0.00     0.074 A 
ATOM     21  C   UNL A   1      45.438  29.268  27.275  1.00  0.00     0.031 C 
ATOM     22  C   UNL A   1      39.248  27.390  29.389  1.00  0.00     0.029 A 
ATOM     23  C   UNL A   1      39.770  28.599  29.997  1.00  0.00     0.049 A 
ATOM     24  H   UNL A   1      41.795  29.014  30.341  1.00  0.00     0.167 HD
ATOM     25  C   UNL A   1      46.000  30.451  29.448  1.00  0.00     0.037 A 
ATOM     26  C   UNL A   1      39.135  29.708  30.452  1.00  0.00     0.037 A 
ATOM     27  C   UNL A   1      45.947  30.136  30.856  1.00  0.00     0.049 A 
ATOM     28  C   UNL A   1      40.150  30.513  31.193  1.00  0.00     0.074 A 
ATOM     29  C   UNL A   1      46.439  29.099  31.628  1.00  0.00     0.029 A 
ATOM     30  N   UNL A   1      44.981  30.744  31.622  1.00  0.00    -0.354 N 
ATOM     31  N   UNL A   1      40.706  30.128  32.311  1.00  0.00    -0.248 NA
ATOM     32  C   UNL A   1      40.899  31.513  30.444  1.00  0.00     0.031 C 
ATOM     33  C   UNL A   1      45.426  28.843  32.598  1.00  0.00     0.029 A 
ATOM     34  C   UNL A   1      44.410  29.782  32.414  1.00  0.00     0.049 A 
ATOM     35  H   UNL A   1      44.741  31.700  31.605  1.00  0.00     0.167 HD
ATOM     36  C   UNL A   1      42.039  30.500  32.197  1.00  0.00     0.074 A 
ATOM     37  C   UNL A   1      42.080  31.423  31.064  1.00  0.00     0.031 C 
ATOM     38  C   UNL A   1      43.026  29.805  32.837  1.00  0.00     0.037 A 
BRANCH  25  39
ATOM     39  C   UNL A   1      46.055  31.871  28.920  1.00  0.00     0.058 A 
ATOM     40  C   UNL A   1      44.891  32.432  28.359  1.00  0.00     0.135 A 
ATOM     41  C   UNL A   1      47.251  32.587  28.666  1.00  0.00     0.135 A 
ATOM     42  F   UNL A   1      43.697  31.844  28.535  1.00  0.00    -0.206 F 
ATOM     43  C   UNL A   1      44.927  33.553  27.530  1.00  0.00     0.059 A 
ATOM     44  C   UNL A   1      47.300  33.734  27.889  1.00  0.00     0.059 A 
ATOM     45  F   UNL A   1      48.454  32.173  29.075  1.00  0.00    -0.206 F 
ATOM     46  C   UNL A   1      46.142  34.184  27.285  1.00  0.00     0.060 A 
BRANCH  46  47
ATOM     47  S   UNL A   1      46.219  35.560  26.130  1.00  0.00     0.124 S 
ATOM     48  O   UNL A   1      44.923  36.190  26.350  1.00  0.00    -0.237 OA
ATOM     49  O   UNL A   1      47.382  36.294  26.616  1.00  0.00    -0.237 OA
ATOM     50  O   UNL A   1      46.394  34.903  24.837  1.00  0.00    -0.744 OA
ENDBRANCH  46  47
ENDBRANCH  25  39
BRANCH  26  51
ATOM     51  C   UNL A   1      37.853  30.274  29.949  1.00  0.00     0.058 A 
ATOM     52  C   UNL A   1      36.916  30.835  30.835  1.00  0.00     0.135 A 
ATOM     53  C   UNL A   1      37.621  30.511  28.577  1.00  0.00     0.135 A 
ATOM     54  F   UNL A   1      37.066  30.682  32.160  1.00  0.00    -0.206 F 
ATOM     55  C   UNL A   1      35.844  31.619  30.391  1.00  0.00     0.059 A 
ATOM     56  C   UNL A   1      36.550  31.270  28.110  1.00  0.00     0.059 A 
ATOM     57  F   UNL A   1      38.479  30.089  27.638  1.00  0.00    -0.206 F 
ATOM     58  C   UNL A   1      35.679  31.846  29.025  1.00  0.00     0.060 A 
BRANCH  58  59
ATOM     59  S   UNL A   1      34.405  32.992  28.454  1.00  0.00     0.124 S 
ATOM     60  O   UNL A   1      35.172  33.897  27.604  1.00  0.00    -0.237 OA
ATOM     61  O   UNL A   1      33.476  32.104  27.765  1.00  0.00    -0.237 OA
ATOM     62  O   UNL A   1      33.897  33.581  29.692  1.00  0.00    -0.744 OA
ENDBRANCH  58  59
ENDBRANCH  26  51
BRANCH  38  63
ATOM     63  C   UNL A   1      42.630  28.825  33.911  1.00  0.00     0.058 A 
ATOM     64  C   UNL A   1      42.337  27.468  33.688  1.00  0.00     0.135 A 
ATOM     65  C   UNL A   1      42.691  29.255  35.246  1.00  0.00     0.135 A 
ATOM     66  F   UNL A   1      42.375  26.948  32.453  1.00  0.00    -0.206 F 
ATOM     67  C   UNL A   1      42.059  26.592  34.741  1.00  0.00     0.059 A 
ATOM     68  C   UNL A   1      42.453  28.392  36.312  1.00  0.00     0.059 A 
ATOM     69  F   UNL A   1      43.036  30.521  35.531  1.00  0.00    -0.206 F 
ATOM     70  C   UNL A   1      42.118  27.066  36.051  1.00  0.00     0.060 A 
BRANCH  70  71
ATOM     71  S   UNL A   1      41.814  25.924  37.417  1.00  0.00     0.124 S 
ATOM     72  O   UNL A   1      40.429  26.219  37.762  1.00  0.00    -0.237 OA
ATOM     73  O   UNL A   1      42.052  24.622  36.800  1.00  0.00    -0.237 OA
ATOM     74  O   UNL A   1      42.804  26.317  38.418  1.00  0.00    -0.744 OA
ENDBRANCH  70  71
ENDBRANCH  38  63
ENDBRANCH  12  13
ENDBRANCH   5   7
ENDBRANCH   4   5
ENDBRANCH   3   4
ENDBRANCH   2   3
ENDBRANCH   1   2
BRANCH   1  75
ATOM     75  C   UNL A   1      36.630  23.249  25.899  1.00  0.00     0.202 C 
BRANCH  75  76
ATOM     76  C   UNL A   1      35.722  24.039  24.943  1.00  0.00     0.261 C 
BRANCH  76  77
ATOM     77  O   UNL A   1      34.943  25.037  25.624  1.00  0.00    -0.458 OA
BRANCH  77  78
ATOM     78  C   UNL A   1      33.666  25.153  25.264  1.00  0.00     0.359 C 
ATOM     79  O   UNL A   1      33.093  24.472  24.402  1.00  0.00    -0.244 OA
BRANCH  78  80
ATOM     80  C   UNL A   1      32.976  26.235  26.000  1.00  0.00     0.179 A 
ATOM     81  N   UNL A   1      33.874  27.182  26.442  1.00  0.00    -0.245 NA
ATOM     82  C   UNL A   1      31.606  26.385  26.211  1.00  0.00     0.161 A 
ATOM     83  C   UNL A   1      33.387  28.218  27.150  1.00  0.00     0.132 A 
ATOM     84  N   UNL A   1      31.141  27.480  26.908  1.00  0.00    -0.247 NA
ATOM     85  C   UNL A   1      32.042  28.361  27.386  1.00  0.00     0.132 A 
BRANCH  82  86
ATOM     86  C   UNL A   1      30.466  25.461  25.944  1.00  0.00     0.276 C 
ATOM     87  O   UNL A   1      30.531  24.349  26.492  1.00  0.00    -0.267 OA
ATOM     88  N   UNL A   1      29.325  25.648  25.193  1.00  0.00    -0.321 N 
ATOM     89  H   UNL A   1      28.636  24.972  25.391  1.00  0.00     0.170 HD
BRANCH  88  90
ATOM     90  C   UNL A   1      28.903  26.559  24.223  1.00  0.00     0.043 A 
ATOM     91  C   UNL A   1      27.578  26.853  23.957  1.00  0.00     0.028 A 
ATOM     92  C   UNL A   1      29.914  27.308  23.591  1.00  0.00     0.049 A 
ATOM     93  C   UNL A   1      27.253  28.029  23.282  1.00  0.00     0.032 A 
ATOM     94  C   UNL A   1      29.601  28.479  22.889  1.00  0.00     0.068 A 
ATOM     95  C   UNL A   1      28.267  28.871  22.802  1.00  0.00     0.085 A 
ATOM     96  Cl  UNL A   1      30.890  29.367  22.164  1.00  0.00    -0.082 Cl
BRANCH  95  97
ATOM     97  N   UNL A   1      27.897  30.179  22.434  1.00  0.00    -0.220 N 
ATOM     98  C   UNL A   1      27.842  31.276  23.256  1.00  0.00     0.226 A 
ATOM     99  N   UNL A   1      28.009  30.589  21.148  1.00  0.00    -0.155 NA
ATOM    100  N   UNL A   1      27.967  32.381  22.562  1.00  0.00    -0.223 NA
ATOM    101  C   UNL A   1      28.099  31.915  21.286  1.00  0.00     0.246 A 
ENDBRANCH  95  97
ENDBRANCH  88  90
ENDBRANCH  82  86
ENDBRANCH  78  80
ENDBRANCH  77  78
ENDBRANCH  76  77
ENDBRANCH  75  76
ENDBRANCH   1  75
TORSDOF 20
ENDMDL
