MODEL 1
REMARK VINA RESULT:     -11.7      0.000      0.000
REMARK SMILES CC(=O)NS(=O)(=O)c1ccc(-c2ccn(C(F)F)c(=O)c2)cc1C(=O)OCCOCCOC(=O)c1ccc(-c2c3nc(c(-c4c(F)cc(S(=O)(=O)[O-])cc4F)c4ccc([nH]4)c(-c4c(F)cc(S(=O)(=O)[O-])cc4F)c4nc(c(-c5c(F)cc(S(=O)(=O)[O-])cc5F)c5ccc2[nH]5)C=C4)C=C3)cc1
REMARK SMILES IDX 30 1 29 2 28 3 27 4 26 5 24 6 25 7 23 8 8 9 9 10 10 11 22 12
REMARK SMILES IDX 11 13 5 14 6 15 7 16 4 17 1 18 2 19 3 20 12 22 13 23 21 24
REMARK SMILES IDX 14 25 19 26 15 27 20 28 16 29 17 30 18 31 31 32 32 33 33 34
REMARK SMILES IDX 34 35 35 36 36 37 100 38 37 39 99 40 38 41 39 42 40 43 93 44
REMARK SMILES IDX 41 45 98 46 92 47 94 48 42 49 97 50 91 51 90 52 43 54 77 55
REMARK SMILES IDX 56 56 76 57 57 58 60 59 75 60 95 61 58 62 59 63 74 65 96 66
REMARK SMILES IDX 61 67 44 68 45 69 54 70 46 71 47 72 53 73 55 74 48 75 49 76
REMARK SMILES IDX 50 77 51 78 52 79 78 80 79 81 88 82 80 83 81 84 87 85 89 86
REMARK SMILES IDX 82 87 83 88 84 89 85 90 86 91 62 92 63 93 72 94 64 95 65 96
REMARK SMILES IDX 71 97 73 98 66 99 67 100 68 101 69 102 70 103
REMARK H PARENT 4 21 94 53 60 64
REMARK Flexibility Score: inf
ROOT
ATOM      1  C   UNL A   1      39.310  21.952  26.232  1.00  0.00     0.202 C 
ENDROOT
BRANCH   1   2
ATOM      2  O   UNL A   1      38.490  22.952  25.624  1.00  0.00    -0.374 OA
BRANCH   2   3
ATOM      3  C   UNL A   1      37.144  22.544  25.350  1.00  0.00     0.202 C 
BRANCH   3   4
ATOM      4  C   UNL A   1      36.621  23.142  24.040  1.00  0.00     0.261 C 
BRANCH   4   5
ATOM      5  O   UNL A   1      35.617  24.147  24.286  1.00  0.00    -0.460 OA
BRANCH   5   6
ATOM      6  C   UNL A   1      34.518  24.092  23.519  1.00  0.00     0.339 C 
ATOM      7  O   UNL A   1      34.419  24.527  22.381  1.00  0.00    -0.246 OA
BRANCH   6   8
ATOM      8  C   UNL A   1      33.360  23.444  24.202  1.00  0.00     0.081 A 
ATOM      9  C   UNL A   1      32.332  24.053  24.940  1.00  0.00     0.102 A 
ATOM     10  C   UNL A   1      31.282  23.266  25.455  1.00  0.00     0.024 A 
ATOM     11  C   UNL A   1      31.304  21.872  25.335  1.00  0.00     0.010 A 
ATOM     12  C   UNL A   1      33.355  22.039  24.092  1.00  0.00     0.025 A 
ATOM     13  C   UNL A   1      32.363  21.247  24.682  1.00  0.00    -0.017 A 
BRANCH   9  14
ATOM     14  S   UNL A   1      32.390  25.774  25.382  1.00  0.00     0.264 S 
ATOM     15  O   UNL A   1      33.613  25.979  26.121  1.00  0.00    -0.201 OA
ATOM     16  O   UNL A   1      31.088  26.161  25.878  1.00  0.00    -0.201 OA
BRANCH  14  17
ATOM     17  N   UNL A   1      32.602  26.581  23.940  1.00  0.00    -0.249 N 
ATOM     18  C   UNL A   1      33.122  28.894  24.775  1.00  0.00     0.115 C 
ATOM     19  C   UNL A   1      33.256  27.807  23.741  1.00  0.00     0.230 C 
ATOM     20  O   UNL A   1      33.775  28.024  22.654  1.00  0.00    -0.274 OA
ATOM     21  H   UNL A   1      32.226  26.149  23.139  1.00  0.00     0.183 HD
ENDBRANCH  14  17
ENDBRANCH   9  14
BRANCH  13  22
ATOM     22  C   UNL A   1      32.528  19.783  24.673  1.00  0.00    -0.011 A 
ATOM     23  C   UNL A   1      32.515  19.018  25.907  1.00  0.00     0.027 A 
ATOM     24  C   UNL A   1      32.732  19.144  23.510  1.00  0.00     0.080 A 
ATOM     25  C   UNL A   1      32.729  17.699  25.895  1.00  0.00     0.095 A 
ATOM     26  C   UNL A   1      32.952  17.669  23.479  1.00  0.00     0.255 A 
ATOM     27  N   UNL A   1      32.951  17.028  24.709  1.00  0.00    -0.258 N 
ATOM     28  O   UNL A   1      33.121  17.124  22.393  1.00  0.00    -0.269 OA
BRANCH  27  29
ATOM     29  C   UNL A   1      33.190  15.607  24.711  1.00  0.00     0.451 C 
ATOM     30  F   UNL A   1      34.392  15.316  25.264  1.00  0.00    -0.185 F 
ATOM     31  F   UNL A   1      32.233  14.951  25.411  1.00  0.00    -0.185 F 
ENDBRANCH  27  29
ENDBRANCH  13  22
ENDBRANCH   6   8
ENDBRANCH   5   6
ENDBRANCH   4   5
ENDBRANCH   3   4
ENDBRANCH   2   3
ENDBRANCH   1   2
BRANCH   1  32
ATOM     32  C   UNL A   1      40.655  22.509  26.697  1.00  0.00     0.261 C 
BRANCH  32  33
ATOM     33  O   UNL A   1      40.740  23.906  26.378  1.00  0.00    -0.460 OA
BRANCH  33  34
ATOM     34  C   UNL A   1      41.836  24.547  26.853  1.00  0.00     0.338 C 
ATOM     35  O   UNL A   1      42.988  24.383  26.488  1.00  0.00    -0.246 OA
BRANCH  34  36
ATOM     36  C   UNL A   1      41.432  25.578  27.843  1.00  0.00     0.060 A 
ATOM     37  C   UNL A   1      42.380  26.549  28.190  1.00  0.00     0.016 A 
ATOM     38  C   UNL A   1      40.156  25.614  28.422  1.00  0.00     0.016 A 
ATOM     39  C   UNL A   1      42.068  27.529  29.132  1.00  0.00     0.010 A 
ATOM     40  C   UNL A   1      39.844  26.593  29.370  1.00  0.00     0.010 A 
ATOM     41  C   UNL A   1      40.807  27.540  29.743  1.00  0.00    -0.014 A 
BRANCH  41  42
ATOM     42  C   UNL A   1      40.558  28.479  30.859  1.00  0.00     0.031 A 
ATOM     43  C   UNL A   1      41.398  28.373  32.098  1.00  0.00     0.074 A 
ATOM     44  C   UNL A   1      39.621  29.437  30.752  1.00  0.00     0.049 A 
ATOM     45  N   UNL A   1      41.450  29.171  33.131  1.00  0.00    -0.248 NA
ATOM     46  C   UNL A   1      42.305  27.217  32.177  1.00  0.00     0.031 C 
ATOM     47  C   UNL A   1      38.733  29.633  29.608  1.00  0.00     0.029 A 
ATOM     48  N   UNL A   1      39.272  30.434  31.626  1.00  0.00    -0.354 N 
ATOM     49  C   UNL A   1      42.418  28.636  33.969  1.00  0.00     0.074 A 
ATOM     50  C   UNL A   1      42.903  27.425  33.341  1.00  0.00     0.031 C 
ATOM     51  C   UNL A   1      37.937  30.690  29.850  1.00  0.00     0.029 A 
ATOM     52  C   UNL A   1      38.272  31.249  31.160  1.00  0.00     0.049 A 
ATOM     53  H   UNL A   1      39.699  30.553  32.505  1.00  0.00     0.167 HD
ATOM     54  C   UNL A   1      42.874  29.117  35.149  1.00  0.00     0.037 A 
ATOM     55  C   UNL A   1      37.703  32.332  31.722  1.00  0.00     0.037 A 
ATOM     56  C   UNL A   1      42.382  30.305  35.789  1.00  0.00     0.049 A 
ATOM     57  C   UNL A   1      38.194  32.825  33.054  1.00  0.00     0.074 A 
ATOM     58  C   UNL A   1      42.799  30.888  36.972  1.00  0.00     0.029 A 
ATOM     59  N   UNL A   1      41.344  31.083  35.301  1.00  0.00    -0.354 N 
ATOM     60  N   UNL A   1      39.161  32.350  33.803  1.00  0.00    -0.248 NA
ATOM     61  C   UNL A   1      37.524  34.007  33.612  1.00  0.00     0.031 C 
ATOM     62  C   UNL A   1      41.998  32.014  37.208  1.00  0.00     0.029 A 
ATOM     63  C   UNL A   1      41.091  32.132  36.167  1.00  0.00     0.049 A 
ATOM     64  H   UNL A   1      40.858  30.915  34.461  1.00  0.00     0.167 HD
ATOM     65  C   UNL A   1      39.224  33.183  34.913  1.00  0.00     0.074 A 
ATOM     66  C   UNL A   1      38.198  34.191  34.741  1.00  0.00     0.031 C 
ATOM     67  C   UNL A   1      40.062  33.121  35.977  1.00  0.00     0.037 A 
BRANCH  54  68
ATOM     68  C   UNL A   1      43.974  28.341  35.802  1.00  0.00     0.058 A 
ATOM     69  C   UNL A   1      43.684  27.335  36.737  1.00  0.00     0.135 A 
ATOM     70  C   UNL A   1      45.319  28.636  35.540  1.00  0.00     0.135 A 
ATOM     71  F   UNL A   1      42.411  27.035  37.033  1.00  0.00    -0.206 F 
ATOM     72  C   UNL A   1      44.696  26.663  37.413  1.00  0.00     0.059 A 
ATOM     73  C   UNL A   1      46.347  27.972  36.201  1.00  0.00     0.059 A 
ATOM     74  F   UNL A   1      45.641  29.602  34.666  1.00  0.00    -0.206 F 
ATOM     75  C   UNL A   1      46.024  27.002  37.151  1.00  0.00     0.060 A 
BRANCH  75  76
ATOM     76  S   UNL A   1      47.343  26.173  38.066  1.00  0.00     0.124 S 
ATOM     77  O   UNL A   1      47.475  24.929  37.313  1.00  0.00    -0.237 OA
ATOM     78  O   UNL A   1      48.459  27.105  37.945  1.00  0.00    -0.237 OA
ATOM     79  O   UNL A   1      46.784  26.042  39.407  1.00  0.00    -0.744 OA
ENDBRANCH  75  76
ENDBRANCH  54  68
BRANCH  55  80
ATOM     80  C   UNL A   1      36.612  33.038  31.013  1.00  0.00     0.058 A 
ATOM     81  C   UNL A   1      35.274  32.856  31.386  1.00  0.00     0.135 A 
ATOM     82  C   UNL A   1      36.892  33.919  29.960  1.00  0.00     0.135 A 
ATOM     83  F   UNL A   1      34.964  32.018  32.388  1.00  0.00    -0.206 F 
ATOM     84  C   UNL A   1      34.243  33.526  30.736  1.00  0.00     0.059 A 
ATOM     85  C   UNL A   1      35.880  34.604  29.299  1.00  0.00     0.059 A 
ATOM     86  F   UNL A   1      38.162  34.126  29.577  1.00  0.00    -0.206 F 
ATOM     87  C   UNL A   1      34.556  34.395  29.690  1.00  0.00     0.060 A 
BRANCH  87  88
ATOM     88  S   UNL A   1      33.233  35.317  28.875  1.00  0.00     0.124 S 
ATOM     89  O   UNL A   1      33.991  36.308  28.120  1.00  0.00    -0.237 OA
ATOM     90  O   UNL A   1      32.564  34.288  28.083  1.00  0.00    -0.237 OA
ATOM     91  O   UNL A   1      32.457  35.831  30.000  1.00  0.00    -0.744 OA
ENDBRANCH  87  88
ENDBRANCH  55  80
BRANCH  67  92
ATOM     92  C   UNL A   1      39.903  34.173  37.031  1.00  0.00     0.058 A 
ATOM     93  C   UNL A   1      40.490  35.438  36.882  1.00  0.00     0.135 A 
ATOM     94  C   UNL A   1      39.124  33.932  38.173  1.00  0.00     0.135 A 
ATOM     95  F   UNL A   1      41.248  35.710  35.808  1.00  0.00    -0.206 F 
ATOM     96  C   UNL A   1      40.311  36.435  37.836  1.00  0.00     0.059 A 
ATOM     97  C   UNL A   1      38.927  34.917  39.136  1.00  0.00     0.059 A 
ATOM     98  F   UNL A   1      38.543  32.737  38.354  1.00  0.00    -0.206 F 
ATOM     99  C   UNL A   1      39.531  36.163  38.961  1.00  0.00     0.060 A 
BRANCH  99 100
ATOM    100  S   UNL A   1      39.255  37.463  40.185  1.00  0.00     0.124 S 
ATOM    101  O   UNL A   1      38.598  36.722  41.256  1.00  0.00    -0.237 OA
ATOM    102  O   UNL A   1      40.609  37.929  40.476  1.00  0.00    -0.237 OA
ATOM    103  O   UNL A   1      38.415  38.417  39.467  1.00  0.00    -0.744 OA
ENDBRANCH  99 100
ENDBRANCH  67  92
ENDBRANCH  41  42
ENDBRANCH  34  36
ENDBRANCH  33  34
ENDBRANCH  32  33
ENDBRANCH   1  32
TORSDOF 21
ENDMDL
MODEL 2
REMARK VINA RESULT:     -11.3      6.823     12.235
REMARK SMILES CC(=O)NS(=O)(=O)c1ccc(-c2ccn(C(F)F)c(=O)c2)cc1C(=O)OCCOCCOC(=O)c1ccc(-c2c3nc(c(-c4c(F)cc(S(=O)(=O)[O-])cc4F)c4ccc([nH]4)c(-c4c(F)cc(S(=O)(=O)[O-])cc4F)c4nc(c(-c5c(F)cc(S(=O)(=O)[O-])cc5F)c5ccc2[nH]5)C=C4)C=C3)cc1
REMARK SMILES IDX 30 1 29 2 28 3 27 4 26 5 24 6 25 7 23 8 8 9 9 10 10 11 22 12
REMARK SMILES IDX 11 13 5 14 6 15 7 16 4 17 1 18 2 19 3 20 12 22 13 23 21 24
REMARK SMILES IDX 14 25 19 26 15 27 20 28 16 29 17 30 18 31 31 32 32 33 33 34
REMARK SMILES IDX 34 35 35 36 36 37 100 38 37 39 99 40 38 41 39 42 40 43 93 44
REMARK SMILES IDX 41 45 98 46 92 47 94 48 42 49 97 50 91 51 90 52 43 54 77 55
REMARK SMILES IDX 56 56 76 57 57 58 60 59 75 60 95 61 58 62 59 63 74 65 96 66
REMARK SMILES IDX 61 67 44 68 45 69 54 70 46 71 47 72 53 73 55 74 48 75 49 76
REMARK SMILES IDX 50 77 51 78 52 79 78 80 79 81 88 82 80 83 81 84 87 85 89 86
REMARK SMILES IDX 82 87 83 88 84 89 85 90 86 91 62 92 63 93 72 94 64 95 65 96
REMARK SMILES IDX 71 97 73 98 66 99 67 100 68 101 69 102 70 103
REMARK H PARENT 4 21 94 53 60 64
REMARK Flexibility Score: inf
ROOT
ATOM      1  C   UNL A   1      34.293  29.325  27.306  1.00  0.00     0.202 C 
ENDROOT
BRANCH   1   2
ATOM      2  O   UNL A   1      33.983  29.620  25.942  1.00  0.00    -0.374 OA
BRANCH   2   3
ATOM      3  C   UNL A   1      32.583  29.679  25.641  1.00  0.00     0.202 C 
BRANCH   3   4
ATOM      4  C   UNL A   1      32.139  28.510  24.757  1.00  0.00     0.261 C 
BRANCH   4   5
ATOM      5  O   UNL A   1      33.148  27.481  24.701  1.00  0.00    -0.460 OA
BRANCH   5   6
ATOM      6  C   UNL A   1      32.914  26.376  25.423  1.00  0.00     0.339 C 
ATOM      7  O   UNL A   1      32.394  26.342  26.529  1.00  0.00    -0.246 OA
BRANCH   6   8
ATOM      8  C   UNL A   1      33.378  25.128  24.749  1.00  0.00     0.081 A 
ATOM      9  C   UNL A   1      32.661  24.287  23.883  1.00  0.00     0.102 A 
ATOM     10  C   UNL A   1      33.306  23.182  23.290  1.00  0.00     0.024 A 
ATOM     11  C   UNL A   1      34.619  22.846  23.637  1.00  0.00     0.010 A 
ATOM     12  C   UNL A   1      34.702  24.769  25.077  1.00  0.00     0.025 A 
ATOM     13  C   UNL A   1      35.313  23.620  24.564  1.00  0.00    -0.017 A 
BRANCH   9  14
ATOM     14  S   UNL A   1      30.912  24.481  23.624  1.00  0.00     0.264 S 
ATOM     15  O   UNL A   1      30.459  23.312  22.911  1.00  0.00    -0.201 OA
ATOM     16  O   UNL A   1      30.667  25.832  23.174  1.00  0.00    -0.201 OA
BRANCH  14  17
ATOM     17  N   UNL A   1      30.239  24.364  25.144  1.00  0.00    -0.249 N 
ATOM     18  C   UNL A   1      30.990  22.058  25.805  1.00  0.00     0.115 C 
ATOM     19  C   UNL A   1      30.597  23.466  26.164  1.00  0.00     0.230 C 
ATOM     20  O   UNL A   1      30.412  23.800  27.327  1.00  0.00    -0.274 OA
ATOM     21  H   UNL A   1      29.511  24.994  25.349  1.00  0.00     0.183 HD
ENDBRANCH  14  17
ENDBRANCH   9  14
BRANCH  13  22
ATOM     22  C   UNL A   1      36.628  23.221  25.094  1.00  0.00    -0.011 A 
ATOM     23  C   UNL A   1      37.241  21.961  24.713  1.00  0.00     0.027 A 
ATOM     24  C   UNL A   1      37.259  24.014  25.975  1.00  0.00     0.080 A 
ATOM     25  C   UNL A   1      38.405  21.578  25.248  1.00  0.00     0.095 A 
ATOM     26  C   UNL A   1      38.568  23.609  26.565  1.00  0.00     0.255 A 
ATOM     27  N   UNL A   1      39.060  22.377  26.163  1.00  0.00    -0.258 N 
ATOM     28  O   UNL A   1      39.115  24.372  27.355  1.00  0.00    -0.269 OA
BRANCH  27  29
ATOM     29  C   UNL A   1      40.309  21.947  26.739  1.00  0.00     0.451 C 
ATOM     30  F   UNL A   1      40.229  20.668  27.179  1.00  0.00    -0.185 F 
ATOM     31  F   UNL A   1      41.317  22.020  25.836  1.00  0.00    -0.185 F 
ENDBRANCH  27  29
ENDBRANCH  13  22
ENDBRANCH   6   8
ENDBRANCH   5   6
ENDBRANCH   4   5
ENDBRANCH   3   4
ENDBRANCH   2   3
ENDBRANCH   1   2
BRANCH   1  32
ATOM     32  C   UNL A   1      35.466  30.154  27.827  1.00  0.00     0.261 C 
BRANCH  32  33
ATOM     33  O   UNL A   1      36.189  29.405  28.817  1.00  0.00    -0.460 OA
BRANCH  33  34
ATOM     34  C   UNL A   1      37.181  30.079  29.447  1.00  0.00     0.338 C 
ATOM     35  O   UNL A   1      37.051  30.880  30.358  1.00  0.00    -0.246 OA
BRANCH  34  36
ATOM     36  C   UNL A   1      38.503  29.634  28.935  1.00  0.00     0.060 A 
ATOM     37  C   UNL A   1      39.497  29.338  29.876  1.00  0.00     0.016 A 
ATOM     38  C   UNL A   1      38.777  29.494  27.567  1.00  0.00     0.016 A 
ATOM     39  C   UNL A   1      40.765  28.938  29.456  1.00  0.00     0.010 A 
ATOM     40  C   UNL A   1      40.049  29.098  27.145  1.00  0.00     0.010 A 
ATOM     41  C   UNL A   1      41.053  28.840  28.088  1.00  0.00    -0.014 A 
BRANCH  41  42
ATOM     42  C   UNL A   1      42.447  28.582  27.664  1.00  0.00     0.031 A 
ATOM     43  C   UNL A   1      43.447  29.698  27.739  1.00  0.00     0.074 A 
ATOM     44  C   UNL A   1      42.824  27.358  27.257  1.00  0.00     0.049 A 
ATOM     45  N   UNL A   1      44.739  29.663  27.555  1.00  0.00    -0.248 NA
ATOM     46  C   UNL A   1      42.917  31.031  28.071  1.00  0.00     0.031 C 
ATOM     47  C   UNL A   1      41.944  26.197  27.128  1.00  0.00     0.029 A 
ATOM     48  N   UNL A   1      44.057  26.891  26.883  1.00  0.00    -0.354 N 
ATOM     49  C   UNL A   1      45.186  30.956  27.783  1.00  0.00     0.074 A 
ATOM     50  C   UNL A   1      44.021  31.763  28.083  1.00  0.00     0.031 C 
ATOM     51  C   UNL A   1      42.669  25.146  26.704  1.00  0.00     0.029 A 
ATOM     52  C   UNL A   1      44.063  25.561  26.545  1.00  0.00     0.049 A 
ATOM     53  H   UNL A   1      44.862  27.456  26.860  1.00  0.00     0.167 HD
ATOM     54  C   UNL A   1      46.454  31.430  27.760  1.00  0.00     0.037 A 
ATOM     55  C   UNL A   1      45.082  24.767  26.166  1.00  0.00     0.037 A 
ATOM     56  C   UNL A   1      47.611  30.642  27.440  1.00  0.00     0.049 A 
ATOM     57  C   UNL A   1      46.476  25.323  26.104  1.00  0.00     0.074 A 
ATOM     58  C   UNL A   1      48.941  31.024  27.416  1.00  0.00     0.029 A 
ATOM     59  N   UNL A   1      47.570  29.307  27.070  1.00  0.00    -0.354 N 
ATOM     60  N   UNL A   1      46.894  26.532  26.392  1.00  0.00    -0.248 NA
ATOM     61  C   UNL A   1      47.539  24.403  25.676  1.00  0.00     0.031 C 
ATOM     62  C   UNL A   1      49.704  29.920  27.014  1.00  0.00     0.029 A 
ATOM     63  C   UNL A   1      48.848  28.852  26.795  1.00  0.00     0.049 A 
ATOM     64  H   UNL A   1      46.752  28.762  27.010  1.00  0.00     0.167 HD
ATOM     65  C   UNL A   1      48.269  26.515  26.193  1.00  0.00     0.074 A 
ATOM     66  C   UNL A   1      48.614  25.176  25.758  1.00  0.00     0.031 C 
ATOM     67  C   UNL A   1      49.167  27.517  26.361  1.00  0.00     0.037 A 
BRANCH  54  68
ATOM     68  C   UNL A   1      46.630  32.875  28.104  1.00  0.00     0.058 A 
ATOM     69  C   UNL A   1      46.570  33.862  27.108  1.00  0.00     0.135 A 
ATOM     70  C   UNL A   1      46.913  33.274  29.417  1.00  0.00     0.135 A 
ATOM     71  F   UNL A   1      46.322  33.522  25.834  1.00  0.00    -0.206 F 
ATOM     72  C   UNL A   1      46.814  35.200  27.399  1.00  0.00     0.059 A 
ATOM     73  C   UNL A   1      47.155  34.608  29.732  1.00  0.00     0.059 A 
ATOM     74  F   UNL A   1      46.997  32.362  30.398  1.00  0.00    -0.206 F 
ATOM     75  C   UNL A   1      47.124  35.559  28.711  1.00  0.00     0.060 A 
BRANCH  75  76
ATOM     76  S   UNL A   1      47.496  37.286  29.088  1.00  0.00     0.124 S 
ATOM     77  O   UNL A   1      48.652  37.524  28.229  1.00  0.00    -0.237 OA
ATOM     78  O   UNL A   1      46.270  37.976  28.702  1.00  0.00    -0.237 OA
ATOM     79  O   UNL A   1      47.771  37.260  30.521  1.00  0.00    -0.744 OA
ENDBRANCH  75  76
ENDBRANCH  54  68
BRANCH  55  80
ATOM     80  C   UNL A   1      44.820  23.349  25.832  1.00  0.00     0.058 A 
ATOM     81  C   UNL A   1      44.870  22.899  24.506  1.00  0.00     0.135 A 
ATOM     82  C   UNL A   1      44.532  22.416  26.837  1.00  0.00     0.135 A 
ATOM     83  F   UNL A   1      45.140  23.762  23.514  1.00  0.00    -0.206 F 
ATOM     84  C   UNL A   1      44.640  21.566  24.183  1.00  0.00     0.059 A 
ATOM     85  C   UNL A   1      44.304  21.077  26.540  1.00  0.00     0.059 A 
ATOM     86  F   UNL A   1      44.481  22.805  28.120  1.00  0.00    -0.206 F 
ATOM     87  C   UNL A   1      44.354  20.663  25.209  1.00  0.00     0.060 A 
BRANCH  87  88
ATOM     88  S   UNL A   1      44.112  18.916  24.812  1.00  0.00     0.124 S 
ATOM     89  O   UNL A   1      44.318  18.915  23.368  1.00  0.00    -0.237 OA
ATOM     90  O   UNL A   1      45.148  18.259  25.604  1.00  0.00    -0.237 OA
ATOM     91  O   UNL A   1      42.744  18.671  25.260  1.00  0.00    -0.744 OA
ENDBRANCH  87  88
ENDBRANCH  55  80
BRANCH  67  92
ATOM     92  C   UNL A   1      50.603  27.201  26.077  1.00  0.00     0.058 A 
ATOM     93  C   UNL A   1      51.476  26.825  27.108  1.00  0.00     0.135 A 
ATOM     94  C   UNL A   1      51.097  27.228  24.765  1.00  0.00     0.135 A 
ATOM     95  F   UNL A   1      51.047  26.791  28.379  1.00  0.00    -0.206 F 
ATOM     96  C   UNL A   1      52.800  26.488  26.847  1.00  0.00     0.059 A 
ATOM     97  C   UNL A   1      52.416  26.888  24.481  1.00  0.00     0.059 A 
ATOM     98  F   UNL A   1      50.296  27.580  23.748  1.00  0.00    -0.206 F 
ATOM     99  C   UNL A   1      53.261  26.526  25.530  1.00  0.00     0.060 A 
BRANCH  99 100
ATOM    100  S   UNL A   1      54.967  26.048  25.173  1.00  0.00     0.124 S 
ATOM    101  O   UNL A   1      55.664  26.548  26.354  1.00  0.00    -0.237 OA
ATOM    102  O   UNL A   1      54.881  24.594  25.057  1.00  0.00    -0.237 OA
ATOM    103  O   UNL A   1      55.251  26.751  23.926  1.00  0.00    -0.744 OA
ENDBRANCH  99 100
ENDBRANCH  67  92
ENDBRANCH  41  42
ENDBRANCH  34  36
ENDBRANCH  33  34
ENDBRANCH  32  33
ENDBRANCH   1  32
TORSDOF 21
ENDMDL
MODEL 3
REMARK VINA RESULT:     -11.3      4.774      5.883
REMARK SMILES CC(=O)NS(=O)(=O)c1ccc(-c2ccn(C(F)F)c(=O)c2)cc1C(=O)OCCOCCOC(=O)c1ccc(-c2c3nc(c(-c4c(F)cc(S(=O)(=O)[O-])cc4F)c4ccc([nH]4)c(-c4c(F)cc(S(=O)(=O)[O-])cc4F)c4nc(c(-c5c(F)cc(S(=O)(=O)[O-])cc5F)c5ccc2[nH]5)C=C4)C=C3)cc1
REMARK SMILES IDX 30 1 29 2 28 3 27 4 26 5 24 6 25 7 23 8 8 9 9 10 10 11 22 12
REMARK SMILES IDX 11 13 5 14 6 15 7 16 4 17 1 18 2 19 3 20 12 22 13 23 21 24
REMARK SMILES IDX 14 25 19 26 15 27 20 28 16 29 17 30 18 31 31 32 32 33 33 34
REMARK SMILES IDX 34 35 35 36 36 37 100 38 37 39 99 40 38 41 39 42 40 43 93 44
REMARK SMILES IDX 41 45 98 46 92 47 94 48 42 49 97 50 91 51 90 52 43 54 77 55
REMARK SMILES IDX 56 56 76 57 57 58 60 59 75 60 95 61 58 62 59 63 74 65 96 66
REMARK SMILES IDX 61 67 44 68 45 69 54 70 46 71 47 72 53 73 55 74 48 75 49 76
REMARK SMILES IDX 50 77 51 78 52 79 78 80 79 81 88 82 80 83 81 84 87 85 89 86
REMARK SMILES IDX 82 87 83 88 84 89 85 90 86 91 62 92 63 93 72 94 64 95 65 96
REMARK SMILES IDX 71 97 73 98 66 99 67 100 68 101 69 102 70 103
REMARK H PARENT 4 21 94 53 60 64
REMARK Flexibility Score: inf
ROOT
ATOM      1  C   UNL A   1      36.339  21.518  24.756  1.00  0.00     0.202 C 
ENDROOT
BRANCH   1   2
ATOM      2  O   UNL A   1      35.371  22.118  23.893  1.00  0.00    -0.374 OA
BRANCH   2   3
ATOM      3  C   UNL A   1      35.774  23.360  23.303  1.00  0.00     0.202 C 
BRANCH   3   4
ATOM      4  C   UNL A   1      34.748  24.469  23.550  1.00  0.00     0.261 C 
BRANCH   4   5
ATOM      5  O   UNL A   1      33.959  24.726  22.371  1.00  0.00    -0.460 OA
BRANCH   5   6
ATOM      6  C   UNL A   1      32.635  24.843  22.553  1.00  0.00     0.339 C 
ATOM      7  O   UNL A   1      31.879  25.526  21.878  1.00  0.00    -0.246 OA
BRANCH   6   8
ATOM      8  C   UNL A   1      32.133  24.051  23.714  1.00  0.00     0.081 A 
ATOM      9  C   UNL A   1      31.583  24.522  24.917  1.00  0.00     0.102 A 
ATOM     10  C   UNL A   1      31.101  23.603  25.872  1.00  0.00     0.024 A 
ATOM     11  C   UNL A   1      31.259  22.225  25.685  1.00  0.00     0.010 A 
ATOM     12  C   UNL A   1      32.276  22.658  23.550  1.00  0.00     0.025 A 
ATOM     13  C   UNL A   1      31.883  21.746  24.536  1.00  0.00    -0.017 A 
BRANCH   9  14
ATOM     14  S   UNL A   1      31.616  26.247  25.350  1.00  0.00     0.264 S 
ATOM     15  O   UNL A   1      32.985  26.686  25.227  1.00  0.00    -0.201 OA
ATOM     16  O   UNL A   1      30.827  26.430  26.547  1.00  0.00    -0.201 OA
BRANCH  14  17
ATOM     17  N   UNL A   1      30.791  27.012  24.122  1.00  0.00    -0.249 N 
ATOM     18  C   UNL A   1      31.180  29.419  24.733  1.00  0.00     0.115 C 
ATOM     19  C   UNL A   1      30.933  28.346  23.706  1.00  0.00     0.230 C 
ATOM     20  O   UNL A   1      30.680  28.626  22.541  1.00  0.00    -0.274 OA
ATOM     21  H   UNL A   1      30.130  26.469  23.634  1.00  0.00     0.183 HD
ENDBRANCH  14  17
ENDBRANCH   9  14
BRANCH  13  22
ATOM     22  C   UNL A   1      32.230  20.325  24.364  1.00  0.00    -0.011 A 
ATOM     23  C   UNL A   1      32.750  19.540  25.469  1.00  0.00     0.027 A 
ATOM     24  C   UNL A   1      32.102  19.750  23.157  1.00  0.00     0.080 A 
ATOM     25  C   UNL A   1      33.122  18.268  25.287  1.00  0.00     0.095 A 
ATOM     26  C   UNL A   1      32.494  18.327  22.945  1.00  0.00     0.255 A 
ATOM     27  N   UNL A   1      33.006  17.666  24.051  1.00  0.00    -0.258 N 
ATOM     28  O   UNL A   1      32.347  17.839  21.829  1.00  0.00    -0.269 OA
BRANCH  27  29
ATOM     29  C   UNL A   1      33.420  16.298  23.867  1.00  0.00     0.451 C 
ATOM     30  F   UNL A   1      34.543  16.225  23.113  1.00  0.00    -0.185 F 
ATOM     31  F   UNL A   1      33.671  15.698  25.056  1.00  0.00    -0.185 F 
ENDBRANCH  27  29
ENDBRANCH  13  22
ENDBRANCH   6   8
ENDBRANCH   5   6
ENDBRANCH   4   5
ENDBRANCH   3   4
ENDBRANCH   2   3
ENDBRANCH   1   2
BRANCH   1  32
ATOM     32  C   UNL A   1      36.870  22.497  25.802  1.00  0.00     0.261 C 
BRANCH  32  33
ATOM     33  O   UNL A   1      38.200  22.910  25.451  1.00  0.00    -0.460 OA
BRANCH  33  34
ATOM     34  C   UNL A   1      39.136  22.745  26.417  1.00  0.00     0.338 C 
ATOM     35  O   UNL A   1      39.653  21.693  26.755  1.00  0.00    -0.246 OA
BRANCH  34  36
ATOM     36  C   UNL A   1      39.535  24.065  26.969  1.00  0.00     0.060 A 
ATOM     37  C   UNL A   1      40.096  24.995  26.085  1.00  0.00     0.016 A 
ATOM     38  C   UNL A   1      39.361  24.406  28.318  1.00  0.00     0.016 A 
ATOM     39  C   UNL A   1      40.511  26.243  26.548  1.00  0.00     0.010 A 
ATOM     40  C   UNL A   1      39.782  25.655  28.784  1.00  0.00     0.010 A 
ATOM     41  C   UNL A   1      40.378  26.568  27.905  1.00  0.00    -0.014 A 
BRANCH  41  42
ATOM     42  C   UNL A   1      40.979  27.824  28.404  1.00  0.00     0.031 A 
ATOM     43  C   UNL A   1      42.466  28.006  28.307  1.00  0.00     0.074 A 
ATOM     44  C   UNL A   1      40.206  28.804  28.901  1.00  0.00     0.049 A 
ATOM     45  N   UNL A   1      43.185  29.069  28.549  1.00  0.00    -0.248 NA
ATOM     46  C   UNL A   1      43.242  26.833  27.871  1.00  0.00     0.031 C 
ATOM     47  C   UNL A   1      38.754  28.742  29.061  1.00  0.00     0.029 A 
ATOM     48  N   UNL A   1      40.543  30.052  29.356  1.00  0.00    -0.354 N 
ATOM     49  C   UNL A   1      44.495  28.708  28.263  1.00  0.00     0.074 A 
ATOM     50  C   UNL A   1      44.476  27.316  27.864  1.00  0.00     0.031 C 
ATOM     51  C   UNL A   1      38.323  29.906  29.579  1.00  0.00     0.029 A 
ATOM     52  C   UNL A   1      39.468  30.795  29.774  1.00  0.00     0.049 A 
ATOM     53  H   UNL A   1      41.470  30.384  29.381  1.00  0.00     0.167 HD
ATOM     54  C   UNL A   1      45.612  29.470  28.314  1.00  0.00     0.037 A 
ATOM     55  C   UNL A   1      39.415  32.055  30.246  1.00  0.00     0.037 A 
ATOM     56  C   UNL A   1      45.642  30.844  28.731  1.00  0.00     0.049 A 
ATOM     57  C   UNL A   1      40.673  32.870  30.335  1.00  0.00     0.074 A 
ATOM     58  C   UNL A   1      46.720  31.709  28.790  1.00  0.00     0.029 A 
ATOM     59  N   UNL A   1      44.536  31.550  29.179  1.00  0.00    -0.354 N 
ATOM     60  N   UNL A   1      41.895  32.540  29.993  1.00  0.00    -0.248 NA
ATOM     61  C   UNL A   1      40.543  34.235  30.865  1.00  0.00     0.031 C 
ATOM     62  C   UNL A   1      46.267  32.937  29.292  1.00  0.00     0.029 A 
ATOM     63  C   UNL A   1      44.907  32.834  29.537  1.00  0.00     0.049 A 
ATOM     64  H   UNL A   1      43.621  31.190  29.235  1.00  0.00     0.167 HD
ATOM     65  C   UNL A   1      42.677  33.658  30.253  1.00  0.00     0.074 A 
ATOM     66  C   UNL A   1      41.792  34.676  30.783  1.00  0.00     0.031 C 
ATOM     67  C   UNL A   1      44.009  33.829  30.064  1.00  0.00     0.037 A 
BRANCH  54  68
ATOM     68  C   UNL A   1      46.886  28.810  27.890  1.00  0.00     0.058 A 
ATOM     69  C   UNL A   1      47.735  28.217  28.837  1.00  0.00     0.135 A 
ATOM     70  C   UNL A   1      47.291  28.818  26.549  1.00  0.00     0.135 A 
ATOM     71  F   UNL A   1      47.396  28.206  30.136  1.00  0.00    -0.206 F 
ATOM     72  C   UNL A   1      48.961  27.672  28.470  1.00  0.00     0.059 A 
ATOM     73  C   UNL A   1      48.511  28.275  26.159  1.00  0.00     0.059 A 
ATOM     74  F   UNL A   1      46.519  29.391  25.613  1.00  0.00    -0.206 F 
ATOM     75  C   UNL A   1      49.348  27.724  27.130  1.00  0.00     0.060 A 
BRANCH  75  76
ATOM     76  S   UNL A   1      50.963  27.070  26.653  1.00  0.00     0.124 S 
ATOM     77  O   UNL A   1      50.804  26.943  25.208  1.00  0.00    -0.237 OA
ATOM     78  O   UNL A   1      51.881  28.114  27.099  1.00  0.00    -0.237 OA
ATOM     79  O   UNL A   1      51.042  25.815  27.392  1.00  0.00    -0.744 OA
ENDBRANCH  75  76
ENDBRANCH  54  68
BRANCH  55  80
ATOM     80  C   UNL A   1      38.112  32.630  30.653  1.00  0.00     0.058 A 
ATOM     81  C   UNL A   1      37.654  32.513  31.971  1.00  0.00     0.135 A 
ATOM     82  C   UNL A   1      37.314  33.322  29.732  1.00  0.00     0.135 A 
ATOM     83  F   UNL A   1      38.388  31.855  32.882  1.00  0.00    -0.206 F 
ATOM     84  C   UNL A   1      36.439  33.062  32.367  1.00  0.00     0.059 A 
ATOM     85  C   UNL A   1      36.100  33.885  30.106  1.00  0.00     0.059 A 
ATOM     86  F   UNL A   1      37.722  33.462  28.461  1.00  0.00    -0.206 F 
ATOM     87  C   UNL A   1      35.667  33.744  31.425  1.00  0.00     0.060 A 
BRANCH  87  88
ATOM     88  S   UNL A   1      34.115  34.515  31.938  1.00  0.00     0.124 S 
ATOM     89  O   UNL A   1      34.591  35.750  32.549  1.00  0.00    -0.237 OA
ATOM     90  O   UNL A   1      33.396  34.663  30.676  1.00  0.00    -0.237 OA
ATOM     91  O   UNL A   1      33.552  33.527  32.855  1.00  0.00    -0.744 OA
ENDBRANCH  87  88
ENDBRANCH  55  80
BRANCH  67  92
ATOM     92  C   UNL A   1      44.584  35.162  30.431  1.00  0.00     0.058 A 
ATOM     93  C   UNL A   1      44.601  36.218  29.508  1.00  0.00     0.135 A 
ATOM     94  C   UNL A   1      45.078  35.400  31.721  1.00  0.00     0.135 A 
ATOM     95  F   UNL A   1      44.143  36.033  28.260  1.00  0.00    -0.206 F 
ATOM     96  C   UNL A   1      45.093  37.472  29.853  1.00  0.00     0.059 A 
ATOM     97  C   UNL A   1      45.569  36.649  32.090  1.00  0.00     0.059 A 
ATOM     98  F   UNL A   1      45.079  34.419  32.636  1.00  0.00    -0.206 F 
ATOM     99  C   UNL A   1      45.578  37.677  31.146  1.00  0.00     0.060 A 
BRANCH  99 100
ATOM    100  S   UNL A   1      46.180  39.313  31.619  1.00  0.00     0.124 S 
ATOM    101  O   UNL A   1      45.889  39.329  33.049  1.00  0.00    -0.237 OA
ATOM    102  O   UNL A   1      47.595  39.256  31.262  1.00  0.00    -0.237 OA
ATOM    103  O   UNL A   1      45.371  40.210  30.799  1.00  0.00    -0.744 OA
ENDBRANCH  99 100
ENDBRANCH  67  92
ENDBRANCH  41  42
ENDBRANCH  34  36
ENDBRANCH  33  34
ENDBRANCH  32  33
ENDBRANCH   1  32
TORSDOF 21
ENDMDL
