MODEL 1
REMARK VINA RESULT:     -11.4      0.000      0.000
REMARK SMILES Cc1c(C[N@H+]2CC[C@@H](C(=O)OCCOCCOC(=O)c3ccc(-c4c5nc(c(-c6c(F)cc(S(=O)(=O)[O-])cc6F)c6ccc([nH]6)c(-c6c(F)cc(S(=O)(=O)[O-])cc6F)c6nc(c(-c7c(F)cc(S(=O)(=O)[O-])cc7F)c7ccc4[nH]7)C=C6)C=C5)cc3)[C@@H]2C)cccc1[N+](=O)[O-]
REMARK SMILES IDX 14 1 13 2 12 3 11 4 9 5 10 6 8 7 5 8 6 9 86 10 7 12 87 13
REMARK SMILES IDX 4 14 3 15 1 16 2 17 91 18 88 19 90 20 89 21 92 22 93 23
REMARK SMILES IDX 94 24 15 25 16 26 17 27 18 28 19 29 20 30 21 31 85 32 22 33
REMARK SMILES IDX 84 34 23 35 24 36 25 37 78 38 26 39 83 40 77 41 79 42 27 43
REMARK SMILES IDX 82 44 76 45 75 46 28 48 62 49 41 50 61 51 42 52 45 53 60 54
REMARK SMILES IDX 80 55 43 56 44 57 59 59 81 60 46 61 29 62 30 63 39 64 31 65
REMARK SMILES IDX 32 66 38 67 40 68 33 69 34 70 35 71 36 72 37 73 63 74 64 75
REMARK SMILES IDX 73 76 65 77 66 78 72 79 74 80 67 81 68 82 69 83 70 84 71 85
REMARK SMILES IDX 47 86 48 87 57 88 49 89 50 90 56 91 58 92 51 93 52 94 53 95
REMARK SMILES IDX 54 96 55 97
REMARK H PARENT 5 11 79 47 45 58
REMARK Flexibility Score: inf
ROOT
ATOM      1  O   UNL A   1      33.650  30.486  26.768  1.00  0.00    -0.374 OA
ENDROOT
BRANCH   1   2
ATOM      2  C   UNL A   1      32.254  30.645  26.627  1.00  0.00     0.202 C 
BRANCH   2   3
ATOM      3  C   UNL A   1      31.754  29.379  27.210  1.00  0.00     0.261 C 
BRANCH   3   4
ATOM      4  O   UNL A   1      32.152  28.272  26.404  1.00  0.00    -0.463 OA
BRANCH   4   5
ATOM      5  C   UNL A   1      31.293  27.257  26.167  1.00  0.00     0.315 C 
ATOM      6  O   UNL A   1      30.818  26.498  26.997  1.00  0.00    -0.252 OA
BRANCH   5   7
ATOM      7  C   UNL A   1      30.986  27.241  24.694  1.00  0.00     0.162 C 
ATOM      8  N   UNL A   1      31.962  25.830  22.981  1.00  0.00    -0.328 N 
ATOM      9  C   UNL A   1      30.516  25.687  22.928  1.00  0.00     0.263 C 
ATOM     10  C   UNL A   1      32.266  26.972  23.862  1.00  0.00     0.195 C 
ATOM     11  H   UNL A   1      32.359  26.088  22.077  1.00  0.00     0.348 HD
ATOM     12  C   UNL A   1      30.018  26.156  24.275  1.00  0.00     0.083 C 
ATOM     13  C   UNL A   1      32.604  28.288  23.140  1.00  0.00     0.076 C 
BRANCH   8  14
ATOM     14  C   UNL A   1      32.725  24.554  23.082  1.00  0.00     0.299 C 
BRANCH  14  15
ATOM     15  C   UNL A   1      32.701  23.554  24.311  1.00  0.00     0.016 A 
ATOM     16  C   UNL A   1      32.165  21.373  22.646  1.00  0.00     0.052 C 
ATOM     17  C   UNL A   1      32.543  21.771  24.056  1.00  0.00     0.036 A 
ATOM     18  C   UNL A   1      33.305  20.541  25.124  1.00  0.00     0.272 A 
ATOM     19  C   UNL A   1      33.598  24.185  25.651  1.00  0.00     0.010 A 
ATOM     20  C   UNL A   1      34.273  21.110  26.548  1.00  0.00     0.086 A 
ATOM     21  C   UNL A   1      34.356  23.097  26.836  1.00  0.00     0.008 A 
BRANCH  18  22
ATOM     22  N   UNL A   1      33.195  19.114  24.918  1.00  0.00     0.062 N 
ATOM     23  O   UNL A   1      32.162  18.570  25.328  1.00  0.00    -0.258 OA
ATOM     24  O   UNL A   1      34.109  18.531  24.328  1.00  0.00    -0.258 OA
ENDBRANCH  18  22
ENDBRANCH  14  15
ENDBRANCH   8  14
ENDBRANCH   5   7
ENDBRANCH   4   5
ENDBRANCH   3   4
ENDBRANCH   2   3
ENDBRANCH   1   2
BRANCH   1  25
ATOM     25  C   UNL A   1      34.267  31.396  27.637  1.00  0.00     0.202 C 
BRANCH  25  26
ATOM     26  C   UNL A   1      35.790  31.229  27.707  1.00  0.00     0.261 C 
BRANCH  26  27
ATOM     27  O   UNL A   1      36.326  32.233  28.598  1.00  0.00    -0.460 OA
BRANCH  27  28
ATOM     28  C   UNL A   1      36.689  31.813  29.847  1.00  0.00     0.338 C 
ATOM     29  O   UNL A   1      36.222  32.247  30.883  1.00  0.00    -0.246 OA
BRANCH  28  30
ATOM     30  C   UNL A   1      37.848  30.867  29.738  1.00  0.00     0.060 A 
ATOM     31  C   UNL A   1      37.715  29.510  30.106  1.00  0.00     0.016 A 
ATOM     32  C   UNL A   1      39.119  31.394  29.515  1.00  0.00     0.016 A 
ATOM     33  C   UNL A   1      38.853  28.727  30.390  1.00  0.00     0.010 A 
ATOM     34  C   UNL A   1      40.231  30.634  29.830  1.00  0.00     0.010 A 
ATOM     35  C   UNL A   1      40.113  29.315  30.326  1.00  0.00    -0.014 A 
BRANCH  35  36
ATOM     36  C   UNL A   1      41.373  28.755  30.844  1.00  0.00     0.031 A 
ATOM     37  C   UNL A   1      41.998  27.677  30.054  1.00  0.00     0.074 A 
ATOM     38  C   UNL A   1      42.128  29.353  31.808  1.00  0.00     0.049 A 
ATOM     39  N   UNL A   1      42.942  26.922  30.498  1.00  0.00    -0.248 NA
ATOM     40  C   UNL A   1      41.560  27.293  28.710  1.00  0.00     0.031 C 
ATOM     41  C   UNL A   1      43.581  29.321  31.950  1.00  0.00     0.029 A 
ATOM     42  N   UNL A   1      41.747  30.163  32.872  1.00  0.00    -0.354 N 
ATOM     43  C   UNL A   1      43.533  26.385  29.382  1.00  0.00     0.074 A 
ATOM     44  C   UNL A   1      42.484  26.381  28.401  1.00  0.00     0.031 C 
ATOM     45  C   UNL A   1      43.937  29.870  33.123  1.00  0.00     0.029 A 
ATOM     46  C   UNL A   1      42.730  30.207  33.861  1.00  0.00     0.049 A 
ATOM     47  H   UNL A   1      40.890  30.645  32.922  1.00  0.00     0.167 HD
ATOM     48  C   UNL A   1      44.895  26.281  29.356  1.00  0.00     0.037 A 
ATOM     49  C   UNL A   1      42.449  30.107  35.189  1.00  0.00     0.037 A 
ATOM     50  C   UNL A   1      45.484  26.539  30.702  1.00  0.00     0.049 A 
ATOM     51  C   UNL A   1      43.026  28.657  35.517  1.00  0.00     0.074 A 
ATOM     52  C   UNL A   1      46.452  27.383  31.228  1.00  0.00     0.029 A 
ATOM     53  N   UNL A   1      44.859  25.998  31.828  1.00  0.00    -0.354 N 
ATOM     54  N   UNL A   1      43.926  28.063  34.761  1.00  0.00    -0.248 NA
ATOM     55  C   UNL A   1      42.649  27.757  36.611  1.00  0.00     0.031 C 
ATOM     56  C   UNL A   1      46.388  27.322  32.663  1.00  0.00     0.029 A 
ATOM     57  C   UNL A   1      45.391  26.436  33.028  1.00  0.00     0.049 A 
ATOM     58  H   UNL A   1      44.109  25.363  31.774  1.00  0.00     0.167 HD
ATOM     59  C   UNL A   1      44.099  26.746  35.076  1.00  0.00     0.074 A 
ATOM     60  C   UNL A   1      43.311  26.617  36.294  1.00  0.00     0.031 C 
ATOM     61  C   UNL A   1      44.847  25.895  34.287  1.00  0.00     0.037 A 
BRANCH  48  62
ATOM     62  C   UNL A   1      45.711  26.141  28.062  1.00  0.00     0.058 A 
ATOM     63  C   UNL A   1      45.914  27.261  27.226  1.00  0.00     0.135 A 
ATOM     64  C   UNL A   1      46.281  24.946  27.544  1.00  0.00     0.135 A 
ATOM     65  F   UNL A   1      45.430  28.467  27.550  1.00  0.00    -0.206 F 
ATOM     66  C   UNL A   1      46.615  27.203  26.011  1.00  0.00     0.059 A 
ATOM     67  C   UNL A   1      47.029  24.877  26.364  1.00  0.00     0.059 A 
ATOM     68  F   UNL A   1      46.117  23.749  28.109  1.00  0.00    -0.206 F 
ATOM     69  C   UNL A   1      47.188  26.010  25.596  1.00  0.00     0.060 A 
BRANCH  69  70
ATOM     70  S   UNL A   1      48.140  25.954  24.069  1.00  0.00     0.124 S 
ATOM     71  O   UNL A   1      49.511  26.048  24.562  1.00  0.00    -0.237 OA
ATOM     72  O   UNL A   1      47.748  24.663  23.513  1.00  0.00    -0.237 OA
ATOM     73  O   UNL A   1      47.666  27.118  23.325  1.00  0.00    -0.744 OA
ENDBRANCH  69  70
ENDBRANCH  48  62
BRANCH  49  74
ATOM     74  C   UNL A   1      40.961  30.729  35.552  1.00  0.00     0.058 A 
ATOM     75  C   UNL A   1      38.987  30.615  35.109  1.00  0.00     0.135 A 
ATOM     76  C   UNL A   1      41.381  31.872  36.913  1.00  0.00     0.135 A 
ATOM     77  F   UNL A   1      38.263  29.922  34.165  1.00  0.00    -0.206 F 
ATOM     78  C   UNL A   1      37.796  31.559  36.075  1.00  0.00     0.059 A 
ATOM     79  C   UNL A   1      40.114  32.718  37.780  1.00  0.00     0.059 A 
ATOM     80  F   UNL A   1      42.649  32.087  37.287  1.00  0.00    -0.206 F 
ATOM     81  C   UNL A   1      38.396  32.537  37.396  1.00  0.00     0.060 A 
BRANCH  81  82
ATOM     82  S   UNL A   1      37.316  32.381  38.924  1.00  0.00     0.124 S 
ATOM     83  O   UNL A   1      36.011  32.781  38.419  1.00  0.00    -0.237 OA
ATOM     84  O   UNL A   1      37.479  30.962  39.242  1.00  0.00    -0.237 OA
ATOM     85  O   UNL A   1      37.966  33.294  39.857  1.00  0.00    -0.744 OA
ENDBRANCH  81  82
ENDBRANCH  49  74
BRANCH  61  86
ATOM     86  C   UNL A   1      45.159  24.437  34.609  1.00  0.00     0.058 A 
ATOM     87  C   UNL A   1      46.453  23.986  34.911  1.00  0.00     0.135 A 
ATOM     88  C   UNL A   1      44.189  23.404  34.473  1.00  0.00     0.135 A 
ATOM     89  F   UNL A   1      47.491  24.835  34.926  1.00  0.00    -0.206 F 
ATOM     90  C   UNL A   1      46.741  22.638  35.158  1.00  0.00     0.059 A 
ATOM     91  C   UNL A   1      44.466  22.053  34.657  1.00  0.00     0.059 A 
ATOM     92  F   UNL A   1      42.910  23.648  34.167  1.00  0.00    -0.206 F 
ATOM     93  C   UNL A   1      45.738  21.680  35.039  1.00  0.00     0.060 A 
BRANCH  93  94
ATOM     94  S   UNL A   1      46.107  19.948  35.362  1.00  0.00     0.124 S 
ATOM     95  O   UNL A   1      44.840  19.296  35.047  1.00  0.00    -0.237 OA
ATOM     96  O   UNL A   1      47.197  19.704  34.423  1.00  0.00    -0.237 OA
ATOM     97  O   UNL A   1      46.481  19.932  36.773  1.00  0.00    -0.744 OA
ENDBRANCH  93  94
ENDBRANCH  61  86
ENDBRANCH  35  36
ENDBRANCH  28  30
ENDBRANCH  27  28
ENDBRANCH  26  27
ENDBRANCH  25  26
ENDBRANCH   1  25
TORSDOF 20
ENDMDL
MODEL 2
REMARK VINA RESULT:     -10.6      4.372     11.681
REMARK SMILES Cc1c(C[N@H+]2CC[C@@H](C(=O)OCCOCCOC(=O)c3ccc(-c4c5nc(c(-c6c(F)cc(S(=O)(=O)[O-])cc6F)c6ccc([nH]6)c(-c6c(F)cc(S(=O)(=O)[O-])cc6F)c6nc(c(-c7c(F)cc(S(=O)(=O)[O-])cc7F)c7ccc4[nH]7)C=C6)C=C5)cc3)[C@@H]2C)cccc1[N+](=O)[O-]
REMARK SMILES IDX 14 1 13 2 12 3 11 4 9 5 10 6 8 7 5 8 6 9 86 10 7 12 87 13
REMARK SMILES IDX 4 14 3 15 1 16 2 17 91 18 88 19 90 20 89 21 92 22 93 23
REMARK SMILES IDX 94 24 15 25 16 26 17 27 18 28 19 29 20 30 21 31 85 32 22 33
REMARK SMILES IDX 84 34 23 35 24 36 25 37 78 38 26 39 83 40 77 41 79 42 27 43
REMARK SMILES IDX 82 44 76 45 75 46 28 48 62 49 41 50 61 51 42 52 45 53 60 54
REMARK SMILES IDX 80 55 43 56 44 57 59 59 81 60 46 61 29 62 30 63 39 64 31 65
REMARK SMILES IDX 32 66 38 67 40 68 33 69 34 70 35 71 36 72 37 73 63 74 64 75
REMARK SMILES IDX 73 76 65 77 66 78 72 79 74 80 67 81 68 82 69 83 70 84 71 85
REMARK SMILES IDX 47 86 48 87 57 88 49 89 50 90 56 91 58 92 51 93 52 94 53 95
REMARK SMILES IDX 54 96 55 97
REMARK H PARENT 5 11 79 47 45 58
REMARK Flexibility Score: inf
ROOT
ATOM      1  O   UNL A   1      38.730  23.386  26.245  1.00  0.00    -0.374 OA
ENDROOT
BRANCH   1   2
ATOM      2  C   UNL A   1      37.845  22.687  25.396  1.00  0.00     0.202 C 
BRANCH   2   3
ATOM      3  C   UNL A   1      36.767  23.684  25.210  1.00  0.00     0.261 C 
BRANCH   3   4
ATOM      4  O   UNL A   1      35.492  23.046  25.236  1.00  0.00    -0.463 OA
BRANCH   4   5
ATOM      5  C   UNL A   1      34.365  23.761  25.026  1.00  0.00     0.315 C 
ATOM      6  O   UNL A   1      34.253  24.975  25.092  1.00  0.00    -0.252 OA
BRANCH   5   7
ATOM      7  C   UNL A   1      33.267  22.802  24.655  1.00  0.00     0.162 C 
ATOM      8  N   UNL A   1      31.041  23.322  23.848  1.00  0.00    -0.328 N 
ATOM      9  C   UNL A   1      31.674  22.416  22.904  1.00  0.00     0.263 C 
ATOM     10  C   UNL A   1      31.879  23.362  25.060  1.00  0.00     0.195 C 
ATOM     11  H   UNL A   1      30.137  22.976  24.171  1.00  0.00     0.348 HD
ATOM     12  C   UNL A   1      33.157  22.532  23.170  1.00  0.00     0.083 C 
ATOM     13  C   UNL A   1      31.384  22.497  26.231  1.00  0.00     0.076 C 
BRANCH   8  14
ATOM     14  C   UNL A   1      30.481  24.570  23.257  1.00  0.00     0.299 C 
BRANCH  14  15
ATOM     15  C   UNL A   1      31.169  25.997  23.280  1.00  0.00     0.016 A 
ATOM     16  C   UNL A   1      30.458  26.400  25.954  1.00  0.00     0.052 C 
ATOM     17  C   UNL A   1      31.290  26.946  24.814  1.00  0.00     0.036 A 
ATOM     18  C   UNL A   1      32.657  28.050  25.197  1.00  0.00     0.272 A 
ATOM     19  C   UNL A   1      32.385  26.128  22.054  1.00  0.00     0.010 A 
ATOM     20  C   UNL A   1      33.984  28.242  23.975  1.00  0.00     0.086 A 
ATOM     21  C   UNL A   1      33.767  27.229  22.254  1.00  0.00     0.008 A 
BRANCH  18  22
ATOM     22  N   UNL A   1      32.769  28.800  26.428  1.00  0.00     0.062 N 
ATOM     23  O   UNL A   1      33.356  28.245  27.366  1.00  0.00    -0.258 OA
ATOM     24  O   UNL A   1      32.307  29.944  26.467  1.00  0.00    -0.258 OA
ENDBRANCH  18  22
ENDBRANCH  14  15
ENDBRANCH   8  14
ENDBRANCH   5   7
ENDBRANCH   4   5
ENDBRANCH   3   4
ENDBRANCH   2   3
ENDBRANCH   1   2
BRANCH   1  25
ATOM     25  C   UNL A   1      39.582  22.579  27.012  1.00  0.00     0.202 C 
BRANCH  25  26
ATOM     26  C   UNL A   1      40.821  22.105  26.243  1.00  0.00     0.261 C 
BRANCH  26  27
ATOM     27  O   UNL A   1      41.658  23.250  25.964  1.00  0.00    -0.460 OA
BRANCH  27  28
ATOM     28  C   UNL A   1      42.582  23.580  26.918  1.00  0.00     0.338 C 
ATOM     29  O   UNL A   1      43.471  22.844  27.298  1.00  0.00    -0.246 OA
BRANCH  28  30
ATOM     30  C   UNL A   1      42.226  24.907  27.518  1.00  0.00     0.060 A 
ATOM     31  C   UNL A   1      41.759  25.968  26.712  1.00  0.00     0.016 A 
ATOM     32  C   UNL A   1      42.603  25.164  28.836  1.00  0.00     0.016 A 
ATOM     33  C   UNL A   1      41.807  27.299  27.175  1.00  0.00     0.010 A 
ATOM     34  C   UNL A   1      42.683  26.474  29.273  1.00  0.00     0.010 A 
ATOM     35  C   UNL A   1      42.344  27.560  28.433  1.00  0.00    -0.014 A 
BRANCH  35  36
ATOM     36  C   UNL A   1      42.729  28.876  28.970  1.00  0.00     0.031 A 
ATOM     37  C   UNL A   1      41.655  29.692  29.568  1.00  0.00     0.074 A 
ATOM     38  C   UNL A   1      44.017  29.247  29.214  1.00  0.00     0.049 A 
ATOM     39  N   UNL A   1      41.778  30.945  29.840  1.00  0.00    -0.248 NA
ATOM     40  C   UNL A   1      40.307  29.190  29.843  1.00  0.00     0.031 C 
ATOM     41  C   UNL A   1      44.505  30.135  30.266  1.00  0.00     0.029 A 
ATOM     42  N   UNL A   1      45.196  28.871  28.578  1.00  0.00    -0.354 N 
ATOM     43  C   UNL A   1      40.789  31.218  30.751  1.00  0.00     0.074 A 
ATOM     44  C   UNL A   1      39.773  30.244  30.463  1.00  0.00     0.031 C 
ATOM     45  C   UNL A   1      45.806  30.404  30.070  1.00  0.00     0.029 A 
ATOM     46  C   UNL A   1      46.223  29.782  28.822  1.00  0.00     0.049 A 
ATOM     47  H   UNL A   1      45.292  28.063  28.024  1.00  0.00     0.167 HD
ATOM     48  C   UNL A   1      41.083  32.041  31.801  1.00  0.00     0.037 A 
ATOM     49  C   UNL A   1      47.062  30.231  27.848  1.00  0.00     0.037 A 
ATOM     50  C   UNL A   1      42.397  32.720  31.605  1.00  0.00     0.049 A 
ATOM     51  C   UNL A   1      46.569  31.738  27.688  1.00  0.00     0.074 A 
ATOM     52  C   UNL A   1      43.574  32.855  32.329  1.00  0.00     0.029 A 
ATOM     53  N   UNL A   1      42.719  33.217  30.340  1.00  0.00    -0.354 N 
ATOM     54  N   UNL A   1      45.894  32.369  28.628  1.00  0.00    -0.248 NA
ATOM     55  C   UNL A   1      46.715  32.622  26.527  1.00  0.00     0.031 C 
ATOM     56  C   UNL A   1      44.575  33.438  31.478  1.00  0.00     0.029 A 
ATOM     57  C   UNL A   1      44.020  33.675  30.234  1.00  0.00     0.049 A 
ATOM     58  H   UNL A   1      42.079  33.240  29.593  1.00  0.00     0.167 HD
ATOM     59  C   UNL A   1      45.362  33.550  28.198  1.00  0.00     0.074 A 
ATOM     60  C   UNL A   1      45.962  33.693  26.878  1.00  0.00     0.031 C 
ATOM     61  C   UNL A   1      44.463  34.270  28.960  1.00  0.00     0.037 A 
BRANCH  48  62
ATOM     62  C   UNL A   1      40.269  32.079  33.104  1.00  0.00     0.058 A 
ATOM     63  C   UNL A   1      40.707  31.356  34.235  1.00  0.00     0.135 A 
ATOM     64  C   UNL A   1      39.034  32.750  33.313  1.00  0.00     0.135 A 
ATOM     65  F   UNL A   1      41.845  30.650  34.211  1.00  0.00    -0.206 F 
ATOM     66  C   UNL A   1      40.000  31.311  35.446  1.00  0.00     0.059 A 
ATOM     67  C   UNL A   1      38.340  32.763  34.527  1.00  0.00     0.059 A 
ATOM     68  F   UNL A   1      38.379  33.399  32.349  1.00  0.00    -0.206 F 
ATOM     69  C   UNL A   1      38.825  32.035  35.592  1.00  0.00     0.060 A 
BRANCH  69  70
ATOM     70  S   UNL A   1      37.954  32.027  37.167  1.00  0.00     0.124 S 
ATOM     71  O   UNL A   1      39.006  32.418  38.099  1.00  0.00    -0.237 OA
ATOM     72  O   UNL A   1      36.902  33.012  36.938  1.00  0.00    -0.237 OA
ATOM     73  O   UNL A   1      37.490  30.647  37.296  1.00  0.00    -0.744 OA
ENDBRANCH  69  70
ENDBRANCH  48  62
BRANCH  49  74
ATOM     74  C   UNL A   1      47.300  29.095  26.671  1.00  0.00     0.058 A 
ATOM     75  C   UNL A   1      46.355  27.861  25.371  1.00  0.00     0.135 A 
ATOM     76  C   UNL A   1      49.122  29.102  26.540  1.00  0.00     0.135 A 
ATOM     77  F   UNL A   1      45.033  27.539  25.156  1.00  0.00    -0.206 F 
ATOM     78  C   UNL A   1      47.311  26.922  24.169  1.00  0.00     0.059 A 
ATOM     79  C   UNL A   1      49.925  28.146  25.309  1.00  0.00     0.059 A 
ATOM     80  F   UNL A   1      49.884  29.831  27.365  1.00  0.00    -0.206 F 
ATOM     81  C   UNL A   1      49.049  27.131  24.154  1.00  0.00     0.060 A 
BRANCH  81  82
ATOM     82  S   UNL A   1      49.718  27.267  22.404  1.00  0.00     0.124 S 
ATOM     83  O   UNL A   1      49.471  28.666  22.090  1.00  0.00    -0.237 OA
ATOM     84  O   UNL A   1      51.116  26.886  22.606  1.00  0.00    -0.237 OA
ATOM     85  O   UNL A   1      48.914  26.283  21.689  1.00  0.00    -0.744 OA
ENDBRANCH  81  82
ENDBRANCH  49  74
BRANCH  61  86
ATOM     86  C   UNL A   1      43.887  35.634  28.592  1.00  0.00     0.058 A 
ATOM     87  C   UNL A   1      43.163  35.859  27.412  1.00  0.00     0.135 A 
ATOM     88  C   UNL A   1      44.177  36.808  29.342  1.00  0.00     0.135 A 
ATOM     89  F   UNL A   1      42.944  34.865  26.539  1.00  0.00    -0.206 F 
ATOM     90  C   UNL A   1      42.678  37.124  27.056  1.00  0.00     0.059 A 
ATOM     91  C   UNL A   1      43.755  38.083  28.978  1.00  0.00     0.059 A 
ATOM     92  F   UNL A   1      44.876  36.784  30.483  1.00  0.00    -0.206 F 
ATOM     93  C   UNL A   1      42.971  38.228  27.852  1.00  0.00     0.060 A 
BRANCH  93  94
ATOM     94  S   UNL A   1      42.344  39.853  27.398  1.00  0.00     0.124 S 
ATOM     95  O   UNL A   1      43.500  40.464  26.750  1.00  0.00    -0.237 OA
ATOM     96  O   UNL A   1      41.236  39.501  26.516  1.00  0.00    -0.237 OA
ATOM     97  O   UNL A   1      41.964  40.446  28.677  1.00  0.00    -0.744 OA
ENDBRANCH  93  94
ENDBRANCH  61  86
ENDBRANCH  35  36
ENDBRANCH  28  30
ENDBRANCH  27  28
ENDBRANCH  26  27
ENDBRANCH  25  26
ENDBRANCH   1  25
TORSDOF 20
ENDMDL
MODEL 3
REMARK VINA RESULT:     -10.4      6.761     10.748
REMARK SMILES Cc1c(C[N@H+]2CC[C@@H](C(=O)OCCOCCOC(=O)c3ccc(-c4c5nc(c(-c6c(F)cc(S(=O)(=O)[O-])cc6F)c6ccc([nH]6)c(-c6c(F)cc(S(=O)(=O)[O-])cc6F)c6nc(c(-c7c(F)cc(S(=O)(=O)[O-])cc7F)c7ccc4[nH]7)C=C6)C=C5)cc3)[C@@H]2C)cccc1[N+](=O)[O-]
REMARK SMILES IDX 14 1 13 2 12 3 11 4 9 5 10 6 8 7 5 8 6 9 86 10 7 12 87 13
REMARK SMILES IDX 4 14 3 15 1 16 2 17 91 18 88 19 90 20 89 21 92 22 93 23
REMARK SMILES IDX 94 24 15 25 16 26 17 27 18 28 19 29 20 30 21 31 85 32 22 33
REMARK SMILES IDX 84 34 23 35 24 36 25 37 78 38 26 39 83 40 77 41 79 42 27 43
REMARK SMILES IDX 82 44 76 45 75 46 28 48 62 49 41 50 61 51 42 52 45 53 60 54
REMARK SMILES IDX 80 55 43 56 44 57 59 59 81 60 46 61 29 62 30 63 39 64 31 65
REMARK SMILES IDX 32 66 38 67 40 68 33 69 34 70 35 71 36 72 37 73 63 74 64 75
REMARK SMILES IDX 73 76 65 77 66 78 72 79 74 80 67 81 68 82 69 83 70 84 71 85
REMARK SMILES IDX 47 86 48 87 57 88 49 89 50 90 56 91 58 92 51 93 52 94 53 95
REMARK SMILES IDX 54 96 55 97
REMARK H PARENT 5 11 79 47 45 58
REMARK Flexibility Score: inf
ROOT
ATOM      1  O   UNL A   1      36.901  34.876  34.201  1.00  0.00    -0.374 OA
ENDROOT
BRANCH   1   2
ATOM      2  C   UNL A   1      35.738  34.127  34.485  1.00  0.00     0.202 C 
BRANCH   2   3
ATOM      3  C   UNL A   1      34.755  34.756  33.574  1.00  0.00     0.261 C 
BRANCH   3   4
ATOM      4  O   UNL A   1      35.213  34.685  32.225  1.00  0.00    -0.463 OA
BRANCH   4   5
ATOM      5  C   UNL A   1      34.854  33.649  31.436  1.00  0.00     0.315 C 
ATOM      6  O   UNL A   1      34.270  32.636  31.787  1.00  0.00    -0.252 OA
BRANCH   5   7
ATOM      7  C   UNL A   1      35.266  33.974  30.025  1.00  0.00     0.162 C 
ATOM      8  N   UNL A   1      36.437  32.554  28.447  1.00  0.00    -0.328 N 
ATOM      9  C   UNL A   1      35.209  33.022  27.825  1.00  0.00     0.263 C 
ATOM     10  C   UNL A   1      36.635  33.331  29.684  1.00  0.00     0.195 C 
ATOM     11  H   UNL A   1      37.260  32.756  27.880  1.00  0.00     0.348 HD
ATOM     12  C   UNL A   1      34.319  33.453  28.967  1.00  0.00     0.083 C 
ATOM     13  C   UNL A   1      37.647  34.485  29.580  1.00  0.00     0.076 C 
BRANCH   8  14
ATOM     14  C   UNL A   1      36.640  31.078  28.424  1.00  0.00     0.299 C 
BRANCH  14  15
ATOM     15  C   UNL A   1      37.927  30.310  28.939  1.00  0.00     0.016 A 
ATOM     16  C   UNL A   1      36.998  30.332  31.576  1.00  0.00     0.052 C 
ATOM     17  C   UNL A   1      38.057  29.762  30.656  1.00  0.00     0.036 A 
ATOM     18  C   UNL A   1      38.926  28.272  31.163  1.00  0.00     0.272 A 
ATOM     19  C   UNL A   1      38.678  29.416  27.660  1.00  0.00     0.010 A 
ATOM     20  C   UNL A   1      39.736  27.266  29.890  1.00  0.00     0.086 A 
ATOM     21  C   UNL A   1      39.631  27.955  28.006  1.00  0.00     0.008 A 
BRANCH  18  22
ATOM     22  N   UNL A   1      39.021  27.818  32.534  1.00  0.00     0.062 N 
ATOM     23  O   UNL A   1      39.907  28.333  33.229  1.00  0.00    -0.258 OA
ATOM     24  O   UNL A   1      38.210  26.981  32.936  1.00  0.00    -0.258 OA
ENDBRANCH  18  22
ENDBRANCH  14  15
ENDBRANCH   8  14
ENDBRANCH   5   7
ENDBRANCH   4   5
ENDBRANCH   3   4
ENDBRANCH   2   3
ENDBRANCH   1   2
BRANCH   1  25
ATOM     25  C   UNL A   1      38.111  34.209  34.441  1.00  0.00     0.202 C 
BRANCH  25  26
ATOM     26  C   UNL A   1      38.743  34.569  35.791  1.00  0.00     0.261 C 
BRANCH  26  27
ATOM     27  O   UNL A   1      40.043  33.942  35.874  1.00  0.00    -0.460 OA
BRANCH  27  28
ATOM     28  C   UNL A   1      41.129  34.769  35.792  1.00  0.00     0.338 C 
ATOM     29  O   UNL A   1      41.263  35.794  36.432  1.00  0.00    -0.246 OA
BRANCH  28  30
ATOM     30  C   UNL A   1      42.030  34.300  34.689  1.00  0.00     0.060 A 
ATOM     31  C   UNL A   1      43.352  34.783  34.577  1.00  0.00     0.016 A 
ATOM     32  C   UNL A   1      41.471  33.583  33.632  1.00  0.00     0.016 A 
ATOM     33  C   UNL A   1      44.057  34.675  33.360  1.00  0.00     0.010 A 
ATOM     34  C   UNL A   1      42.152  33.512  32.429  1.00  0.00     0.010 A 
ATOM     35  C   UNL A   1      43.424  34.106  32.259  1.00  0.00    -0.014 A 
BRANCH  35  36
ATOM     36  C   UNL A   1      43.881  34.153  30.859  1.00  0.00     0.031 A 
ATOM     37  C   UNL A   1      44.549  32.948  30.335  1.00  0.00     0.074 A 
ATOM     38  C   UNL A   1      43.470  35.092  29.960  1.00  0.00     0.049 A 
ATOM     39  N   UNL A   1      45.222  32.925  29.237  1.00  0.00    -0.248 NA
ATOM     40  C   UNL A   1      44.590  31.666  31.042  1.00  0.00     0.031 C 
ATOM     41  C   UNL A   1      43.285  34.927  28.521  1.00  0.00     0.029 A 
ATOM     42  N   UNL A   1      43.090  36.416  30.155  1.00  0.00    -0.354 N 
ATOM     43  C   UNL A   1      45.293  31.601  28.881  1.00  0.00     0.074 A 
ATOM     44  C   UNL A   1      45.193  30.900  30.130  1.00  0.00     0.031 C 
ATOM     45  C   UNL A   1      43.053  36.121  27.951  1.00  0.00     0.029 A 
ATOM     46  C   UNL A   1      43.167  37.150  28.973  1.00  0.00     0.049 A 
ATOM     47  H   UNL A   1      42.804  36.788  31.021  1.00  0.00     0.167 HD
ATOM     48  C   UNL A   1      45.143  31.276  27.563  1.00  0.00     0.037 A 
ATOM     49  C   UNL A   1      43.703  38.401  28.911  1.00  0.00     0.037 A 
ATOM     50  C   UNL A   1      45.193  32.489  26.696  1.00  0.00     0.049 A 
ATOM     51  C   UNL A   1      45.059  38.115  28.122  1.00  0.00     0.074 A 
ATOM     52  C   UNL A   1      44.386  33.061  25.723  1.00  0.00     0.029 A 
ATOM     53  N   UNL A   1      46.144  33.476  26.969  1.00  0.00    -0.354 N 
ATOM     54  N   UNL A   1      45.235  37.045  27.375  1.00  0.00    -0.248 NA
ATOM     55  C   UNL A   1      46.294  38.906  28.126  1.00  0.00     0.031 C 
ATOM     56  C   UNL A   1      44.877  34.380  25.431  1.00  0.00     0.029 A 
ATOM     57  C   UNL A   1      45.993  34.623  26.211  1.00  0.00     0.049 A 
ATOM     58  H   UNL A   1      46.857  33.364  27.638  1.00  0.00     0.167 HD
ATOM     59  C   UNL A   1      46.534  36.871  26.993  1.00  0.00     0.074 A 
ATOM     60  C   UNL A   1      47.154  38.110  27.445  1.00  0.00     0.031 C 
ATOM     61  C   UNL A   1      46.969  35.716  26.374  1.00  0.00     0.037 A 
BRANCH  48  62
ATOM     62  C   UNL A   1      44.748  29.874  27.075  1.00  0.00     0.058 A 
ATOM     63  C   UNL A   1      45.663  29.097  26.330  1.00  0.00     0.135 A 
ATOM     64  C   UNL A   1      43.487  29.240  27.246  1.00  0.00     0.135 A 
ATOM     65  F   UNL A   1      46.895  29.546  26.058  1.00  0.00    -0.206 F 
ATOM     66  C   UNL A   1      45.362  27.825  25.819  1.00  0.00     0.059 A 
ATOM     67  C   UNL A   1      43.184  27.953  26.791  1.00  0.00     0.059 A 
ATOM     68  F   UNL A   1      42.439  29.834  27.817  1.00  0.00    -0.206 F 
ATOM     69  C   UNL A   1      44.125  27.250  26.071  1.00  0.00     0.060 A 
BRANCH  69  70
ATOM     70  S   UNL A   1      43.765  25.592  25.468  1.00  0.00     0.124 S 
ATOM     71  O   UNL A   1      44.964  25.282  24.697  1.00  0.00    -0.237 OA
ATOM     72  O   UNL A   1      43.592  24.847  26.710  1.00  0.00    -0.237 OA
ATOM     73  O   UNL A   1      42.548  25.771  24.679  1.00  0.00    -0.744 OA
ENDBRANCH  69  70
ENDBRANCH  48  62
BRANCH  49  74
ATOM     74  C   UNL A   1      43.489  39.232  30.324  1.00  0.00     0.058 A 
ATOM     75  C   UNL A   1      43.946  39.250  32.297  1.00  0.00     0.135 A 
ATOM     76  C   UNL A   1      42.537  40.677  29.739  1.00  0.00     0.135 A 
ATOM     77  F   UNL A   1      44.602  38.371  33.130  1.00  0.00    -0.206 F 
ATOM     78  C   UNL A   1      43.463  40.654  33.316  1.00  0.00     0.059 A 
ATOM     79  C   UNL A   1      42.148  41.984  30.841  1.00  0.00     0.059 A 
ATOM     80  F   UNL A   1      42.123  40.781  28.470  1.00  0.00    -0.206 F 
ATOM     81  C   UNL A   1      42.624  41.982  32.545  1.00  0.00     0.060 A 
BRANCH  81  82
ATOM     82  S   UNL A   1      43.273  43.646  33.126  1.00  0.00     0.124 S 
ATOM     83  O   UNL A   1      42.368  44.576  32.467  1.00  0.00    -0.237 OA
ATOM     84  O   UNL A   1      43.125  43.517  34.576  1.00  0.00    -0.237 OA
ATOM     85  O   UNL A   1      44.651  43.624  32.649  1.00  0.00    -0.744 OA
ENDBRANCH  81  82
ENDBRANCH  49  74
BRANCH  61  86
ATOM     86  C   UNL A   1      48.378  35.475  25.842  1.00  0.00     0.058 A 
ATOM     87  C   UNL A   1      49.177  34.404  26.268  1.00  0.00     0.135 A 
ATOM     88  C   UNL A   1      49.040  36.407  24.995  1.00  0.00     0.135 A 
ATOM     89  F   UNL A   1      48.727  33.530  27.181  1.00  0.00    -0.206 F 
ATOM     90  C   UNL A   1      50.488  34.215  25.812  1.00  0.00     0.059 A 
ATOM     91  C   UNL A   1      50.360  36.271  24.575  1.00  0.00     0.059 A 
ATOM     92  F   UNL A   1      48.438  37.500  24.511  1.00  0.00    -0.206 F 
ATOM     93  C   UNL A   1      51.067  35.149  24.958  1.00  0.00     0.060 A 
BRANCH  93  94
ATOM     94  S   UNL A   1      52.750  34.905  24.368  1.00  0.00     0.124 S 
ATOM     95  O   UNL A   1      52.805  33.460  24.171  1.00  0.00    -0.237 OA
ATOM     96  O   UNL A   1      52.751  35.711  23.151  1.00  0.00    -0.237 OA
ATOM     97  O   UNL A   1      53.576  35.414  25.458  1.00  0.00    -0.744 OA
ENDBRANCH  93  94
ENDBRANCH  61  86
ENDBRANCH  35  36
ENDBRANCH  28  30
ENDBRANCH  27  28
ENDBRANCH  26  27
ENDBRANCH  25  26
ENDBRANCH   1  25
TORSDOF 20
ENDMDL
