MODEL 1
REMARK VINA RESULT:     -10.6      0.000      0.000
REMARK SMILES C[C@@H](C(=O)OCCOCCOC(=O)c1ccc(-c2c3nc(c(-c4c(F)cc(S(=O)(=O)[O-])cc4F)c4ccc([nH]4)c(-c4c(F)cc(S(=O)(=O)[O-])cc4F)c4nc(c(-c5c(F)cc(S(=O)(=O)[O-])cc5F)c5ccc2[nH]5)C=C4)C=C3)cc1)[C@H](C)[N@@H+]1C[C@H]2C[NH2+]C[C@@H]2[C@@H]1C
REMARK SMILES IDX 9 1 8 2 7 3 6 4 5 5 3 6 4 7 2 8 1 9 80 10 81 11 82 12 83 13
REMARK SMILES IDX 89 14 84 16 88 17 90 18 85 19 87 20 86 21 10 24 11 25 12 26
REMARK SMILES IDX 13 27 14 28 15 29 79 30 16 31 78 32 17 33 18 34 19 35 72 36
REMARK SMILES IDX 20 37 77 38 71 39 73 40 21 41 76 42 70 43 69 44 22 46 56 47
REMARK SMILES IDX 35 48 55 49 36 50 39 51 54 52 74 53 37 54 38 55 53 57 75 58
REMARK SMILES IDX 40 59 23 60 24 61 33 62 25 63 26 64 32 65 34 66 27 67 28 68
REMARK SMILES IDX 29 69 30 70 31 71 57 72 58 73 67 74 59 75 60 76 66 77 68 78
REMARK SMILES IDX 61 79 62 80 63 81 64 82 65 83 41 84 42 85 51 86 43 87 44 88
REMARK SMILES IDX 50 89 52 90 45 91 46 92 47 93 48 94 49 95
REMARK H PARENT 82 15 86 22 86 23 73 45 39 56
REMARK Flexibility Score: inf
ROOT
ATOM      1  C   UNL A   1      39.628  21.795  26.154  1.00  0.00     0.202 C 
ENDROOT
BRANCH   1   2
ATOM      2  O   UNL A   1      38.250  22.069  25.927  1.00  0.00    -0.374 OA
BRANCH   2   3
ATOM      3  C   UNL A   1      37.588  21.282  24.933  1.00  0.00     0.202 C 
BRANCH   3   4
ATOM      4  C   UNL A   1      36.620  22.021  24.004  1.00  0.00     0.261 C 
BRANCH   4   5
ATOM      5  O   UNL A   1      35.254  21.828  24.422  1.00  0.00    -0.463 OA
BRANCH   5   6
ATOM      6  C   UNL A   1      34.373  22.789  24.037  1.00  0.00     0.314 C 
ATOM      7  O   UNL A   1      33.834  22.819  22.936  1.00  0.00    -0.252 OA
BRANCH   6   8
ATOM      8  C   UNL A   1      34.097  23.833  25.125  1.00  0.00     0.154 C 
ATOM      9  C   UNL A   1      34.391  23.357  26.551  1.00  0.00     0.026 C 
BRANCH   8  10
ATOM     10  C   UNL A   1      32.656  24.437  24.849  1.00  0.00     0.195 C 
ATOM     11  C   UNL A   1      31.676  23.281  25.122  1.00  0.00     0.076 C 
BRANCH  10  12
ATOM     12  N   UNL A   1      32.523  25.135  23.544  1.00  0.00    -0.329 N 
ATOM     13  C   UNL A   1      33.502  26.266  23.434  1.00  0.00     0.272 C 
ATOM     14  C   UNL A   1      31.211  25.634  22.992  1.00  0.00     0.190 C 
ATOM     15  H   UNL A   1      32.692  24.317  22.959  1.00  0.00     0.348 HD
ATOM     16  C   UNL A   1      32.615  27.473  23.399  1.00  0.00     0.114 C 
ATOM     17  C   UNL A   1      31.578  27.005  22.419  1.00  0.00     0.116 C 
ATOM     18  C   UNL A   1      29.948  25.719  23.843  1.00  0.00     0.076 C 
ATOM     19  C   UNL A   1      33.002  28.802  22.814  1.00  0.00     0.270 C 
ATOM     20  C   UNL A   1      30.713  28.240  22.338  1.00  0.00     0.271 C 
ATOM     21  N   UNL A   1      31.693  29.360  22.381  1.00  0.00    -0.345 N 
ATOM     22  H   UNL A   1      31.783  29.777  21.455  1.00  0.00     0.346 HD
ATOM     23  H   UNL A   1      31.380  30.082  23.030  1.00  0.00     0.346 HD
ENDBRANCH  10  12
ENDBRANCH   8  10
ENDBRANCH   6   8
ENDBRANCH   5   6
ENDBRANCH   4   5
ENDBRANCH   3   4
ENDBRANCH   2   3
ENDBRANCH   1   2
BRANCH   1  24
ATOM     24  C   UNL A   1      40.530  22.975  26.543  1.00  0.00     0.261 C 
BRANCH  24  25
ATOM     25  O   UNL A   1      39.851  24.238  26.480  1.00  0.00    -0.460 OA
BRANCH  25  26
ATOM     26  C   UNL A   1      40.674  25.302  26.320  1.00  0.00     0.338 C 
ATOM     27  O   UNL A   1      41.166  25.701  25.272  1.00  0.00    -0.246 OA
BRANCH  26  28
ATOM     28  C   UNL A   1      40.768  26.069  27.575  1.00  0.00     0.060 A 
ATOM     29  C   UNL A   1      39.667  26.013  28.440  1.00  0.00     0.016 A 
ATOM     30  C   UNL A   1      41.868  26.874  27.874  1.00  0.00     0.016 A 
ATOM     31  C   UNL A   1      39.638  26.807  29.582  1.00  0.00     0.010 A 
ATOM     32  C   UNL A   1      41.832  27.679  29.018  1.00  0.00     0.010 A 
ATOM     33  C   UNL A   1      40.700  27.677  29.855  1.00  0.00    -0.014 A 
BRANCH  33  34
ATOM     34  C   UNL A   1      40.544  28.692  30.924  1.00  0.00     0.031 A 
ATOM     35  C   UNL A   1      41.429  28.610  32.138  1.00  0.00     0.074 A 
ATOM     36  C   UNL A   1      39.667  29.703  30.789  1.00  0.00     0.049 A 
ATOM     37  N   UNL A   1      41.467  29.385  33.190  1.00  0.00    -0.248 NA
ATOM     38  C   UNL A   1      42.403  27.506  32.168  1.00  0.00     0.031 C 
ATOM     39  C   UNL A   1      38.786  29.908  29.641  1.00  0.00     0.029 A 
ATOM     40  N   UNL A   1      39.374  30.746  31.631  1.00  0.00    -0.354 N 
ATOM     41  C   UNL A   1      42.465  28.865  34.007  1.00  0.00     0.074 A 
ATOM     42  C   UNL A   1      42.984  27.688  33.344  1.00  0.00     0.031 C 
ATOM     43  C   UNL A   1      38.039  31.005  29.855  1.00  0.00     0.029 A 
ATOM     44  C   UNL A   1      38.372  31.563  31.165  1.00  0.00     0.049 A 
ATOM     45  H   UNL A   1      39.836  30.894  32.487  1.00  0.00     0.167 HD
ATOM     46  C   UNL A   1      42.915  29.332  35.195  1.00  0.00     0.037 A 
ATOM     47  C   UNL A   1      37.778  32.628  31.740  1.00  0.00     0.037 A 
ATOM     48  C   UNL A   1      42.391  30.501  35.852  1.00  0.00     0.049 A 
ATOM     49  C   UNL A   1      38.252  33.095  33.092  1.00  0.00     0.074 A 
ATOM     50  C   UNL A   1      42.782  31.061  37.055  1.00  0.00     0.029 A 
ATOM     51  N   UNL A   1      41.359  31.287  35.362  1.00  0.00    -0.354 N 
ATOM     52  N   UNL A   1      39.208  32.603  33.846  1.00  0.00    -0.248 NA
ATOM     53  C   UNL A   1      37.573  34.263  33.670  1.00  0.00     0.031 C 
ATOM     54  C   UNL A   1      41.956  32.161  37.314  1.00  0.00     0.029 A 
ATOM     55  C   UNL A   1      41.083  32.315  36.248  1.00  0.00     0.049 A 
ATOM     56  H   UNL A   1      40.889  31.136  34.510  1.00  0.00     0.167 HD
ATOM     57  C   UNL A   1      39.259  33.415  34.974  1.00  0.00     0.074 A 
ATOM     58  C   UNL A   1      38.246  34.435  34.799  1.00  0.00     0.031 C 
ATOM     59  C   UNL A   1      40.072  33.325  36.057  1.00  0.00     0.037 A 
BRANCH  46  60
ATOM     60  C   UNL A   1      44.013  28.560  35.873  1.00  0.00     0.058 A 
ATOM     61  C   UNL A   1      43.739  27.465  36.708  1.00  0.00     0.135 A 
ATOM     62  C   UNL A   1      45.358  28.907  35.670  1.00  0.00     0.135 A 
ATOM     63  F   UNL A   1      42.468  27.103  36.952  1.00  0.00    -0.206 F 
ATOM     64  C   UNL A   1      44.757  26.759  37.341  1.00  0.00     0.059 A 
ATOM     65  C   UNL A   1      46.394  28.200  36.272  1.00  0.00     0.059 A 
ATOM     66  F   UNL A   1      45.676  29.947  34.883  1.00  0.00    -0.206 F 
ATOM     67  C   UNL A   1      46.083  27.136  37.118  1.00  0.00     0.060 A 
BRANCH  67  68
ATOM     68  S   UNL A   1      47.394  26.215  37.950  1.00  0.00     0.124 S 
ATOM     69  O   UNL A   1      48.577  26.975  37.557  1.00  0.00    -0.237 OA
ATOM     70  O   UNL A   1      47.010  26.323  39.354  1.00  0.00    -0.237 OA
ATOM     71  O   UNL A   1      47.288  24.879  37.376  1.00  0.00    -0.744 OA
ENDBRANCH  67  68
ENDBRANCH  46  60
BRANCH  47  72
ATOM     72  C   UNL A   1      36.660  33.316  31.044  1.00  0.00     0.058 A 
ATOM     73  C   UNL A   1      36.892  34.163  29.951  1.00  0.00     0.135 A 
ATOM     74  C   UNL A   1      35.331  33.127  31.454  1.00  0.00     0.135 A 
ATOM     75  F   UNL A   1      38.147  34.384  29.529  1.00  0.00    -0.206 F 
ATOM     76  C   UNL A   1      35.849  34.807  29.293  1.00  0.00     0.059 A 
ATOM     77  C   UNL A   1      34.268  33.741  30.797  1.00  0.00     0.059 A 
ATOM     78  F   UNL A   1      35.054  32.319  32.488  1.00  0.00    -0.206 F 
ATOM     79  C   UNL A   1      34.539  34.586  29.722  1.00  0.00     0.060 A 
BRANCH  79  80
ATOM     80  S   UNL A   1      33.185  35.379  28.826  1.00  0.00     0.124 S 
ATOM     81  O   UNL A   1      33.905  36.338  27.997  1.00  0.00    -0.237 OA
ATOM     82  O   UNL A   1      32.580  34.251  28.124  1.00  0.00    -0.237 OA
ATOM     83  O   UNL A   1      32.368  35.952  29.893  1.00  0.00    -0.744 OA
ENDBRANCH  79  80
ENDBRANCH  47  72
BRANCH  59  84
ATOM     84  C   UNL A   1      39.923  34.374  37.125  1.00  0.00     0.058 A 
ATOM     85  C   UNL A   1      40.583  35.610  37.042  1.00  0.00     0.135 A 
ATOM     86  C   UNL A   1      39.063  34.161  38.214  1.00  0.00     0.135 A 
ATOM     87  F   UNL A   1      41.420  35.862  36.024  1.00  0.00    -0.206 F 
ATOM     88  C   UNL A   1      40.414  36.590  38.015  1.00  0.00     0.059 A 
ATOM     89  C   UNL A   1      38.858  35.136  39.185  1.00  0.00     0.059 A 
ATOM     90  F   UNL A   1      38.398  33.001  38.334  1.00  0.00    -0.206 F 
ATOM     91  C   UNL A   1      39.547  36.344  39.082  1.00  0.00     0.060 A 
BRANCH  91  92
ATOM     92  S   UNL A   1      39.309  37.637  40.321  1.00  0.00     0.124 S 
ATOM     93  O   UNL A   1      40.652  38.196  40.424  1.00  0.00    -0.237 OA
ATOM     94  O   UNL A   1      38.311  38.494  39.690  1.00  0.00    -0.237 OA
ATOM     95  O   UNL A   1      38.843  36.901  41.493  1.00  0.00    -0.744 OA
ENDBRANCH  91  92
ENDBRANCH  59  84
ENDBRANCH  33  34
ENDBRANCH  26  28
ENDBRANCH  25  26
ENDBRANCH  24  25
ENDBRANCH   1  24
TORSDOF 19
ENDMDL
MODEL 2
REMARK VINA RESULT:     -10.5      4.870     10.650
REMARK SMILES C[C@@H](C(=O)OCCOCCOC(=O)c1ccc(-c2c3nc(c(-c4c(F)cc(S(=O)(=O)[O-])cc4F)c4ccc([nH]4)c(-c4c(F)cc(S(=O)(=O)[O-])cc4F)c4nc(c(-c5c(F)cc(S(=O)(=O)[O-])cc5F)c5ccc2[nH]5)C=C4)C=C3)cc1)[C@H](C)[N@@H+]1C[C@H]2C[NH2+]C[C@@H]2[C@@H]1C
REMARK SMILES IDX 9 1 8 2 7 3 6 4 5 5 3 6 4 7 2 8 1 9 80 10 81 11 82 12 83 13
REMARK SMILES IDX 89 14 84 16 88 17 90 18 85 19 87 20 86 21 10 24 11 25 12 26
REMARK SMILES IDX 13 27 14 28 15 29 79 30 16 31 78 32 17 33 18 34 19 35 72 36
REMARK SMILES IDX 20 37 77 38 71 39 73 40 21 41 76 42 70 43 69 44 22 46 56 47
REMARK SMILES IDX 35 48 55 49 36 50 39 51 54 52 74 53 37 54 38 55 53 57 75 58
REMARK SMILES IDX 40 59 23 60 24 61 33 62 25 63 26 64 32 65 34 66 27 67 28 68
REMARK SMILES IDX 29 69 30 70 31 71 57 72 58 73 67 74 59 75 60 76 66 77 68 78
REMARK SMILES IDX 61 79 62 80 63 81 64 82 65 83 41 84 42 85 51 86 43 87 44 88
REMARK SMILES IDX 50 89 52 90 45 91 46 92 47 93 48 94 49 95
REMARK H PARENT 82 15 86 22 86 23 73 45 39 56
REMARK Flexibility Score: inf
ROOT
ATOM      1  C   UNL A   1      31.786  29.850  26.139  1.00  0.00     0.202 C 
ENDROOT
BRANCH   1   2
ATOM      2  O   UNL A   1      31.986  29.115  24.936  1.00  0.00    -0.374 OA
BRANCH   2   3
ATOM      3  C   UNL A   1      33.299  28.598  24.703  1.00  0.00     0.202 C 
BRANCH   3   4
ATOM      4  C   UNL A   1      33.730  28.451  23.241  1.00  0.00     0.261 C 
BRANCH   4   5
ATOM      5  O   UNL A   1      32.723  27.763  22.472  1.00  0.00    -0.463 OA
BRANCH   5   6
ATOM      6  C   UNL A   1      32.939  26.437  22.263  1.00  0.00     0.314 C 
ATOM      7  O   UNL A   1      34.004  25.972  21.873  1.00  0.00    -0.252 OA
BRANCH   6   8
ATOM      8  C   UNL A   1      31.721  25.564  22.585  1.00  0.00     0.154 C 
ATOM      9  C   UNL A   1      30.648  26.257  23.431  1.00  0.00     0.026 C 
BRANCH   8  10
ATOM     10  C   UNL A   1      32.262  24.168  23.110  1.00  0.00     0.195 C 
ATOM     11  C   UNL A   1      31.001  23.346  23.439  1.00  0.00     0.076 C 
BRANCH  10  12
ATOM     12  N   UNL A   1      33.292  24.269  24.175  1.00  0.00    -0.329 N 
ATOM     13  C   UNL A   1      34.330  23.198  24.026  1.00  0.00     0.272 C 
ATOM     14  C   UNL A   1      32.969  24.367  25.646  1.00  0.00     0.190 C 
ATOM     15  H   UNL A   1      33.578  25.225  23.966  1.00  0.00     0.348 HD
ATOM     16  C   UNL A   1      34.124  22.360  25.251  1.00  0.00     0.114 C 
ATOM     17  C   UNL A   1      34.004  23.439  26.287  1.00  0.00     0.116 C 
ATOM     18  C   UNL A   1      31.573  24.089  26.194  1.00  0.00     0.076 C 
ATOM     19  C   UNL A   1      35.168  21.469  25.864  1.00  0.00     0.270 C 
ATOM     20  C   UNL A   1      33.852  22.597  27.531  1.00  0.00     0.271 C 
ATOM     21  N   UNL A   1      34.780  21.456  27.300  1.00  0.00    -0.345 N 
ATOM     22  H   UNL A   1      35.609  21.561  27.884  1.00  0.00     0.346 HD
ATOM     23  H   UNL A   1      34.328  20.575  27.539  1.00  0.00     0.346 HD
ENDBRANCH  10  12
ENDBRANCH   8  10
ENDBRANCH   6   8
ENDBRANCH   5   6
ENDBRANCH   4   5
ENDBRANCH   3   4
ENDBRANCH   2   3
ENDBRANCH   1   2
BRANCH   1  24
ATOM     24  C   UNL A   1      32.955  30.704  26.649  1.00  0.00     0.261 C 
BRANCH  24  25
ATOM     25  O   UNL A   1      33.670  30.081  27.726  1.00  0.00    -0.460 OA
BRANCH  25  26
ATOM     26  C   UNL A   1      34.574  30.888  28.333  1.00  0.00     0.338 C 
ATOM     27  O   UNL A   1      34.347  31.948  28.903  1.00  0.00    -0.246 OA
BRANCH  26  28
ATOM     28  C   UNL A   1      35.891  30.230  28.389  1.00  0.00     0.060 A 
ATOM     29  C   UNL A   1      36.294  29.718  29.630  1.00  0.00     0.016 A 
ATOM     30  C   UNL A   1      36.741  30.170  27.284  1.00  0.00     0.016 A 
ATOM     31  C   UNL A   1      37.574  29.193  29.783  1.00  0.00     0.010 A 
ATOM     32  C   UNL A   1      38.031  29.651  27.443  1.00  0.00     0.010 A 
ATOM     33  C   UNL A   1      38.464  29.197  28.703  1.00  0.00    -0.014 A 
BRANCH  33  34
ATOM     34  C   UNL A   1      39.891  28.875  28.944  1.00  0.00     0.031 A 
ATOM     35  C   UNL A   1      40.778  29.922  29.563  1.00  0.00     0.074 A 
ATOM     36  C   UNL A   1      40.376  27.650  28.669  1.00  0.00     0.049 A 
ATOM     37  N   UNL A   1      42.048  29.862  29.861  1.00  0.00    -0.248 NA
ATOM     38  C   UNL A   1      40.143  31.210  29.888  1.00  0.00     0.031 C 
ATOM     39  C   UNL A   1      39.603  26.545  28.105  1.00  0.00     0.029 A 
ATOM     40  N   UNL A   1      41.638  27.136  28.824  1.00  0.00    -0.354 N 
ATOM     41  C   UNL A   1      42.367  31.099  30.409  1.00  0.00     0.074 A 
ATOM     42  C   UNL A   1      41.165  31.901  30.370  1.00  0.00     0.031 C 
ATOM     43  C   UNL A   1      40.413  25.482  27.951  1.00  0.00     0.029 A 
ATOM     44  C   UNL A   1      41.763  25.842  28.381  1.00  0.00     0.049 A 
ATOM     45  H   UNL A   1      42.384  27.646  29.217  1.00  0.00     0.167 HD
ATOM     46  C   UNL A   1      43.552  31.522  30.909  1.00  0.00     0.037 A 
ATOM     47  C   UNL A   1      42.849  25.046  28.309  1.00  0.00     0.037 A 
ATOM     48  C   UNL A   1      44.747  30.720  30.941  1.00  0.00     0.049 A 
ATOM     49  C   UNL A   1      44.172  25.560  28.815  1.00  0.00     0.074 A 
ATOM     50  C   UNL A   1      45.996  31.054  31.432  1.00  0.00     0.029 A 
ATOM     51  N   UNL A   1      44.841  29.423  30.457  1.00  0.00    -0.354 N 
ATOM     52  N   UNL A   1      44.456  26.726  29.345  1.00  0.00    -0.248 NA
ATOM     53  C   UNL A   1      45.322  24.649  28.718  1.00  0.00     0.031 C 
ATOM     54  C   UNL A   1      46.858  29.975  31.205  1.00  0.00     0.029 A 
ATOM     55  C   UNL A   1      46.133  28.950  30.618  1.00  0.00     0.049 A 
ATOM     56  H   UNL A   1      44.100  28.914  30.057  1.00  0.00     0.167 HD
ATOM     57  C   UNL A   1      45.809  26.680  29.665  1.00  0.00     0.074 A 
ATOM     58  C   UNL A   1      46.284  25.368  29.279  1.00  0.00     0.031 C 
ATOM     59  C   UNL A   1      46.588  27.638  30.230  1.00  0.00     0.037 A 
BRANCH  46  60
ATOM     60  C   UNL A   1      43.618  32.928  31.439  1.00  0.00     0.058 A 
ATOM     61  C   UNL A   1      43.838  34.026  30.592  1.00  0.00     0.135 A 
ATOM     62  C   UNL A   1      43.440  33.183  32.808  1.00  0.00     0.135 A 
ATOM     63  F   UNL A   1      44.034  33.837  29.276  1.00  0.00    -0.206 F 
ATOM     64  C   UNL A   1      43.908  35.325  31.087  1.00  0.00     0.059 A 
ATOM     65  C   UNL A   1      43.480  34.475  33.322  1.00  0.00     0.059 A 
ATOM     66  F   UNL A   1      43.229  32.169  33.662  1.00  0.00    -0.206 F 
ATOM     67  C   UNL A   1      43.730  35.539  32.455  1.00  0.00     0.060 A 
BRANCH  67  68
ATOM     68  S   UNL A   1      43.828  37.228  33.086  1.00  0.00     0.124 S 
ATOM     69  O   UNL A   1      45.112  37.205  33.779  1.00  0.00    -0.237 OA
ATOM     70  O   UNL A   1      43.783  38.021  31.861  1.00  0.00    -0.237 OA
ATOM     71  O   UNL A   1      42.654  37.339  33.944  1.00  0.00    -0.744 OA
ENDBRANCH  67  68
ENDBRANCH  46  60
BRANCH  47  72
ATOM     72  C   UNL A   1      42.731  23.685  27.724  1.00  0.00     0.058 A 
ATOM     73  C   UNL A   1      42.483  22.564  28.529  1.00  0.00     0.135 A 
ATOM     74  C   UNL A   1      42.853  23.483  26.340  1.00  0.00     0.135 A 
ATOM     75  F   UNL A   1      42.370  22.705  29.858  1.00  0.00    -0.206 F 
ATOM     76  C   UNL A   1      42.369  21.288  27.986  1.00  0.00     0.059 A 
ATOM     77  C   UNL A   1      42.718  22.221  25.771  1.00  0.00     0.059 A 
ATOM     78  F   UNL A   1      43.080  24.524  25.525  1.00  0.00    -0.206 F 
ATOM     79  C   UNL A   1      42.484  21.128  26.603  1.00  0.00     0.060 A 
BRANCH  79  80
ATOM     80  S   UNL A   1      42.275  19.477  25.900  1.00  0.00     0.124 S 
ATOM     81  O   UNL A   1      42.652  18.629  27.025  1.00  0.00    -0.237 OA
ATOM     82  O   UNL A   1      40.859  19.474  25.541  1.00  0.00    -0.237 OA
ATOM     83  O   UNL A   1      43.198  19.476  24.769  1.00  0.00    -0.744 OA
ENDBRANCH  79  80
ENDBRANCH  47  72
BRANCH  59  84
ATOM     84  C   UNL A   1      48.028  27.294  30.493  1.00  0.00     0.058 A 
ATOM     85  C   UNL A   1      48.446  26.756  31.721  1.00  0.00     0.135 A 
ATOM     86  C   UNL A   1      48.992  27.449  29.483  1.00  0.00     0.135 A 
ATOM     87  F   UNL A   1      47.566  26.591  32.720  1.00  0.00    -0.206 F 
ATOM     88  C   UNL A   1      49.774  26.407  31.946  1.00  0.00     0.059 A 
ATOM     89  C   UNL A   1      50.320  27.082  29.677  1.00  0.00     0.059 A 
ATOM     90  F   UNL A   1      48.642  27.947  28.286  1.00  0.00    -0.206 F 
ATOM     91  C   UNL A   1      50.703  26.572  30.917  1.00  0.00     0.060 A 
BRANCH  91  92
ATOM     92  S   UNL A   1      52.417  26.083  31.210  1.00  0.00     0.124 S 
ATOM     93  O   UNL A   1      52.861  27.112  32.143  1.00  0.00    -0.237 OA
ATOM     94  O   UNL A   1      52.269  24.743  31.767  1.00  0.00    -0.237 OA
ATOM     95  O   UNL A   1      53.018  26.139  29.880  1.00  0.00    -0.744 OA
ENDBRANCH  91  92
ENDBRANCH  59  84
ENDBRANCH  33  34
ENDBRANCH  26  28
ENDBRANCH  25  26
ENDBRANCH  24  25
ENDBRANCH   1  24
TORSDOF 19
ENDMDL
MODEL 3
REMARK VINA RESULT:     -10.4      0.926      1.773
REMARK SMILES C[C@@H](C(=O)OCCOCCOC(=O)c1ccc(-c2c3nc(c(-c4c(F)cc(S(=O)(=O)[O-])cc4F)c4ccc([nH]4)c(-c4c(F)cc(S(=O)(=O)[O-])cc4F)c4nc(c(-c5c(F)cc(S(=O)(=O)[O-])cc5F)c5ccc2[nH]5)C=C4)C=C3)cc1)[C@H](C)[N@@H+]1C[C@H]2C[NH2+]C[C@@H]2[C@@H]1C
REMARK SMILES IDX 9 1 8 2 7 3 6 4 5 5 3 6 4 7 2 8 1 9 80 10 81 11 82 12 83 13
REMARK SMILES IDX 89 14 84 16 88 17 90 18 85 19 87 20 86 21 10 24 11 25 12 26
REMARK SMILES IDX 13 27 14 28 15 29 79 30 16 31 78 32 17 33 18 34 19 35 72 36
REMARK SMILES IDX 20 37 77 38 71 39 73 40 21 41 76 42 70 43 69 44 22 46 56 47
REMARK SMILES IDX 35 48 55 49 36 50 39 51 54 52 74 53 37 54 38 55 53 57 75 58
REMARK SMILES IDX 40 59 23 60 24 61 33 62 25 63 26 64 32 65 34 66 27 67 28 68
REMARK SMILES IDX 29 69 30 70 31 71 57 72 58 73 67 74 59 75 60 76 66 77 68 78
REMARK SMILES IDX 61 79 62 80 63 81 64 82 65 83 41 84 42 85 51 86 43 87 44 88
REMARK SMILES IDX 50 89 52 90 45 91 46 92 47 93 48 94 49 95
REMARK H PARENT 82 15 86 22 86 23 73 45 39 56
REMARK Flexibility Score: inf
ROOT
ATOM      1  C   UNL A   1      38.600  22.631  26.377  1.00  0.00     0.202 C 
ENDROOT
BRANCH   1   2
ATOM      2  O   UNL A   1      37.983  22.245  25.153  1.00  0.00    -0.374 OA
BRANCH   2   3
ATOM      3  C   UNL A   1      37.087  21.132  25.201  1.00  0.00     0.202 C 
BRANCH   3   4
ATOM      4  C   UNL A   1      35.678  21.408  25.734  1.00  0.00     0.261 C 
BRANCH   4   5
ATOM      5  O   UNL A   1      34.783  21.773  24.664  1.00  0.00    -0.463 OA
BRANCH   5   6
ATOM      6  C   UNL A   1      33.622  22.371  25.040  1.00  0.00     0.314 C 
ATOM      7  O   UNL A   1      33.535  23.177  25.960  1.00  0.00    -0.252 OA
BRANCH   6   8
ATOM      8  C   UNL A   1      32.419  21.956  24.185  1.00  0.00     0.154 C 
ATOM      9  C   UNL A   1      32.480  20.520  23.657  1.00  0.00     0.026 C 
BRANCH   8  10
ATOM     10  C   UNL A   1      32.175  23.106  23.119  1.00  0.00     0.195 C 
ATOM     11  C   UNL A   1      33.260  22.896  22.046  1.00  0.00     0.076 C 
BRANCH  10  12
ATOM     12  N   UNL A   1      32.063  24.469  23.700  1.00  0.00    -0.329 N 
ATOM     13  C   UNL A   1      30.758  24.642  24.420  1.00  0.00     0.272 C 
ATOM     14  C   UNL A   1      32.305  25.735  22.918  1.00  0.00     0.190 C 
ATOM     15  H   UNL A   1      32.905  24.419  24.272  1.00  0.00     0.348 HD
ATOM     16  C   UNL A   1      30.055  25.676  23.594  1.00  0.00     0.114 C 
ATOM     17  C   UNL A   1      31.177  26.653  23.394  1.00  0.00     0.116 C 
ATOM     18  C   UNL A   1      32.412  25.746  21.397  1.00  0.00     0.076 C 
ATOM     19  C   UNL A   1      28.960  26.573  24.097  1.00  0.00     0.270 C 
ATOM     20  C   UNL A   1      30.457  27.724  22.608  1.00  0.00     0.271 C 
ATOM     21  N   UNL A   1      29.110  27.780  23.240  1.00  0.00    -0.345 N 
ATOM     22  H   UNL A   1      29.029  28.622  23.810  1.00  0.00     0.346 HD
ATOM     23  H   UNL A   1      28.382  27.803  22.527  1.00  0.00     0.346 HD
ENDBRANCH  10  12
ENDBRANCH   8  10
ENDBRANCH   6   8
ENDBRANCH   5   6
ENDBRANCH   4   5
ENDBRANCH   3   4
ENDBRANCH   2   3
ENDBRANCH   1   2
BRANCH   1  24
ATOM     24  C   UNL A   1      40.112  22.403  26.510  1.00  0.00     0.261 C 
BRANCH  24  25
ATOM     25  O   UNL A   1      40.704  23.192  27.552  1.00  0.00    -0.460 OA
BRANCH  25  26
ATOM     26  C   UNL A   1      41.378  24.281  27.110  1.00  0.00     0.338 C 
ATOM     27  O   UNL A   1      42.074  24.357  26.105  1.00  0.00    -0.246 OA
BRANCH  26  28
ATOM     28  C   UNL A   1      41.017  25.465  27.909  1.00  0.00     0.060 A 
ATOM     29  C   UNL A   1      42.017  26.425  28.112  1.00  0.00     0.016 A 
ATOM     30  C   UNL A   1      39.761  25.608  28.502  1.00  0.00     0.016 A 
ATOM     31  C   UNL A   1      41.783  27.506  28.956  1.00  0.00     0.010 A 
ATOM     32  C   UNL A   1      39.532  26.691  29.358  1.00  0.00     0.010 A 
ATOM     33  C   UNL A   1      40.555  27.622  29.618  1.00  0.00    -0.014 A 
BRANCH  33  34
ATOM     34  C   UNL A   1      40.411  28.626  30.699  1.00  0.00     0.031 A 
ATOM     35  C   UNL A   1      41.306  28.528  31.905  1.00  0.00     0.074 A 
ATOM     36  C   UNL A   1      39.536  29.642  30.583  1.00  0.00     0.049 A 
ATOM     37  N   UNL A   1      41.355  29.290  32.965  1.00  0.00    -0.248 NA
ATOM     38  C   UNL A   1      42.276  27.421  31.914  1.00  0.00     0.031 C 
ATOM     39  C   UNL A   1      38.646  29.862  29.444  1.00  0.00     0.029 A 
ATOM     40  N   UNL A   1      39.253  30.675  31.438  1.00  0.00    -0.354 N 
ATOM     41  C   UNL A   1      42.358  28.758  33.767  1.00  0.00     0.074 A 
ATOM     42  C   UNL A   1      42.867  27.588  33.087  1.00  0.00     0.031 C 
ATOM     43  C   UNL A   1      37.905  30.959  29.677  1.00  0.00     0.029 A 
ATOM     44  C   UNL A   1      38.251  31.501  30.990  1.00  0.00     0.049 A 
ATOM     45  H   UNL A   1      39.723  30.813  32.293  1.00  0.00     0.167 HD
ATOM     46  C   UNL A   1      42.819  29.211  34.957  1.00  0.00     0.037 A 
ATOM     47  C   UNL A   1      37.664  32.561  31.582  1.00  0.00     0.037 A 
ATOM     48  C   UNL A   1      42.304  30.374  35.632  1.00  0.00     0.049 A 
ATOM     49  C   UNL A   1      38.152  33.011  32.935  1.00  0.00     0.074 A 
ATOM     50  C   UNL A   1      42.707  30.920  36.838  1.00  0.00     0.029 A 
ATOM     51  N   UNL A   1      41.270  31.169  35.159  1.00  0.00    -0.354 N 
ATOM     52  N   UNL A   1      39.111  32.508  33.675  1.00  0.00    -0.248 NA
ATOM     53  C   UNL A   1      37.480  34.175  33.531  1.00  0.00     0.031 C 
ATOM     54  C   UNL A   1      41.886  32.019  37.116  1.00  0.00     0.029 A 
ATOM     55  C   UNL A   1      41.006  32.188  36.059  1.00  0.00     0.049 A 
ATOM     56  H   UNL A   1      40.794  31.029  34.309  1.00  0.00     0.167 HD
ATOM     57  C   UNL A   1      39.175  33.308  34.812  1.00  0.00     0.074 A 
ATOM     58  C   UNL A   1      38.163  34.333  34.657  1.00  0.00     0.031 C 
ATOM     59  C   UNL A   1      39.996  33.203  35.887  1.00  0.00     0.037 A 
BRANCH  46  60
ATOM     60  C   UNL A   1      43.920  28.428  35.617  1.00  0.00     0.058 A 
ATOM     61  C   UNL A   1      43.648  27.407  36.543  1.00  0.00     0.135 A 
ATOM     62  C   UNL A   1      45.264  28.688  35.307  1.00  0.00     0.135 A 
ATOM     63  F   UNL A   1      42.380  27.130  36.890  1.00  0.00    -0.206 F 
ATOM     64  C   UNL A   1      44.670  26.692  37.158  1.00  0.00     0.059 A 
ATOM     65  C   UNL A   1      46.302  27.968  35.891  1.00  0.00     0.059 A 
ATOM     66  F   UNL A   1      45.580  29.655  34.431  1.00  0.00    -0.206 F 
ATOM     67  C   UNL A   1      45.995  26.982  36.827  1.00  0.00     0.060 A 
BRANCH  67  68
ATOM     68  S   UNL A   1      47.312  26.049  37.638  1.00  0.00     0.124 S 
ATOM     69  O   UNL A   1      47.741  26.988  38.668  1.00  0.00    -0.237 OA
ATOM     70  O   UNL A   1      46.607  24.863  38.115  1.00  0.00    -0.237 OA
ATOM     71  O   UNL A   1      48.271  25.814  36.564  1.00  0.00    -0.744 OA
ENDBRANCH  67  68
ENDBRANCH  46  60
BRANCH  47  72
ATOM     72  C   UNL A   1      36.543  33.261  30.902  1.00  0.00     0.058 A 
ATOM     73  C   UNL A   1      35.215  33.084  31.316  1.00  0.00     0.135 A 
ATOM     74  C   UNL A   1      36.783  34.133  29.828  1.00  0.00     0.135 A 
ATOM     75  F   UNL A   1      34.934  32.253  32.331  1.00  0.00    -0.206 F 
ATOM     76  C   UNL A   1      34.162  33.739  30.685  1.00  0.00     0.059 A 
ATOM     77  C   UNL A   1      35.749  34.818  29.197  1.00  0.00     0.059 A 
ATOM     78  F   UNL A   1      38.037  34.344  29.400  1.00  0.00    -0.206 F 
ATOM     79  C   UNL A   1      34.441  34.608  29.628  1.00  0.00     0.060 A 
BRANCH  79  80
ATOM     80  S   UNL A   1      33.074  35.500  28.853  1.00  0.00     0.124 S 
ATOM     81  O   UNL A   1      32.415  34.435  28.106  1.00  0.00    -0.237 OA
ATOM     82  O   UNL A   1      32.348  36.014  30.010  1.00  0.00    -0.237 OA
ATOM     83  O   UNL A   1      33.750  36.513  28.048  1.00  0.00    -0.744 OA
ENDBRANCH  79  80
ENDBRANCH  47  72
BRANCH  59  84
ATOM     84  C   UNL A   1      39.860  34.240  36.967  1.00  0.00     0.058 A 
ATOM     85  C   UNL A   1      40.459  35.505  36.857  1.00  0.00     0.135 A 
ATOM     86  C   UNL A   1      39.070  33.985  38.101  1.00  0.00     0.135 A 
ATOM     87  F   UNL A   1      41.227  35.798  35.796  1.00  0.00    -0.206 F 
ATOM     88  C   UNL A   1      40.299  36.472  37.844  1.00  0.00     0.059 A 
ATOM     89  C   UNL A   1      38.875  34.947  39.087  1.00  0.00     0.059 A 
ATOM     90  F   UNL A   1      38.465  32.796  38.249  1.00  0.00    -0.206 F 
ATOM     91  C   UNL A   1      39.504  36.185  38.955  1.00  0.00     0.060 A 
BRANCH  91  92
ATOM     92  S   UNL A   1      39.277  37.461  40.212  1.00  0.00     0.124 S 
ATOM     93  O   UNL A   1      38.808  36.675  41.348  1.00  0.00    -0.237 OA
ATOM     94  O   UNL A   1      40.619  38.019  40.338  1.00  0.00    -0.237 OA
ATOM     95  O   UNL A   1      38.287  38.353  39.614  1.00  0.00    -0.744 OA
ENDBRANCH  91  92
ENDBRANCH  59  84
ENDBRANCH  33  34
ENDBRANCH  26  28
ENDBRANCH  25  26
ENDBRANCH  24  25
ENDBRANCH   1  24
TORSDOF 19
ENDMDL
