MODEL 1
REMARK VINA RESULT:     -10.7      0.000      0.000
REMARK SMILES C[C@@H](C(=O)OCCOCCOC(=O)c1ccc(-c2c3nc(c(-c4c(F)cc(S(=O)(=O)[O-])cc4F)c4ccc([nH]4)c(-c4c(F)cc(S(=O)(=O)[O-])cc4F)c4nc(c(-c5c(F)cc(S(=O)(=O)[O-])cc5F)c5ccc2[nH]5)C=C4)C=C3)cc1)c1ccc(-c2cccc(OC(=O)NCCC3CCCCC3)c2)c(F)c1
REMARK SMILES IDX 6 1 5 2 3 3 4 4 2 5 1 6 80 7 81 8 104 9 82 10 102 11 83 12
REMARK SMILES IDX 103 13 84 14 85 15 101 16 86 17 88 18 87 19 89 20 90 21
REMARK SMILES IDX 91 22 92 23 93 25 94 26 95 27 96 28 100 29 97 30 99 31 98 32
REMARK SMILES IDX 7 33 8 34 9 35 10 36 11 37 12 38 13 39 14 40 15 41 79 42
REMARK SMILES IDX 16 43 78 44 17 45 18 46 19 47 72 48 20 49 77 50 71 51 73 52
REMARK SMILES IDX 21 53 76 54 70 55 69 56 22 58 56 59 35 60 55 61 36 62 39 63
REMARK SMILES IDX 54 64 74 65 37 66 38 67 53 69 75 70 40 71 23 72 24 73 33 74
REMARK SMILES IDX 25 75 26 76 32 77 34 78 27 79 28 80 29 81 30 82 31 83 57 84
REMARK SMILES IDX 58 85 67 86 59 87 60 88 66 89 68 90 61 91 62 92 63 93 64 94
REMARK SMILES IDX 65 95 41 96 42 97 51 98 43 99 44 100 50 101 52 102 45 103
REMARK SMILES IDX 46 104 47 105 48 106 49 107
REMARK H PARENT 92 24 73 57 39 68
REMARK Flexibility Score: inf
ROOT
ATOM      1  C   UNL A   1      33.621  31.286  27.853  1.00  0.00     0.261 C 
ENDROOT
BRANCH   1   2
ATOM      2  O   UNL A   1      33.203  30.181  27.033  1.00  0.00    -0.463 OA
BRANCH   2   3
ATOM      3  C   UNL A   1      32.155  30.436  26.202  1.00  0.00     0.313 C 
ATOM      4  O   UNL A   1      31.373  31.370  26.349  1.00  0.00    -0.252 OA
BRANCH   3   5
ATOM      5  C   UNL A   1      32.065  29.448  25.025  1.00  0.00     0.126 C 
ATOM      6  C   UNL A   1      30.736  29.486  24.263  1.00  0.00     0.025 C 
BRANCH   5   7
ATOM      7  C   UNL A   1      32.498  28.048  25.471  1.00  0.00    -0.031 A 
ATOM      8  C   UNL A   1      33.790  27.528  25.295  1.00  0.00     0.005 A 
ATOM      9  C   UNL A   1      31.524  27.201  26.023  1.00  0.00     0.044 A 
ATOM     10  C   UNL A   1      34.085  26.195  25.631  1.00  0.00     0.012 A 
ATOM     11  C   UNL A   1      31.822  25.879  26.347  1.00  0.00     0.131 A 
ATOM     12  C   UNL A   1      33.098  25.341  26.148  1.00  0.00     0.018 A 
ATOM     13  F   UNL A   1      30.836  25.116  26.843  1.00  0.00    -0.206 F 
BRANCH  12  14
ATOM     14  C   UNL A   1      33.365  23.918  26.407  1.00  0.00    -0.012 A 
ATOM     15  C   UNL A   1      33.477  23.406  27.708  1.00  0.00     0.009 A 
ATOM     16  C   UNL A   1      33.502  23.027  25.326  1.00  0.00     0.056 A 
ATOM     17  C   UNL A   1      33.704  22.042  27.923  1.00  0.00     0.004 A 
ATOM     18  C   UNL A   1      33.751  21.672  25.538  1.00  0.00     0.133 A 
ATOM     19  C   UNL A   1      33.839  21.174  26.837  1.00  0.00     0.047 A 
BRANCH  18  20
ATOM     20  O   UNL A   1      33.917  20.718  24.501  1.00  0.00    -0.410 OA
BRANCH  20  21
ATOM     21  C   UNL A   1      32.959  19.779  24.128  1.00  0.00     0.412 C 
ATOM     22  O   UNL A   1      32.770  18.679  24.638  1.00  0.00    -0.224 OA
ATOM     23  N   UNL A   1      32.152  20.180  23.104  1.00  0.00    -0.321 N 
ATOM     24  H   UNL A   1      31.451  19.544  22.836  1.00  0.00     0.167 HD
BRANCH  23  25
ATOM     25  C   UNL A   1      32.194  21.420  22.361  1.00  0.00     0.119 C 
BRANCH  25  26
ATOM     26  C   UNL A   1      31.437  22.533  23.089  1.00  0.00     0.025 C 
BRANCH  26  27
ATOM     27  C   UNL A   1      31.468  23.906  22.379  1.00  0.00    -0.009 C 
ATOM     28  C   UNL A   1      30.758  24.998  23.198  1.00  0.00     0.003 C 
ATOM     29  C   UNL A   1      32.924  24.308  22.088  1.00  0.00     0.003 C 
ATOM     30  C   UNL A   1      30.868  26.373  22.541  1.00  0.00     0.000 C 
ATOM     31  C   UNL A   1      33.010  25.678  21.417  1.00  0.00     0.000 C 
ATOM     32  C   UNL A   1      32.317  26.749  22.250  1.00  0.00     0.000 C 
ENDBRANCH  26  27
ENDBRANCH  25  26
ENDBRANCH  23  25
ENDBRANCH  20  21
ENDBRANCH  18  20
ENDBRANCH  12  14
ENDBRANCH   5   7
ENDBRANCH   3   5
ENDBRANCH   2   3
ENDBRANCH   1   2
BRANCH   1  33
ATOM     33  C   UNL A   1      35.116  31.581  27.697  1.00  0.00     0.202 C 
BRANCH  33  34
ATOM     34  O   UNL A   1      35.574  32.897  27.997  1.00  0.00    -0.374 OA
BRANCH  34  35
ATOM     35  C   UNL A   1      34.995  33.575  29.108  1.00  0.00     0.202 C 
BRANCH  35  36
ATOM     36  C   UNL A   1      35.730  33.532  30.456  1.00  0.00     0.261 C 
BRANCH  36  37
ATOM     37  O   UNL A   1      37.007  32.874  30.393  1.00  0.00    -0.460 OA
BRANCH  37  38
ATOM     38  C   UNL A   1      37.029  31.641  30.961  1.00  0.00     0.338 C 
ATOM     39  O   UNL A   1      36.179  31.153  31.687  1.00  0.00    -0.246 OA
BRANCH  38  40
ATOM     40  C   UNL A   1      38.155  30.850  30.428  1.00  0.00     0.060 A 
ATOM     41  C   UNL A   1      39.098  30.371  31.347  1.00  0.00     0.016 A 
ATOM     42  C   UNL A   1      38.342  30.668  29.058  1.00  0.00     0.016 A 
ATOM     43  C   UNL A   1      40.259  29.749  30.897  1.00  0.00     0.010 A 
ATOM     44  C   UNL A   1      39.514  30.050  28.607  1.00  0.00     0.010 A 
ATOM     45  C   UNL A   1      40.494  29.622  29.521  1.00  0.00    -0.014 A 
BRANCH  45  46
ATOM     46  C   UNL A   1      41.828  29.173  29.048  1.00  0.00     0.031 A 
ATOM     47  C   UNL A   1      42.956  30.168  28.985  1.00  0.00     0.074 A 
ATOM     48  C   UNL A   1      42.039  27.886  28.716  1.00  0.00     0.049 A 
ATOM     49  N   UNL A   1      44.183  30.004  28.566  1.00  0.00    -0.248 NA
ATOM     50  C   UNL A   1      42.657  31.530  29.455  1.00  0.00     0.031 C 
ATOM     51  C   UNL A   1      41.037  26.824  28.778  1.00  0.00     0.029 A 
ATOM     52  N   UNL A   1      43.168  27.259  28.251  1.00  0.00    -0.354 N 
ATOM     53  C   UNL A   1      44.802  31.241  28.712  1.00  0.00     0.074 A 
ATOM     54  C   UNL A   1      43.804  32.153  29.226  1.00  0.00     0.031 C 
ATOM     55  C   UNL A   1      41.593  25.675  28.355  1.00  0.00     0.029 A 
ATOM     56  C   UNL A   1      42.977  25.930  27.957  1.00  0.00     0.049 A 
ATOM     57  H   UNL A   1      44.032  27.717  28.140  1.00  0.00     0.167 HD
ATOM     58  C   UNL A   1      46.087  31.580  28.451  1.00  0.00     0.037 A 
ATOM     59  C   UNL A   1      43.813  25.029  27.404  1.00  0.00     0.037 A 
ATOM     60  C   UNL A   1      47.074  30.663  27.939  1.00  0.00     0.049 A 
ATOM     61  C   UNL A   1      45.219  25.447  27.055  1.00  0.00     0.074 A 
ATOM     62  C   UNL A   1      48.408  30.904  27.656  1.00  0.00     0.029 A 
ATOM     63  N   UNL A   1      46.835  29.332  27.628  1.00  0.00    -0.354 N 
ATOM     64  N   UNL A   1      45.796  26.614  27.214  1.00  0.00    -0.248 NA
ATOM     65  C   UNL A   1      46.087  24.425  26.455  1.00  0.00     0.031 C 
ATOM     66  C   UNL A   1      48.958  29.737  27.117  1.00  0.00     0.029 A 
ATOM     67  C   UNL A   1      47.987  28.747  27.128  1.00  0.00     0.049 A 
ATOM     68  H   UNL A   1      45.973  28.871  27.745  1.00  0.00     0.167 HD
ATOM     69  C   UNL A   1      47.104  26.458  26.763  1.00  0.00     0.074 A 
ATOM     70  C   UNL A   1      47.233  25.080  26.335  1.00  0.00     0.031 C 
ATOM     71  C   UNL A   1      48.106  27.371  26.711  1.00  0.00     0.037 A 
BRANCH  58  72
ATOM     72  C   UNL A   1      46.496  33.011  28.685  1.00  0.00     0.058 A 
ATOM     73  C   UNL A   1      46.387  33.989  27.684  1.00  0.00     0.135 A 
ATOM     74  C   UNL A   1      46.970  33.417  29.944  1.00  0.00     0.135 A 
ATOM     75  F   UNL A   1      45.955  33.655  26.457  1.00  0.00    -0.206 F 
ATOM     76  C   UNL A   1      46.759  35.310  27.912  1.00  0.00     0.059 A 
ATOM     77  C   UNL A   1      47.317  34.740  30.205  1.00  0.00     0.059 A 
ATOM     78  F   UNL A   1      47.096  32.525  30.939  1.00  0.00    -0.206 F 
ATOM     79  C   UNL A   1      47.222  35.676  29.176  1.00  0.00     0.060 A 
BRANCH  79  80
ATOM     80  S   UNL A   1      47.697  37.395  29.457  1.00  0.00     0.124 S 
ATOM     81  O   UNL A   1      48.914  37.495  28.657  1.00  0.00    -0.237 OA
ATOM     82  O   UNL A   1      46.541  38.124  28.946  1.00  0.00    -0.237 OA
ATOM     83  O   UNL A   1      47.890  37.465  30.902  1.00  0.00    -0.744 OA
ENDBRANCH  79  80
ENDBRANCH  58  72
BRANCH  59  84
ATOM     84  C   UNL A   1      43.337  23.646  27.130  1.00  0.00     0.058 A 
ATOM     85  C   UNL A   1      43.073  23.212  25.823  1.00  0.00     0.135 A 
ATOM     86  C   UNL A   1      43.142  22.726  28.174  1.00  0.00     0.135 A 
ATOM     87  F   UNL A   1      43.232  24.056  24.792  1.00  0.00    -0.206 F 
ATOM     88  C   UNL A   1      42.619  21.923  25.560  1.00  0.00     0.059 A 
ATOM     89  C   UNL A   1      42.719  21.424  27.934  1.00  0.00     0.059 A 
ATOM     90  F   UNL A   1      43.391  23.087  29.443  1.00  0.00    -0.206 F 
ATOM     91  C   UNL A   1      42.451  21.034  26.624  1.00  0.00     0.060 A 
BRANCH  91  92
ATOM     92  S   UNL A   1      41.911  19.349  26.265  1.00  0.00     0.124 S 
ATOM     93  O   UNL A   1      42.543  19.106  24.973  1.00  0.00    -0.237 OA
ATOM     94  O   UNL A   1      42.458  18.607  27.396  1.00  0.00    -0.237 OA
ATOM     95  O   UNL A   1      40.455  19.461  26.244  1.00  0.00    -0.744 OA
ENDBRANCH  91  92
ENDBRANCH  59  84
BRANCH  71  96
ATOM     96  C   UNL A   1      49.448  26.905  26.212  1.00  0.00     0.058 A 
ATOM     97  C   UNL A   1      49.851  27.088  24.879  1.00  0.00     0.135 A 
ATOM     98  C   UNL A   1      50.368  26.316  27.096  1.00  0.00     0.135 A 
ATOM     99  F   UNL A   1      49.011  27.640  23.990  1.00  0.00    -0.206 F 
ATOM    100  C   UNL A   1      51.105  26.679  24.435  1.00  0.00     0.059 A 
ATOM    101  C   UNL A   1      51.639  25.931  26.682  1.00  0.00     0.059 A 
ATOM    102  F   UNL A   1      50.042  26.127  28.385  1.00  0.00    -0.206 F 
ATOM    103  C   UNL A   1      51.994  26.105  25.347  1.00  0.00     0.060 A 
BRANCH 103 104
ATOM    104  S   UNL A   1      53.630  25.611  24.763  1.00  0.00     0.124 S 
ATOM    105  O   UNL A   1      53.496  25.788  23.321  1.00  0.00    -0.237 OA
ATOM    106  O   UNL A   1      54.503  26.565  25.441  1.00  0.00    -0.237 OA
ATOM    107  O   UNL A   1      53.751  24.228  25.217  1.00  0.00    -0.744 OA
ENDBRANCH 103 104
ENDBRANCH  71  96
ENDBRANCH  45  46
ENDBRANCH  38  40
ENDBRANCH  37  38
ENDBRANCH  36  37
ENDBRANCH  35  36
ENDBRANCH  34  35
ENDBRANCH  33  34
ENDBRANCH   1  33
TORSDOF 24
ENDMDL
MODEL 2
REMARK VINA RESULT:     -10.7      0.662      7.731
REMARK SMILES C[C@@H](C(=O)OCCOCCOC(=O)c1ccc(-c2c3nc(c(-c4c(F)cc(S(=O)(=O)[O-])cc4F)c4ccc([nH]4)c(-c4c(F)cc(S(=O)(=O)[O-])cc4F)c4nc(c(-c5c(F)cc(S(=O)(=O)[O-])cc5F)c5ccc2[nH]5)C=C4)C=C3)cc1)c1ccc(-c2cccc(OC(=O)NCCC3CCCCC3)c2)c(F)c1
REMARK SMILES IDX 6 1 5 2 3 3 4 4 2 5 1 6 80 7 81 8 104 9 82 10 102 11 83 12
REMARK SMILES IDX 103 13 84 14 85 15 101 16 86 17 88 18 87 19 89 20 90 21
REMARK SMILES IDX 91 22 92 23 93 25 94 26 95 27 96 28 100 29 97 30 99 31 98 32
REMARK SMILES IDX 7 33 8 34 9 35 10 36 11 37 12 38 13 39 14 40 15 41 79 42
REMARK SMILES IDX 16 43 78 44 17 45 18 46 19 47 72 48 20 49 77 50 71 51 73 52
REMARK SMILES IDX 21 53 76 54 70 55 69 56 22 58 56 59 35 60 55 61 36 62 39 63
REMARK SMILES IDX 54 64 74 65 37 66 38 67 53 69 75 70 40 71 23 72 24 73 33 74
REMARK SMILES IDX 25 75 26 76 32 77 34 78 27 79 28 80 29 81 30 82 31 83 57 84
REMARK SMILES IDX 58 85 67 86 59 87 60 88 66 89 68 90 61 91 62 92 63 93 64 94
REMARK SMILES IDX 65 95 41 96 42 97 51 98 43 99 44 100 50 101 52 102 45 103
REMARK SMILES IDX 46 104 47 105 48 106 49 107
REMARK H PARENT 92 24 73 57 39 68
REMARK Flexibility Score: inf
ROOT
ATOM      1  C   UNL A   1      33.966  31.511  27.861  1.00  0.00     0.261 C 
ENDROOT
BRANCH   1   2
ATOM      2  O   UNL A   1      33.718  30.424  26.953  1.00  0.00    -0.463 OA
BRANCH   2   3
ATOM      3  C   UNL A   1      32.461  30.374  26.432  1.00  0.00     0.313 C 
ATOM      4  O   UNL A   1      31.514  31.025  26.863  1.00  0.00    -0.252 OA
BRANCH   3   5
ATOM      5  C   UNL A   1      32.348  29.439  25.215  1.00  0.00     0.126 C 
ATOM      6  C   UNL A   1      31.027  29.552  24.447  1.00  0.00     0.025 C 
BRANCH   5   7
ATOM      7  C   UNL A   1      32.732  28.008  25.607  1.00  0.00    -0.031 A 
ATOM      8  C   UNL A   1      33.992  27.437  25.375  1.00  0.00     0.005 A 
ATOM      9  C   UNL A   1      31.739  27.189  26.166  1.00  0.00     0.044 A 
ATOM     10  C   UNL A   1      34.238  26.083  25.663  1.00  0.00     0.012 A 
ATOM     11  C   UNL A   1      31.986  25.846  26.443  1.00  0.00     0.131 A 
ATOM     12  C   UNL A   1      33.231  25.258  26.187  1.00  0.00     0.018 A 
ATOM     13  F   UNL A   1      30.983  25.112  26.949  1.00  0.00    -0.206 F 
BRANCH  12  14
ATOM     14  C   UNL A   1      33.441  23.818  26.396  1.00  0.00    -0.012 A 
ATOM     15  C   UNL A   1      33.468  23.248  27.678  1.00  0.00     0.009 A 
ATOM     16  C   UNL A   1      33.610  22.970  25.286  1.00  0.00     0.056 A 
ATOM     17  C   UNL A   1      33.642  21.869  27.843  1.00  0.00     0.004 A 
ATOM     18  C   UNL A   1      33.807  21.600  25.450  1.00  0.00     0.133 A 
ATOM     19  C   UNL A   1      33.810  21.044  26.729  1.00  0.00     0.047 A 
BRANCH  18  20
ATOM     20  O   UNL A   1      34.001  20.686  24.382  1.00  0.00    -0.410 OA
BRANCH  20  21
ATOM     21  C   UNL A   1      33.058  19.752  23.959  1.00  0.00     0.412 C 
ATOM     22  O   UNL A   1      32.933  18.600  24.362  1.00  0.00    -0.224 OA
ATOM     23  N   UNL A   1      32.190  20.222  23.018  1.00  0.00    -0.321 N 
ATOM     24  H   UNL A   1      31.499  19.588  22.718  1.00  0.00     0.167 HD
BRANCH  23  25
ATOM     25  C   UNL A   1      32.153  21.531  22.405  1.00  0.00     0.119 C 
BRANCH  25  26
ATOM     26  C   UNL A   1      31.117  22.434  23.077  1.00  0.00     0.025 C 
BRANCH  26  27
ATOM     27  C   UNL A   1      31.530  23.919  23.187  1.00  0.00    -0.009 C 
ATOM     28  C   UNL A   1      32.601  24.301  22.150  1.00  0.00     0.003 C 
ATOM     29  C   UNL A   1      30.290  24.818  23.040  1.00  0.00     0.003 C 
ATOM     30  C   UNL A   1      32.944  25.789  22.198  1.00  0.00     0.000 C 
ATOM     31  C   UNL A   1      30.653  26.300  23.106  1.00  0.00     0.000 C 
ATOM     32  C   UNL A   1      31.701  26.662  22.061  1.00  0.00     0.000 C 
ENDBRANCH  26  27
ENDBRANCH  25  26
ENDBRANCH  23  25
ENDBRANCH  20  21
ENDBRANCH  18  20
ENDBRANCH  12  14
ENDBRANCH   5   7
ENDBRANCH   3   5
ENDBRANCH   2   3
ENDBRANCH   1   2
BRANCH   1  33
ATOM     33  C   UNL A   1      35.460  31.823  27.986  1.00  0.00     0.202 C 
BRANCH  33  34
ATOM     34  O   UNL A   1      35.862  32.808  28.935  1.00  0.00    -0.374 OA
BRANCH  34  35
ATOM     35  C   UNL A   1      35.108  32.933  30.137  1.00  0.00     0.202 C 
BRANCH  35  36
ATOM     36  C   UNL A   1      35.321  31.891  31.245  1.00  0.00     0.261 C 
BRANCH  36  37
ATOM     37  O   UNL A   1      36.705  31.573  31.477  1.00  0.00    -0.460 OA
BRANCH  37  38
ATOM     38  C   UNL A   1      37.064  30.324  31.083  1.00  0.00     0.338 C 
ATOM     39  O   UNL A   1      36.340  29.348  30.987  1.00  0.00    -0.246 OA
BRANCH  38  40
ATOM     40  C   UNL A   1      38.452  30.323  30.581  1.00  0.00     0.060 A 
ATOM     41  C   UNL A   1      38.637  30.218  29.197  1.00  0.00     0.016 A 
ATOM     42  C   UNL A   1      39.546  30.320  31.446  1.00  0.00     0.016 A 
ATOM     43  C   UNL A   1      39.917  30.060  28.672  1.00  0.00     0.010 A 
ATOM     44  C   UNL A   1      40.832  30.153  30.918  1.00  0.00     0.010 A 
ATOM     45  C   UNL A   1      41.020  29.984  29.534  1.00  0.00    -0.014 A 
BRANCH  45  46
ATOM     46  C   UNL A   1      42.342  29.585  28.991  1.00  0.00     0.031 A 
ATOM     47  C   UNL A   1      42.550  28.164  28.538  1.00  0.00     0.074 A 
ATOM     48  C   UNL A   1      43.333  30.487  28.869  1.00  0.00     0.049 A 
ATOM     49  N   UNL A   1      43.631  27.592  28.074  1.00  0.00    -0.248 NA
ATOM     50  C   UNL A   1      41.384  27.271  28.622  1.00  0.00     0.031 C 
ATOM     51  C   UNL A   1      43.237  31.900  29.233  1.00  0.00     0.029 A 
ATOM     52  N   UNL A   1      44.619  30.344  28.411  1.00  0.00    -0.354 N 
ATOM     53  C   UNL A   1      43.279  26.271  27.819  1.00  0.00     0.074 A 
ATOM     54  C   UNL A   1      41.896  26.119  28.213  1.00  0.00     0.031 C 
ATOM     55  C   UNL A   1      44.420  32.493  28.996  1.00  0.00     0.029 A 
ATOM     56  C   UNL A   1      45.366  31.495  28.499  1.00  0.00     0.049 A 
ATOM     57  H   UNL A   1      44.973  29.498  28.054  1.00  0.00     0.167 HD
ATOM     58  C   UNL A   1      44.039  25.279  27.295  1.00  0.00     0.037 A 
ATOM     59  C   UNL A   1      46.670  31.712  28.236  1.00  0.00     0.037 A 
ATOM     60  C   UNL A   1      45.417  25.441  26.905  1.00  0.00     0.049 A 
ATOM     61  C   UNL A   1      47.516  30.576  27.721  1.00  0.00     0.074 A 
ATOM     62  C   UNL A   1      46.270  24.503  26.350  1.00  0.00     0.029 A 
ATOM     63  N   UNL A   1      46.146  26.615  27.035  1.00  0.00    -0.354 N 
ATOM     64  N   UNL A   1      47.167  29.336  27.468  1.00  0.00    -0.248 NA
ATOM     65  C   UNL A   1      48.930  30.868  27.452  1.00  0.00     0.031 C 
ATOM     66  C   UNL A   1      47.530  25.091  26.200  1.00  0.00     0.029 A 
ATOM     67  C   UNL A   1      47.446  26.417  26.599  1.00  0.00     0.049 A 
ATOM     68  H   UNL A   1      45.792  27.463  27.386  1.00  0.00     0.167 HD
ATOM     69  C   UNL A   1      48.311  28.710  26.981  1.00  0.00     0.074 A 
ATOM     70  C   UNL A   1      49.357  29.711  26.965  1.00  0.00     0.031 C 
ATOM     71  C   UNL A   1      48.478  27.425  26.581  1.00  0.00     0.037 A 
BRANCH  58  72
ATOM     72  C   UNL A   1      43.408  23.921  27.139  1.00  0.00     0.058 A 
ATOM     73  C   UNL A   1      43.002  23.428  25.889  1.00  0.00     0.135 A 
ATOM     74  C   UNL A   1      43.239  23.084  28.255  1.00  0.00     0.135 A 
ATOM     75  F   UNL A   1      43.123  24.191  24.790  1.00  0.00    -0.206 F 
ATOM     76  C   UNL A   1      42.426  22.168  25.754  1.00  0.00     0.059 A 
ATOM     77  C   UNL A   1      42.696  21.807  28.139  1.00  0.00     0.059 A 
ATOM     78  F   UNL A   1      43.608  23.502  29.476  1.00  0.00    -0.206 F 
ATOM     79  C   UNL A   1      42.278  21.364  26.884  1.00  0.00     0.060 A 
BRANCH  79  80
ATOM     80  S   UNL A   1      41.535  19.731  26.691  1.00  0.00     0.124 S 
ATOM     81  O   UNL A   1      42.178  18.989  27.771  1.00  0.00    -0.237 OA
ATOM     82  O   UNL A   1      40.114  20.013  26.873  1.00  0.00    -0.237 OA
ATOM     83  O   UNL A   1      41.925  19.336  25.341  1.00  0.00    -0.744 OA
ENDBRANCH  79  80
ENDBRANCH  58  72
BRANCH  59  84
ATOM     84  C   UNL A   1      47.260  33.057  28.474  1.00  0.00     0.058 A 
ATOM     85  C   UNL A   1      47.244  34.045  27.479  1.00  0.00     0.135 A 
ATOM     86  C   UNL A   1      47.849  33.382  29.707  1.00  0.00     0.135 A 
ATOM     87  F   UNL A   1      46.705  33.781  26.280  1.00  0.00    -0.206 F 
ATOM     88  C   UNL A   1      47.803  35.302  27.692  1.00  0.00     0.059 A 
ATOM     89  C   UNL A   1      48.386  34.641  29.954  1.00  0.00     0.059 A 
ATOM     90  F   UNL A   1      47.881  32.475  30.697  1.00  0.00    -0.206 F 
ATOM     91  C   UNL A   1      48.367  35.592  28.936  1.00  0.00     0.060 A 
BRANCH  91  92
ATOM     92  S   UNL A   1      49.042  37.243  29.216  1.00  0.00     0.124 S 
ATOM     93  O   UNL A   1      49.439  37.165  30.617  1.00  0.00    -0.237 OA
ATOM     94  O   UNL A   1      50.128  37.297  28.243  1.00  0.00    -0.237 OA
ATOM     95  O   UNL A   1      47.910  38.120  28.930  1.00  0.00    -0.744 OA
ENDBRANCH  91  92
ENDBRANCH  59  84
BRANCH  71  96
ATOM     96  C   UNL A   1      49.831  27.030  26.050  1.00  0.00     0.058 A 
ATOM     97  C   UNL A   1      50.159  27.146  24.689  1.00  0.00     0.135 A 
ATOM     98  C   UNL A   1      50.834  26.582  26.927  1.00  0.00     0.135 A 
ATOM     99  F   UNL A   1      49.240  27.565  23.806  1.00  0.00    -0.206 F 
ATOM    100  C   UNL A   1      51.422  26.806  24.214  1.00  0.00     0.059 A 
ATOM    101  C   UNL A   1      52.112  26.268  26.479  1.00  0.00     0.059 A 
ATOM    102  F   UNL A   1      50.580  26.462  28.240  1.00  0.00    -0.206 F 
ATOM    103  C   UNL A   1      52.394  26.372  25.118  1.00  0.00     0.060 A 
BRANCH 103 104
ATOM    104  S   UNL A   1      54.038  25.966  24.491  1.00  0.00     0.124 S 
ATOM    105  O   UNL A   1      53.906  26.301  23.077  1.00  0.00    -0.237 OA
ATOM    106  O   UNL A   1      54.897  26.849  25.274  1.00  0.00    -0.237 OA
ATOM    107  O   UNL A   1      54.175  24.543  24.789  1.00  0.00    -0.744 OA
ENDBRANCH 103 104
ENDBRANCH  71  96
ENDBRANCH  45  46
ENDBRANCH  38  40
ENDBRANCH  37  38
ENDBRANCH  36  37
ENDBRANCH  35  36
ENDBRANCH  34  35
ENDBRANCH  33  34
ENDBRANCH   1  33
TORSDOF 24
ENDMDL
MODEL 3
REMARK VINA RESULT:     -10.4      1.247      8.028
REMARK SMILES C[C@@H](C(=O)OCCOCCOC(=O)c1ccc(-c2c3nc(c(-c4c(F)cc(S(=O)(=O)[O-])cc4F)c4ccc([nH]4)c(-c4c(F)cc(S(=O)(=O)[O-])cc4F)c4nc(c(-c5c(F)cc(S(=O)(=O)[O-])cc5F)c5ccc2[nH]5)C=C4)C=C3)cc1)c1ccc(-c2cccc(OC(=O)NCCC3CCCCC3)c2)c(F)c1
REMARK SMILES IDX 6 1 5 2 3 3 4 4 2 5 1 6 80 7 81 8 104 9 82 10 102 11 83 12
REMARK SMILES IDX 103 13 84 14 85 15 101 16 86 17 88 18 87 19 89 20 90 21
REMARK SMILES IDX 91 22 92 23 93 25 94 26 95 27 96 28 100 29 97 30 99 31 98 32
REMARK SMILES IDX 7 33 8 34 9 35 10 36 11 37 12 38 13 39 14 40 15 41 79 42
REMARK SMILES IDX 16 43 78 44 17 45 18 46 19 47 72 48 20 49 77 50 71 51 73 52
REMARK SMILES IDX 21 53 76 54 70 55 69 56 22 58 56 59 35 60 55 61 36 62 39 63
REMARK SMILES IDX 54 64 74 65 37 66 38 67 53 69 75 70 40 71 23 72 24 73 33 74
REMARK SMILES IDX 25 75 26 76 32 77 34 78 27 79 28 80 29 81 30 82 31 83 57 84
REMARK SMILES IDX 58 85 67 86 59 87 60 88 66 89 68 90 61 91 62 92 63 93 64 94
REMARK SMILES IDX 65 95 41 96 42 97 51 98 43 99 44 100 50 101 52 102 45 103
REMARK SMILES IDX 46 104 47 105 48 106 49 107
REMARK H PARENT 92 24 73 57 39 68
REMARK Flexibility Score: inf
ROOT
ATOM      1  C   UNL A   1      33.862  31.250  27.376  1.00  0.00     0.261 C 
ENDROOT
BRANCH   1   2
ATOM      2  O   UNL A   1      33.605  30.360  26.276  1.00  0.00    -0.463 OA
BRANCH   2   3
ATOM      3  C   UNL A   1      32.301  30.267  25.895  1.00  0.00     0.313 C 
ATOM      4  O   UNL A   1      31.401  30.967  26.350  1.00  0.00    -0.252 OA
BRANCH   3   5
ATOM      5  C   UNL A   1      32.066  29.211  24.800  1.00  0.00     0.126 C 
ATOM      6  C   UNL A   1      30.708  29.313  24.098  1.00  0.00     0.025 C 
BRANCH   5   7
ATOM      7  C   UNL A   1      32.400  27.813  25.330  1.00  0.00    -0.031 A 
ATOM      8  C   UNL A   1      33.695  27.274  25.379  1.00  0.00     0.005 A 
ATOM      9  C   UNL A   1      31.336  26.986  25.724  1.00  0.00     0.044 A 
ATOM     10  C   UNL A   1      33.912  25.943  25.776  1.00  0.00     0.012 A 
ATOM     11  C   UNL A   1      31.557  25.666  26.111  1.00  0.00     0.131 A 
ATOM     12  C   UNL A   1      32.842  25.109  26.134  1.00  0.00     0.018 A 
ATOM     13  F   UNL A   1      30.492  24.921  26.446  1.00  0.00    -0.206 F 
BRANCH  12  14
ATOM     14  C   UNL A   1      33.041  23.687  26.452  1.00  0.00    -0.012 A 
ATOM     15  C   UNL A   1      33.439  23.258  27.727  1.00  0.00     0.009 A 
ATOM     16  C   UNL A   1      32.820  22.714  25.459  1.00  0.00     0.056 A 
ATOM     17  C   UNL A   1      33.594  21.896  28.006  1.00  0.00     0.004 A 
ATOM     18  C   UNL A   1      32.997  21.358  25.730  1.00  0.00     0.133 A 
ATOM     19  C   UNL A   1      33.371  20.945  27.008  1.00  0.00     0.047 A 
BRANCH  18  20
ATOM     20  O   UNL A   1      32.809  20.322  24.779  1.00  0.00    -0.410 OA
BRANCH  20  21
ATOM     21  C   UNL A   1      33.606  19.183  24.682  1.00  0.00     0.412 C 
ATOM     22  O   UNL A   1      33.222  18.018  24.642  1.00  0.00    -0.224 OA
ATOM     23  N   UNL A   1      34.942  19.442  24.599  1.00  0.00    -0.321 N 
ATOM     24  H   UNL A   1      35.527  18.655  24.508  1.00  0.00     0.167 HD
BRANCH  23  25
ATOM     25  C   UNL A   1      35.612  20.723  24.629  1.00  0.00     0.119 C 
BRANCH  25  26
ATOM     26  C   UNL A   1      37.101  20.568  24.949  1.00  0.00     0.025 C 
BRANCH  26  27
ATOM     27  C   UNL A   1      37.839  21.893  25.246  1.00  0.00    -0.009 C 
ATOM     28  C   UNL A   1      36.879  22.995  25.728  1.00  0.00     0.003 C 
ATOM     29  C   UNL A   1      38.950  21.651  26.282  1.00  0.00     0.003 C 
ATOM     30  C   UNL A   1      37.619  24.277  26.107  1.00  0.00     0.000 C 
ATOM     31  C   UNL A   1      39.686  22.941  26.635  1.00  0.00     0.000 C 
ATOM     32  C   UNL A   1      38.722  24.014  27.127  1.00  0.00     0.000 C 
ENDBRANCH  26  27
ENDBRANCH  25  26
ENDBRANCH  23  25
ENDBRANCH  20  21
ENDBRANCH  18  20
ENDBRANCH  12  14
ENDBRANCH   5   7
ENDBRANCH   3   5
ENDBRANCH   2   3
ENDBRANCH   1   2
BRANCH   1  33
ATOM     33  C   UNL A   1      35.334  31.223  27.801  1.00  0.00     0.202 C 
BRANCH  33  34
ATOM     34  O   UNL A   1      35.775  32.192  28.748  1.00  0.00    -0.374 OA
BRANCH  34  35
ATOM     35  C   UNL A   1      34.977  32.412  29.908  1.00  0.00     0.202 C 
BRANCH  35  36
ATOM     36  C   UNL A   1      35.502  31.912  31.262  1.00  0.00     0.261 C 
BRANCH  36  37
ATOM     37  O   UNL A   1      36.915  31.642  31.267  1.00  0.00    -0.460 OA
BRANCH  37  38
ATOM     38  C   UNL A   1      37.245  30.402  31.710  1.00  0.00     0.338 C 
ATOM     39  O   UNL A   1      36.637  29.728  32.526  1.00  0.00    -0.246 OA
BRANCH  38  40
ATOM     40  C   UNL A   1      38.367  29.856  30.922  1.00  0.00     0.060 A 
ATOM     41  C   UNL A   1      39.329  29.102  31.608  1.00  0.00     0.016 A 
ATOM     42  C   UNL A   1      38.532  30.158  29.571  1.00  0.00     0.016 A 
ATOM     43  C   UNL A   1      40.487  28.688  30.955  1.00  0.00     0.010 A 
ATOM     44  C   UNL A   1      39.700  29.748  28.918  1.00  0.00     0.010 A 
ATOM     45  C   UNL A   1      40.699  29.044  29.616  1.00  0.00    -0.014 A 
BRANCH  45  46
ATOM     46  C   UNL A   1      42.027  28.802  29.000  1.00  0.00     0.031 A 
ATOM     47  C   UNL A   1      42.354  27.429  28.477  1.00  0.00     0.074 A 
ATOM     48  C   UNL A   1      42.917  29.804  28.873  1.00  0.00     0.049 A 
ATOM     49  N   UNL A   1      43.462  26.987  27.942  1.00  0.00    -0.248 NA
ATOM     50  C   UNL A   1      41.287  26.419  28.574  1.00  0.00     0.031 C 
ATOM     51  C   UNL A   1      42.699  31.185  29.302  1.00  0.00     0.029 A 
ATOM     52  N   UNL A   1      44.188  29.809  28.354  1.00  0.00    -0.354 N 
ATOM     53  C   UNL A   1      43.231  25.648  27.646  1.00  0.00     0.074 A 
ATOM     54  C   UNL A   1      41.890  25.341  28.094  1.00  0.00     0.031 C 
ATOM     55  C   UNL A   1      43.804  31.903  29.039  1.00  0.00     0.029 A 
ATOM     56  C   UNL A   1      44.820  31.026  28.458  1.00  0.00     0.049 A 
ATOM     57  H   UNL A   1      44.606  29.018  27.945  1.00  0.00     0.167 HD
ATOM     58  C   UNL A   1      44.060  24.759  27.047  1.00  0.00     0.037 A 
ATOM     59  C   UNL A   1      46.082  31.383  28.148  1.00  0.00     0.037 A 
ATOM     60  C   UNL A   1      45.394  25.074  26.604  1.00  0.00     0.049 A 
ATOM     61  C   UNL A   1      47.011  30.359  27.548  1.00  0.00     0.074 A 
ATOM     62  C   UNL A   1      46.309  24.248  25.972  1.00  0.00     0.029 A 
ATOM     63  N   UNL A   1      46.009  26.309  26.753  1.00  0.00    -0.354 N 
ATOM     64  N   UNL A   1      46.775  29.101  27.258  1.00  0.00    -0.248 NA
ATOM     65  C   UNL A   1      48.374  30.803  27.230  1.00  0.00     0.031 C 
ATOM     66  C   UNL A   1      47.495  24.967  25.793  1.00  0.00     0.029 A 
ATOM     67  C   UNL A   1      47.299  26.260  26.252  1.00  0.00     0.049 A 
ATOM     68  H   UNL A   1      45.590  27.104  27.155  1.00  0.00     0.167 HD
ATOM     69  C   UNL A   1      47.950  28.613  26.694  1.00  0.00     0.074 A 
ATOM     70  C   UNL A   1      48.890  29.715  26.675  1.00  0.00     0.031 C 
ATOM     71  C   UNL A   1      48.225  27.367  26.232  1.00  0.00     0.037 A 
BRANCH  58  72
ATOM     72  C   UNL A   1      43.559  23.350  26.861  1.00  0.00     0.058 A 
ATOM     73  C   UNL A   1      43.209  22.847  25.598  1.00  0.00     0.135 A 
ATOM     74  C   UNL A   1      43.464  22.479  27.958  1.00  0.00     0.135 A 
ATOM     75  F   UNL A   1      43.265  23.639  24.514  1.00  0.00    -0.206 F 
ATOM     76  C   UNL A   1      42.755  21.541  25.434  1.00  0.00     0.059 A 
ATOM     77  C   UNL A   1      43.043  21.160  27.814  1.00  0.00     0.059 A 
ATOM     78  F   UNL A   1      43.785  22.906  29.190  1.00  0.00    -0.206 F 
ATOM     79  C   UNL A   1      42.676  20.705  26.548  1.00  0.00     0.060 A 
BRANCH  79  80
ATOM     80  S   UNL A   1      42.090  19.014  26.318  1.00  0.00     0.124 S 
ATOM     81  O   UNL A   1      42.094  18.515  27.690  1.00  0.00    -0.237 OA
ATOM     82  O   UNL A   1      40.774  19.219  25.722  1.00  0.00    -0.237 OA
ATOM     83  O   UNL A   1      43.091  18.422  25.434  1.00  0.00    -0.744 OA
ENDBRANCH  79  80
ENDBRANCH  58  72
BRANCH  59  84
ATOM     84  C   UNL A   1      46.547  32.771  28.417  1.00  0.00     0.058 A 
ATOM     85  C   UNL A   1      47.102  33.127  29.655  1.00  0.00     0.135 A 
ATOM     86  C   UNL A   1      46.449  33.770  27.435  1.00  0.00     0.135 A 
ATOM     87  F   UNL A   1      47.206  32.211  30.630  1.00  0.00    -0.206 F 
ATOM     88  C   UNL A   1      47.530  34.425  29.915  1.00  0.00     0.059 A 
ATOM     89  C   UNL A   1      46.898  35.067  27.661  1.00  0.00     0.059 A 
ATOM     90  F   UNL A   1      45.935  33.480  26.229  1.00  0.00    -0.206 F 
ATOM     91  C   UNL A   1      47.429  35.387  28.909  1.00  0.00     0.060 A 
BRANCH  91  92
ATOM     92  S   UNL A   1      48.036  37.055  29.242  1.00  0.00     0.124 S 
ATOM     93  O   UNL A   1      47.757  37.727  27.979  1.00  0.00    -0.237 OA
ATOM     94  O   UNL A   1      47.213  37.456  30.378  1.00  0.00    -0.237 OA
ATOM     95  O   UNL A   1      49.449  36.842  29.545  1.00  0.00    -0.744 OA
ENDBRANCH  91  92
ENDBRANCH  59  84
BRANCH  71  96
ATOM     96  C   UNL A   1      49.583  27.132  25.625  1.00  0.00     0.058 A 
ATOM     97  C   UNL A   1      49.837  27.350  24.262  1.00  0.00     0.135 A 
ATOM     98  C   UNL A   1      50.662  26.736  26.435  1.00  0.00     0.135 A 
ATOM     99  F   UNL A   1      48.843  27.725  23.441  1.00  0.00    -0.206 F 
ATOM    100  C   UNL A   1      51.103  27.158  23.718  1.00  0.00     0.059 A 
ATOM    101  C   UNL A   1      51.943  26.570  25.919  1.00  0.00     0.059 A 
ATOM    102  F   UNL A   1      50.480  26.525  27.748  1.00  0.00    -0.206 F 
ATOM    103  C   UNL A   1      52.152  26.772  24.556  1.00  0.00     0.060 A 
BRANCH 103 104
ATOM    104  S   UNL A   1      53.796  26.559  23.842  1.00  0.00     0.124 S 
ATOM    105  O   UNL A   1      53.476  26.098  22.494  1.00  0.00    -0.237 OA
ATOM    106  O   UNL A   1      54.354  27.904  23.937  1.00  0.00    -0.237 OA
ATOM    107  O   UNL A   1      54.420  25.566  24.712  1.00  0.00    -0.744 OA
ENDBRANCH 103 104
ENDBRANCH  71  96
ENDBRANCH  45  46
ENDBRANCH  38  40
ENDBRANCH  37  38
ENDBRANCH  36  37
ENDBRANCH  35  36
ENDBRANCH  34  35
ENDBRANCH  33  34
ENDBRANCH   1  33
TORSDOF 24
ENDMDL
