MODEL 1
REMARK VINA RESULT:      -9.1      0.000      0.000
REMARK SMILES COc1ccc([C@H](CC(=O)OCCOCCOC(=O)c2ccc(-c3c4nc(c(-c5c(F)cc(S(=O)(=O)[O-])cc5F)c5ccc([nH]5)c(-c5c(F)cc(S(=O)(=O)[O-])cc5F)c5nc(c(-c6c(F)cc(S(=O)(=O)[O-])cc6F)c6ccc3[nH]6)C=C5)C=C4)cc2)NC(C)=O)cc1
REMARK SMILES IDX 14 1 13 2 12 3 11 4 9 5 10 6 8 7 7 8 6 9 3 10 4 11 91 12
REMARK SMILES IDX 5 13 90 14 2 15 1 16 86 17 87 18 88 20 89 21 15 22 16 23
REMARK SMILES IDX 17 24 18 25 19 26 20 27 21 28 85 29 22 30 84 31 23 32 24 33
REMARK SMILES IDX 25 34 78 35 26 36 83 37 77 38 79 39 27 40 82 41 76 42 75 43
REMARK SMILES IDX 28 45 62 46 41 47 61 48 42 49 45 50 60 51 80 52 43 53 44 54
REMARK SMILES IDX 59 56 81 57 46 58 29 59 30 60 39 61 31 62 32 63 38 64 40 65
REMARK SMILES IDX 33 66 34 67 35 68 36 69 37 70 63 71 64 72 73 73 65 74 66 75
REMARK SMILES IDX 72 76 74 77 67 78 68 79 69 80 70 81 71 82 47 83 48 84 57 85
REMARK SMILES IDX 49 86 50 87 56 88 58 89 51 90 52 91 53 92 54 93 55 94
REMARK H PARENT 86 19 79 44 45 55
REMARK Flexibility Score: inf
ROOT
ATOM      1  O   UNL A   1      45.827  25.441  24.611  1.00  0.00    -0.374 OA
ENDROOT
BRANCH   1   2
ATOM      2  C   UNL A   1      46.794  24.509  25.095  1.00  0.00     0.202 C 
BRANCH   2   3
ATOM      3  C   UNL A   1      46.300  23.491  26.129  1.00  0.00     0.261 C 
BRANCH   3   4
ATOM      4  O   UNL A   1      46.021  22.200  25.560  1.00  0.00    -0.463 OA
BRANCH   4   5
ATOM      5  C   UNL A   1      44.728  21.973  25.215  1.00  0.00     0.308 C 
ATOM      6  O   UNL A   1      44.219  22.284  24.143  1.00  0.00    -0.252 OA
BRANCH   5   7
ATOM      7  C   UNL A   1      43.916  21.357  26.324  1.00  0.00     0.152 C 
BRANCH   7   8
ATOM      8  C   UNL A   1      42.970  22.305  27.086  1.00  0.00     0.123 C 
BRANCH   8   9
ATOM      9  C   UNL A   1      41.540  21.871  26.782  1.00  0.00    -0.025 A 
ATOM     10  C   UNL A   1      38.898  21.254  26.020  1.00  0.00     0.118 A 
ATOM     11  C   UNL A   1      39.198  22.496  26.580  1.00  0.00     0.047 A 
ATOM     12  C   UNL A   1      39.915  20.317  25.845  1.00  0.00     0.047 A 
ATOM     13  C   UNL A   1      40.503  22.798  26.971  1.00  0.00     0.010 A 
ATOM     14  C   UNL A   1      41.228  20.626  26.217  1.00  0.00     0.010 A 
BRANCH  10  15
ATOM     15  O   UNL A   1      37.594  21.091  25.645  1.00  0.00    -0.497 OA
ATOM     16  C   UNL A   1      37.222  21.670  24.403  1.00  0.00     0.278 C 
ENDBRANCH  10  15
ENDBRANCH   8   9
BRANCH   8  17
ATOM     17  N   UNL A   1      43.244  22.287  28.528  1.00  0.00    -0.349 N 
ATOM     18  C   UNL A   1      43.757  23.377  29.195  1.00  0.00     0.217 C 
ATOM     19  H   UNL A   1      43.052  21.467  29.037  1.00  0.00     0.164 HD
ATOM     20  C   UNL A   1      43.889  23.174  30.682  1.00  0.00     0.114 C 
ATOM     21  O   UNL A   1      44.122  24.410  28.649  1.00  0.00    -0.275 OA
ENDBRANCH   8  17
ENDBRANCH   7   8
ENDBRANCH   5   7
ENDBRANCH   4   5
ENDBRANCH   3   4
ENDBRANCH   2   3
ENDBRANCH   1   2
BRANCH   1  22
ATOM     22  C   UNL A   1      44.718  25.736  25.462  1.00  0.00     0.202 C 
BRANCH  22  23
ATOM     23  C   UNL A   1      43.328  25.420  24.903  1.00  0.00     0.261 C 
BRANCH  23  24
ATOM     24  O   UNL A   1      42.438  26.541  25.045  1.00  0.00    -0.460 OA
BRANCH  24  25
ATOM     25  C   UNL A   1      41.281  26.268  25.689  1.00  0.00     0.338 C 
ATOM     26  O   UNL A   1      40.392  25.508  25.325  1.00  0.00    -0.246 OA
BRANCH  25  27
ATOM     27  C   UNL A   1      41.299  26.874  27.030  1.00  0.00     0.060 A 
ATOM     28  C   UNL A   1      40.329  26.449  27.948  1.00  0.00     0.016 A 
ATOM     29  C   UNL A   1      42.185  27.901  27.356  1.00  0.00     0.016 A 
ATOM     30  C   UNL A   1      40.218  27.078  29.187  1.00  0.00     0.010 A 
ATOM     31  C   UNL A   1      42.062  28.540  28.596  1.00  0.00     0.010 A 
ATOM     32  C   UNL A   1      41.062  28.150  29.505  1.00  0.00    -0.014 A 
BRANCH  32  33
ATOM     33  C   UNL A   1      40.837  28.923  30.752  1.00  0.00     0.031 A 
ATOM     34  C   UNL A   1      39.760  29.971  30.788  1.00  0.00     0.074 A 
ATOM     35  C   UNL A   1      41.589  28.687  31.842  1.00  0.00     0.049 A 
ATOM     36  N   UNL A   1      39.446  30.801  31.750  1.00  0.00    -0.248 NA
ATOM     37  C   UNL A   1      38.925  30.101  29.584  1.00  0.00     0.031 C 
ATOM     38  C   UNL A   1      42.639  27.674  31.939  1.00  0.00     0.029 A 
ATOM     39  N   UNL A   1      41.597  29.298  33.072  1.00  0.00    -0.354 N 
ATOM     40  C   UNL A   1      38.387  31.560  31.265  1.00  0.00     0.074 A 
ATOM     41  C   UNL A   1      38.119  31.101  29.919  1.00  0.00     0.031 C 
ATOM     42  C   UNL A   1      43.210  27.752  33.153  1.00  0.00     0.029 A 
ATOM     43  C   UNL A   1      42.590  28.841  33.905  1.00  0.00     0.049 A 
ATOM     44  H   UNL A   1      40.954  29.997  33.332  1.00  0.00     0.167 HD
ATOM     45  C   UNL A   1      37.702  32.549  31.888  1.00  0.00     0.037 A 
ATOM     46  C   UNL A   1      42.978  29.276  35.121  1.00  0.00     0.037 A 
ATOM     47  C   UNL A   1      37.971  32.999  33.229  1.00  0.00     0.049 A 
ATOM     48  C   UNL A   1      42.245  30.423  35.765  1.00  0.00     0.074 A 
ATOM     49  C   UNL A   1      37.300  33.962  33.963  1.00  0.00     0.029 A 
ATOM     50  N   UNL A   1      39.000  32.531  34.032  1.00  0.00    -0.354 N 
ATOM     51  N   UNL A   1      41.220  31.104  35.313  1.00  0.00    -0.248 NA
ATOM     52  C   UNL A   1      42.727  30.866  37.082  1.00  0.00     0.031 C 
ATOM     53  C   UNL A   1      37.956  34.112  35.190  1.00  0.00     0.029 A 
ATOM     54  C   UNL A   1      39.006  33.210  35.238  1.00  0.00     0.049 A 
ATOM     55  H   UNL A   1      39.633  31.821  33.780  1.00  0.00     0.167 HD
ATOM     56  C   UNL A   1      40.923  32.044  36.294  1.00  0.00     0.074 A 
ATOM     57  C   UNL A   1      41.869  31.837  37.371  1.00  0.00     0.031 C 
ATOM     58  C   UNL A   1      39.956  32.995  36.302  1.00  0.00     0.037 A 
BRANCH  45  59
ATOM     59  C   UNL A   1      36.609  33.236  31.119  1.00  0.00     0.058 A 
ATOM     60  C   UNL A   1      35.256  33.068  31.448  1.00  0.00     0.135 A 
ATOM     61  C   UNL A   1      36.926  34.120  30.075  1.00  0.00     0.135 A 
ATOM     62  F   UNL A   1      34.898  32.223  32.428  1.00  0.00    -0.206 F 
ATOM     63  C   UNL A   1      34.253  33.740  30.757  1.00  0.00     0.059 A 
ATOM     64  C   UNL A   1      35.940  34.818  29.384  1.00  0.00     0.059 A 
ATOM     65  F   UNL A   1      38.206  34.315  29.720  1.00  0.00    -0.206 F 
ATOM     66  C   UNL A   1      34.605  34.615  29.727  1.00  0.00     0.060 A 
BRANCH  66  67
ATOM     67  S   UNL A   1      33.292  35.496  28.853  1.00  0.00     0.124 S 
ATOM     68  O   UNL A   1      32.631  36.195  29.951  1.00  0.00    -0.237 OA
ATOM     69  O   UNL A   1      34.043  36.338  27.928  1.00  0.00    -0.237 OA
ATOM     70  O   UNL A   1      32.518  34.425  28.233  1.00  0.00    -0.744 OA
ENDBRANCH  66  67
ENDBRANCH  45  59
BRANCH  46  71
ATOM     71  C   UNL A   1      44.150  28.652  35.790  1.00  0.00     0.058 A 
ATOM     72  C   UNL A   1      45.451  29.126  35.573  1.00  0.00     0.135 A 
ATOM     73  C   UNL A   1      43.986  27.563  36.662  1.00  0.00     0.135 A 
ATOM     74  F   UNL A   1      45.659  30.156  34.739  1.00  0.00    -0.206 F 
ATOM     75  C   UNL A   1      46.552  28.537  36.188  1.00  0.00     0.059 A 
ATOM     76  C   UNL A   1      45.068  26.973  37.307  1.00  0.00     0.059 A 
ATOM     77  F   UNL A   1      42.760  27.077  36.910  1.00  0.00    -0.206 F 
ATOM     78  C   UNL A   1      46.349  27.462  37.056  1.00  0.00     0.060 A 
BRANCH  78  79
ATOM     79  S   UNL A   1      47.777  26.735  37.889  1.00  0.00     0.124 S 
ATOM     80  O   UNL A   1      47.588  25.316  37.612  1.00  0.00    -0.237 OA
ATOM     81  O   UNL A   1      48.893  27.376  37.200  1.00  0.00    -0.237 OA
ATOM     82  O   UNL A   1      47.594  27.139  39.279  1.00  0.00    -0.744 OA
ENDBRANCH  78  79
ENDBRANCH  46  71
BRANCH  58  83
ATOM     83  C   UNL A   1      39.858  33.878  37.515  1.00  0.00     0.058 A 
ATOM     84  C   UNL A   1      40.615  35.054  37.627  1.00  0.00     0.135 A 
ATOM     85  C   UNL A   1      38.949  33.582  38.543  1.00  0.00     0.135 A 
ATOM     86  F   UNL A   1      41.505  35.378  36.675  1.00  0.00    -0.206 F 
ATOM     87  C   UNL A   1      40.484  35.901  38.723  1.00  0.00     0.059 A 
ATOM     88  C   UNL A   1      38.784  34.426  39.636  1.00  0.00     0.059 A 
ATOM     89  F   UNL A   1      38.194  32.473  38.479  1.00  0.00    -0.206 F 
ATOM     90  C   UNL A   1      39.562  35.580  39.722  1.00  0.00     0.060 A 
BRANCH  90  91
ATOM     91  S   UNL A   1      39.365  36.710  41.116  1.00  0.00     0.124 S 
ATOM     92  O   UNL A   1      38.587  35.899  42.045  1.00  0.00    -0.237 OA
ATOM     93  O   UNL A   1      40.748  36.971  41.507  1.00  0.00    -0.237 OA
ATOM     94  O   UNL A   1      38.661  37.848  40.533  1.00  0.00    -0.744 OA
ENDBRANCH  90  91
ENDBRANCH  58  83
ENDBRANCH  32  33
ENDBRANCH  25  27
ENDBRANCH  24  25
ENDBRANCH  23  24
ENDBRANCH  22  23
ENDBRANCH   1  22
TORSDOF 21
ENDMDL
MODEL 2
REMARK VINA RESULT:      -9.1      1.308      3.071
REMARK SMILES COc1ccc([C@H](CC(=O)OCCOCCOC(=O)c2ccc(-c3c4nc(c(-c5c(F)cc(S(=O)(=O)[O-])cc5F)c5ccc([nH]5)c(-c5c(F)cc(S(=O)(=O)[O-])cc5F)c5nc(c(-c6c(F)cc(S(=O)(=O)[O-])cc6F)c6ccc3[nH]6)C=C5)C=C4)cc2)NC(C)=O)cc1
REMARK SMILES IDX 14 1 13 2 12 3 11 4 9 5 10 6 8 7 7 8 6 9 3 10 4 11 91 12
REMARK SMILES IDX 5 13 90 14 2 15 1 16 86 17 87 18 88 20 89 21 15 22 16 23
REMARK SMILES IDX 17 24 18 25 19 26 20 27 21 28 85 29 22 30 84 31 23 32 24 33
REMARK SMILES IDX 25 34 78 35 26 36 83 37 77 38 79 39 27 40 82 41 76 42 75 43
REMARK SMILES IDX 28 45 62 46 41 47 61 48 42 49 45 50 60 51 80 52 43 53 44 54
REMARK SMILES IDX 59 56 81 57 46 58 29 59 30 60 39 61 31 62 32 63 38 64 40 65
REMARK SMILES IDX 33 66 34 67 35 68 36 69 37 70 63 71 64 72 73 73 65 74 66 75
REMARK SMILES IDX 72 76 74 77 67 78 68 79 69 80 70 81 71 82 47 83 48 84 57 85
REMARK SMILES IDX 49 86 50 87 56 88 58 89 51 90 52 91 53 92 54 93 55 94
REMARK H PARENT 86 19 79 44 45 55
REMARK Flexibility Score: inf
ROOT
ATOM      1  O   UNL A   1      46.059  24.209  24.336  1.00  0.00    -0.374 OA
ENDROOT
BRANCH   1   2
ATOM      2  C   UNL A   1      46.494  22.970  24.895  1.00  0.00     0.202 C 
BRANCH   2   3
ATOM      3  C   UNL A   1      45.912  21.698  24.269  1.00  0.00     0.261 C 
BRANCH   3   4
ATOM      4  O   UNL A   1      44.529  21.835  23.899  1.00  0.00    -0.463 OA
BRANCH   4   5
ATOM      5  C   UNL A   1      43.627  21.599  24.886  1.00  0.00     0.308 C 
ATOM      6  O   UNL A   1      43.315  20.491  25.306  1.00  0.00    -0.252 OA
BRANCH   5   7
ATOM      7  C   UNL A   1      42.957  22.851  25.391  1.00  0.00     0.152 C 
BRANCH   7   8
ATOM      8  C   UNL A   1      42.192  22.726  26.722  1.00  0.00     0.123 C 
BRANCH   8   9
ATOM      9  C   UNL A   1      43.094  23.268  27.825  1.00  0.00    -0.025 A 
ATOM     10  C   UNL A   1      44.761  24.505  29.730  1.00  0.00     0.118 A 
ATOM     11  C   UNL A   1      45.226  24.263  28.438  1.00  0.00     0.047 A 
ATOM     12  C   UNL A   1      43.465  24.126  30.075  1.00  0.00     0.047 A 
ATOM     13  C   UNL A   1      44.408  23.637  27.497  1.00  0.00     0.010 A 
ATOM     14  C   UNL A   1      42.634  23.517  29.127  1.00  0.00     0.010 A 
BRANCH  10  15
ATOM     15  O   UNL A   1      45.643  25.155  30.548  1.00  0.00    -0.497 OA
ATOM     16  C   UNL A   1      46.284  26.297  29.997  1.00  0.00     0.278 C 
ENDBRANCH  10  15
ENDBRANCH   8   9
BRANCH   8  17
ATOM     17  N   UNL A   1      40.911  23.442  26.672  1.00  0.00    -0.349 N 
ATOM     18  C   UNL A   1      39.708  22.792  26.503  1.00  0.00     0.217 C 
ATOM     19  H   UNL A   1      40.912  24.422  26.763  1.00  0.00     0.164 HD
ATOM     20  C   UNL A   1      38.511  23.704  26.557  1.00  0.00     0.114 C 
ATOM     21  O   UNL A   1      39.598  21.593  26.282  1.00  0.00    -0.275 OA
ENDBRANCH   8  17
ENDBRANCH   7   8
ENDBRANCH   5   7
ENDBRANCH   4   5
ENDBRANCH   3   4
ENDBRANCH   2   3
ENDBRANCH   1   2
BRANCH   1  22
ATOM     22  C   UNL A   1      46.550  25.408  24.937  1.00  0.00     0.202 C 
BRANCH  22  23
ATOM     23  C   UNL A   1      45.555  26.566  25.057  1.00  0.00     0.261 C 
BRANCH  23  24
ATOM     24  O   UNL A   1      44.248  26.098  25.431  1.00  0.00    -0.460 OA
BRANCH  24  25
ATOM     25  C   UNL A   1      43.285  27.048  25.433  1.00  0.00     0.338 C 
ATOM     26  O   UNL A   1      42.552  27.361  24.503  1.00  0.00    -0.246 OA
BRANCH  25  27
ATOM     27  C   UNL A   1      43.085  27.556  26.800  1.00  0.00     0.060 A 
ATOM     28  C   UNL A   1      42.234  26.830  27.645  1.00  0.00     0.016 A 
ATOM     29  C   UNL A   1      43.643  28.763  27.220  1.00  0.00     0.016 A 
ATOM     30  C   UNL A   1      41.908  27.331  28.904  1.00  0.00     0.010 A 
ATOM     31  C   UNL A   1      43.303  29.271  28.480  1.00  0.00     0.010 A 
ATOM     32  C   UNL A   1      42.414  28.571  29.316  1.00  0.00    -0.014 A 
BRANCH  32  33
ATOM     33  C   UNL A   1      41.938  29.179  30.584  1.00  0.00     0.031 A 
ATOM     34  C   UNL A   1      40.684  30.007  30.582  1.00  0.00     0.074 A 
ATOM     35  C   UNL A   1      42.623  28.988  31.726  1.00  0.00     0.049 A 
ATOM     36  N   UNL A   1      40.136  30.679  31.562  1.00  0.00    -0.248 NA
ATOM     37  C   UNL A   1      39.948  30.088  29.311  1.00  0.00     0.031 C 
ATOM     38  C   UNL A   1      43.833  28.178  31.860  1.00  0.00     0.029 A 
ATOM     39  N   UNL A   1      42.408  29.482  32.990  1.00  0.00    -0.354 N 
ATOM     40  C   UNL A   1      38.999  31.273  31.025  1.00  0.00     0.074 A 
ATOM     41  C   UNL A   1      38.942  30.892  29.630  1.00  0.00     0.031 C 
ATOM     42  C   UNL A   1      44.271  28.252  33.128  1.00  0.00     0.029 A 
ATOM     43  C   UNL A   1      43.392  29.141  33.886  1.00  0.00     0.049 A 
ATOM     44  H   UNL A   1      41.624  30.027  33.230  1.00  0.00     0.167 HD
ATOM     45  C   UNL A   1      38.088  32.064  31.642  1.00  0.00     0.037 A 
ATOM     46  C   UNL A   1      43.584  29.532  35.163  1.00  0.00     0.037 A 
ATOM     47  C   UNL A   1      38.149  32.437  33.031  1.00  0.00     0.049 A 
ATOM     48  C   UNL A   1      42.594  30.467  35.807  1.00  0.00     0.074 A 
ATOM     49  C   UNL A   1      37.247  33.194  33.758  1.00  0.00     0.029 A 
ATOM     50  N   UNL A   1      39.174  32.094  33.901  1.00  0.00    -0.354 N 
ATOM     51  N   UNL A   1      41.502  30.987  35.301  1.00  0.00    -0.248 NA
ATOM     52  C   UNL A   1      42.865  30.873  37.194  1.00  0.00     0.031 C 
ATOM     53  C   UNL A   1      37.753  33.353  35.053  1.00  0.00     0.029 A 
ATOM     54  C   UNL A   1      38.946  32.656  35.146  1.00  0.00     0.049 A 
ATOM     55  H   UNL A   1      39.949  31.535  33.667  1.00  0.00     0.167 HD
ATOM     56  C   UNL A   1      40.948  31.768  36.309  1.00  0.00     0.074 A 
ATOM     57  C   UNL A   1      41.818  31.643  37.460  1.00  0.00     0.031 C 
ATOM     58  C   UNL A   1      39.822  32.524  36.284  1.00  0.00     0.037 A 
BRANCH  45  59
ATOM     59  C   UNL A   1      36.957  32.606  30.815  1.00  0.00     0.058 A 
ATOM     60  C   UNL A   1      35.715  31.957  30.746  1.00  0.00     0.135 A 
ATOM     61  C   UNL A   1      37.102  33.822  30.128  1.00  0.00     0.135 A 
ATOM     62  F   UNL A   1      35.528  30.784  31.372  1.00  0.00    -0.206 F 
ATOM     63  C   UNL A   1      34.660  32.488  30.011  1.00  0.00     0.059 A 
ATOM     64  C   UNL A   1      36.054  34.381  29.404  1.00  0.00     0.059 A 
ATOM     65  F   UNL A   1      38.271  34.482  30.161  1.00  0.00    -0.206 F 
ATOM     66  C   UNL A   1      34.838  33.702  29.343  1.00  0.00     0.060 A 
BRANCH  66  67
ATOM     67  S   UNL A   1      33.453  34.388  28.410  1.00  0.00     0.124 S 
ATOM     68  O   UNL A   1      34.109  35.451  27.654  1.00  0.00    -0.237 OA
ATOM     69  O   UNL A   1      33.003  33.241  27.628  1.00  0.00    -0.237 OA
ATOM     70  O   UNL A   1      32.530  34.835  29.449  1.00  0.00    -0.744 OA
ENDBRANCH  66  67
ENDBRANCH  45  59
BRANCH  46  71
ATOM     71  C   UNL A   1      44.789  29.074  35.903  1.00  0.00     0.058 A 
ATOM     72  C   UNL A   1      44.757  27.929  36.711  1.00  0.00     0.135 A 
ATOM     73  C   UNL A   1      45.999  29.781  35.816  1.00  0.00     0.135 A 
ATOM     74  F   UNL A   1      43.620  27.228  36.835  1.00  0.00    -0.206 F 
ATOM     75  C   UNL A   1      45.880  27.504  37.414  1.00  0.00     0.059 A 
ATOM     76  C   UNL A   1      47.141  29.363  36.491  1.00  0.00     0.059 A 
ATOM     77  F   UNL A   1      46.084  30.880  35.049  1.00  0.00    -0.206 F 
ATOM     78  C   UNL A   1      47.068  28.227  37.296  1.00  0.00     0.060 A 
BRANCH  78  79
ATOM     79  S   UNL A   1      48.534  27.641  38.174  1.00  0.00     0.124 S 
ATOM     80  O   UNL A   1      49.384  27.210  37.070  1.00  0.00    -0.237 OA
ATOM     81  O   UNL A   1      48.968  28.841  38.882  1.00  0.00    -0.237 OA
ATOM     82  O   UNL A   1      48.011  26.576  39.023  1.00  0.00    -0.744 OA
ENDBRANCH  78  79
ENDBRANCH  46  71
BRANCH  58  83
ATOM     83  C   UNL A   1      39.453  33.266  37.538  1.00  0.00     0.058 A 
ATOM     84  C   UNL A   1      38.513  32.751  38.444  1.00  0.00     0.135 A 
ATOM     85  C   UNL A   1      40.094  34.470  37.870  1.00  0.00     0.135 A 
ATOM     86  F   UNL A   1      37.866  31.607  38.170  1.00  0.00    -0.206 F 
ATOM     87  C   UNL A   1      38.213  33.411  39.632  1.00  0.00     0.059 A 
ATOM     88  C   UNL A   1      39.826  35.134  39.063  1.00  0.00     0.059 A 
ATOM     89  F   UNL A   1      41.007  35.001  37.041  1.00  0.00    -0.206 F 
ATOM     90  C   UNL A   1      38.879  34.601  39.935  1.00  0.00     0.060 A 
BRANCH  90  91
ATOM     91  S   UNL A   1      38.516  35.422  41.501  1.00  0.00     0.124 S 
ATOM     92  O   UNL A   1      38.537  36.827  41.108  1.00  0.00    -0.237 OA
ATOM     93  O   UNL A   1      37.204  34.880  41.844  1.00  0.00    -0.237 OA
ATOM     94  O   UNL A   1      39.609  34.996  42.369  1.00  0.00    -0.744 OA
ENDBRANCH  90  91
ENDBRANCH  58  83
ENDBRANCH  32  33
ENDBRANCH  25  27
ENDBRANCH  24  25
ENDBRANCH  23  24
ENDBRANCH  22  23
ENDBRANCH   1  22
TORSDOF 21
ENDMDL
MODEL 3
REMARK VINA RESULT:      -8.8      4.633     11.452
REMARK SMILES COc1ccc([C@H](CC(=O)OCCOCCOC(=O)c2ccc(-c3c4nc(c(-c5c(F)cc(S(=O)(=O)[O-])cc5F)c5ccc([nH]5)c(-c5c(F)cc(S(=O)(=O)[O-])cc5F)c5nc(c(-c6c(F)cc(S(=O)(=O)[O-])cc6F)c6ccc3[nH]6)C=C5)C=C4)cc2)NC(C)=O)cc1
REMARK SMILES IDX 14 1 13 2 12 3 11 4 9 5 10 6 8 7 7 8 6 9 3 10 4 11 91 12
REMARK SMILES IDX 5 13 90 14 2 15 1 16 86 17 87 18 88 20 89 21 15 22 16 23
REMARK SMILES IDX 17 24 18 25 19 26 20 27 21 28 85 29 22 30 84 31 23 32 24 33
REMARK SMILES IDX 25 34 78 35 26 36 83 37 77 38 79 39 27 40 82 41 76 42 75 43
REMARK SMILES IDX 28 45 62 46 41 47 61 48 42 49 45 50 60 51 80 52 43 53 44 54
REMARK SMILES IDX 59 56 81 57 46 58 29 59 30 60 39 61 31 62 32 63 38 64 40 65
REMARK SMILES IDX 33 66 34 67 35 68 36 69 37 70 63 71 64 72 73 73 65 74 66 75
REMARK SMILES IDX 72 76 74 77 67 78 68 79 69 80 70 81 71 82 47 83 48 84 57 85
REMARK SMILES IDX 49 86 50 87 56 88 58 89 51 90 52 91 53 92 54 93 55 94
REMARK H PARENT 86 19 79 44 45 55
REMARK Flexibility Score: inf
ROOT
ATOM      1  O   UNL A   1      35.499  34.494  29.581  1.00  0.00    -0.374 OA
ENDROOT
BRANCH   1   2
ATOM      2  C   UNL A   1      36.505  34.029  28.683  1.00  0.00     0.202 C 
BRANCH   2   3
ATOM      3  C   UNL A   1      37.890  33.771  29.287  1.00  0.00     0.261 C 
BRANCH   3   4
ATOM      4  O   UNL A   1      38.468  34.942  29.891  1.00  0.00    -0.463 OA
BRANCH   4   5
ATOM      5  C   UNL A   1      39.269  34.720  30.963  1.00  0.00     0.308 C 
ATOM      6  O   UNL A   1      40.488  34.595  30.919  1.00  0.00    -0.252 OA
BRANCH   5   7
ATOM      7  C   UNL A   1      38.507  34.555  32.253  1.00  0.00     0.152 C 
BRANCH   7   8
ATOM      8  C   UNL A   1      37.596  33.316  32.353  1.00  0.00     0.123 C 
BRANCH   8   9
ATOM      9  C   UNL A   1      38.331  32.271  33.186  1.00  0.00    -0.025 A 
ATOM     10  C   UNL A   1      39.569  30.447  34.942  1.00  0.00     0.118 A 
ATOM     11  C   UNL A   1      39.897  31.802  34.987  1.00  0.00     0.047 A 
ATOM     12  C   UNL A   1      38.627  30.000  34.017  1.00  0.00     0.047 A 
ATOM     13  C   UNL A   1      39.296  32.705  34.109  1.00  0.00     0.010 A 
ATOM     14  C   UNL A   1      38.007  30.907  33.149  1.00  0.00     0.010 A 
BRANCH  10  15
ATOM     15  O   UNL A   1      40.197  29.671  35.875  1.00  0.00    -0.497 OA
ATOM     16  C   UNL A   1      41.523  30.048  36.214  1.00  0.00     0.278 C 
ENDBRANCH  10  15
ENDBRANCH   8   9
BRANCH   8  17
ATOM     17  N   UNL A   1      36.295  33.656  32.941  1.00  0.00    -0.349 N 
ATOM     18  C   UNL A   1      35.151  32.940  32.665  1.00  0.00     0.217 C 
ATOM     19  H   UNL A   1      36.237  34.423  33.556  1.00  0.00     0.164 HD
ATOM     20  C   UNL A   1      33.941  33.407  33.430  1.00  0.00     0.114 C 
ATOM     21  O   UNL A   1      35.087  32.034  31.844  1.00  0.00    -0.275 OA
ENDBRANCH   8  17
ENDBRANCH   7   8
ENDBRANCH   5   7
ENDBRANCH   4   5
ENDBRANCH   3   4
ENDBRANCH   2   3
ENDBRANCH   1   2
BRANCH   1  22
ATOM     22  C   UNL A   1      34.153  34.091  29.323  1.00  0.00     0.202 C 
BRANCH  22  23
ATOM     23  C   UNL A   1      33.965  32.944  28.325  1.00  0.00     0.261 C 
BRANCH  23  24
ATOM     24  O   UNL A   1      34.456  31.702  28.855  1.00  0.00    -0.460 OA
BRANCH  24  25
ATOM     25  C   UNL A   1      34.688  30.742  27.930  1.00  0.00     0.338 C 
ATOM     26  O   UNL A   1      34.019  30.499  26.934  1.00  0.00    -0.246 OA
BRANCH  25  27
ATOM     27  C   UNL A   1      35.999  30.119  28.171  1.00  0.00     0.060 A 
ATOM     28  C   UNL A   1      36.242  29.589  29.445  1.00  0.00     0.016 A 
ATOM     29  C   UNL A   1      37.003  30.132  27.203  1.00  0.00     0.016 A 
ATOM     30  C   UNL A   1      37.508  29.103  29.768  1.00  0.00     0.010 A 
ATOM     31  C   UNL A   1      38.277  29.655  27.534  1.00  0.00     0.010 A 
ATOM     32  C   UNL A   1      38.542  29.163  28.825  1.00  0.00    -0.014 A 
BRANCH  32  33
ATOM     33  C   UNL A   1      39.925  28.797  29.221  1.00  0.00     0.031 A 
ATOM     34  C   UNL A   1      40.784  29.808  29.930  1.00  0.00     0.074 A 
ATOM     35  C   UNL A   1      40.407  27.571  28.948  1.00  0.00     0.049 A 
ATOM     36  N   UNL A   1      42.035  29.715  30.300  1.00  0.00    -0.248 NA
ATOM     37  C   UNL A   1      40.148  31.091  30.269  1.00  0.00     0.031 C 
ATOM     38  C   UNL A   1      39.660  26.496  28.296  1.00  0.00     0.029 A 
ATOM     39  N   UNL A   1      41.650  27.030  29.169  1.00  0.00    -0.354 N 
ATOM     40  C   UNL A   1      42.343  30.929  30.904  1.00  0.00     0.074 A 
ATOM     41  C   UNL A   1      41.150  31.746  30.840  1.00  0.00     0.031 C 
ATOM     42  C   UNL A   1      40.467  25.434  28.144  1.00  0.00     0.029 A 
ATOM     43  C   UNL A   1      41.796  25.764  28.656  1.00  0.00     0.049 A 
ATOM     44  H   UNL A   1      42.367  27.504  29.650  1.00  0.00     0.167 HD
ATOM     45  C   UNL A   1      43.513  31.322  31.460  1.00  0.00     0.037 A 
ATOM     46  C   UNL A   1      42.887  24.975  28.574  1.00  0.00     0.037 A 
ATOM     47  C   UNL A   1      44.696  30.503  31.523  1.00  0.00     0.049 A 
ATOM     48  C   UNL A   1      44.196  25.462  29.139  1.00  0.00     0.074 A 
ATOM     49  C   UNL A   1      45.915  30.796  32.108  1.00  0.00     0.029 A 
ATOM     50  N   UNL A   1      44.814  29.236  30.969  1.00  0.00    -0.354 N 
ATOM     51  N   UNL A   1      44.462  26.594  29.744  1.00  0.00    -0.248 NA
ATOM     52  C   UNL A   1      45.354  24.567  29.003  1.00  0.00     0.031 C 
ATOM     53  C   UNL A   1      46.786  29.728  31.863  1.00  0.00     0.029 A 
ATOM     54  C   UNL A   1      46.095  28.751  31.167  1.00  0.00     0.049 A 
ATOM     55  H   UNL A   1      44.092  28.755  30.504  1.00  0.00     0.167 HD
ATOM     56  C   UNL A   1      45.812  26.542  30.074  1.00  0.00     0.074 A 
ATOM     57  C   UNL A   1      46.306  25.261  29.615  1.00  0.00     0.031 C 
ATOM     58  C   UNL A   1      46.574  27.473  30.701  1.00  0.00     0.037 A 
BRANCH  45  59
ATOM     59  C   UNL A   1      43.589  32.713  32.023  1.00  0.00     0.058 A 
ATOM     60  C   UNL A   1      43.830  33.829  31.207  1.00  0.00     0.135 A 
ATOM     61  C   UNL A   1      43.361  32.936  33.391  1.00  0.00     0.135 A 
ATOM     62  F   UNL A   1      44.069  33.670  29.896  1.00  0.00    -0.206 F 
ATOM     63  C   UNL A   1      43.858  35.118  31.731  1.00  0.00     0.059 A 
ATOM     64  C   UNL A   1      43.363  34.218  33.932  1.00  0.00     0.059 A 
ATOM     65  F   UNL A   1      43.127  31.902  34.214  1.00  0.00    -0.206 F 
ATOM     66  C   UNL A   1      43.622  35.303  33.096  1.00  0.00     0.060 A 
BRANCH  66  67
ATOM     67  S   UNL A   1      43.641  36.983  33.757  1.00  0.00     0.124 S 
ATOM     68  O   UNL A   1      44.520  36.831  34.913  1.00  0.00    -0.237 OA
ATOM     69  O   UNL A   1      44.188  37.752  32.644  1.00  0.00    -0.237 OA
ATOM     70  O   UNL A   1      42.238  37.244  34.065  1.00  0.00    -0.744 OA
ENDBRANCH  66  67
ENDBRANCH  45  59
BRANCH  46  71
ATOM     71  C   UNL A   1      42.798  23.658  27.890  1.00  0.00     0.058 A 
ATOM     72  C   UNL A   1      42.940  23.548  26.500  1.00  0.00     0.135 A 
ATOM     73  C   UNL A   1      42.566  22.482  28.621  1.00  0.00     0.135 A 
ATOM     74  F   UNL A   1      43.152  24.645  25.759  1.00  0.00    -0.206 F 
ATOM     75  C   UNL A   1      42.846  22.318  25.855  1.00  0.00     0.059 A 
ATOM     76  C   UNL A   1      42.491  21.238  28.002  1.00  0.00     0.059 A 
ATOM     77  F   UNL A   1      42.431  22.533  29.956  1.00  0.00    -0.206 F 
ATOM     78  C   UNL A   1      42.623  21.168  26.616  1.00  0.00     0.060 A 
BRANCH  78  79
ATOM     79  S   UNL A   1      42.552  19.571  25.776  1.00  0.00     0.124 S 
ATOM     80  O   UNL A   1      42.919  18.657  26.852  1.00  0.00    -0.237 OA
ATOM     81  O   UNL A   1      41.160  19.515  25.339  1.00  0.00    -0.237 OA
ATOM     82  O   UNL A   1      43.532  19.713  24.704  1.00  0.00    -0.744 OA
ENDBRANCH  78  79
ENDBRANCH  46  71
BRANCH  58  83
ATOM     83  C   UNL A   1      48.021  27.141  30.940  1.00  0.00     0.058 A 
ATOM     84  C   UNL A   1      49.010  27.450  29.993  1.00  0.00     0.135 A 
ATOM     85  C   UNL A   1      48.431  26.569  32.155  1.00  0.00     0.135 A 
ATOM     86  F   UNL A   1      48.668  27.989  28.812  1.00  0.00    -0.206 F 
ATOM     87  C   UNL A   1      50.355  27.193  30.238  1.00  0.00     0.059 A 
ATOM     88  C   UNL A   1      49.773  26.326  32.431  1.00  0.00     0.059 A 
ATOM     89  F   UNL A   1      47.526  26.263  33.098  1.00  0.00    -0.206 F 
ATOM     90  C   UNL A   1      50.728  26.634  31.462  1.00  0.00     0.060 A 
BRANCH  90  91
ATOM     91  S   UNL A   1      52.481  26.350  31.788  1.00  0.00     0.124 S 
ATOM     92  O   UNL A   1      52.604  26.819  33.164  1.00  0.00    -0.237 OA
ATOM     93  O   UNL A   1      52.607  24.908  31.596  1.00  0.00    -0.237 OA
ATOM     94  O   UNL A   1      53.150  27.170  30.782  1.00  0.00    -0.744 OA
ENDBRANCH  90  91
ENDBRANCH  58  83
ENDBRANCH  32  33
ENDBRANCH  25  27
ENDBRANCH  24  25
ENDBRANCH  23  24
ENDBRANCH  22  23
ENDBRANCH   1  22
TORSDOF 21
ENDMDL
