MODEL 1
REMARK VINA RESULT:      -8.5      0.000      0.000
REMARK SMILES CSCC[NH2+]CC(C)(C)C(=O)OCCOCCOC(=O)c1ccc(-c2c3nc(c(-c4c(F)cc(S(=O)(=O)[O-])cc4F)c4ccc([nH]4)c(-c4c(F)cc(S(=O)(=O)[O-])cc4F)c4nc(c(-c5c(F)cc(S(=O)(=O)[O-])cc5F)c5ccc2[nH]5)C=C4)C=C3)cc1
REMARK SMILES IDX 14 1 13 2 12 3 10 4 11 5 7 6 8 7 9 8 6 9 5 10 4 13 3 14 2 15
REMARK SMILES IDX 1 16 15 17 16 18 17 19 18 20 19 21 20 22 21 23 22 24 86 25
REMARK SMILES IDX 23 26 85 27 24 28 25 29 26 30 79 31 27 32 84 33 78 34 80 35
REMARK SMILES IDX 28 36 83 37 77 38 76 39 29 41 63 42 42 43 62 44 43 45 46 46
REMARK SMILES IDX 61 47 81 48 44 49 45 50 60 52 82 53 47 54 30 55 31 56 40 57
REMARK SMILES IDX 32 58 33 59 39 60 41 61 34 62 35 63 36 64 37 65 38 66 64 67
REMARK SMILES IDX 65 68 74 69 66 70 67 71 73 72 75 73 68 74 69 75 70 76 71 77
REMARK SMILES IDX 72 78 48 79 49 80 58 81 50 82 51 83 57 84 59 85 52 86 53 87
REMARK SMILES IDX 54 88 55 89 56 90
REMARK H PARENT 5 11 5 12 80 40 46 51
REMARK Flexibility Score: inf
ROOT
ATOM      1  C   UNL A   1      37.445  23.505  25.261  1.00  0.00     0.202 C 
ENDROOT
BRANCH   1   2
ATOM      2  C   UNL A   1      36.723  22.856  24.067  1.00  0.00     0.261 C 
BRANCH   2   3
ATOM      3  O   UNL A   1      35.306  22.724  24.238  1.00  0.00    -0.463 OA
BRANCH   3   4
ATOM      4  C   UNL A   1      34.952  21.567  24.860  1.00  0.00     0.317 C 
ATOM      5  O   UNL A   1      35.596  20.537  24.713  1.00  0.00    -0.251 OA
BRANCH   4   6
ATOM      6  C   UNL A   1      33.669  21.673  25.710  1.00  0.00     0.111 C 
ATOM      7  C   UNL A   1      33.119  23.089  25.504  1.00  0.00     0.029 C 
ATOM      8  C   UNL A   1      33.984  21.514  27.222  1.00  0.00     0.029 C 
BRANCH   6   9
ATOM      9  C   UNL A   1      32.602  20.577  25.353  1.00  0.00     0.278 C 
BRANCH   9  10
ATOM     10  N   UNL A   1      32.507  19.956  24.016  1.00  0.00    -0.345 N 
ATOM     11  H   UNL A   1      31.541  20.025  23.695  1.00  0.00     0.346 HD
ATOM     12  H   UNL A   1      33.149  20.457  23.402  1.00  0.00     0.346 HD
BRANCH  10  13
ATOM     13  C   UNL A   1      32.904  18.543  24.007  1.00  0.00     0.271 C 
BRANCH  13  14
ATOM     14  C   UNL A   1      33.229  17.909  25.365  1.00  0.00     0.130 C 
BRANCH  14  15
ATOM     15  S   UNL A   1      33.949  16.221  25.284  1.00  0.00    -0.160 SA
ATOM     16  C   UNL A   1      32.479  15.213  25.563  1.00  0.00     0.085 C 
ENDBRANCH  14  15
ENDBRANCH  13  14
ENDBRANCH  10  13
ENDBRANCH   9  10
ENDBRANCH   6   9
ENDBRANCH   4   6
ENDBRANCH   3   4
ENDBRANCH   2   3
ENDBRANCH   1   2
BRANCH   1  17
ATOM     17  O   UNL A   1      38.700  22.995  25.697  1.00  0.00    -0.374 OA
BRANCH  17  18
ATOM     18  C   UNL A   1      38.774  21.680  26.238  1.00  0.00     0.202 C 
BRANCH  18  19
ATOM     19  C   UNL A   1      39.664  20.616  25.588  1.00  0.00     0.261 C 
BRANCH  19  20
ATOM     20  O   UNL A   1      40.385  19.830  26.550  1.00  0.00    -0.460 OA
BRANCH  20  21
ATOM     21  C   UNL A   1      41.678  19.594  26.217  1.00  0.00     0.338 C 
ATOM     22  O   UNL A   1      42.127  18.613  25.651  1.00  0.00    -0.246 OA
BRANCH  21  23
ATOM     23  C   UNL A   1      42.474  20.812  26.437  1.00  0.00     0.060 A 
ATOM     24  C   UNL A   1      42.527  21.322  27.741  1.00  0.00     0.016 A 
ATOM     25  C   UNL A   1      43.077  21.490  25.376  1.00  0.00     0.016 A 
ATOM     26  C   UNL A   1      43.150  22.539  27.986  1.00  0.00     0.010 A 
ATOM     27  C   UNL A   1      43.682  22.724  25.620  1.00  0.00     0.010 A 
ATOM     28  C   UNL A   1      43.684  23.268  26.918  1.00  0.00    -0.014 A 
BRANCH  28  29
ATOM     29  C   UNL A   1      44.067  24.680  27.139  1.00  0.00     0.031 A 
ATOM     30  C   UNL A   1      45.508  25.069  26.956  1.00  0.00     0.074 A 
ATOM     31  C   UNL A   1      43.138  25.603  27.443  1.00  0.00     0.049 A 
ATOM     32  N   UNL A   1      46.083  26.228  27.134  1.00  0.00    -0.248 NA
ATOM     33  C   UNL A   1      46.424  24.004  26.512  1.00  0.00     0.031 C 
ATOM     34  C   UNL A   1      41.706  25.343  27.587  1.00  0.00     0.029 A 
ATOM     35  N   UNL A   1      43.265  26.945  27.690  1.00  0.00    -0.354 N 
ATOM     36  C   UNL A   1      47.425  26.034  26.829  1.00  0.00     0.074 A 
ATOM     37  C   UNL A   1      47.586  24.638  26.490  1.00  0.00     0.031 C 
ATOM     38  C   UNL A   1      41.088  26.490  27.916  1.00  0.00     0.029 A 
ATOM     39  C   UNL A   1      42.085  27.552  28.039  1.00  0.00     0.049 A 
ATOM     40  H   UNL A   1      44.122  27.427  27.624  1.00  0.00     0.167 HD
ATOM     41  C   UNL A   1      48.428  26.943  26.824  1.00  0.00     0.037 A 
ATOM     42  C   UNL A   1      41.844  28.817  28.439  1.00  0.00     0.037 A 
ATOM     43  C   UNL A   1      48.251  28.330  27.169  1.00  0.00     0.049 A 
ATOM     44  C   UNL A   1      42.989  29.794  28.501  1.00  0.00     0.074 A 
ATOM     45  C   UNL A   1      49.200  29.336  27.200  1.00  0.00     0.029 A 
ATOM     46  N   UNL A   1      47.046  28.903  27.546  1.00  0.00    -0.354 N 
ATOM     47  N   UNL A   1      44.255  29.600  28.211  1.00  0.00    -0.248 NA
ATOM     48  C   UNL A   1      42.674  31.160  28.937  1.00  0.00     0.031 C 
ATOM     49  C   UNL A   1      48.578  30.506  27.647  1.00  0.00     0.029 A 
ATOM     50  C   UNL A   1      47.230  30.245  27.835  1.00  0.00     0.049 A 
ATOM     51  H   UNL A   1      46.186  28.427  27.602  1.00  0.00     0.167 HD
ATOM     52  C   UNL A   1      44.882  30.828  28.405  1.00  0.00     0.074 A 
ATOM     53  C   UNL A   1      43.854  31.757  28.824  1.00  0.00     0.031 C 
ATOM     54  C   UNL A   1      46.189  31.157  28.247  1.00  0.00     0.037 A 
BRANCH  41  55
ATOM     55  C   UNL A   1      49.805  26.459  26.461  1.00  0.00     0.058 A 
ATOM     56  C   UNL A   1      50.688  25.945  27.424  1.00  0.00     0.135 A 
ATOM     57  C   UNL A   1      50.239  26.485  25.125  1.00  0.00     0.135 A 
ATOM     58  F   UNL A   1      50.335  25.916  28.719  1.00  0.00    -0.206 F 
ATOM     59  C   UNL A   1      51.960  25.497  27.080  1.00  0.00     0.059 A 
ATOM     60  C   UNL A   1      51.495  26.016  24.754  1.00  0.00     0.059 A 
ATOM     61  F   UNL A   1      49.438  26.972  24.164  1.00  0.00    -0.206 F 
ATOM     62  C   UNL A   1      52.354  25.535  25.741  1.00  0.00     0.060 A 
BRANCH  62  63
ATOM     63  S   UNL A   1      54.004  24.943  25.312  1.00  0.00     0.124 S 
ATOM     64  O   UNL A   1      53.731  23.556  24.947  1.00  0.00    -0.237 OA
ATOM     65  O   UNL A   1      54.375  25.826  24.211  1.00  0.00    -0.237 OA
ATOM     66  O   UNL A   1      54.764  25.129  26.544  1.00  0.00    -0.744 OA
ENDBRANCH  62  63
ENDBRANCH  41  55
BRANCH  42  67
ATOM     67  C   UNL A   1      40.466  29.218  28.830  1.00  0.00     0.058 A 
ATOM     68  C   UNL A   1      40.107  29.375  30.176  1.00  0.00     0.135 A 
ATOM     69  C   UNL A   1      39.484  29.466  27.859  1.00  0.00     0.135 A 
ATOM     70  F   UNL A   1      41.008  29.139  31.142  1.00  0.00    -0.206 F 
ATOM     71  C   UNL A   1      38.821  29.754  30.548  1.00  0.00     0.059 A 
ATOM     72  C   UNL A   1      38.199  29.873  28.203  1.00  0.00     0.059 A 
ATOM     73  F   UNL A   1      39.778  29.340  26.555  1.00  0.00    -0.206 F 
ATOM     74  C   UNL A   1      37.875  30.006  29.552  1.00  0.00     0.060 A 
BRANCH  74  75
ATOM     75  S   UNL A   1      36.226  30.553  30.043  1.00  0.00     0.124 S 
ATOM     76  O   UNL A   1      36.322  31.994  29.845  1.00  0.00    -0.237 OA
ATOM     77  O   UNL A   1      35.374  29.833  29.100  1.00  0.00    -0.237 OA
ATOM     78  O   UNL A   1      36.124  30.110  31.430  1.00  0.00    -0.744 OA
ENDBRANCH  74  75
ENDBRANCH  42  67
BRANCH  54  79
ATOM     79  C   UNL A   1      46.578  32.589  28.492  1.00  0.00     0.058 A 
ATOM     80  C   UNL A   1      47.046  33.027  29.740  1.00  0.00     0.135 A 
ATOM     81  C   UNL A   1      46.538  33.523  27.442  1.00  0.00     0.135 A 
ATOM     82  F   UNL A   1      47.100  32.177  30.777  1.00  0.00    -0.206 F 
ATOM     83  C   UNL A   1      47.436  34.347  29.947  1.00  0.00     0.059 A 
ATOM     84  C   UNL A   1      46.952  34.840  27.618  1.00  0.00     0.059 A 
ATOM     85  F   UNL A   1      46.111  33.153  26.224  1.00  0.00    -0.206 F 
ATOM     86  C   UNL A   1      47.388  35.245  28.878  1.00  0.00     0.060 A 
BRANCH  86  87
ATOM     87  S   UNL A   1      47.928  36.945  29.154  1.00  0.00     0.124 S 
ATOM     88  O   UNL A   1      46.655  37.656  29.193  1.00  0.00    -0.237 OA
ATOM     89  O   UNL A   1      48.637  36.844  30.426  1.00  0.00    -0.237 OA
ATOM     90  O   UNL A   1      48.769  37.227  27.994  1.00  0.00    -0.744 OA
ENDBRANCH  86  87
ENDBRANCH  54  79
ENDBRANCH  28  29
ENDBRANCH  21  23
ENDBRANCH  20  21
ENDBRANCH  19  20
ENDBRANCH  18  19
ENDBRANCH  17  18
ENDBRANCH   1  17
TORSDOF 22
ENDMDL
MODEL 2
REMARK VINA RESULT:      -8.3      6.472     11.449
REMARK SMILES CSCC[NH2+]CC(C)(C)C(=O)OCCOCCOC(=O)c1ccc(-c2c3nc(c(-c4c(F)cc(S(=O)(=O)[O-])cc4F)c4ccc([nH]4)c(-c4c(F)cc(S(=O)(=O)[O-])cc4F)c4nc(c(-c5c(F)cc(S(=O)(=O)[O-])cc5F)c5ccc2[nH]5)C=C4)C=C3)cc1
REMARK SMILES IDX 14 1 13 2 12 3 10 4 11 5 7 6 8 7 9 8 6 9 5 10 4 13 3 14 2 15
REMARK SMILES IDX 1 16 15 17 16 18 17 19 18 20 19 21 20 22 21 23 22 24 86 25
REMARK SMILES IDX 23 26 85 27 24 28 25 29 26 30 79 31 27 32 84 33 78 34 80 35
REMARK SMILES IDX 28 36 83 37 77 38 76 39 29 41 63 42 42 43 62 44 43 45 46 46
REMARK SMILES IDX 61 47 81 48 44 49 45 50 60 52 82 53 47 54 30 55 31 56 40 57
REMARK SMILES IDX 32 58 33 59 39 60 41 61 34 62 35 63 36 64 37 65 38 66 64 67
REMARK SMILES IDX 65 68 74 69 66 70 67 71 73 72 75 73 68 74 69 75 70 76 71 77
REMARK SMILES IDX 72 78 48 79 49 80 58 81 50 82 51 83 57 84 59 85 52 86 53 87
REMARK SMILES IDX 54 88 55 89 56 90
REMARK H PARENT 5 11 5 12 80 40 46 51
REMARK Flexibility Score: inf
ROOT
ATOM      1  C   UNL A   1      41.851  21.172  26.693  1.00  0.00     0.202 C 
ENDROOT
BRANCH   1   2
ATOM      2  C   UNL A   1      40.381  21.444  27.059  1.00  0.00     0.261 C 
BRANCH   2   3
ATOM      3  O   UNL A   1      39.473  21.354  25.954  1.00  0.00    -0.463 OA
BRANCH   3   4
ATOM      4  C   UNL A   1      38.610  22.404  25.888  1.00  0.00     0.317 C 
ATOM      5  O   UNL A   1      38.921  23.515  26.294  1.00  0.00    -0.251 OA
BRANCH   4   6
ATOM      6  C   UNL A   1      37.227  22.049  25.304  1.00  0.00     0.111 C 
ATOM      7  C   UNL A   1      37.258  20.553  24.972  1.00  0.00     0.029 C 
ATOM      8  C   UNL A   1      36.965  22.814  23.979  1.00  0.00     0.029 C 
BRANCH   6   9
ATOM      9  C   UNL A   1      36.042  22.405  26.272  1.00  0.00     0.278 C 
BRANCH   9  10
ATOM     10  N   UNL A   1      35.036  21.415  26.706  1.00  0.00    -0.345 N 
ATOM     11  H   UNL A   1      34.625  20.985  25.877  1.00  0.00     0.346 HD
ATOM     12  H   UNL A   1      35.514  20.731  27.293  1.00  0.00     0.346 HD
BRANCH  10  13
ATOM     13  C   UNL A   1      33.957  22.003  27.511  1.00  0.00     0.271 C 
BRANCH  13  14
ATOM     14  C   UNL A   1      32.600  22.183  26.818  1.00  0.00     0.130 C 
BRANCH  14  15
ATOM     15  S   UNL A   1      32.677  22.918  25.136  1.00  0.00    -0.160 SA
ATOM     16  C   UNL A   1      30.993  23.544  24.964  1.00  0.00     0.085 C 
ENDBRANCH  14  15
ENDBRANCH  13  14
ENDBRANCH  10  13
ENDBRANCH   9  10
ENDBRANCH   6   9
ENDBRANCH   4   6
ENDBRANCH   3   4
ENDBRANCH   2   3
ENDBRANCH   1   2
BRANCH   1  17
ATOM     17  O   UNL A   1      42.341  21.523  25.404  1.00  0.00    -0.374 OA
BRANCH  17  18
ATOM     18  C   UNL A   1      43.311  22.557  25.278  1.00  0.00     0.202 C 
BRANCH  18  19
ATOM     19  C   UNL A   1      42.881  24.016  25.090  1.00  0.00     0.261 C 
BRANCH  19  20
ATOM     20  O   UNL A   1      42.862  24.754  26.321  1.00  0.00    -0.460 OA
BRANCH  20  21
ATOM     21  C   UNL A   1      42.601  26.077  26.171  1.00  0.00     0.338 C 
ATOM     22  O   UNL A   1      42.201  26.641  25.168  1.00  0.00    -0.246 OA
BRANCH  21  23
ATOM     23  C   UNL A   1      42.653  26.742  27.482  1.00  0.00     0.060 A 
ATOM     24  C   UNL A   1      41.923  26.162  28.529  1.00  0.00     0.016 A 
ATOM     25  C   UNL A   1      43.326  27.951  27.660  1.00  0.00     0.016 A 
ATOM     26  C   UNL A   1      41.826  26.814  29.752  1.00  0.00     0.010 A 
ATOM     27  C   UNL A   1      43.207  28.616  28.882  1.00  0.00     0.010 A 
ATOM     28  C   UNL A   1      42.425  28.068  29.915  1.00  0.00    -0.014 A 
BRANCH  28  29
ATOM     29  C   UNL A   1      42.066  28.881  31.097  1.00  0.00     0.031 A 
ATOM     30  C   UNL A   1      40.854  29.769  31.015  1.00  0.00     0.074 A 
ATOM     31  C   UNL A   1      42.774  28.787  32.236  1.00  0.00     0.049 A 
ATOM     32  N   UNL A   1      40.373  30.598  31.902  1.00  0.00    -0.248 NA
ATOM     33  C   UNL A   1      40.083  29.712  29.761  1.00  0.00     0.031 C 
ATOM     34  C   UNL A   1      43.930  27.915  32.440  1.00  0.00     0.029 A 
ATOM     35  N   UNL A   1      42.626  29.439  33.432  1.00  0.00    -0.354 N 
ATOM     36  C   UNL A   1      39.247  31.164  31.315  1.00  0.00     0.074 A 
ATOM     37  C   UNL A   1      39.138  30.612  29.983  1.00  0.00     0.031 C 
ATOM     38  C   UNL A   1      44.399  28.101  33.686  1.00  0.00     0.029 A 
ATOM     39  C   UNL A   1      43.596  29.126  34.351  1.00  0.00     0.049 A 
ATOM     40  H   UNL A   1      41.892  30.071  33.615  1.00  0.00     0.167 HD
ATOM     41  C   UNL A   1      38.379  32.057  31.846  1.00  0.00     0.037 A 
ATOM     42  C   UNL A   1      43.826  29.635  35.578  1.00  0.00     0.037 A 
ATOM     43  C   UNL A   1      38.505  32.602  33.173  1.00  0.00     0.049 A 
ATOM     44  C   UNL A   1      42.892  30.686  36.120  1.00  0.00     0.074 A 
ATOM     45  C   UNL A   1      37.683  33.515  33.810  1.00  0.00     0.029 A 
ATOM     46  N   UNL A   1      39.519  32.284  34.065  1.00  0.00    -0.354 N 
ATOM     47  N   UNL A   1      41.831  31.215  35.557  1.00  0.00    -0.248 NA
ATOM     48  C   UNL A   1      43.182  31.202  37.464  1.00  0.00     0.031 C 
ATOM     49  C   UNL A   1      38.231  33.790  35.066  1.00  0.00     0.029 A 
ATOM     50  C   UNL A   1      39.359  33.002  35.239  1.00  0.00     0.049 A 
ATOM     51  H   UNL A   1      40.247  31.645  33.890  1.00  0.00     0.167 HD
ATOM     52  C   UNL A   1      41.311  32.108  36.489  1.00  0.00     0.074 A 
ATOM     53  C   UNL A   1      42.168  32.037  37.655  1.00  0.00     0.031 C 
ATOM     54  C   UNL A   1      40.222  32.912  36.392  1.00  0.00     0.037 A 
BRANCH  41  55
ATOM     55  C   UNL A   1      37.238  32.519  30.982  1.00  0.00     0.058 A 
ATOM     56  C   UNL A   1      35.969  31.921  31.047  1.00  0.00     0.135 A 
ATOM     57  C   UNL A   1      37.409  33.593  30.092  1.00  0.00     0.135 A 
ATOM     58  F   UNL A   1      35.755  30.877  31.863  1.00  0.00    -0.206 F 
ATOM     59  C   UNL A   1      34.918  32.355  30.245  1.00  0.00     0.059 A 
ATOM     60  C   UNL A   1      36.364  34.061  29.302  1.00  0.00     0.059 A 
ATOM     61  F   UNL A   1      38.602  34.197  29.983  1.00  0.00    -0.206 F 
ATOM     62  C   UNL A   1      35.125  33.427  29.376  1.00  0.00     0.060 A 
BRANCH  62  63
ATOM     63  S   UNL A   1      33.748  33.982  28.350  1.00  0.00     0.124 S 
ATOM     64  O   UNL A   1      33.316  32.729  27.738  1.00  0.00    -0.237 OA
ATOM     65  O   UNL A   1      32.836  34.555  29.334  1.00  0.00    -0.237 OA
ATOM     66  O   UNL A   1      34.366  34.942  27.440  1.00  0.00    -0.744 OA
ENDBRANCH  62  63
ENDBRANCH  41  55
BRANCH  42  67
ATOM     67  C   UNL A   1      45.001  29.169  36.362  1.00  0.00     0.058 A 
ATOM     68  C   UNL A   1      46.244  29.809  36.262  1.00  0.00     0.135 A 
ATOM     69  C   UNL A   1      44.896  28.078  37.239  1.00  0.00     0.135 A 
ATOM     70  F   UNL A   1      46.398  30.849  35.429  1.00  0.00    -0.206 F 
ATOM     71  C   UNL A   1      47.345  29.380  36.996  1.00  0.00     0.059 A 
ATOM     72  C   UNL A   1      45.974  27.647  38.005  1.00  0.00     0.059 A 
ATOM     73  F   UNL A   1      43.726  27.436  37.380  1.00  0.00    -0.206 F 
ATOM     74  C   UNL A   1      47.199  28.300  37.870  1.00  0.00     0.060 A 
BRANCH  74  75
ATOM     75  S   UNL A   1      48.618  27.788  38.860  1.00  0.00     0.124 S 
ATOM     76  O   UNL A   1      49.675  27.739  37.857  1.00  0.00    -0.237 OA
ATOM     77  O   UNL A   1      48.714  28.868  39.838  1.00  0.00    -0.237 OA
ATOM     78  O   UNL A   1      48.202  26.498  39.403  1.00  0.00    -0.744 OA
ENDBRANCH  74  75
ENDBRANCH  42  67
BRANCH  54  79
ATOM     79  C   UNL A   1      39.871  33.753  37.589  1.00  0.00     0.058 A 
ATOM     80  C   UNL A   1      38.954  33.318  38.557  1.00  0.00     0.135 A 
ATOM     81  C   UNL A   1      40.509  34.988  37.798  1.00  0.00     0.135 A 
ATOM     82  F   UNL A   1      38.313  32.148  38.405  1.00  0.00    -0.206 F 
ATOM     83  C   UNL A   1      38.661  34.088  39.679  1.00  0.00     0.059 A 
ATOM     84  C   UNL A   1      40.255  35.760  38.927  1.00  0.00     0.059 A 
ATOM     85  F   UNL A   1      41.405  35.445  36.909  1.00  0.00    -0.206 F 
ATOM     86  C   UNL A   1      39.320  35.308  39.856  1.00  0.00     0.060 A 
BRANCH  86  87
ATOM     87  S   UNL A   1      38.955  36.280  41.331  1.00  0.00     0.124 S 
ATOM     88  O   UNL A   1      40.213  36.188  42.064  1.00  0.00    -0.237 OA
ATOM     89  O   UNL A   1      38.641  37.591  40.771  1.00  0.00    -0.237 OA
ATOM     90  O   UNL A   1      37.826  35.575  41.932  1.00  0.00    -0.744 OA
ENDBRANCH  86  87
ENDBRANCH  54  79
ENDBRANCH  28  29
ENDBRANCH  21  23
ENDBRANCH  20  21
ENDBRANCH  19  20
ENDBRANCH  18  19
ENDBRANCH  17  18
ENDBRANCH   1  17
TORSDOF 22
ENDMDL
MODEL 3
REMARK VINA RESULT:      -8.2      3.735     10.310
REMARK SMILES CSCC[NH2+]CC(C)(C)C(=O)OCCOCCOC(=O)c1ccc(-c2c3nc(c(-c4c(F)cc(S(=O)(=O)[O-])cc4F)c4ccc([nH]4)c(-c4c(F)cc(S(=O)(=O)[O-])cc4F)c4nc(c(-c5c(F)cc(S(=O)(=O)[O-])cc5F)c5ccc2[nH]5)C=C4)C=C3)cc1
REMARK SMILES IDX 14 1 13 2 12 3 10 4 11 5 7 6 8 7 9 8 6 9 5 10 4 13 3 14 2 15
REMARK SMILES IDX 1 16 15 17 16 18 17 19 18 20 19 21 20 22 21 23 22 24 86 25
REMARK SMILES IDX 23 26 85 27 24 28 25 29 26 30 79 31 27 32 84 33 78 34 80 35
REMARK SMILES IDX 28 36 83 37 77 38 76 39 29 41 63 42 42 43 62 44 43 45 46 46
REMARK SMILES IDX 61 47 81 48 44 49 45 50 60 52 82 53 47 54 30 55 31 56 40 57
REMARK SMILES IDX 32 58 33 59 39 60 41 61 34 62 35 63 36 64 37 65 38 66 64 67
REMARK SMILES IDX 65 68 74 69 66 70 67 71 73 72 75 73 68 74 69 75 70 76 71 77
REMARK SMILES IDX 72 78 48 79 49 80 58 81 50 82 51 83 57 84 59 85 52 86 53 87
REMARK SMILES IDX 54 88 55 89 56 90
REMARK H PARENT 5 11 5 12 80 40 46 51
REMARK Flexibility Score: inf
ROOT
ATOM      1  C   UNL A   1      35.010  34.439  33.579  1.00  0.00     0.202 C 
ENDROOT
BRANCH   1   2
ATOM      2  C   UNL A   1      34.156  34.844  32.365  1.00  0.00     0.261 C 
BRANCH   2   3
ATOM      3  O   UNL A   1      34.285  33.969  31.237  1.00  0.00    -0.463 OA
BRANCH   3   4
ATOM      4  C   UNL A   1      33.684  34.455  30.116  1.00  0.00     0.317 C 
ATOM      5  O   UNL A   1      32.663  35.126  30.176  1.00  0.00    -0.251 OA
BRANCH   4   6
ATOM      6  C   UNL A   1      34.379  34.048  28.800  1.00  0.00     0.111 C 
ATOM      7  C   UNL A   1      35.886  34.205  29.030  1.00  0.00     0.029 C 
ATOM      8  C   UNL A   1      33.984  35.001  27.641  1.00  0.00     0.029 C 
BRANCH   6   9
ATOM      9  C   UNL A   1      34.010  32.593  28.335  1.00  0.00     0.278 C 
BRANCH   9  10
ATOM     10  N   UNL A   1      34.771  31.399  28.756  1.00  0.00    -0.345 N 
ATOM     11  H   UNL A   1      35.709  31.694  29.031  1.00  0.00     0.346 HD
ATOM     12  H   UNL A   1      34.264  30.972  29.531  1.00  0.00     0.346 HD
BRANCH  10  13
ATOM     13  C   UNL A   1      34.890  30.388  27.699  1.00  0.00     0.271 C 
BRANCH  13  14
ATOM     14  C   UNL A   1      33.588  29.728  27.227  1.00  0.00     0.130 C 
BRANCH  14  15
ATOM     15  S   UNL A   1      33.648  29.008  25.538  1.00  0.00    -0.160 SA
ATOM     16  C   UNL A   1      32.009  29.450  24.924  1.00  0.00     0.085 C 
ENDBRANCH  14  15
ENDBRANCH  13  14
ENDBRANCH  10  13
ENDBRANCH   9  10
ENDBRANCH   6   9
ENDBRANCH   4   6
ENDBRANCH   3   4
ENDBRANCH   2   3
ENDBRANCH   1   2
BRANCH   1  17
ATOM     17  O   UNL A   1      35.074  33.075  33.982  1.00  0.00    -0.374 OA
BRANCH  17  18
ATOM     18  C   UNL A   1      36.304  32.367  33.870  1.00  0.00     0.202 C 
BRANCH  18  19
ATOM     19  C   UNL A   1      36.449  31.202  32.885  1.00  0.00     0.261 C 
BRANCH  19  20
ATOM     20  O   UNL A   1      36.506  31.633  31.517  1.00  0.00    -0.460 OA
BRANCH  20  21
ATOM     21  C   UNL A   1      37.611  32.356  31.207  1.00  0.00     0.338 C 
ATOM     22  O   UNL A   1      37.826  33.525  31.476  1.00  0.00    -0.246 OA
BRANCH  21  23
ATOM     23  C   UNL A   1      38.653  31.463  30.679  1.00  0.00     0.060 A 
ATOM     24  C   UNL A   1      39.672  31.069  31.558  1.00  0.00     0.016 A 
ATOM     25  C   UNL A   1      38.683  31.093  29.334  1.00  0.00     0.016 A 
ATOM     26  C   UNL A   1      40.752  30.336  31.084  1.00  0.00     0.010 A 
ATOM     27  C   UNL A   1      39.782  30.377  28.855  1.00  0.00     0.010 A 
ATOM     28  C   UNL A   1      40.836  30.032  29.721  1.00  0.00    -0.014 A 
BRANCH  28  29
ATOM     29  C   UNL A   1      42.117  29.527  29.180  1.00  0.00     0.031 A 
ATOM     30  C   UNL A   1      43.273  30.483  29.065  1.00  0.00     0.074 A 
ATOM     31  C   UNL A   1      42.259  28.232  28.850  1.00  0.00     0.049 A 
ATOM     32  N   UNL A   1      44.471  30.281  28.585  1.00  0.00    -0.248 NA
ATOM     33  C   UNL A   1      43.044  31.852  29.560  1.00  0.00     0.031 C 
ATOM     34  C   UNL A   1      41.220  27.211  28.976  1.00  0.00     0.029 A 
ATOM     35  N   UNL A   1      43.336  27.559  28.335  1.00  0.00    -0.354 N 
ATOM     36  C   UNL A   1      45.137  31.494  28.715  1.00  0.00     0.074 A 
ATOM     37  C   UNL A   1      44.201  32.436  29.285  1.00  0.00     0.031 C 
ATOM     38  C   UNL A   1      41.707  26.040  28.531  1.00  0.00     0.029 A 
ATOM     39  C   UNL A   1      43.077  26.239  28.060  1.00  0.00     0.049 A 
ATOM     40  H   UNL A   1      44.212  27.981  28.178  1.00  0.00     0.167 HD
ATOM     41  C   UNL A   1      46.419  31.789  28.395  1.00  0.00     0.037 A 
ATOM     42  C   UNL A   1      43.850  25.308  27.467  1.00  0.00     0.037 A 
ATOM     43  C   UNL A   1      47.339  30.840  27.823  1.00  0.00     0.049 A 
ATOM     44  C   UNL A   1      45.249  25.679  27.047  1.00  0.00     0.074 A 
ATOM     45  C   UNL A   1      48.659  31.034  27.458  1.00  0.00     0.029 A 
ATOM     46  N   UNL A   1      47.031  29.519  27.530  1.00  0.00    -0.354 N 
ATOM     47  N   UNL A   1      45.870  26.828  27.174  1.00  0.00    -0.248 NA
ATOM     48  C   UNL A   1      46.053  24.627  26.412  1.00  0.00     0.031 C 
ATOM     49  C   UNL A   1      49.134  29.845  26.895  1.00  0.00     0.029 A 
ATOM     50  C   UNL A   1      48.130  28.892  26.967  1.00  0.00     0.049 A 
ATOM     51  H   UNL A   1      46.161  29.091  27.696  1.00  0.00     0.167 HD
ATOM     52  C   UNL A   1      47.147  26.630  26.658  1.00  0.00     0.074 A 
ATOM     53  C   UNL A   1      47.211  25.248  26.230  1.00  0.00     0.031 C 
ATOM     54  C   UNL A   1      48.175  27.510  26.551  1.00  0.00     0.037 A 
BRANCH  41  55
ATOM     55  C   UNL A   1      46.890  33.198  28.632  1.00  0.00     0.058 A 
ATOM     56  C   UNL A   1      46.865  34.168  27.616  1.00  0.00     0.135 A 
ATOM     57  C   UNL A   1      47.348  33.591  29.900  1.00  0.00     0.135 A 
ATOM     58  F   UNL A   1      46.457  33.842  26.380  1.00  0.00    -0.206 F 
ATOM     59  C   UNL A   1      47.300  35.470  27.843  1.00  0.00     0.059 A 
ATOM     60  C   UNL A   1      47.760  34.895  30.157  1.00  0.00     0.059 A 
ATOM     61  F   UNL A   1      47.400  32.704  30.905  1.00  0.00    -0.206 F 
ATOM     62  C   UNL A   1      47.745  35.824  29.118  1.00  0.00     0.060 A 
BRANCH  62  63
ATOM     63  S   UNL A   1      48.298  37.520  29.397  1.00  0.00     0.124 S 
ATOM     64  O   UNL A   1      47.138  38.283  28.948  1.00  0.00    -0.237 OA
ATOM     65  O   UNL A   1      48.549  37.534  30.835  1.00  0.00    -0.237 OA
ATOM     66  O   UNL A   1      49.486  37.633  28.556  1.00  0.00    -0.744 OA
ENDBRANCH  62  63
ENDBRANCH  41  55
BRANCH  42  67
ATOM     67  C   UNL A   1      43.307  23.946  27.219  1.00  0.00     0.058 A 
ATOM     68  C   UNL A   1      43.295  22.971  28.227  1.00  0.00     0.135 A 
ATOM     69  C   UNL A   1      42.775  23.597  25.967  1.00  0.00     0.135 A 
ATOM     70  F   UNL A   1      43.802  23.252  29.437  1.00  0.00    -0.206 F 
ATOM     71  C   UNL A   1      42.785  21.697  28.002  1.00  0.00     0.059 A 
ATOM     72  C   UNL A   1      42.233  22.340  25.725  1.00  0.00     0.059 A 
ATOM     73  F   UNL A   1      42.752  24.497  24.971  1.00  0.00    -0.206 F 
ATOM     74  C   UNL A   1      42.251  21.392  26.748  1.00  0.00     0.060 A 
BRANCH  74  75
ATOM     75  S   UNL A   1      41.539  19.754  26.484  1.00  0.00     0.124 S 
ATOM     76  O   UNL A   1      40.151  20.081  26.183  1.00  0.00    -0.237 OA
ATOM     77  O   UNL A   1      42.335  19.253  25.367  1.00  0.00    -0.237 OA
ATOM     78  O   UNL A   1      41.768  19.079  27.757  1.00  0.00    -0.744 OA
ENDBRANCH  74  75
ENDBRANCH  42  67
BRANCH  54  79
ATOM     79  C   UNL A   1      49.470  26.998  25.982  1.00  0.00     0.058 A 
ATOM     80  C   UNL A   1      49.795  27.150  24.625  1.00  0.00     0.135 A 
ATOM     81  C   UNL A   1      50.426  26.400  26.822  1.00  0.00     0.135 A 
ATOM     82  F   UNL A   1      48.917  27.710  23.779  1.00  0.00    -0.206 F 
ATOM     83  C   UNL A   1      51.010  26.703  24.115  1.00  0.00     0.059 A 
ATOM     84  C   UNL A   1      51.659  25.975  26.339  1.00  0.00     0.059 A 
ATOM     85  F   UNL A   1      50.171  26.242  28.130  1.00  0.00    -0.206 F 
ATOM     86  C   UNL A   1      51.937  26.119  24.982  1.00  0.00     0.060 A 
BRANCH  86  87
ATOM     87  S   UNL A   1      53.522  25.575  24.312  1.00  0.00     0.124 S 
ATOM     88  O   UNL A   1      53.378  25.916  22.901  1.00  0.00    -0.237 OA
ATOM     89  O   UNL A   1      54.474  26.385  25.066  1.00  0.00    -0.237 OA
ATOM     90  O   UNL A   1      53.546  24.146  24.612  1.00  0.00    -0.744 OA
ENDBRANCH  86  87
ENDBRANCH  54  79
ENDBRANCH  28  29
ENDBRANCH  21  23
ENDBRANCH  20  21
ENDBRANCH  19  20
ENDBRANCH  18  19
ENDBRANCH  17  18
ENDBRANCH   1  17
TORSDOF 22
ENDMDL
