MODEL 1
REMARK VINA RESULT:     -10.3      0.000      0.000
REMARK SMILES C[NH2+][C@@H](C)c1ccc(SCc2ccc(C(=O)OCCOCCOC(=O)c3ccc(-c4c5nc(c(-c6c(F)cc(S(=O)(=O)[O-])cc6F)c6ccc([nH]6)c(-c6c(F)cc(S(=O)(=O)[O-])cc6F)c6nc(c(-c7c(F)cc(S(=O)(=O)[O-])cc7F)c7ccc4[nH]7)C=C6)C=C5)cc3)cc2)cc1
REMARK SMILES IDX 19 1 18 2 17 3 15 4 16 5 14 6 11 7 12 8 93 9 13 10 92 11
REMARK SMILES IDX 10 12 9 13 8 14 5 15 6 16 95 17 7 18 94 19 3 20 4 21 2 22
REMARK SMILES IDX 1 23 20 26 21 27 22 28 23 29 24 30 25 31 26 32 27 33 91 34
REMARK SMILES IDX 28 35 90 36 29 37 30 38 31 39 84 40 32 41 89 42 83 43 85 44
REMARK SMILES IDX 33 45 88 46 82 47 81 48 34 50 68 51 47 52 67 53 48 54 51 55
REMARK SMILES IDX 66 56 86 57 49 58 50 59 65 61 87 62 52 63 35 64 36 65 45 66
REMARK SMILES IDX 37 67 38 68 44 69 46 70 39 71 40 72 41 73 42 74 43 75 69 76
REMARK SMILES IDX 70 77 79 78 71 79 72 80 78 81 80 82 73 83 74 84 75 85 76 86
REMARK SMILES IDX 77 87 53 88 54 89 63 90 55 91 56 92 62 93 64 94 57 95 58 96
REMARK SMILES IDX 59 97 60 98 61 99
REMARK H PARENT 2 24 2 25 85 49 51 60
REMARK Flexibility Score: inf
ROOT
ATOM      1  C   UNL A   1      35.197  32.846  27.899  1.00  0.00     0.202 C 
ENDROOT
BRANCH   1   2
ATOM      2  C   UNL A   1      34.073  31.834  28.141  1.00  0.00     0.261 C 
BRANCH   2   3
ATOM      3  O   UNL A   1      34.044  30.848  27.100  1.00  0.00    -0.460 OA
BRANCH   3   4
ATOM      4  C   UNL A   1      34.463  29.612  27.459  1.00  0.00     0.338 C 
ATOM      5  O   UNL A   1      35.375  29.347  28.232  1.00  0.00    -0.246 OA
BRANCH   4   6
ATOM      6  C   UNL A   1      33.581  28.572  26.872  1.00  0.00     0.060 A 
ATOM      7  C   UNL A   1      31.834  26.583  25.930  1.00  0.00    -0.038 A 
ATOM      8  C   UNL A   1      31.363  27.596  26.775  1.00  0.00     0.005 A 
ATOM      9  C   UNL A   1      33.162  26.641  25.479  1.00  0.00     0.005 A 
ATOM     10  C   UNL A   1      32.229  28.585  27.237  1.00  0.00     0.016 A 
ATOM     11  C   UNL A   1      34.038  27.614  25.962  1.00  0.00     0.016 A 
BRANCH   7  12
ATOM     12  C   UNL A   1      30.947  25.413  25.580  1.00  0.00     0.110 C 
BRANCH  12  13
ATOM     13  S   UNL A   1      30.564  25.314  23.783  1.00  0.00    -0.121 SA
BRANCH  13  14
ATOM     14  C   UNL A   1      30.050  26.978  23.367  1.00  0.00     0.008 A 
ATOM     15  C   UNL A   1      29.343  29.652  22.721  1.00  0.00     0.009 A 
ATOM     16  C   UNL A   1      30.647  29.178  22.509  1.00  0.00     0.011 A 
ATOM     17  C   UNL A   1      28.390  28.749  23.210  1.00  0.00     0.011 A 
ATOM     18  C   UNL A   1      30.998  27.861  22.837  1.00  0.00     0.015 A 
ATOM     19  C   UNL A   1      28.737  27.426  23.502  1.00  0.00     0.015 A 
BRANCH  15  20
ATOM     20  C   UNL A   1      28.983  31.087  22.341  1.00  0.00     0.210 C 
ATOM     21  C   UNL A   1      27.761  31.615  23.111  1.00  0.00     0.081 C 
BRANCH  20  22
ATOM     22  N   UNL A   1      28.817  31.144  20.881  1.00  0.00    -0.343 N 
ATOM     23  C   UNL A   1      27.962  32.234  20.434  1.00  0.00     0.331 C 
ATOM     24  H   UNL A   1      29.738  31.261  20.456  1.00  0.00     0.346 HD
ATOM     25  H   UNL A   1      28.366  30.274  20.596  1.00  0.00     0.346 HD
ENDBRANCH  20  22
ENDBRANCH  15  20
ENDBRANCH  13  14
ENDBRANCH  12  13
ENDBRANCH   7  12
ENDBRANCH   4   6
ENDBRANCH   3   4
ENDBRANCH   2   3
ENDBRANCH   1   2
BRANCH   1  26
ATOM     26  O   UNL A   1      36.389  32.659  28.664  1.00  0.00    -0.374 OA
BRANCH  26  27
ATOM     27  C   UNL A   1      36.502  33.398  29.881  1.00  0.00     0.202 C 
BRANCH  27  28
ATOM     28  C   UNL A   1      36.437  32.591  31.184  1.00  0.00     0.261 C 
BRANCH  28  29
ATOM     29  O   UNL A   1      36.263  31.183  30.942  1.00  0.00    -0.460 OA
BRANCH  29  30
ATOM     30  C   UNL A   1      36.983  30.377  31.758  1.00  0.00     0.338 C 
ATOM     31  O   UNL A   1      36.666  29.982  32.872  1.00  0.00    -0.246 OA
BRANCH  30  32
ATOM     32  C   UNL A   1      38.168  29.868  31.045  1.00  0.00     0.060 A 
ATOM     33  C   UNL A   1      39.214  29.346  31.818  1.00  0.00     0.016 A 
ATOM     34  C   UNL A   1      38.289  29.957  29.656  1.00  0.00     0.016 A 
ATOM     35  C   UNL A   1      40.405  28.958  31.210  1.00  0.00     0.010 A 
ATOM     36  C   UNL A   1      39.488  29.573  29.048  1.00  0.00     0.010 A 
ATOM     37  C   UNL A   1      40.564  29.106  29.825  1.00  0.00    -0.014 A 
BRANCH  37  38
ATOM     38  C   UNL A   1      41.900  28.904  29.213  1.00  0.00     0.031 A 
ATOM     39  C   UNL A   1      42.247  27.554  28.649  1.00  0.00     0.074 A 
ATOM     40  C   UNL A   1      42.783  29.916  29.142  1.00  0.00     0.049 A 
ATOM     41  N   UNL A   1      43.365  27.142  28.110  1.00  0.00    -0.248 NA
ATOM     42  C   UNL A   1      41.194  26.527  28.705  1.00  0.00     0.031 C 
ATOM     43  C   UNL A   1      42.546  31.277  29.621  1.00  0.00     0.029 A 
ATOM     44  N   UNL A   1      44.061  29.951  28.645  1.00  0.00    -0.354 N 
ATOM     45  C   UNL A   1      43.156  25.811  27.772  1.00  0.00     0.074 A 
ATOM     46  C   UNL A   1      41.813  25.474  28.195  1.00  0.00     0.031 C 
ATOM     47  C   UNL A   1      43.650  32.012  29.406  1.00  0.00     0.029 A 
ATOM     48  C   UNL A   1      44.681  31.167  28.804  1.00  0.00     0.049 A 
ATOM     49  H   UNL A   1      44.494  29.178  28.215  1.00  0.00     0.167 HD
ATOM     50  C   UNL A   1      44.002  24.950  27.157  1.00  0.00     0.037 A 
ATOM     51  C   UNL A   1      45.941  31.548  28.518  1.00  0.00     0.037 A 
ATOM     52  C   UNL A   1      45.336  25.295  26.736  1.00  0.00     0.049 A 
ATOM     53  C   UNL A   1      46.886  30.559  27.885  1.00  0.00     0.074 A 
ATOM     54  C   UNL A   1      46.264  24.501  26.084  1.00  0.00     0.029 A 
ATOM     55  N   UNL A   1      45.935  26.530  26.932  1.00  0.00    -0.354 N 
ATOM     56  N   UNL A   1      46.668  29.309  27.551  1.00  0.00    -0.248 NA
ATOM     57  C   UNL A   1      48.245  31.031  27.588  1.00  0.00     0.031 C 
ATOM     58  C   UNL A   1      47.441  25.241  25.933  1.00  0.00     0.029 A 
ATOM     59  C   UNL A   1      47.229  26.514  26.438  1.00  0.00     0.049 A 
ATOM     60  H   UNL A   1      45.503  27.305  27.359  1.00  0.00     0.167 HD
ATOM     61  C   UNL A   1      47.851  28.856  26.976  1.00  0.00     0.074 A 
ATOM     62  C   UNL A   1      48.780  29.967  27.004  1.00  0.00     0.031 C 
ATOM     63  C   UNL A   1      48.141  27.631  26.467  1.00  0.00     0.037 A 
BRANCH  50  64
ATOM     64  C   UNL A   1      43.520  23.542  26.930  1.00  0.00     0.058 A 
ATOM     65  C   UNL A   1      43.444  22.607  27.973  1.00  0.00     0.135 A 
ATOM     66  C   UNL A   1      43.107  23.131  25.651  1.00  0.00     0.135 A 
ATOM     67  F   UNL A   1      43.841  22.940  29.212  1.00  0.00    -0.206 F 
ATOM     68  C   UNL A   1      43.008  21.305  27.752  1.00  0.00     0.059 A 
ATOM     69  C   UNL A   1      42.641  21.842  25.414  1.00  0.00     0.059 A 
ATOM     70  F   UNL A   1      43.160  23.984  24.617  1.00  0.00    -0.206 F 
ATOM     71  C   UNL A   1      42.611  20.930  26.468  1.00  0.00     0.060 A 
BRANCH  71  72
ATOM     72  S   UNL A   1      42.055  19.235  26.193  1.00  0.00     0.124 S 
ATOM     73  O   UNL A   1      42.940  18.811  25.112  1.00  0.00    -0.237 OA
ATOM     74  O   UNL A   1      42.297  18.613  27.491  1.00  0.00    -0.237 OA
ATOM     75  O   UNL A   1      40.651  19.392  25.828  1.00  0.00    -0.744 OA
ENDBRANCH  71  72
ENDBRANCH  50  64
BRANCH  51  76
ATOM     76  C   UNL A   1      46.383  32.932  28.834  1.00  0.00     0.058 A 
ATOM     77  C   UNL A   1      47.005  33.235  30.053  1.00  0.00     0.135 A 
ATOM     78  C   UNL A   1      46.209  33.975  27.910  1.00  0.00     0.135 A 
ATOM     79  F   UNL A   1      47.184  32.275  30.972  1.00  0.00    -0.206 F 
ATOM     80  C   UNL A   1      47.435  34.526  30.350  1.00  0.00     0.059 A 
ATOM     81  C   UNL A   1      46.652  35.267  28.174  1.00  0.00     0.059 A 
ATOM     82  F   UNL A   1      45.628  33.735  26.724  1.00  0.00    -0.206 F 
ATOM     83  C   UNL A   1      47.258  35.534  29.400  1.00  0.00     0.060 A 
BRANCH  83  84
ATOM     84  S   UNL A   1      47.877  37.191  29.769  1.00  0.00     0.124 S 
ATOM     85  O   UNL A   1      46.639  37.917  30.023  1.00  0.00    -0.237 OA
ATOM     86  O   UNL A   1      48.727  36.947  30.931  1.00  0.00    -0.237 OA
ATOM     87  O   UNL A   1      48.588  37.560  28.548  1.00  0.00    -0.744 OA
ENDBRANCH  83  84
ENDBRANCH  51  76
BRANCH  63  88
ATOM     88  C   UNL A   1      49.504  27.433  25.860  1.00  0.00     0.058 A 
ATOM     89  C   UNL A   1      50.628  27.131  26.644  1.00  0.00     0.135 A 
ATOM     90  C   UNL A   1      49.673  27.488  24.466  1.00  0.00     0.135 A 
ATOM     91  F   UNL A   1      50.523  27.074  27.981  1.00  0.00    -0.206 F 
ATOM     92  C   UNL A   1      51.876  26.911  26.070  1.00  0.00     0.059 A 
ATOM     93  C   UNL A   1      50.905  27.243  23.869  1.00  0.00     0.059 A 
ATOM     94  F   UNL A   1      48.628  27.762  23.668  1.00  0.00    -0.206 F 
ATOM     95  C   UNL A   1      52.004  26.966  24.680  1.00  0.00     0.060 A 
BRANCH  95  96
ATOM     96  S   UNL A   1      53.621  26.640  23.946  1.00  0.00     0.124 S 
ATOM     97  O   UNL A   1      53.422  25.312  23.374  1.00  0.00    -0.237 OA
ATOM     98  O   UNL A   1      53.754  27.731  22.986  1.00  0.00    -0.237 OA
ATOM     99  O   UNL A   1      54.531  26.702  25.086  1.00  0.00    -0.744 OA
ENDBRANCH  95  96
ENDBRANCH  63  88
ENDBRANCH  37  38
ENDBRANCH  30  32
ENDBRANCH  29  30
ENDBRANCH  28  29
ENDBRANCH  27  28
ENDBRANCH  26  27
ENDBRANCH   1  26
TORSDOF 22
ENDMDL
MODEL 2
REMARK VINA RESULT:     -10.1      1.952      8.755
REMARK SMILES C[NH2+][C@@H](C)c1ccc(SCc2ccc(C(=O)OCCOCCOC(=O)c3ccc(-c4c5nc(c(-c6c(F)cc(S(=O)(=O)[O-])cc6F)c6ccc([nH]6)c(-c6c(F)cc(S(=O)(=O)[O-])cc6F)c6nc(c(-c7c(F)cc(S(=O)(=O)[O-])cc7F)c7ccc4[nH]7)C=C6)C=C5)cc3)cc2)cc1
REMARK SMILES IDX 19 1 18 2 17 3 15 4 16 5 14 6 11 7 12 8 93 9 13 10 92 11
REMARK SMILES IDX 10 12 9 13 8 14 5 15 6 16 95 17 7 18 94 19 3 20 4 21 2 22
REMARK SMILES IDX 1 23 20 26 21 27 22 28 23 29 24 30 25 31 26 32 27 33 91 34
REMARK SMILES IDX 28 35 90 36 29 37 30 38 31 39 84 40 32 41 89 42 83 43 85 44
REMARK SMILES IDX 33 45 88 46 82 47 81 48 34 50 68 51 47 52 67 53 48 54 51 55
REMARK SMILES IDX 66 56 86 57 49 58 50 59 65 61 87 62 52 63 35 64 36 65 45 66
REMARK SMILES IDX 37 67 38 68 44 69 46 70 39 71 40 72 41 73 42 74 43 75 69 76
REMARK SMILES IDX 70 77 79 78 71 79 72 80 78 81 80 82 73 83 74 84 75 85 76 86
REMARK SMILES IDX 77 87 53 88 54 89 63 90 55 91 56 92 62 93 64 94 57 95 58 96
REMARK SMILES IDX 59 97 60 98 61 99
REMARK H PARENT 2 24 2 25 85 49 51 60
REMARK Flexibility Score: inf
ROOT
ATOM      1  C   UNL A   1      34.596  32.804  28.895  1.00  0.00     0.202 C 
ENDROOT
BRANCH   1   2
ATOM      2  C   UNL A   1      33.757  31.701  28.243  1.00  0.00     0.261 C 
BRANCH   2   3
ATOM      3  O   UNL A   1      34.460  31.112  27.141  1.00  0.00    -0.460 OA
BRANCH   3   4
ATOM      4  C   UNL A   1      34.626  29.771  27.207  1.00  0.00     0.338 C 
ATOM      5  O   UNL A   1      35.514  29.174  27.803  1.00  0.00    -0.246 OA
BRANCH   4   6
ATOM      6  C   UNL A   1      33.498  29.073  26.540  1.00  0.00     0.060 A 
ATOM      7  C   UNL A   1      31.418  27.594  25.362  1.00  0.00    -0.038 A 
ATOM      8  C   UNL A   1      31.725  27.428  26.719  1.00  0.00     0.005 A 
ATOM      9  C   UNL A   1      32.093  28.585  24.634  1.00  0.00     0.005 A 
ATOM     10  C   UNL A   1      32.753  28.165  27.303  1.00  0.00     0.016 A 
ATOM     11  C   UNL A   1      33.141  29.306  25.208  1.00  0.00     0.016 A 
BRANCH   7  12
ATOM     12  C   UNL A   1      30.435  26.669  24.687  1.00  0.00     0.110 C 
BRANCH  12  13
ATOM     13  S   UNL A   1      31.117  25.879  23.173  1.00  0.00    -0.121 SA
BRANCH  13  14
ATOM     14  C   UNL A   1      31.891  24.385  23.786  1.00  0.00     0.008 A 
ATOM     15  C   UNL A   1      33.202  22.032  24.685  1.00  0.00     0.009 A 
ATOM     16  C   UNL A   1      33.924  23.078  24.089  1.00  0.00     0.011 A 
ATOM     17  C   UNL A   1      31.826  22.209  24.871  1.00  0.00     0.011 A 
ATOM     18  C   UNL A   1      33.274  24.235  23.637  1.00  0.00     0.015 A 
ATOM     19  C   UNL A   1      31.189  23.380  24.451  1.00  0.00     0.015 A 
BRANCH  15  20
ATOM     20  C   UNL A   1      33.937  20.788  25.182  1.00  0.00     0.210 C 
ATOM     21  C   UNL A   1      32.988  19.609  25.455  1.00  0.00     0.081 C 
BRANCH  20  22
ATOM     22  N   UNL A   1      34.739  21.170  26.354  1.00  0.00    -0.343 N 
ATOM     23  C   UNL A   1      33.945  21.684  27.461  1.00  0.00     0.331 C 
ATOM     24  H   UNL A   1      35.249  20.347  26.677  1.00  0.00     0.346 HD
ATOM     25  H   UNL A   1      35.362  21.922  26.058  1.00  0.00     0.346 HD
ENDBRANCH  20  22
ENDBRANCH  15  20
ENDBRANCH  13  14
ENDBRANCH  12  13
ENDBRANCH   7  12
ENDBRANCH   4   6
ENDBRANCH   3   4
ENDBRANCH   2   3
ENDBRANCH   1   2
BRANCH   1  26
ATOM     26  O   UNL A   1      34.060  33.382  30.087  1.00  0.00    -0.374 OA
BRANCH  26  27
ATOM     27  C   UNL A   1      34.804  33.193  31.292  1.00  0.00     0.202 C 
BRANCH  27  28
ATOM     28  C   UNL A   1      36.289  32.845  31.136  1.00  0.00     0.261 C 
BRANCH  28  29
ATOM     29  O   UNL A   1      36.670  31.714  31.940  1.00  0.00    -0.460 OA
BRANCH  29  30
ATOM     30  C   UNL A   1      36.801  30.554  31.256  1.00  0.00     0.338 C 
ATOM     31  O   UNL A   1      35.908  29.779  30.938  1.00  0.00    -0.246 OA
BRANCH  30  32
ATOM     32  C   UNL A   1      38.184  30.412  30.765  1.00  0.00     0.060 A 
ATOM     33  C   UNL A   1      38.374  30.336  29.378  1.00  0.00     0.016 A 
ATOM     34  C   UNL A   1      39.267  30.289  31.637  1.00  0.00     0.016 A 
ATOM     35  C   UNL A   1      39.642  30.085  28.860  1.00  0.00     0.010 A 
ATOM     36  C   UNL A   1      40.539  30.031  31.115  1.00  0.00     0.010 A 
ATOM     37  C   UNL A   1      40.726  29.892  29.727  1.00  0.00    -0.014 A 
BRANCH  37  38
ATOM     38  C   UNL A   1      42.021  29.408  29.189  1.00  0.00     0.031 A 
ATOM     39  C   UNL A   1      43.168  30.374  29.072  1.00  0.00     0.074 A 
ATOM     40  C   UNL A   1      42.177  28.121  28.830  1.00  0.00     0.049 A 
ATOM     41  N   UNL A   1      44.369  30.180  28.592  1.00  0.00    -0.248 NA
ATOM     42  C   UNL A   1      42.928  31.742  29.556  1.00  0.00     0.031 C 
ATOM     43  C   UNL A   1      41.149  27.087  28.932  1.00  0.00     0.029 A 
ATOM     44  N   UNL A   1      43.261  27.470  28.299  1.00  0.00    -0.354 N 
ATOM     45  C   UNL A   1      45.024  31.400  28.706  1.00  0.00     0.074 A 
ATOM     46  C   UNL A   1      44.077  32.337  29.273  1.00  0.00     0.031 C 
ATOM     47  C   UNL A   1      41.649  25.930  28.465  1.00  0.00     0.029 A 
ATOM     48  C   UNL A   1      43.019  26.150  28.002  1.00  0.00     0.049 A 
ATOM     49  H   UNL A   1      44.130  27.906  28.145  1.00  0.00     0.167 HD
ATOM     50  C   UNL A   1      46.301  31.710  28.377  1.00  0.00     0.037 A 
ATOM     51  C   UNL A   1      43.804  25.231  27.406  1.00  0.00     0.037 A 
ATOM     52  C   UNL A   1      47.239  30.771  27.816  1.00  0.00     0.049 A 
ATOM     53  C   UNL A   1      45.204  25.611  26.995  1.00  0.00     0.074 A 
ATOM     54  C   UNL A   1      48.562  30.980  27.469  1.00  0.00     0.029 A 
ATOM     55  N   UNL A   1      46.951  29.449  27.513  1.00  0.00    -0.354 N 
ATOM     56  N   UNL A   1      45.818  26.763  27.129  1.00  0.00    -0.248 NA
ATOM     57  C   UNL A   1      46.017  24.568  26.357  1.00  0.00     0.031 C 
ATOM     58  C   UNL A   1      49.058  29.799  26.908  1.00  0.00     0.029 A 
ATOM     59  C   UNL A   1      48.063  28.836  26.958  1.00  0.00     0.049 A 
ATOM     60  H   UNL A   1      46.083  29.010  27.668  1.00  0.00     0.167 HD
ATOM     61  C   UNL A   1      47.099  26.574  26.620  1.00  0.00     0.074 A 
ATOM     62  C   UNL A   1      47.172  25.195  26.180  1.00  0.00     0.031 C 
ATOM     63  C   UNL A   1      48.123  27.460  26.530  1.00  0.00     0.037 A 
BRANCH  50  64
ATOM     64  C   UNL A   1      46.750  33.131  28.587  1.00  0.00     0.058 A 
ATOM     65  C   UNL A   1      47.393  33.539  29.766  1.00  0.00     0.135 A 
ATOM     66  C   UNL A   1      46.550  34.094  27.584  1.00  0.00     0.135 A 
ATOM     67  F   UNL A   1      47.595  32.665  30.765  1.00  0.00    -0.206 F 
ATOM     68  C   UNL A   1      47.794  34.857  29.957  1.00  0.00     0.059 A 
ATOM     69  C   UNL A   1      46.969  35.412  27.742  1.00  0.00     0.059 A 
ATOM     70  F   UNL A   1      45.938  33.759  26.438  1.00  0.00    -0.206 F 
ATOM     71  C   UNL A   1      47.575  35.788  28.940  1.00  0.00     0.060 A 
BRANCH  71  72
ATOM     72  S   UNL A   1      48.093  37.497  29.204  1.00  0.00     0.124 S 
ATOM     73  O   UNL A   1      46.813  38.151  29.463  1.00  0.00    -0.237 OA
ATOM     74  O   UNL A   1      48.986  37.379  30.351  1.00  0.00    -0.237 OA
ATOM     75  O   UNL A   1      48.736  37.856  27.945  1.00  0.00    -0.744 OA
ENDBRANCH  71  72
ENDBRANCH  50  64
BRANCH  51  76
ATOM     76  C   UNL A   1      43.280  23.863  27.156  1.00  0.00     0.058 A 
ATOM     77  C   UNL A   1      42.668  23.530  25.940  1.00  0.00     0.135 A 
ATOM     78  C   UNL A   1      43.400  22.855  28.127  1.00  0.00     0.135 A 
ATOM     79  F   UNL A   1      42.519  24.462  24.987  1.00  0.00    -0.206 F 
ATOM     80  C   UNL A   1      42.187  22.247  25.694  1.00  0.00     0.059 A 
ATOM     81  C   UNL A   1      42.950  21.559  27.895  1.00  0.00     0.059 A 
ATOM     82  F   UNL A   1      43.988  23.119  29.304  1.00  0.00    -0.206 F 
ATOM     83  C   UNL A   1      42.338  21.266  26.677  1.00  0.00     0.060 A 
BRANCH  83  84
ATOM     84  S   UNL A   1      41.770  19.589  26.324  1.00  0.00     0.124 S 
ATOM     85  O   UNL A   1      42.161  18.884  27.538  1.00  0.00    -0.237 OA
ATOM     86  O   UNL A   1      40.337  19.787  26.130  1.00  0.00    -0.237 OA
ATOM     87  O   UNL A   1      42.513  19.232  25.119  1.00  0.00    -0.744 OA
ENDBRANCH  83  84
ENDBRANCH  51  76
BRANCH  63  88
ATOM     88  C   UNL A   1      49.429  26.961  25.970  1.00  0.00     0.058 A 
ATOM     89  C   UNL A   1      49.774  27.142  24.622  1.00  0.00     0.135 A 
ATOM     90  C   UNL A   1      50.372  26.348  26.812  1.00  0.00     0.135 A 
ATOM     91  F   UNL A   1      48.907  27.716  23.773  1.00  0.00    -0.206 F 
ATOM     92  C   UNL A   1      51.000  26.713  24.123  1.00  0.00     0.059 A 
ATOM     93  C   UNL A   1      51.614  25.938  26.340  1.00  0.00     0.059 A 
ATOM     94  F   UNL A   1      50.097  26.161  28.113  1.00  0.00    -0.206 F 
ATOM     95  C   UNL A   1      51.916  26.115  24.991  1.00  0.00     0.060 A 
BRANCH  95  96
ATOM     96  S   UNL A   1      53.518  25.598  24.339  1.00  0.00     0.124 S 
ATOM     97  O   UNL A   1      54.432  26.443  25.099  1.00  0.00    -0.237 OA
ATOM     98  O   UNL A   1      53.545  24.176  24.668  1.00  0.00    -0.237 OA
ATOM     99  O   UNL A   1      53.419  25.902  22.914  1.00  0.00    -0.744 OA
ENDBRANCH  95  96
ENDBRANCH  63  88
ENDBRANCH  37  38
ENDBRANCH  30  32
ENDBRANCH  29  30
ENDBRANCH  28  29
ENDBRANCH  27  28
ENDBRANCH  26  27
ENDBRANCH   1  26
TORSDOF 22
ENDMDL
MODEL 3
REMARK VINA RESULT:      -9.2      7.216     15.287
REMARK SMILES C[NH2+][C@@H](C)c1ccc(SCc2ccc(C(=O)OCCOCCOC(=O)c3ccc(-c4c5nc(c(-c6c(F)cc(S(=O)(=O)[O-])cc6F)c6ccc([nH]6)c(-c6c(F)cc(S(=O)(=O)[O-])cc6F)c6nc(c(-c7c(F)cc(S(=O)(=O)[O-])cc7F)c7ccc4[nH]7)C=C6)C=C5)cc3)cc2)cc1
REMARK SMILES IDX 19 1 18 2 17 3 15 4 16 5 14 6 11 7 12 8 93 9 13 10 92 11
REMARK SMILES IDX 10 12 9 13 8 14 5 15 6 16 95 17 7 18 94 19 3 20 4 21 2 22
REMARK SMILES IDX 1 23 20 26 21 27 22 28 23 29 24 30 25 31 26 32 27 33 91 34
REMARK SMILES IDX 28 35 90 36 29 37 30 38 31 39 84 40 32 41 89 42 83 43 85 44
REMARK SMILES IDX 33 45 88 46 82 47 81 48 34 50 68 51 47 52 67 53 48 54 51 55
REMARK SMILES IDX 66 56 86 57 49 58 50 59 65 61 87 62 52 63 35 64 36 65 45 66
REMARK SMILES IDX 37 67 38 68 44 69 46 70 39 71 40 72 41 73 42 74 43 75 69 76
REMARK SMILES IDX 70 77 79 78 71 79 72 80 78 81 80 82 73 83 74 84 75 85 76 86
REMARK SMILES IDX 77 87 53 88 54 89 63 90 55 91 56 92 62 93 64 94 57 95 58 96
REMARK SMILES IDX 59 97 60 98 61 99
REMARK H PARENT 2 24 2 25 85 49 51 60
REMARK Flexibility Score: inf
ROOT
ATOM      1  C   UNL A   1      46.825  25.007  27.203  1.00  0.00     0.202 C 
ENDROOT
BRANCH   1   2
ATOM      2  C   UNL A   1      47.638  25.833  28.204  1.00  0.00     0.261 C 
BRANCH   2   3
ATOM      3  O   UNL A   1      47.374  25.406  29.548  1.00  0.00    -0.460 OA
BRANCH   3   4
ATOM      4  C   UNL A   1      46.698  26.291  30.316  1.00  0.00     0.338 C 
ATOM      5  O   UNL A   1      46.277  27.386  29.968  1.00  0.00    -0.246 OA
BRANCH   4   6
ATOM      6  C   UNL A   1      46.416  25.711  31.653  1.00  0.00     0.060 A 
ATOM      7  C   UNL A   1      45.700  24.642  34.152  1.00  0.00    -0.038 A 
ATOM      8  C   UNL A   1      44.980  24.296  33.002  1.00  0.00     0.005 A 
ATOM      9  C   UNL A   1      46.845  25.443  34.018  1.00  0.00     0.005 A 
ATOM     10  C   UNL A   1      45.339  24.823  31.762  1.00  0.00     0.016 A 
ATOM     11  C   UNL A   1      47.191  25.993  32.783  1.00  0.00     0.016 A 
BRANCH   7  12
ATOM     12  C   UNL A   1      45.202  24.224  35.514  1.00  0.00     0.110 C 
BRANCH  12  13
ATOM     13  S   UNL A   1      44.943  22.408  35.658  1.00  0.00    -0.121 SA
BRANCH  13  14
ATOM     14  C   UNL A   1      46.591  21.730  35.472  1.00  0.00     0.008 A 
ATOM     15  C   UNL A   1      49.238  20.725  35.257  1.00  0.00     0.009 A 
ATOM     16  C   UNL A   1      48.778  21.299  36.452  1.00  0.00     0.011 A 
ATOM     17  C   UNL A   1      48.334  20.615  34.193  1.00  0.00     0.011 A 
ATOM     18  C   UNL A   1      47.474  21.804  36.554  1.00  0.00     0.015 A 
ATOM     19  C   UNL A   1      47.023  21.087  34.312  1.00  0.00     0.015 A 
BRANCH  15  20
ATOM     20  C   UNL A   1      50.659  20.169  35.177  1.00  0.00     0.210 C 
ATOM     21  C   UNL A   1      51.212  20.161  33.742  1.00  0.00     0.081 C 
BRANCH  20  22
ATOM     22  N   UNL A   1      50.665  18.841  35.809  1.00  0.00    -0.343 N 
ATOM     23  C   UNL A   1      51.519  18.760  36.985  1.00  0.00     0.331 C 
ATOM     24  H   UNL A   1      49.711  18.611  36.086  1.00  0.00     0.346 HD
ATOM     25  H   UNL A   1      51.039  18.185  35.122  1.00  0.00     0.346 HD
ENDBRANCH  20  22
ENDBRANCH  15  20
ENDBRANCH  13  14
ENDBRANCH  12  13
ENDBRANCH   7  12
ENDBRANCH   4   6
ENDBRANCH   3   4
ENDBRANCH   2   3
ENDBRANCH   1   2
BRANCH   1  26
ATOM     26  O   UNL A   1      45.712  25.668  26.599  1.00  0.00    -0.374 OA
BRANCH  26  27
ATOM     27  C   UNL A   1      45.180  25.088  25.407  1.00  0.00     0.202 C 
BRANCH  27  28
ATOM     28  C   UNL A   1      43.656  24.943  25.333  1.00  0.00     0.261 C 
BRANCH  28  29
ATOM     29  O   UNL A   1      42.995  26.215  25.202  1.00  0.00    -0.460 OA
BRANCH  29  30
ATOM     30  C   UNL A   1      41.755  26.266  25.744  1.00  0.00     0.338 C 
ATOM     31  O   UNL A   1      40.734  25.756  25.299  1.00  0.00    -0.246 OA
BRANCH  30  32
ATOM     32  C   UNL A   1      41.814  26.887  27.079  1.00  0.00     0.060 A 
ATOM     33  C   UNL A   1      40.956  26.381  28.065  1.00  0.00     0.016 A 
ATOM     34  C   UNL A   1      42.638  27.981  27.349  1.00  0.00     0.016 A 
ATOM     35  C   UNL A   1      40.882  27.001  29.310  1.00  0.00     0.010 A 
ATOM     36  C   UNL A   1      42.557  28.606  28.597  1.00  0.00     0.010 A 
ATOM     37  C   UNL A   1      41.653  28.141  29.571  1.00  0.00    -0.014 A 
BRANCH  37  38
ATOM     38  C   UNL A   1      41.412  28.926  30.806  1.00  0.00     0.031 A 
ATOM     39  C   UNL A   1      40.267  29.902  30.838  1.00  0.00     0.074 A 
ATOM     40  C   UNL A   1      42.189  28.756  31.891  1.00  0.00     0.049 A 
ATOM     41  N   UNL A   1      39.900  30.719  31.791  1.00  0.00    -0.248 NA
ATOM     42  C   UNL A   1      39.426  29.968  29.632  1.00  0.00     0.031 C 
ATOM     43  C   UNL A   1      43.304  27.816  31.990  1.00  0.00     0.029 A 
ATOM     44  N   UNL A   1      42.162  29.378  33.113  1.00  0.00    -0.354 N 
ATOM     45  C   UNL A   1      38.795  31.402  31.299  1.00  0.00     0.074 A 
ATOM     46  C   UNL A   1      38.570  30.926  29.951  1.00  0.00     0.031 C 
ATOM     47  C   UNL A   1      43.864  27.932  33.207  1.00  0.00     0.029 A 
ATOM     48  C   UNL A   1      43.168  28.975  33.959  1.00  0.00     0.049 A 
ATOM     49  H   UNL A   1      41.485  30.049  33.362  1.00  0.00     0.167 HD
ATOM     50  C   UNL A   1      38.032  32.335  31.918  1.00  0.00     0.037 A 
ATOM     51  C   UNL A   1      43.503  29.414  35.188  1.00  0.00     0.037 A 
ATOM     52  C   UNL A   1      38.262  32.802  33.261  1.00  0.00     0.049 A 
ATOM     53  C   UNL A   1      42.675  30.494  35.837  1.00  0.00     0.074 A 
ATOM     54  C   UNL A   1      37.532  33.727  33.987  1.00  0.00     0.029 A 
ATOM     55  N   UNL A   1      39.302  32.384  34.078  1.00  0.00    -0.354 N 
ATOM     56  N   UNL A   1      41.619  31.116  35.369  1.00  0.00    -0.248 NA
ATOM     57  C   UNL A   1      43.081  30.928  37.180  1.00  0.00     0.031 C 
ATOM     58  C   UNL A   1      38.162  33.908  35.222  1.00  0.00     0.029 A 
ATOM     59  C   UNL A   1      39.250  33.052  35.291  1.00  0.00     0.049 A 
ATOM     60  H   UNL A   1      39.978  31.712  33.832  1.00  0.00     0.167 HD
ATOM     61  C   UNL A   1      41.217  31.992  36.372  1.00  0.00     0.074 A 
ATOM     62  C   UNL A   1      42.141  31.815  37.474  1.00  0.00     0.031 C 
ATOM     63  C   UNL A   1      40.174  32.861  36.382  1.00  0.00     0.037 A 
BRANCH  50  64
ATOM     64  C   UNL A   1      36.896  32.936  31.135  1.00  0.00     0.058 A 
ATOM     65  C   UNL A   1      35.559  32.587  31.382  1.00  0.00     0.135 A 
ATOM     66  C   UNL A   1      37.148  33.892  30.137  1.00  0.00     0.135 A 
ATOM     67  F   UNL A   1      35.260  31.667  32.313  1.00  0.00    -0.206 F 
ATOM     68  C   UNL A   1      34.515  33.139  30.646  1.00  0.00     0.059 A 
ATOM     69  C   UNL A   1      36.118  34.478  29.408  1.00  0.00     0.059 A 
ATOM     70  F   UNL A   1      38.408  34.261  29.858  1.00  0.00    -0.206 F 
ATOM     71  C   UNL A   1      34.805  34.082  29.658  1.00  0.00     0.060 A 
BRANCH  71  72
ATOM     72  S   UNL A   1      33.442  34.784  28.705  1.00  0.00     0.124 S 
ATOM     73  O   UNL A   1      32.433  34.979  29.744  1.00  0.00    -0.237 OA
ATOM     74  O   UNL A   1      34.035  36.002  28.163  1.00  0.00    -0.237 OA
ATOM     75  O   UNL A   1      33.140  33.746  27.726  1.00  0.00    -0.744 OA
ENDBRANCH  71  72
ENDBRANCH  50  64
BRANCH  51  76
ATOM     76  C   UNL A   1      44.682  28.835  35.882  1.00  0.00     0.058 A 
ATOM     77  C   UNL A   1      44.542  27.782  36.797  1.00  0.00     0.135 A 
ATOM     78  C   UNL A   1      45.978  29.312  35.627  1.00  0.00     0.135 A 
ATOM     79  F   UNL A   1      43.324  27.300  37.082  1.00  0.00    -0.206 F 
ATOM     80  C   UNL A   1      45.644  27.225  37.440  1.00  0.00     0.059 A 
ATOM     81  C   UNL A   1      47.096  28.755  36.238  1.00  0.00     0.059 A 
ATOM     82  F   UNL A   1      46.167  30.312  34.751  1.00  0.00    -0.206 F 
ATOM     83  C   UNL A   1      46.918  27.716  37.149  1.00  0.00     0.060 A 
BRANCH  83  84
ATOM     84  S   UNL A   1      48.347  26.943  37.939  1.00  0.00     0.124 S 
ATOM     85  O   UNL A   1      48.145  25.540  37.604  1.00  0.00    -0.237 OA
ATOM     86  O   UNL A   1      49.462  27.608  37.271  1.00  0.00    -0.237 OA
ATOM     87  O   UNL A   1      48.176  27.288  39.348  1.00  0.00    -0.744 OA
ENDBRANCH  83  84
ENDBRANCH  51  76
BRANCH  63  88
ATOM     88  C   UNL A   1      39.946  33.662  37.636  1.00  0.00     0.058 A 
ATOM     89  C   UNL A   1      40.653  34.846  37.898  1.00  0.00     0.135 A 
ATOM     90  C   UNL A   1      38.961  33.270  38.557  1.00  0.00     0.135 A 
ATOM     91  F   UNL A   1      41.610  35.262  37.054  1.00  0.00    -0.206 F 
ATOM     92  C   UNL A   1      40.407  35.600  39.041  1.00  0.00     0.059 A 
ATOM     93  C   UNL A   1      38.679  34.024  39.691  1.00  0.00     0.059 A 
ATOM     94  F   UNL A   1      38.247  32.152  38.349  1.00  0.00    -0.206 F 
ATOM     95  C   UNL A   1      39.415  35.183  39.931  1.00  0.00     0.060 A 
BRANCH  95  96
ATOM     96  S   UNL A   1      39.079  36.192  41.389  1.00  0.00     0.124 S 
ATOM     97  O   UNL A   1      37.921  35.512  41.958  1.00  0.00    -0.237 OA
ATOM     98  O   UNL A   1      40.321  36.071  42.146  1.00  0.00    -0.237 OA
ATOM     99  O   UNL A   1      38.818  37.517  40.834  1.00  0.00    -0.744 OA
ENDBRANCH  95  96
ENDBRANCH  63  88
ENDBRANCH  37  38
ENDBRANCH  30  32
ENDBRANCH  29  30
ENDBRANCH  28  29
ENDBRANCH  27  28
ENDBRANCH  26  27
ENDBRANCH   1  26
TORSDOF 22
ENDMDL
