MODEL 1
REMARK VINA RESULT:     -14.7      0.000      0.000
REMARK SMILES Cc1ccc(S(=O)(=O)n2cc(C(=O)C(=O)N[C@@H](Cc3c[nH]c4ccccc34)C(=O)OCCOCCOC(=O)c3ccc(-c4c5nc(c(-c6c(F)cc(S(=O)(=O)[O-])cc6F)c6ccc([nH]6)c(-c6c(F)cc(S(=O)(=O)[O-])cc6F)c6nc(c(-c7c(F)cc(S(=O)(=O)[O-])cc7F)c7ccc4[nH]7)C=C6)C=C5)cc3)c3ccccc32)cc1
REMARK SMILES IDX 32 1 31 2 30 3 28 4 29 5 17 6 16 7 14 8 15 9 12 11 13 12
REMARK SMILES IDX 11 13 9 14 10 15 110 16 105 17 109 18 106 19 108 20 107 21
REMARK SMILES IDX 6 22 7 23 8 24 5 25 1 26 2 27 3 28 112 29 4 30 111 31 18 32
REMARK SMILES IDX 19 33 20 34 27 35 21 36 22 37 26 38 23 40 25 41 24 42 33 43
REMARK SMILES IDX 34 44 35 45 36 46 37 47 38 48 39 49 40 50 104 51 41 52
REMARK SMILES IDX 103 53 42 54 43 55 44 56 97 57 45 58 102 59 96 60 98 61
REMARK SMILES IDX 46 62 101 63 95 64 94 65 47 67 81 68 60 69 80 70 61 71 64 72
REMARK SMILES IDX 79 73 99 74 62 75 63 76 78 78 100 79 65 80 48 81 49 82 58 83
REMARK SMILES IDX 50 84 51 85 57 86 59 87 52 88 53 89 54 90 55 91 56 92 82 93
REMARK SMILES IDX 83 94 92 95 84 96 85 97 91 98 93 99 86 100 87 101 88 102
REMARK SMILES IDX 89 103 90 104 66 105 67 106 76 107 68 108 69 109 75 110
REMARK SMILES IDX 77 111 70 112 71 113 72 114 73 115 74 116
REMARK H PARENT 16 10 21 39 98 66 64 77
REMARK Flexibility Score: inf
ROOT
ATOM      1  C   UNL A   1      31.950  30.538  26.305  1.00  0.00     0.202 C 
ENDROOT
BRANCH   1   2
ATOM      2  C   UNL A   1      32.150  29.234  27.088  1.00  0.00     0.261 C 
BRANCH   2   3
ATOM      3  O   UNL A   1      31.780  28.113  26.294  1.00  0.00    -0.462 OA
BRANCH   3   4
ATOM      4  C   UNL A   1      32.860  27.404  25.902  1.00  0.00     0.329 C 
ATOM      5  O   UNL A   1      34.004  27.839  25.954  1.00  0.00    -0.250 OA
BRANCH   4   6
ATOM      6  C   UNL A   1      32.498  26.026  25.344  1.00  0.00     0.197 C 
BRANCH   6   7
ATOM      7  N   UNL A   1      31.231  25.465  25.869  1.00  0.00    -0.335 N 
ATOM      8  C   UNL A   1      31.029  24.340  26.636  1.00  0.00     0.293 C 
ATOM      9  O   UNL A   1      29.932  23.959  27.028  1.00  0.00    -0.265 OA
ATOM     10  H   UNL A   1      30.418  25.969  25.636  1.00  0.00     0.164 HD
BRANCH   8  11
ATOM     11  C   UNL A   1      32.215  23.457  26.920  1.00  0.00     0.252 C 
ATOM     12  O   UNL A   1      32.280  22.985  28.056  1.00  0.00    -0.283 OA
BRANCH  11  13
ATOM     13  C   UNL A   1      33.254  23.133  25.945  1.00  0.00     0.054 A 
ATOM     14  N   UNL A   1      35.279  22.305  25.704  1.00  0.00    -0.240 N 
ATOM     15  C   UNL A   1      34.613  23.442  26.095  1.00  0.00     0.117 A 
ATOM     16  C   UNL A   1      34.365  21.344  25.300  1.00  0.00     0.065 A 
ATOM     17  C   UNL A   1      33.190  22.035  25.036  1.00  0.00     0.012 A 
ATOM     18  C   UNL A   1      34.523  19.979  25.014  1.00  0.00     0.028 A 
ATOM     19  C   UNL A   1      32.241  21.417  24.198  1.00  0.00     0.011 A 
ATOM     20  C   UNL A   1      33.575  19.384  24.194  1.00  0.00     0.002 A 
ATOM     21  C   UNL A   1      32.492  20.118  23.724  1.00  0.00     0.001 A 
BRANCH  14  22
ATOM     22  S   UNL A   1      36.865  22.045  25.190  1.00  0.00     0.268 S 
ATOM     23  O   UNL A   1      36.861  22.581  23.838  1.00  0.00    -0.201 OA
ATOM     24  O   UNL A   1      37.059  20.622  25.432  1.00  0.00    -0.201 OA
BRANCH  22  25
ATOM     25  C   UNL A   1      38.270  22.776  25.935  1.00  0.00     0.088 A 
ATOM     26  C   UNL A   1      41.820  23.592  28.222  1.00  0.00     0.044 C 
ATOM     27  C   UNL A   1      40.610  23.359  27.367  1.00  0.00    -0.051 A 
ATOM     28  C   UNL A   1      40.407  22.073  26.886  1.00  0.00     0.005 A 
ATOM     29  C   UNL A   1      39.652  24.359  27.091  1.00  0.00     0.005 A 
ATOM     30  C   UNL A   1      39.257  21.793  26.174  1.00  0.00     0.022 A 
ATOM     31  C   UNL A   1      38.469  24.075  26.372  1.00  0.00     0.022 A 
ENDBRANCH  22  25
ENDBRANCH  14  22
ENDBRANCH  11  13
ENDBRANCH   8  11
ENDBRANCH   6   7
BRANCH   6  32
ATOM     32  C   UNL A   1      32.533  26.135  23.812  1.00  0.00     0.074 C 
BRANCH  32  33
ATOM     33  C   UNL A   1      31.965  27.408  23.249  1.00  0.00    -0.020 A 
ATOM     34  C   UNL A   1      32.680  28.488  22.765  1.00  0.00     0.087 A 
ATOM     35  C   UNL A   1      30.579  27.750  23.146  1.00  0.00     0.003 A 
ATOM     36  N   UNL A   1      31.789  29.435  22.336  1.00  0.00    -0.361 N 
ATOM     37  C   UNL A   1      30.497  29.015  22.567  1.00  0.00     0.046 A 
ATOM     38  C   UNL A   1      29.384  27.118  23.541  1.00  0.00     0.010 A 
ATOM     39  H   UNL A   1      32.035  30.294  21.921  1.00  0.00     0.166 HD
ATOM     40  C   UNL A   1      29.282  29.698  22.408  1.00  0.00     0.026 A 
ATOM     41  C   UNL A   1      28.168  27.795  23.421  1.00  0.00     0.001 A 
ATOM     42  C   UNL A   1      28.121  29.073  22.871  1.00  0.00     0.002 A 
ENDBRANCH  32  33
ENDBRANCH   6  32
ENDBRANCH   4   6
ENDBRANCH   3   4
ENDBRANCH   2   3
ENDBRANCH   1   2
BRANCH   1  43
ATOM     43  O   UNL A   1      31.728  31.859  26.870  1.00  0.00    -0.374 OA
BRANCH  43  44
ATOM     44  C   UNL A   1      32.882  32.672  27.499  1.00  0.00     0.202 C 
BRANCH  44  45
ATOM     45  C   UNL A   1      34.667  32.392  27.866  1.00  0.00     0.261 C 
BRANCH  45  46
ATOM     46  O   UNL A   1      35.825  31.177  28.393  1.00  0.00    -0.460 OA
BRANCH  46  47
ATOM     47  C   UNL A   1      36.854  30.311  29.011  1.00  0.00     0.338 C 
ATOM     48  O   UNL A   1      37.222  30.662  30.142  1.00  0.00    -0.246 OA
BRANCH  47  49
ATOM     49  C   UNL A   1      37.884  29.066  28.331  1.00  0.00     0.060 A 
ATOM     50  C   UNL A   1      38.117  27.854  29.005  1.00  0.00     0.016 A 
ATOM     51  C   UNL A   1      38.780  29.185  27.259  1.00  0.00     0.016 A 
ATOM     52  C   UNL A   1      39.470  27.350  29.134  1.00  0.00     0.010 A 
ATOM     53  C   UNL A   1      40.127  28.700  27.369  1.00  0.00     0.010 A 
ATOM     54  C   UNL A   1      40.546  27.951  28.464  1.00  0.00    -0.014 A 
BRANCH  54  55
ATOM     55  C   UNL A   1      41.990  27.967  28.950  1.00  0.00     0.031 A 
ATOM     56  C   UNL A   1      43.058  27.058  28.482  1.00  0.00     0.074 A 
ATOM     57  C   UNL A   1      42.537  28.879  29.808  1.00  0.00     0.049 A 
ATOM     58  N   UNL A   1      43.890  26.442  29.271  1.00  0.00    -0.248 NA
ATOM     59  C   UNL A   1      43.382  26.903  27.075  1.00  0.00     0.031 C 
ATOM     60  C   UNL A   1      43.886  28.991  30.403  1.00  0.00     0.029 A 
ATOM     61  N   UNL A   1      41.899  29.884  30.489  1.00  0.00    -0.354 N 
ATOM     62  C   UNL A   1      45.035  26.220  28.524  1.00  0.00     0.074 A 
ATOM     63  C   UNL A   1      44.563  26.275  27.157  1.00  0.00     0.031 C 
ATOM     64  C   UNL A   1      43.797  29.592  31.605  1.00  0.00     0.029 A 
ATOM     65  C   UNL A   1      42.412  29.942  31.791  1.00  0.00     0.049 A 
ATOM     66  H   UNL A   1      41.198  30.469  30.123  1.00  0.00     0.167 HD
ATOM     67  C   UNL A   1      46.283  26.235  29.104  1.00  0.00     0.037 A 
ATOM     68  C   UNL A   1      41.571  29.739  32.840  1.00  0.00     0.037 A 
ATOM     69  C   UNL A   1      46.245  26.458  30.570  1.00  0.00     0.049 A 
ATOM     70  C   UNL A   1      42.004  28.489  33.578  1.00  0.00     0.074 A 
ATOM     71  C   UNL A   1      46.907  27.328  31.426  1.00  0.00     0.029 A 
ATOM     72  N   UNL A   1      45.283  25.820  31.360  1.00  0.00    -0.354 N 
ATOM     73  N   UNL A   1      42.897  27.688  33.060  1.00  0.00    -0.248 NA
ATOM     74  C   UNL A   1      41.604  28.024  34.908  1.00  0.00     0.031 C 
ATOM     75  C   UNL A   1      46.262  27.284  32.695  1.00  0.00     0.029 A 
ATOM     76  C   UNL A   1      45.234  26.358  32.631  1.00  0.00     0.049 A 
ATOM     77  H   UNL A   1      44.711  25.081  31.049  1.00  0.00     0.167 HD
ATOM     78  C   UNL A   1      43.264  26.715  33.934  1.00  0.00     0.074 A 
ATOM     79  C   UNL A   1      42.380  26.928  35.066  1.00  0.00     0.031 C 
ATOM     80  C   UNL A   1      44.292  25.864  33.639  1.00  0.00     0.037 A 
BRANCH  67  81
ATOM     81  C   UNL A   1      47.617  26.199  28.333  1.00  0.00     0.058 A 
ATOM     82  C   UNL A   1      48.446  27.346  28.245  1.00  0.00     0.135 A 
ATOM     83  C   UNL A   1      48.136  25.079  27.644  1.00  0.00     0.135 A 
ATOM     84  F   UNL A   1      48.065  28.517  28.775  1.00  0.00    -0.206 F 
ATOM     85  C   UNL A   1      49.700  27.352  27.607  1.00  0.00     0.059 A 
ATOM     86  C   UNL A   1      49.416  25.036  27.074  1.00  0.00     0.059 A 
ATOM     87  F   UNL A   1      47.400  23.985  27.416  1.00  0.00    -0.206 F 
ATOM     88  C   UNL A   1      50.196  26.178  27.057  1.00  0.00     0.060 A 
BRANCH  88  89
ATOM     89  S   UNL A   1      51.849  26.145  26.328  1.00  0.00     0.124 S 
ATOM     90  O   UNL A   1      51.629  26.801  25.043  1.00  0.00    -0.237 OA
ATOM     91  O   UNL A   1      52.639  26.896  27.298  1.00  0.00    -0.237 OA
ATOM     92  O   UNL A   1      52.160  24.720  26.255  1.00  0.00    -0.744 OA
ENDBRANCH  88  89
ENDBRANCH  67  81
BRANCH  68  93
ATOM     93  C   UNL A   1      40.224  30.389  32.549  1.00  0.00     0.058 A 
ATOM     94  C   UNL A   1      39.147  29.648  33.036  1.00  0.00     0.135 A 
ATOM     95  C   UNL A   1      39.988  31.702  32.850  1.00  0.00     0.135 A 
ATOM     96  F   UNL A   1      38.872  28.487  32.460  1.00  0.00    -0.206 F 
ATOM     97  C   UNL A   1      38.409  29.979  34.222  1.00  0.00     0.059 A 
ATOM     98  C   UNL A   1      39.093  32.067  33.918  1.00  0.00     0.059 A 
ATOM     99  F   UNL A   1      40.536  32.669  32.099  1.00  0.00    -0.206 F 
ATOM    100  C   UNL A   1      38.536  31.209  34.870  1.00  0.00     0.060 A 
BRANCH 100 101
ATOM    101  S   UNL A   1      38.032  31.735  36.944  1.00  0.00     0.124 S 
ATOM    102  O   UNL A   1      37.501  30.578  37.660  1.00  0.00    -0.237 OA
ATOM    103  O   UNL A   1      39.295  32.173  37.448  1.00  0.00    -0.237 OA
ATOM    104  O   UNL A   1      36.908  32.673  37.041  1.00  0.00    -0.744 OA
ENDBRANCH 100 101
ENDBRANCH  68  93
BRANCH  80 105
ATOM    105  C   UNL A   1      44.594  24.551  34.321  1.00  0.00     0.058 A 
ATOM    106  C   UNL A   1      44.114  23.311  33.868  1.00  0.00     0.135 A 
ATOM    107  C   UNL A   1      45.562  24.488  35.356  1.00  0.00     0.135 A 
ATOM    108  F   UNL A   1      43.251  23.229  32.845  1.00  0.00    -0.206 F 
ATOM    109  C   UNL A   1      44.541  22.099  34.416  1.00  0.00     0.059 A 
ATOM    110  C   UNL A   1      46.036  23.290  35.882  1.00  0.00     0.059 A 
ATOM    111  F   UNL A   1      46.105  25.595  35.882  1.00  0.00    -0.206 F 
ATOM    112  C   UNL A   1      45.509  22.096  35.416  1.00  0.00     0.060 A 
BRANCH 112 113
ATOM    113  S   UNL A   1      46.135  20.532  36.054  1.00  0.00     0.124 S 
ATOM    114  O   UNL A   1      45.734  20.608  37.454  1.00  0.00    -0.237 OA
ATOM    115  O   UNL A   1      45.421  19.547  35.247  1.00  0.00    -0.237 OA
ATOM    116  O   UNL A   1      47.570  20.614  35.800  1.00  0.00    -0.744 OA
ENDBRANCH 112 113
ENDBRANCH  80 105
ENDBRANCH  54  55
ENDBRANCH  47  49
ENDBRANCH  46  47
ENDBRANCH  45  46
ENDBRANCH  44  45
ENDBRANCH  43  44
ENDBRANCH   1  43
TORSDOF 24
ENDMDL
MODEL 2
REMARK VINA RESULT:     -14.5      5.370      8.128
REMARK SMILES Cc1ccc(S(=O)(=O)n2cc(C(=O)C(=O)N[C@@H](Cc3c[nH]c4ccccc34)C(=O)OCCOCCOC(=O)c3ccc(-c4c5nc(c(-c6c(F)cc(S(=O)(=O)[O-])cc6F)c6ccc([nH]6)c(-c6c(F)cc(S(=O)(=O)[O-])cc6F)c6nc(c(-c7c(F)cc(S(=O)(=O)[O-])cc7F)c7ccc4[nH]7)C=C6)C=C5)cc3)c3ccccc32)cc1
REMARK SMILES IDX 32 1 31 2 30 3 28 4 29 5 17 6 16 7 14 8 15 9 12 11 13 12
REMARK SMILES IDX 11 13 9 14 10 15 110 16 105 17 109 18 106 19 108 20 107 21
REMARK SMILES IDX 6 22 7 23 8 24 5 25 1 26 2 27 3 28 112 29 4 30 111 31 18 32
REMARK SMILES IDX 19 33 20 34 27 35 21 36 22 37 26 38 23 40 25 41 24 42 33 43
REMARK SMILES IDX 34 44 35 45 36 46 37 47 38 48 39 49 40 50 104 51 41 52
REMARK SMILES IDX 103 53 42 54 43 55 44 56 97 57 45 58 102 59 96 60 98 61
REMARK SMILES IDX 46 62 101 63 95 64 94 65 47 67 81 68 60 69 80 70 61 71 64 72
REMARK SMILES IDX 79 73 99 74 62 75 63 76 78 78 100 79 65 80 48 81 49 82 58 83
REMARK SMILES IDX 50 84 51 85 57 86 59 87 52 88 53 89 54 90 55 91 56 92 82 93
REMARK SMILES IDX 83 94 92 95 84 96 85 97 91 98 93 99 86 100 87 101 88 102
REMARK SMILES IDX 89 103 90 104 66 105 67 106 76 107 68 108 69 109 75 110
REMARK SMILES IDX 77 111 70 112 71 113 72 114 73 115 74 116
REMARK H PARENT 16 10 21 39 98 66 64 77
REMARK Flexibility Score: inf
ROOT
ATOM      1  C   UNL A   1      32.943  30.160  26.629  1.00  0.00     0.202 C 
ENDROOT
BRANCH   1   2
ATOM      2  C   UNL A   1      33.064  28.632  26.573  1.00  0.00     0.261 C 
BRANCH   2   3
ATOM      3  O   UNL A   1      32.170  28.096  25.604  1.00  0.00    -0.462 OA
BRANCH   3   4
ATOM      4  C   UNL A   1      32.802  27.259  24.754  1.00  0.00     0.329 C 
ATOM      5  O   UNL A   1      33.965  27.416  24.399  1.00  0.00    -0.250 OA
BRANCH   4   6
ATOM      6  C   UNL A   1      31.901  26.132  24.246  1.00  0.00     0.197 C 
BRANCH   6   7
ATOM      7  N   UNL A   1      30.693  25.894  25.070  1.00  0.00    -0.335 N 
ATOM      8  C   UNL A   1      30.519  25.035  26.131  1.00  0.00     0.293 C 
ATOM      9  O   UNL A   1      29.473  24.913  26.757  1.00  0.00    -0.265 OA
ATOM     10  H   UNL A   1      29.903  26.426  24.823  1.00  0.00     0.164 HD
BRANCH   8  11
ATOM     11  C   UNL A   1      31.650  24.103  26.478  1.00  0.00     0.252 C 
ATOM     12  O   UNL A   1      31.627  23.621  27.612  1.00  0.00    -0.283 OA
BRANCH  11  13
ATOM     13  C   UNL A   1      32.731  23.743  25.564  1.00  0.00     0.054 A 
ATOM     14  N   UNL A   1      34.578  22.563  25.362  1.00  0.00    -0.240 N 
ATOM     15  C   UNL A   1      34.092  23.728  25.904  1.00  0.00     0.117 A 
ATOM     16  C   UNL A   1      33.563  21.902  24.687  1.00  0.00     0.065 A 
ATOM     17  C   UNL A   1      32.587  22.860  24.453  1.00  0.00     0.012 A 
ATOM     18  C   UNL A   1      33.499  20.606  24.153  1.00  0.00     0.028 A 
ATOM     19  C   UNL A   1      31.661  22.611  23.421  1.00  0.00     0.011 A 
ATOM     20  C   UNL A   1      32.576  20.376  23.142  1.00  0.00     0.002 A 
ATOM     21  C   UNL A   1      31.724  21.393  22.724  1.00  0.00     0.001 A 
BRANCH  14  22
ATOM     22  S   UNL A   1      36.143  22.069  24.964  1.00  0.00     0.268 S 
ATOM     23  O   UNL A   1      36.253  22.439  23.562  1.00  0.00    -0.201 OA
ATOM     24  O   UNL A   1      36.159  20.672  25.374  1.00  0.00    -0.201 OA
BRANCH  22  25
ATOM     25  C   UNL A   1      37.593  22.722  25.693  1.00  0.00     0.088 A 
ATOM     26  C   UNL A   1      41.262  23.310  27.860  1.00  0.00     0.044 C 
ATOM     27  C   UNL A   1      40.008  23.161  27.050  1.00  0.00    -0.051 A 
ATOM     28  C   UNL A   1      39.762  21.919  26.479  1.00  0.00     0.005 A 
ATOM     29  C   UNL A   1      39.055  24.191  26.901  1.00  0.00     0.005 A 
ATOM     30  C   UNL A   1      38.574  21.711  25.806  1.00  0.00     0.022 A 
ATOM     31  C   UNL A   1      37.834  23.979  26.221  1.00  0.00     0.022 A 
ENDBRANCH  22  25
ENDBRANCH  14  22
ENDBRANCH  11  13
ENDBRANCH   8  11
ENDBRANCH   6   7
BRANCH   6  32
ATOM     32  C   UNL A   1      31.590  26.431  22.772  1.00  0.00     0.074 C 
BRANCH  32  33
ATOM     33  C   UNL A   1      31.102  27.825  22.491  1.00  0.00    -0.020 A 
ATOM     34  C   UNL A   1      31.865  28.896  22.062  1.00  0.00     0.087 A 
ATOM     35  C   UNL A   1      29.765  28.309  22.655  1.00  0.00     0.003 A 
ATOM     36  N   UNL A   1      31.040  29.979  21.918  1.00  0.00    -0.361 N 
ATOM     37  C   UNL A   1      29.752  29.652  22.283  1.00  0.00     0.046 A 
ATOM     38  C   UNL A   1      28.571  27.738  23.136  1.00  0.00     0.010 A 
ATOM     39  H   UNL A   1      31.325  30.866  21.597  1.00  0.00     0.166 HD
ATOM     40  C   UNL A   1      28.615  30.464  22.413  1.00  0.00     0.026 A 
ATOM     41  C   UNL A   1      27.437  28.538  23.304  1.00  0.00     0.001 A 
ATOM     42  C   UNL A   1      27.464  29.885  22.956  1.00  0.00     0.002 A 
ENDBRANCH  32  33
ENDBRANCH   6  32
ENDBRANCH   4   6
ENDBRANCH   3   4
ENDBRANCH   2   3
ENDBRANCH   1   2
BRANCH   1  43
ATOM     43  O   UNL A   1      33.335  31.017  27.736  1.00  0.00    -0.374 OA
BRANCH  43  44
ATOM     44  C   UNL A   1      34.688  31.762  27.739  1.00  0.00     0.202 C 
BRANCH  44  45
ATOM     45  C   UNL A   1      36.421  31.383  28.240  1.00  0.00     0.261 C 
BRANCH  45  46
ATOM     46  O   UNL A   1      37.559  30.066  28.496  1.00  0.00    -0.460 OA
BRANCH  46  47
ATOM     47  C   UNL A   1      38.339  28.855  28.838  1.00  0.00     0.338 C 
ATOM     48  O   UNL A   1      38.378  27.990  27.950  1.00  0.00    -0.246 OA
BRANCH  47  49
ATOM     49  C   UNL A   1      38.957  28.268  30.370  1.00  0.00     0.060 A 
ATOM     50  C   UNL A   1      38.180  28.305  31.541  1.00  0.00     0.016 A 
ATOM     51  C   UNL A   1      40.287  27.970  30.701  1.00  0.00     0.016 A 
ATOM     52  C   UNL A   1      38.751  28.820  32.770  1.00  0.00     0.010 A 
ATOM     53  C   UNL A   1      40.875  28.478  31.908  1.00  0.00     0.010 A 
ATOM     54  C   UNL A   1      40.115  29.134  32.871  1.00  0.00    -0.014 A 
BRANCH  54  55
ATOM     55  C   UNL A   1      40.709  30.201  33.783  1.00  0.00     0.031 A 
ATOM     56  C   UNL A   1      41.556  29.938  34.966  1.00  0.00     0.074 A 
ATOM     57  C   UNL A   1      40.634  31.551  33.590  1.00  0.00     0.049 A 
ATOM     58  N   UNL A   1      41.397  30.517  36.121  1.00  0.00    -0.248 NA
ATOM     59  C   UNL A   1      42.758  29.126  34.893  1.00  0.00     0.031 C 
ATOM     60  C   UNL A   1      41.108  32.693  34.402  1.00  0.00     0.029 A 
ATOM     61  N   UNL A   1      39.934  32.228  32.624  1.00  0.00    -0.354 N 
ATOM     62  C   UNL A   1      42.641  30.511  36.728  1.00  0.00     0.074 A 
ATOM     63  C   UNL A   1      43.338  29.432  36.062  1.00  0.00     0.031 C 
ATOM     64  C   UNL A   1      40.302  33.754  34.196  1.00  0.00     0.029 A 
ATOM     65  C   UNL A   1      39.335  33.352  33.206  1.00  0.00     0.049 A 
ATOM     66  H   UNL A   1      39.865  31.967  31.678  1.00  0.00     0.167 HD
ATOM     67  C   UNL A   1      43.038  31.535  37.557  1.00  0.00     0.037 A 
ATOM     68  C   UNL A   1      37.980  33.464  33.183  1.00  0.00     0.037 A 
ATOM     69  C   UNL A   1      41.995  32.572  37.749  1.00  0.00     0.049 A 
ATOM     70  C   UNL A   1      37.464  33.438  34.606  1.00  0.00     0.074 A 
ATOM     71  C   UNL A   1      41.989  33.957  37.652  1.00  0.00     0.029 A 
ATOM     72  N   UNL A   1      40.658  32.206  37.934  1.00  0.00    -0.354 N 
ATOM     73  N   UNL A   1      38.255  33.115  35.594  1.00  0.00    -0.248 NA
ATOM     74  C   UNL A   1      36.138  33.806  35.108  1.00  0.00     0.031 C 
ATOM     75  C   UNL A   1      40.636  34.400  37.669  1.00  0.00     0.029 A 
ATOM     76  C   UNL A   1      39.815  33.294  37.819  1.00  0.00     0.049 A 
ATOM     77  H   UNL A   1      40.354  31.288  38.122  1.00  0.00     0.167 HD
ATOM     78  C   UNL A   1      37.655  33.301  36.798  1.00  0.00     0.074 A 
ATOM     79  C   UNL A   1      36.299  33.681  36.445  1.00  0.00     0.031 C 
ATOM     80  C   UNL A   1      38.363  33.160  37.960  1.00  0.00     0.037 A 
BRANCH  67  81
ATOM     81  C   UNL A   1      44.464  31.719  38.115  1.00  0.00     0.058 A 
ATOM     82  C   UNL A   1      45.373  32.629  37.520  1.00  0.00     0.135 A 
ATOM     83  C   UNL A   1      45.008  31.025  39.220  1.00  0.00     0.135 A 
ATOM     84  F   UNL A   1      45.046  33.311  36.413  1.00  0.00    -0.206 F 
ATOM     85  C   UNL A   1      46.663  32.880  38.024  1.00  0.00     0.059 A 
ATOM     86  C   UNL A   1      46.255  31.317  39.789  1.00  0.00     0.059 A 
ATOM     87  F   UNL A   1      44.393  29.969  39.764  1.00  0.00    -0.206 F 
ATOM     88  C   UNL A   1      47.082  32.247  39.186  1.00  0.00     0.060 A 
BRANCH  88  89
ATOM     89  S   UNL A   1      48.693  32.640  39.903  1.00  0.00     0.124 S 
ATOM     90  O   UNL A   1      49.603  32.293  38.816  1.00  0.00    -0.237 OA
ATOM     91  O   UNL A   1      48.571  34.062  40.200  1.00  0.00    -0.237 OA
ATOM     92  O   UNL A   1      48.764  31.771  41.075  1.00  0.00    -0.744 OA
ENDBRANCH  88  89
ENDBRANCH  67  81
BRANCH  68  93
ATOM     93  C   UNL A   1      37.448  32.952  31.850  1.00  0.00     0.058 A 
ATOM     94  C   UNL A   1      36.244  32.258  31.975  1.00  0.00     0.135 A 
ATOM     95  C   UNL A   1      37.334  33.778  30.766  1.00  0.00     0.135 A 
ATOM     96  F   UNL A   1      36.259  31.081  32.584  1.00  0.00    -0.206 F 
ATOM     97  C   UNL A   1      34.960  32.801  31.633  1.00  0.00     0.059 A 
ATOM     98  C   UNL A   1      36.041  34.183  30.277  1.00  0.00     0.059 A 
ATOM     99  F   UNL A   1      38.433  34.161  30.098  1.00  0.00    -0.206 F 
ATOM    100  C   UNL A   1      34.810  33.984  30.908  1.00  0.00     0.060 A 
BRANCH 100 101
ATOM    101  S   UNL A   1      33.064  35.313  30.782  1.00  0.00     0.124 S 
ATOM    102  O   UNL A   1      33.464  36.712  30.902  1.00  0.00    -0.237 OA
ATOM    103  O   UNL A   1      32.545  34.989  29.490  1.00  0.00    -0.237 OA
ATOM    104  O   UNL A   1      32.154  35.176  31.925  1.00  0.00    -0.744 OA
ENDBRANCH 100 101
ENDBRANCH  68  93
BRANCH  80 105
ATOM    105  C   UNL A   1      37.788  32.995  39.346  1.00  0.00     0.058 A 
ATOM    106  C   UNL A   1      37.856  33.986  40.339  1.00  0.00     0.135 A 
ATOM    107  C   UNL A   1      36.958  31.885  39.650  1.00  0.00     0.135 A 
ATOM    108  F   UNL A   1      38.546  35.120  40.147  1.00  0.00    -0.206 F 
ATOM    109  C   UNL A   1      37.173  33.876  41.554  1.00  0.00     0.059 A 
ATOM    110  C   UNL A   1      36.233  31.778  40.833  1.00  0.00     0.059 A 
ATOM    111  F   UNL A   1      36.801  30.867  38.792  1.00  0.00    -0.206 F 
ATOM    112  C   UNL A   1      36.357  32.773  41.789  1.00  0.00     0.060 A 
BRANCH 112 113
ATOM    113  S   UNL A   1      35.397  32.676  43.311  1.00  0.00     0.124 S 
ATOM    114  O   UNL A   1      34.369  31.710  42.944  1.00  0.00    -0.237 OA
ATOM    115  O   UNL A   1      36.383  32.210  44.282  1.00  0.00    -0.237 OA
ATOM    116  O   UNL A   1      34.937  34.047  43.507  1.00  0.00    -0.744 OA
ENDBRANCH 112 113
ENDBRANCH  80 105
ENDBRANCH  54  55
ENDBRANCH  47  49
ENDBRANCH  46  47
ENDBRANCH  45  46
ENDBRANCH  44  45
ENDBRANCH  43  44
ENDBRANCH   1  43
TORSDOF 24
ENDMDL
MODEL 3
REMARK VINA RESULT:     -13.7      1.979      5.605
REMARK SMILES Cc1ccc(S(=O)(=O)n2cc(C(=O)C(=O)N[C@@H](Cc3c[nH]c4ccccc34)C(=O)OCCOCCOC(=O)c3ccc(-c4c5nc(c(-c6c(F)cc(S(=O)(=O)[O-])cc6F)c6ccc([nH]6)c(-c6c(F)cc(S(=O)(=O)[O-])cc6F)c6nc(c(-c7c(F)cc(S(=O)(=O)[O-])cc7F)c7ccc4[nH]7)C=C6)C=C5)cc3)c3ccccc32)cc1
REMARK SMILES IDX 32 1 31 2 30 3 28 4 29 5 17 6 16 7 14 8 15 9 12 11 13 12
REMARK SMILES IDX 11 13 9 14 10 15 110 16 105 17 109 18 106 19 108 20 107 21
REMARK SMILES IDX 6 22 7 23 8 24 5 25 1 26 2 27 3 28 112 29 4 30 111 31 18 32
REMARK SMILES IDX 19 33 20 34 27 35 21 36 22 37 26 38 23 40 25 41 24 42 33 43
REMARK SMILES IDX 34 44 35 45 36 46 37 47 38 48 39 49 40 50 104 51 41 52
REMARK SMILES IDX 103 53 42 54 43 55 44 56 97 57 45 58 102 59 96 60 98 61
REMARK SMILES IDX 46 62 101 63 95 64 94 65 47 67 81 68 60 69 80 70 61 71 64 72
REMARK SMILES IDX 79 73 99 74 62 75 63 76 78 78 100 79 65 80 48 81 49 82 58 83
REMARK SMILES IDX 50 84 51 85 57 86 59 87 52 88 53 89 54 90 55 91 56 92 82 93
REMARK SMILES IDX 83 94 92 95 84 96 85 97 91 98 93 99 86 100 87 101 88 102
REMARK SMILES IDX 89 103 90 104 66 105 67 106 76 107 68 108 69 109 75 110
REMARK SMILES IDX 77 111 70 112 71 113 72 114 73 115 74 116
REMARK H PARENT 16 10 21 39 98 66 64 77
REMARK Flexibility Score: inf
ROOT
ATOM      1  C   UNL A   1      33.169  23.383  25.961  1.00  0.00     0.202 C 
ENDROOT
BRANCH   1   2
ATOM      2  C   UNL A   1      32.144  24.110  26.839  1.00  0.00     0.261 C 
BRANCH   2   3
ATOM      3  O   UNL A   1      31.292  24.925  26.042  1.00  0.00    -0.462 OA
BRANCH   3   4
ATOM      4  C   UNL A   1      31.472  26.237  26.304  1.00  0.00     0.329 C 
ATOM      5  O   UNL A   1      31.562  26.688  27.440  1.00  0.00    -0.250 OA
BRANCH   4   6
ATOM      6  C   UNL A   1      31.499  27.099  25.041  1.00  0.00     0.197 C 
BRANCH   6   7
ATOM      7  N   UNL A   1      32.858  27.402  24.534  1.00  0.00    -0.335 N 
ATOM      8  C   UNL A   1      33.677  28.469  24.825  1.00  0.00     0.293 C 
ATOM      9  O   UNL A   1      34.797  28.628  24.353  1.00  0.00    -0.265 OA
ATOM     10  H   UNL A   1      33.226  26.747  23.898  1.00  0.00     0.164 HD
BRANCH   8  11
ATOM     11  C   UNL A   1      33.124  29.570  25.690  1.00  0.00     0.252 C 
ATOM     12  O   UNL A   1      32.124  30.146  25.260  1.00  0.00    -0.283 OA
BRANCH  11  13
ATOM     13  C   UNL A   1      33.689  29.969  26.977  1.00  0.00     0.054 A 
ATOM     14  N   UNL A   1      35.563  30.392  28.049  1.00  0.00    -0.240 N 
ATOM     15  C   UNL A   1      34.788  29.354  27.592  1.00  0.00     0.117 A 
ATOM     16  C   UNL A   1      34.950  31.600  27.754  1.00  0.00     0.065 A 
ATOM     17  C   UNL A   1      33.619  31.291  27.511  1.00  0.00     0.012 A 
ATOM     18  C   UNL A   1      35.422  32.919  27.824  1.00  0.00     0.028 A 
ATOM     19  C   UNL A   1      32.674  32.330  27.626  1.00  0.00     0.011 A 
ATOM     20  C   UNL A   1      34.479  33.931  27.930  1.00  0.00     0.002 A 
ATOM     21  C   UNL A   1      33.121  33.631  27.915  1.00  0.00     0.001 A 
BRANCH  14  22
ATOM     22  S   UNL A   1      36.762  30.469  29.235  1.00  0.00     0.268 S 
ATOM     23  O   UNL A   1      37.975  30.671  28.459  1.00  0.00    -0.201 OA
ATOM     24  O   UNL A   1      36.553  29.243  29.993  1.00  0.00    -0.201 OA
BRANCH  22  25
ATOM     25  C   UNL A   1      36.838  31.702  30.475  1.00  0.00     0.088 A 
ATOM     26  C   UNL A   1      35.989  34.444  33.678  1.00  0.00     0.044 C 
ATOM     27  C   UNL A   1      36.362  33.483  32.588  1.00  0.00    -0.051 A 
ATOM     28  C   UNL A   1      35.714  32.255  32.571  1.00  0.00     0.005 A 
ATOM     29  C   UNL A   1      37.279  33.794  31.561  1.00  0.00     0.005 A 
ATOM     30  C   UNL A   1      35.958  31.379  31.532  1.00  0.00     0.022 A 
ATOM     31  C   UNL A   1      37.524  32.904  30.491  1.00  0.00     0.022 A 
ENDBRANCH  22  25
ENDBRANCH  14  22
ENDBRANCH  11  13
ENDBRANCH   8  11
ENDBRANCH   6   7
BRANCH   6  32
ATOM     32  C   UNL A   1      30.595  26.414  24.005  1.00  0.00     0.074 C 
BRANCH  32  33
ATOM     33  C   UNL A   1      29.334  27.159  23.665  1.00  0.00    -0.020 A 
ATOM     34  C   UNL A   1      28.039  26.756  23.934  1.00  0.00     0.087 A 
ATOM     35  C   UNL A   1      29.242  28.405  22.966  1.00  0.00     0.003 A 
ATOM     36  N   UNL A   1      27.184  27.720  23.472  1.00  0.00    -0.361 N 
ATOM     37  C   UNL A   1      27.892  28.737  22.867  1.00  0.00     0.046 A 
ATOM     38  C   UNL A   1      30.186  29.259  22.363  1.00  0.00     0.010 A 
ATOM     39  H   UNL A   1      26.204  27.694  23.561  1.00  0.00     0.166 HD
ATOM     40  C   UNL A   1      27.437  29.854  22.152  1.00  0.00     0.026 A 
ATOM     41  C   UNL A   1      29.751  30.359  21.619  1.00  0.00     0.001 A 
ATOM     42  C   UNL A   1      28.394  30.645  21.508  1.00  0.00     0.002 A 
ENDBRANCH  32  33
ENDBRANCH   6  32
ENDBRANCH   4   6
ENDBRANCH   3   4
ENDBRANCH   2   3
ENDBRANCH   1   2
BRANCH   1  43
ATOM     43  O   UNL A   1      33.455  21.957  25.968  1.00  0.00    -0.374 OA
BRANCH  43  44
ATOM     44  C   UNL A   1      34.761  21.394  25.361  1.00  0.00     0.202 C 
BRANCH  44  45
ATOM     45  C   UNL A   1      36.517  21.938  25.233  1.00  0.00     0.261 C 
BRANCH  45  46
ATOM     46  O   UNL A   1      37.797  22.785  26.092  1.00  0.00    -0.460 OA
BRANCH  46  47
ATOM     47  C   UNL A   1      39.023  23.396  26.655  1.00  0.00     0.338 C 
ATOM     48  O   UNL A   1      39.825  22.593  27.156  1.00  0.00    -0.246 OA
BRANCH  47  49
ATOM     49  C   UNL A   1      39.421  25.061  27.032  1.00  0.00     0.060 A 
ATOM     50  C   UNL A   1      40.053  25.898  26.095  1.00  0.00     0.016 A 
ATOM     51  C   UNL A   1      39.438  25.674  28.293  1.00  0.00     0.016 A 
ATOM     52  C   UNL A   1      41.196  26.695  26.497  1.00  0.00     0.010 A 
ATOM     53  C   UNL A   1      40.563  26.460  28.713  1.00  0.00     0.010 A 
ATOM     54  C   UNL A   1      41.595  26.784  27.839  1.00  0.00    -0.014 A 
BRANCH  54  55
ATOM     55  C   UNL A   1      43.022  27.017  28.321  1.00  0.00     0.031 A 
ATOM     56  C   UNL A   1      44.192  26.190  27.958  1.00  0.00     0.074 A 
ATOM     57  C   UNL A   1      43.449  28.074  29.074  1.00  0.00     0.049 A 
ATOM     58  N   UNL A   1      45.078  25.764  28.812  1.00  0.00    -0.248 NA
ATOM     59  C   UNL A   1      44.551  25.919  26.578  1.00  0.00     0.031 C 
ATOM     60  C   UNL A   1      44.769  28.405  29.654  1.00  0.00     0.029 A 
ATOM     61  N   UNL A   1      42.693  29.069  29.638  1.00  0.00    -0.354 N 
ATOM     62  C   UNL A   1      46.250  25.594  28.096  1.00  0.00     0.074 A 
ATOM     63  C   UNL A   1      45.795  25.443  26.731  1.00  0.00     0.031 C 
ATOM     64  C   UNL A   1      44.596  29.121  30.782  1.00  0.00     0.029 A 
ATOM     65  C   UNL A   1      43.177  29.328  30.926  1.00  0.00     0.049 A 
ATOM     66  H   UNL A   1      41.935  29.526  29.208  1.00  0.00     0.167 HD
ATOM     67  C   UNL A   1      47.481  25.814  28.672  1.00  0.00     0.037 A 
ATOM     68  C   UNL A   1      42.351  29.147  31.991  1.00  0.00     0.037 A 
ATOM     69  C   UNL A   1      47.397  26.192  30.104  1.00  0.00     0.049 A 
ATOM     70  C   UNL A   1      42.912  28.044  32.863  1.00  0.00     0.074 A 
ATOM     71  C   UNL A   1      47.944  27.221  30.859  1.00  0.00     0.029 A 
ATOM     72  N   UNL A   1      46.503  25.539  30.958  1.00  0.00    -0.354 N 
ATOM     73  N   UNL A   1      43.898  27.298  32.438  1.00  0.00    -0.248 NA
ATOM     74  C   UNL A   1      42.550  27.686  34.235  1.00  0.00     0.031 C 
ATOM     75  C   UNL A   1      47.291  27.244  32.123  1.00  0.00     0.029 A 
ATOM     76  C   UNL A   1      46.376  26.204  32.162  1.00  0.00     0.049 A 
ATOM     77  H   UNL A   1      46.023  24.710  30.731  1.00  0.00     0.167 HD
ATOM     78  C   UNL A   1      44.360  26.476  33.415  1.00  0.00     0.074 A 
ATOM     79  C   UNL A   1      43.442  26.709  34.516  1.00  0.00     0.031 C 
ATOM     80  C   UNL A   1      45.482  25.720  33.217  1.00  0.00     0.037 A 
BRANCH  67  81
ATOM     81  C   UNL A   1      48.821  25.846  27.910  1.00  0.00     0.058 A 
ATOM     82  C   UNL A   1      49.982  25.230  28.442  1.00  0.00     0.135 A 
ATOM     83  C   UNL A   1      49.042  26.476  26.664  1.00  0.00     0.135 A 
ATOM     84  F   UNL A   1      49.967  24.655  29.654  1.00  0.00    -0.206 F 
ATOM     85  C   UNL A   1      51.213  25.176  27.764  1.00  0.00     0.059 A 
ATOM     86  C   UNL A   1      50.232  26.364  25.933  1.00  0.00     0.059 A 
ATOM     87  F   UNL A   1      48.141  27.300  26.119  1.00  0.00    -0.206 F 
ATOM     88  C   UNL A   1      51.319  25.713  26.488  1.00  0.00     0.060 A 
BRANCH  88  89
ATOM     89  S   UNL A   1      52.863  25.558  25.563  1.00  0.00     0.124 S 
ATOM     90  O   UNL A   1      52.960  24.114  25.371  1.00  0.00    -0.237 OA
ATOM     91  O   UNL A   1      52.595  26.342  24.363  1.00  0.00    -0.237 OA
ATOM     92  O   UNL A   1      53.858  26.134  26.465  1.00  0.00    -0.744 OA
ENDBRANCH  88  89
ENDBRANCH  67  81
BRANCH  68  93
ATOM     93  C   UNL A   1      40.942  29.603  31.627  1.00  0.00     0.058 A 
ATOM     94  C   UNL A   1      39.950  28.812  32.206  1.00  0.00     0.135 A 
ATOM     95  C   UNL A   1      40.560  30.909  31.767  1.00  0.00     0.135 A 
ATOM     96  F   UNL A   1      39.811  27.566  31.777  1.00  0.00    -0.206 F 
ATOM     97  C   UNL A   1      39.169  29.202  33.346  1.00  0.00     0.059 A 
ATOM     98  C   UNL A   1      39.619  31.300  32.785  1.00  0.00     0.059 A 
ATOM     99  F   UNL A   1      41.005  31.832  30.900  1.00  0.00    -0.206 F 
ATOM    100  C   UNL A   1      39.153  30.508  33.838  1.00  0.00     0.060 A 
BRANCH 100 101
ATOM    101  S   UNL A   1      38.573  31.223  35.834  1.00  0.00     0.124 S 
ATOM    102  O   UNL A   1      38.100  30.121  36.665  1.00  0.00    -0.237 OA
ATOM    103  O   UNL A   1      39.796  31.793  36.305  1.00  0.00    -0.237 OA
ATOM    104  O   UNL A   1      37.392  32.094  35.811  1.00  0.00    -0.744 OA
ENDBRANCH 100 101
ENDBRANCH  68  93
BRANCH  80 105
ATOM    105  C   UNL A   1      45.921  24.533  34.041  1.00  0.00     0.058 A 
ATOM    106  C   UNL A   1      45.424  23.233  33.858  1.00  0.00     0.135 A 
ATOM    107  C   UNL A   1      47.028  24.644  34.922  1.00  0.00     0.135 A 
ATOM    108  F   UNL A   1      44.429  22.982  32.995  1.00  0.00    -0.206 F 
ATOM    109  C   UNL A   1      45.965  22.126  34.517  1.00  0.00     0.059 A 
ATOM    110  C   UNL A   1      47.611  23.548  35.551  1.00  0.00     0.059 A 
ATOM    111  F   UNL A   1      47.602  25.826  35.188  1.00  0.00    -0.206 F 
ATOM    112  C   UNL A   1      47.065  22.290  35.354  1.00  0.00     0.060 A 
BRANCH 112 113
ATOM    113  S   UNL A   1      47.827  20.852  36.126  1.00  0.00     0.124 S 
ATOM    114  O   UNL A   1      46.661  20.022  36.407  1.00  0.00    -0.237 OA
ATOM    115  O   UNL A   1      48.715  20.357  35.078  1.00  0.00    -0.237 OA
ATOM    116  O   UNL A   1      48.502  21.413  37.293  1.00  0.00    -0.744 OA
ENDBRANCH 112 113
ENDBRANCH  80 105
ENDBRANCH  54  55
ENDBRANCH  47  49
ENDBRANCH  46  47
ENDBRANCH  45  46
ENDBRANCH  44  45
ENDBRANCH  43  44
ENDBRANCH   1  43
TORSDOF 24
ENDMDL
