MODEL 1
REMARK VINA RESULT:     -10.5      0.000      0.000
REMARK SMILES CCCCCCNC(=O)Oc1cccc(-c2ccc([C@@H](C)C(=O)OCCOCCOC(=O)c3ccc(-c4c5nc(c(-c6c(F)cc(S(=O)(=O)[O-])cc6F)c6ccc([nH]6)c(-c6c(F)cc(S(=O)(=O)[O-])cc6F)c6nc(c(-c7c(F)cc(S(=O)(=O)[O-])cc7F)c7ccc4[nH]7)C=C6)C=C5)cc3)cc2Cl)c1
REMARK SMILES IDX 24 1 22 2 23 3 20 4 21 5 19 6 16 7 17 8 100 9 18 10 99 11
REMARK SMILES IDX 101 12 15 13 11 14 12 15 102 16 13 17 14 18 10 19 8 20 7 21
REMARK SMILES IDX 9 23 6 24 5 25 4 26 3 27 2 28 1 29 25 30 26 31 27 32 28 33
REMARK SMILES IDX 29 34 30 35 31 36 32 37 33 38 34 39 98 40 35 41 97 42 36 43
REMARK SMILES IDX 37 44 38 45 91 46 39 47 96 48 90 49 92 50 40 51 95 52 89 53
REMARK SMILES IDX 88 54 41 56 75 57 54 58 74 59 55 60 58 61 73 62 93 63 56 64
REMARK SMILES IDX 57 65 72 67 94 68 59 69 42 70 43 71 52 72 44 73 45 74 51 75
REMARK SMILES IDX 53 76 46 77 47 78 48 79 49 80 50 81 76 82 77 83 86 84 78 85
REMARK SMILES IDX 79 86 85 87 87 88 80 89 81 90 82 91 83 92 84 93 60 94 61 95
REMARK SMILES IDX 70 96 62 97 63 98 69 99 71 100 64 101 65 102 66 103 67 104
REMARK SMILES IDX 68 105
REMARK H PARENT 7 22 92 55 58 66
REMARK Flexibility Score: inf
ROOT
ATOM      1  O   UNL A   1      29.053  31.579  24.248  1.00  0.00    -0.463 OA
ENDROOT
BRANCH   1   2
ATOM      2  C   UNL A   1      28.730  31.948  22.983  1.00  0.00     0.313 C 
ATOM      3  O   UNL A   1      28.110  32.967  22.691  1.00  0.00    -0.252 OA
BRANCH   2   4
ATOM      4  C   UNL A   1      29.179  30.960  21.919  1.00  0.00     0.126 C 
ATOM      5  C   UNL A   1      28.033  30.705  20.946  1.00  0.00     0.025 C 
BRANCH   4   6
ATOM      6  C   UNL A   1      29.844  29.662  22.374  1.00  0.00    -0.033 A 
ATOM      7  C   UNL A   1      31.179  27.208  23.009  1.00  0.00     0.000 A 
ATOM      8  C   UNL A   1      29.781  27.342  23.120  1.00  0.00     0.010 A 
ATOM      9  C   UNL A   1      31.898  28.343  22.591  1.00  0.00     0.049 A 
ATOM     10  C   UNL A   1      29.124  28.542  22.804  1.00  0.00     0.005 A 
ATOM     11  C   UNL A   1      31.242  29.546  22.288  1.00  0.00     0.025 A 
ATOM     12  Cl  UNL A   1      33.616  28.321  22.352  1.00  0.00    -0.084 Cl
BRANCH   7  13
ATOM     13  C   UNL A   1      31.817  25.903  23.282  1.00  0.00    -0.013 A 
ATOM     14  C   UNL A   1      32.708  24.248  24.825  1.00  0.00     0.133 A 
ATOM     15  C   UNL A   1      33.151  23.457  23.767  1.00  0.00     0.047 A 
ATOM     16  C   UNL A   1      32.047  25.457  24.594  1.00  0.00     0.056 A 
ATOM     17  C   UNL A   1      32.907  23.871  22.461  1.00  0.00     0.004 A 
ATOM     18  C   UNL A   1      32.248  25.083  22.222  1.00  0.00     0.009 A 
BRANCH  14  19
ATOM     19  O   UNL A   1      33.078  23.837  26.119  1.00  0.00    -0.410 OA
BRANCH  19  20
ATOM     20  C   UNL A   1      32.153  23.147  26.886  1.00  0.00     0.412 C 
ATOM     21  N   UNL A   1      32.471  21.829  27.066  1.00  0.00    -0.321 N 
ATOM     22  H   UNL A   1      31.834  21.293  27.590  1.00  0.00     0.167 HD
ATOM     23  O   UNL A   1      31.131  23.618  27.379  1.00  0.00    -0.224 OA
BRANCH  21  24
ATOM     24  C   UNL A   1      33.642  21.134  26.569  1.00  0.00     0.119 C 
BRANCH  24  25
ATOM     25  C   UNL A   1      33.286  19.783  25.945  1.00  0.00     0.021 C 
BRANCH  25  26
ATOM     26  C   UNL A   1      33.681  19.628  24.471  1.00  0.00     0.002 C 
BRANCH  26  27
ATOM     27  C   UNL A   1      32.522  19.389  23.496  1.00  0.00    -0.000 C 
BRANCH  27  28
ATOM     28  C   UNL A   1      32.542  18.043  22.767  1.00  0.00    -0.003 C 
ATOM     29  C   UNL A   1      33.740  17.178  23.129  1.00  0.00     0.004 C 
ENDBRANCH  27  28
ENDBRANCH  26  27
ENDBRANCH  25  26
ENDBRANCH  24  25
ENDBRANCH  21  24
ENDBRANCH  19  20
ENDBRANCH  14  19
ENDBRANCH   7  13
ENDBRANCH   4   6
ENDBRANCH   2   4
ENDBRANCH   1   2
BRANCH   1  30
ATOM     30  C   UNL A   1      30.256  32.160  24.785  1.00  0.00     0.261 C 
BRANCH  30  31
ATOM     31  C   UNL A   1      30.732  31.412  26.032  1.00  0.00     0.202 C 
BRANCH  31  32
ATOM     32  O   UNL A   1      31.608  32.122  26.907  1.00  0.00    -0.374 OA
BRANCH  32  33
ATOM     33  C   UNL A   1      32.913  31.582  27.117  1.00  0.00     0.202 C 
BRANCH  33  34
ATOM     34  C   UNL A   1      33.953  32.486  27.787  1.00  0.00     0.261 C 
BRANCH  34  35
ATOM     35  O   UNL A   1      33.684  33.886  27.595  1.00  0.00    -0.460 OA
BRANCH  35  36
ATOM     36  C   UNL A   1      33.559  34.594  28.744  1.00  0.00     0.338 C 
ATOM     37  O   UNL A   1      32.616  35.293  29.077  1.00  0.00    -0.246 OA
BRANCH  36  38
ATOM     38  C   UNL A   1      34.652  34.256  29.676  1.00  0.00     0.060 A 
ATOM     39  C   UNL A   1      35.961  34.448  29.217  1.00  0.00     0.016 A 
ATOM     40  C   UNL A   1      34.417  33.685  30.929  1.00  0.00     0.016 A 
ATOM     41  C   UNL A   1      37.041  34.008  29.977  1.00  0.00     0.010 A 
ATOM     42  C   UNL A   1      35.506  33.241  31.692  1.00  0.00     0.010 A 
ATOM     43  C   UNL A   1      36.819  33.361  31.200  1.00  0.00    -0.014 A 
BRANCH  43  44
ATOM     44  C   UNL A   1      37.956  32.674  31.865  1.00  0.00     0.031 A 
ATOM     45  C   UNL A   1      38.415  33.161  33.215  1.00  0.00     0.074 A 
ATOM     46  C   UNL A   1      38.524  31.587  31.311  1.00  0.00     0.049 A 
ATOM     47  N   UNL A   1      39.364  32.696  33.985  1.00  0.00    -0.248 NA
ATOM     48  C   UNL A   1      37.707  34.325  33.770  1.00  0.00     0.031 C 
ATOM     49  C   UNL A   1      38.137  30.992  30.032  1.00  0.00     0.029 A 
ATOM     50  N   UNL A   1      39.542  30.785  31.761  1.00  0.00    -0.354 N 
ATOM     51  C   UNL A   1      39.369  33.509  35.113  1.00  0.00     0.074 A 
ATOM     52  C   UNL A   1      38.354  34.519  34.910  1.00  0.00     0.031 C 
ATOM     53  C   UNL A   1      38.912  29.918  29.799  1.00  0.00     0.029 A 
ATOM     54  C   UNL A   1      39.864  29.765  30.898  1.00  0.00     0.049 A 
ATOM     55  H   UNL A   1      40.000  30.926  32.620  1.00  0.00     0.167 HD
ATOM     56  C   UNL A   1      40.141  33.416  36.224  1.00  0.00     0.037 A 
ATOM     57  C   UNL A   1      40.825  28.822  30.979  1.00  0.00     0.037 A 
ATOM     58  C   UNL A   1      41.151  32.409  36.424  1.00  0.00     0.049 A 
ATOM     59  C   UNL A   1      41.716  28.778  32.194  1.00  0.00     0.074 A 
ATOM     60  C   UNL A   1      41.981  32.226  37.517  1.00  0.00     0.029 A 
ATOM     61  N   UNL A   1      41.474  31.418  35.508  1.00  0.00    -0.354 N 
ATOM     62  N   UNL A   1      41.698  29.545  33.259  1.00  0.00    -0.248 NA
ATOM     63  C   UNL A   1      42.751  27.736  32.222  1.00  0.00     0.031 C 
ATOM     64  C   UNL A   1      42.835  31.153  37.242  1.00  0.00     0.029 A 
ATOM     65  C   UNL A   1      42.504  30.633  36.002  1.00  0.00     0.049 A 
ATOM     66  H   UNL A   1      41.035  31.290  34.636  1.00  0.00     0.167 HD
ATOM     67  C   UNL A   1      42.698  29.057  34.096  1.00  0.00     0.074 A 
ATOM     68  C   UNL A   1      43.295  27.926  33.417  1.00  0.00     0.031 C 
ATOM     69  C   UNL A   1      43.084  29.504  35.318  1.00  0.00     0.037 A 
BRANCH  56  70
ATOM     70  C   UNL A   1      39.938  34.449  37.299  1.00  0.00     0.058 A 
ATOM     71  C   UNL A   1      39.049  34.242  38.367  1.00  0.00     0.135 A 
ATOM     72  C   UNL A   1      40.662  35.653  37.276  1.00  0.00     0.135 A 
ATOM     73  F   UNL A   1      38.320  33.116  38.430  1.00  0.00    -0.206 F 
ATOM     74  C   UNL A   1      38.864  35.203  39.356  1.00  0.00     0.059 A 
ATOM     75  C   UNL A   1      40.513  36.616  38.270  1.00  0.00     0.059 A 
ATOM     76  F   UNL A   1      41.525  35.903  36.278  1.00  0.00    -0.206 F 
ATOM     77  C   UNL A   1      39.599  36.388  39.298  1.00  0.00     0.060 A 
BRANCH  77  78
ATOM     78  S   UNL A   1      39.348  37.625  40.588  1.00  0.00     0.124 S 
ATOM     79  O   UNL A   1      40.599  38.375  40.520  1.00  0.00    -0.237 OA
ATOM     80  O   UNL A   1      38.161  38.332  40.119  1.00  0.00    -0.237 OA
ATOM     81  O   UNL A   1      39.161  36.826  41.796  1.00  0.00    -0.744 OA
ENDBRANCH  77  78
ENDBRANCH  56  70
BRANCH  57  82
ATOM     82  C   UNL A   1      40.997  27.840  29.875  1.00  0.00     0.058 A 
ATOM     83  C   UNL A   1      42.124  27.872  29.042  1.00  0.00     0.135 A 
ATOM     84  C   UNL A   1      40.033  26.849  29.631  1.00  0.00     0.135 A 
ATOM     85  F   UNL A   1      43.069  28.807  29.226  1.00  0.00    -0.206 F 
ATOM     86  C   UNL A   1      42.285  26.966  27.998  1.00  0.00     0.059 A 
ATOM     87  C   UNL A   1      40.183  25.916  28.611  1.00  0.00     0.059 A 
ATOM     88  F   UNL A   1      38.939  26.770  30.406  1.00  0.00    -0.206 F 
ATOM     89  C   UNL A   1      41.310  25.988  27.793  1.00  0.00     0.060 A 
BRANCH  89  90
ATOM     90  S   UNL A   1      41.552  24.784  26.469  1.00  0.00     0.124 S 
ATOM     91  O   UNL A   1      41.163  25.556  25.295  1.00  0.00    -0.237 OA
ATOM     92  O   UNL A   1      42.974  24.478  26.591  1.00  0.00    -0.237 OA
ATOM     93  O   UNL A   1      40.651  23.696  26.837  1.00  0.00    -0.744 OA
ENDBRANCH  89  90
ENDBRANCH  57  82
BRANCH  69  94
ATOM     94  C   UNL A   1      44.178  28.745  36.021  1.00  0.00     0.058 A 
ATOM     95  C   UNL A   1      43.908  27.618  36.811  1.00  0.00     0.135 A 
ATOM     96  C   UNL A   1      45.520  29.129  35.865  1.00  0.00     0.135 A 
ATOM     97  F   UNL A   1      42.642  27.210  36.997  1.00  0.00    -0.206 F 
ATOM     98  C   UNL A   1      44.927  26.914  37.445  1.00  0.00     0.059 A 
ATOM     99  C   UNL A   1      46.557  28.423  36.466  1.00  0.00     0.059 A 
ATOM    100  F   UNL A   1      45.836  30.193  35.109  1.00  0.00    -0.206 F 
ATOM    101  C   UNL A   1      46.250  27.324  37.267  1.00  0.00     0.060 A 
BRANCH 101 102
ATOM    102  S   UNL A   1      47.565  26.390  38.076  1.00  0.00     0.124 S 
ATOM    103  O   UNL A   1      46.802  25.489  38.932  1.00  0.00    -0.237 OA
ATOM    104  O   UNL A   1      48.246  25.765  36.946  1.00  0.00    -0.237 OA
ATOM    105  O   UNL A   1      48.334  27.417  38.772  1.00  0.00    -0.744 OA
ENDBRANCH 101 102
ENDBRANCH  69  94
ENDBRANCH  43  44
ENDBRANCH  36  38
ENDBRANCH  35  36
ENDBRANCH  34  35
ENDBRANCH  33  34
ENDBRANCH  32  33
ENDBRANCH  31  32
ENDBRANCH  30  31
ENDBRANCH   1  30
TORSDOF 26
ENDMDL
MODEL 2
REMARK VINA RESULT:     -10.4      2.775      4.190
REMARK SMILES CCCCCCNC(=O)Oc1cccc(-c2ccc([C@@H](C)C(=O)OCCOCCOC(=O)c3ccc(-c4c5nc(c(-c6c(F)cc(S(=O)(=O)[O-])cc6F)c6ccc([nH]6)c(-c6c(F)cc(S(=O)(=O)[O-])cc6F)c6nc(c(-c7c(F)cc(S(=O)(=O)[O-])cc7F)c7ccc4[nH]7)C=C6)C=C5)cc3)cc2Cl)c1
REMARK SMILES IDX 24 1 22 2 23 3 20 4 21 5 19 6 16 7 17 8 100 9 18 10 99 11
REMARK SMILES IDX 101 12 15 13 11 14 12 15 102 16 13 17 14 18 10 19 8 20 7 21
REMARK SMILES IDX 9 23 6 24 5 25 4 26 3 27 2 28 1 29 25 30 26 31 27 32 28 33
REMARK SMILES IDX 29 34 30 35 31 36 32 37 33 38 34 39 98 40 35 41 97 42 36 43
REMARK SMILES IDX 37 44 38 45 91 46 39 47 96 48 90 49 92 50 40 51 95 52 89 53
REMARK SMILES IDX 88 54 41 56 75 57 54 58 74 59 55 60 58 61 73 62 93 63 56 64
REMARK SMILES IDX 57 65 72 67 94 68 59 69 42 70 43 71 52 72 44 73 45 74 51 75
REMARK SMILES IDX 53 76 46 77 47 78 48 79 49 80 50 81 76 82 77 83 86 84 78 85
REMARK SMILES IDX 79 86 85 87 87 88 80 89 81 90 82 91 83 92 84 93 60 94 61 95
REMARK SMILES IDX 70 96 62 97 63 98 69 99 71 100 64 101 65 102 66 103 67 104
REMARK SMILES IDX 68 105
REMARK H PARENT 7 22 92 55 58 66
REMARK Flexibility Score: inf
ROOT
ATOM      1  O   UNL A   1      29.271  31.810  24.481  1.00  0.00    -0.463 OA
ENDROOT
BRANCH   1   2
ATOM      2  C   UNL A   1      28.963  32.000  23.173  1.00  0.00     0.313 C 
ATOM      3  O   UNL A   1      28.518  33.045  22.707  1.00  0.00    -0.252 OA
BRANCH   2   4
ATOM      4  C   UNL A   1      29.187  30.774  22.303  1.00  0.00     0.126 C 
ATOM      5  C   UNL A   1      28.037  30.640  21.310  1.00  0.00     0.025 C 
BRANCH   4   6
ATOM      6  C   UNL A   1      29.508  29.449  22.991  1.00  0.00    -0.033 A 
ATOM      7  C   UNL A   1      30.294  26.943  24.137  1.00  0.00     0.000 A 
ATOM      8  C   UNL A   1      29.031  27.122  23.540  1.00  0.00     0.010 A 
ATOM      9  C   UNL A   1      31.150  28.060  24.166  1.00  0.00     0.049 A 
ATOM     10  C   UNL A   1      28.645  28.348  22.973  1.00  0.00     0.005 A 
ATOM     11  C   UNL A   1      30.758  29.288  23.611  1.00  0.00     0.025 A 
ATOM     12  Cl  UNL A   1      32.757  27.985  24.814  1.00  0.00    -0.084 Cl
BRANCH   7  13
ATOM     13  C   UNL A   1      30.682  25.614  24.654  1.00  0.00    -0.013 A 
ATOM     14  C   UNL A   1      31.811  23.476  24.400  1.00  0.00     0.133 A 
ATOM     15  C   UNL A   1      31.302  23.029  25.617  1.00  0.00     0.047 A 
ATOM     16  C   UNL A   1      31.510  24.752  23.917  1.00  0.00     0.056 A 
ATOM     17  C   UNL A   1      30.501  23.880  26.373  1.00  0.00     0.004 A 
ATOM     18  C   UNL A   1      30.193  25.159  25.894  1.00  0.00     0.009 A 
BRANCH  14  19
ATOM     19  O   UNL A   1      32.521  22.537  23.630  1.00  0.00    -0.410 OA
BRANCH  19  20
ATOM     20  C   UNL A   1      33.685  22.941  22.996  1.00  0.00     0.412 C 
ATOM     21  N   UNL A   1      34.802  22.810  23.775  1.00  0.00    -0.321 N 
ATOM     22  H   UNL A   1      35.651  23.102  23.373  1.00  0.00     0.167 HD
ATOM     23  O   UNL A   1      33.767  23.384  21.852  1.00  0.00    -0.224 OA
BRANCH  21  24
ATOM     24  C   UNL A   1      34.872  22.289  25.126  1.00  0.00     0.119 C 
BRANCH  24  25
ATOM     25  C   UNL A   1      36.304  22.276  25.662  1.00  0.00     0.021 C 
BRANCH  25  26
ATOM     26  C   UNL A   1      37.081  23.584  25.463  1.00  0.00     0.002 C 
BRANCH  26  27
ATOM     27  C   UNL A   1      38.031  23.970  26.602  1.00  0.00    -0.000 C 
BRANCH  27  28
ATOM     28  C   UNL A   1      39.493  23.558  26.408  1.00  0.00    -0.003 C 
ATOM     29  C   UNL A   1      39.735  22.072  26.628  1.00  0.00     0.004 C 
ENDBRANCH  27  28
ENDBRANCH  26  27
ENDBRANCH  25  26
ENDBRANCH  24  25
ENDBRANCH  21  24
ENDBRANCH  19  20
ENDBRANCH  14  19
ENDBRANCH   7  13
ENDBRANCH   4   6
ENDBRANCH   2   4
ENDBRANCH   1   2
BRANCH   1  30
ATOM     30  C   UNL A   1      30.273  32.689  25.026  1.00  0.00     0.261 C 
BRANCH  30  31
ATOM     31  C   UNL A   1      31.066  32.011  26.145  1.00  0.00     0.202 C 
BRANCH  31  32
ATOM     32  O   UNL A   1      31.403  32.821  27.271  1.00  0.00    -0.374 OA
BRANCH  32  33
ATOM     33  C   UNL A   1      32.663  33.491  27.250  1.00  0.00     0.202 C 
BRANCH  33  34
ATOM     34  C   UNL A   1      33.717  33.046  28.271  1.00  0.00     0.261 C 
BRANCH  34  35
ATOM     35  O   UNL A   1      34.778  32.278  27.679  1.00  0.00    -0.460 OA
BRANCH  35  36
ATOM     36  C   UNL A   1      34.608  30.935  27.759  1.00  0.00     0.338 C 
ATOM     37  O   UNL A   1      33.623  30.298  27.424  1.00  0.00    -0.246 OA
BRANCH  36  38
ATOM     38  C   UNL A   1      35.877  30.278  28.129  1.00  0.00     0.060 A 
ATOM     39  C   UNL A   1      35.926  29.649  29.380  1.00  0.00     0.016 A 
ATOM     40  C   UNL A   1      37.017  30.346  27.325  1.00  0.00     0.016 A 
ATOM     41  C   UNL A   1      37.130  29.145  29.863  1.00  0.00     0.010 A 
ATOM     42  C   UNL A   1      38.229  29.839  27.814  1.00  0.00     0.010 A 
ATOM     43  C   UNL A   1      38.299  29.276  29.103  1.00  0.00    -0.014 A 
BRANCH  43  44
ATOM     44  C   UNL A   1      39.607  28.971  29.738  1.00  0.00     0.031 A 
ATOM     45  C   UNL A   1      40.022  29.742  30.963  1.00  0.00     0.074 A 
ATOM     46  C   UNL A   1      40.381  27.971  29.275  1.00  0.00     0.049 A 
ATOM     47  N   UNL A   1      41.102  29.623  31.692  1.00  0.00    -0.248 NA
ATOM     48  C   UNL A   1      39.094  30.783  31.431  1.00  0.00     0.031 C 
ATOM     49  C   UNL A   1      40.066  27.124  28.126  1.00  0.00     0.029 A 
ATOM     50  N   UNL A   1      41.588  27.496  29.723  1.00  0.00    -0.354 N 
ATOM     51  C   UNL A   1      40.985  30.572  32.701  1.00  0.00     0.074 A 
ATOM     52  C   UNL A   1      39.747  31.284  32.470  1.00  0.00     0.031 C 
ATOM     53  C   UNL A   1      41.058  26.232  27.958  1.00  0.00     0.029 A 
ATOM     54  C   UNL A   1      42.088  26.461  28.970  1.00  0.00     0.049 A 
ATOM     55  H   UNL A   1      42.053  27.863  30.509  1.00  0.00     0.167 HD
ATOM     56  C   UNL A   1      41.826  30.821  33.735  1.00  0.00     0.037 A 
ATOM     57  C   UNL A   1      43.248  25.784  29.078  1.00  0.00     0.037 A 
ATOM     58  C   UNL A   1      43.058  30.109  33.963  1.00  0.00     0.049 A 
ATOM     59  C   UNL A   1      44.200  26.121  30.198  1.00  0.00     0.074 A 
ATOM     60  C   UNL A   1      43.975  30.282  34.986  1.00  0.00     0.029 A 
ATOM     61  N   UNL A   1      43.548  29.094  33.155  1.00  0.00    -0.354 N 
ATOM     62  N   UNL A   1      44.068  27.011  31.152  1.00  0.00    -0.248 NA
ATOM     63  C   UNL A   1      45.453  25.357  30.258  1.00  0.00     0.031 C 
ATOM     64  C   UNL A   1      45.041  29.402  34.769  1.00  0.00     0.029 A 
ATOM     65  C   UNL A   1      44.765  28.645  33.643  1.00  0.00     0.049 A 
ATOM     66  H   UNL A   1      43.098  28.743  32.353  1.00  0.00     0.167 HD
ATOM     67  C   UNL A   1      45.206  26.892  31.944  1.00  0.00     0.074 A 
ATOM     68  C   UNL A   1      46.011  25.838  31.360  1.00  0.00     0.031 C 
ATOM     69  C   UNL A   1      45.553  27.589  33.056  1.00  0.00     0.037 A 
BRANCH  56  70
ATOM     70  C   UNL A   1      41.452  31.926  34.684  1.00  0.00     0.058 A 
ATOM     71  C   UNL A   1      41.921  33.239  34.515  1.00  0.00     0.135 A 
ATOM     72  C   UNL A   1      40.590  31.674  35.765  1.00  0.00     0.135 A 
ATOM     73  F   UNL A   1      42.759  33.532  33.508  1.00  0.00    -0.206 F 
ATOM     74  C   UNL A   1      41.573  34.255  35.399  1.00  0.00     0.059 A 
ATOM     75  C   UNL A   1      40.207  32.682  36.646  1.00  0.00     0.059 A 
ATOM     76  F   UNL A   1      40.113  30.437  35.975  1.00  0.00    -0.206 F 
ATOM     77  C   UNL A   1      40.717  33.967  36.463  1.00  0.00     0.060 A 
BRANCH  77  78
ATOM     78  S   UNL A   1      40.274  35.296  37.601  1.00  0.00     0.124 S 
ATOM     79  O   UNL A   1      41.342  35.200  38.591  1.00  0.00    -0.237 OA
ATOM     80  O   UNL A   1      40.314  36.473  36.740  1.00  0.00    -0.237 OA
ATOM     81  O   UNL A   1      38.946  34.914  38.072  1.00  0.00    -0.744 OA
ENDBRANCH  77  78
ENDBRANCH  56  70
BRANCH  57  82
ATOM     82  C   UNL A   1      43.579  24.715  28.097  1.00  0.00     0.058 A 
ATOM     83  C   UNL A   1      44.351  24.986  26.958  1.00  0.00     0.135 A 
ATOM     84  C   UNL A   1      43.125  23.399  28.280  1.00  0.00     0.135 A 
ATOM     85  F   UNL A   1      44.798  26.230  26.732  1.00  0.00    -0.206 F 
ATOM     86  C   UNL A   1      44.652  23.995  26.029  1.00  0.00     0.059 A 
ATOM     87  C   UNL A   1      43.434  22.386  27.379  1.00  0.00     0.059 A 
ATOM     88  F   UNL A   1      42.389  23.085  29.359  1.00  0.00    -0.206 F 
ATOM     89  C   UNL A   1      44.191  22.696  26.250  1.00  0.00     0.060 A 
BRANCH  89  90
ATOM     90  S   UNL A   1      44.630  21.405  25.066  1.00  0.00     0.124 S 
ATOM     91  O   UNL A   1      43.554  20.443  25.268  1.00  0.00    -0.237 OA
ATOM     92  O   UNL A   1      44.610  22.132  23.800  1.00  0.00    -0.237 OA
ATOM     93  O   UNL A   1      45.953  20.977  25.512  1.00  0.00    -0.744 OA
ENDBRANCH  89  90
ENDBRANCH  57  82
BRANCH  69  94
ATOM     94  C   UNL A   1      46.838  27.209  33.742  1.00  0.00     0.058 A 
ATOM     95  C   UNL A   1      46.879  26.243  34.758  1.00  0.00     0.135 A 
ATOM     96  C   UNL A   1      48.052  27.793  33.344  1.00  0.00     0.135 A 
ATOM     97  F   UNL A   1      45.747  25.657  35.179  1.00  0.00    -0.206 F 
ATOM     98  C   UNL A   1      48.075  25.888  35.375  1.00  0.00     0.059 A 
ATOM     99  C   UNL A   1      49.263  27.433  33.927  1.00  0.00     0.059 A 
ATOM    100  F   UNL A   1      48.072  28.715  32.367  1.00  0.00    -0.206 F 
ATOM    101  C   UNL A   1      49.262  26.489  34.954  1.00  0.00     0.060 A 
BRANCH 101 102
ATOM    102  S   UNL A   1      50.809  26.004  35.746  1.00  0.00     0.124 S 
ATOM    103  O   UNL A   1      51.723  25.970  34.610  1.00  0.00    -0.237 OA
ATOM    104  O   UNL A   1      51.026  27.088  36.700  1.00  0.00    -0.237 OA
ATOM    105  O   UNL A   1      50.496  24.708  36.340  1.00  0.00    -0.744 OA
ENDBRANCH 101 102
ENDBRANCH  69  94
ENDBRANCH  43  44
ENDBRANCH  36  38
ENDBRANCH  35  36
ENDBRANCH  34  35
ENDBRANCH  33  34
ENDBRANCH  32  33
ENDBRANCH  31  32
ENDBRANCH  30  31
ENDBRANCH   1  30
TORSDOF 26
ENDMDL
MODEL 3
REMARK VINA RESULT:     -10.4      6.004      8.311
REMARK SMILES CCCCCCNC(=O)Oc1cccc(-c2ccc([C@@H](C)C(=O)OCCOCCOC(=O)c3ccc(-c4c5nc(c(-c6c(F)cc(S(=O)(=O)[O-])cc6F)c6ccc([nH]6)c(-c6c(F)cc(S(=O)(=O)[O-])cc6F)c6nc(c(-c7c(F)cc(S(=O)(=O)[O-])cc7F)c7ccc4[nH]7)C=C6)C=C5)cc3)cc2Cl)c1
REMARK SMILES IDX 24 1 22 2 23 3 20 4 21 5 19 6 16 7 17 8 100 9 18 10 99 11
REMARK SMILES IDX 101 12 15 13 11 14 12 15 102 16 13 17 14 18 10 19 8 20 7 21
REMARK SMILES IDX 9 23 6 24 5 25 4 26 3 27 2 28 1 29 25 30 26 31 27 32 28 33
REMARK SMILES IDX 29 34 30 35 31 36 32 37 33 38 34 39 98 40 35 41 97 42 36 43
REMARK SMILES IDX 37 44 38 45 91 46 39 47 96 48 90 49 92 50 40 51 95 52 89 53
REMARK SMILES IDX 88 54 41 56 75 57 54 58 74 59 55 60 58 61 73 62 93 63 56 64
REMARK SMILES IDX 57 65 72 67 94 68 59 69 42 70 43 71 52 72 44 73 45 74 51 75
REMARK SMILES IDX 53 76 46 77 47 78 48 79 49 80 50 81 76 82 77 83 86 84 78 85
REMARK SMILES IDX 79 86 85 87 87 88 80 89 81 90 82 91 83 92 84 93 60 94 61 95
REMARK SMILES IDX 70 96 62 97 63 98 69 99 71 100 64 101 65 102 66 103 67 104
REMARK SMILES IDX 68 105
REMARK H PARENT 7 22 92 55 58 66
REMARK Flexibility Score: inf
ROOT
ATOM      1  O   UNL A   1      31.084  30.008  25.414  1.00  0.00    -0.463 OA
ENDROOT
BRANCH   1   2
ATOM      2  C   UNL A   1      30.383  29.985  24.252  1.00  0.00     0.313 C 
ATOM      3  O   UNL A   1      29.640  30.883  23.868  1.00  0.00    -0.252 OA
BRANCH   2   4
ATOM      4  C   UNL A   1      30.568  28.708  23.447  1.00  0.00     0.126 C 
ATOM      5  C   UNL A   1      29.343  28.481  22.567  1.00  0.00     0.025 C 
BRANCH   4   6
ATOM      6  C   UNL A   1      30.983  27.440  24.189  1.00  0.00    -0.033 A 
ATOM      7  C   UNL A   1      31.812  24.966  25.373  1.00  0.00     0.000 A 
ATOM      8  C   UNL A   1      30.509  25.472  25.549  1.00  0.00     0.010 A 
ATOM      9  C   UNL A   1      32.700  25.742  24.605  1.00  0.00     0.049 A 
ATOM     10  C   UNL A   1      30.099  26.682  24.965  1.00  0.00     0.005 A 
ATOM     11  C   UNL A   1      32.293  26.957  24.034  1.00  0.00     0.025 A 
ATOM     12  Cl  UNL A   1      34.319  25.227  24.252  1.00  0.00    -0.084 Cl
BRANCH   7  13
ATOM     13  C   UNL A   1      32.173  23.652  25.946  1.00  0.00    -0.013 A 
ATOM     14  C   UNL A   1      32.314  21.229  25.798  1.00  0.00     0.133 A 
ATOM     15  C   UNL A   1      32.757  21.145  27.116  1.00  0.00     0.047 A 
ATOM     16  C   UNL A   1      32.024  22.464  25.212  1.00  0.00     0.056 A 
ATOM     17  C   UNL A   1      32.936  22.315  27.849  1.00  0.00     0.004 A 
ATOM     18  C   UNL A   1      32.645  23.555  27.269  1.00  0.00     0.009 A 
BRANCH  14  19
ATOM     19  O   UNL A   1      32.047  20.013  25.143  1.00  0.00    -0.410 OA
BRANCH  19  20
ATOM     20  C   UNL A   1      32.845  18.917  25.426  1.00  0.00     0.412 C 
ATOM     21  N   UNL A   1      34.145  19.076  25.034  1.00  0.00    -0.321 N 
ATOM     22  H   UNL A   1      34.748  18.316  25.198  1.00  0.00     0.167 HD
ATOM     23  O   UNL A   1      32.477  17.878  25.970  1.00  0.00    -0.224 OA
BRANCH  21  24
ATOM     24  C   UNL A   1      34.734  20.241  24.403  1.00  0.00     0.119 C 
BRANCH  24  25
ATOM     25  C   UNL A   1      35.739  20.943  25.318  1.00  0.00     0.021 C 
BRANCH  25  26
ATOM     26  C   UNL A   1      37.212  20.722  24.951  1.00  0.00     0.002 C 
BRANCH  26  27
ATOM     27  C   UNL A   1      38.149  21.903  25.228  1.00  0.00    -0.000 C 
BRANCH  27  28
ATOM     28  C   UNL A   1      37.568  23.012  26.109  1.00  0.00    -0.003 C 
ATOM     29  C   UNL A   1      38.518  24.183  26.309  1.00  0.00     0.004 C 
ENDBRANCH  27  28
ENDBRANCH  26  27
ENDBRANCH  25  26
ENDBRANCH  24  25
ENDBRANCH  21  24
ENDBRANCH  19  20
ENDBRANCH  14  19
ENDBRANCH   7  13
ENDBRANCH   4   6
ENDBRANCH   2   4
ENDBRANCH   1   2
BRANCH   1  30
ATOM     30  C   UNL A   1      32.513  30.126  25.285  1.00  0.00     0.261 C 
BRANCH  30  31
ATOM     31  C   UNL A   1      33.224  29.800  26.599  1.00  0.00     0.202 C 
BRANCH  31  32
ATOM     32  O   UNL A   1      33.283  30.845  27.571  1.00  0.00    -0.374 OA
BRANCH  32  33
ATOM     33  C   UNL A   1      34.531  31.515  27.745  1.00  0.00     0.202 C 
BRANCH  33  34
ATOM     34  C   UNL A   1      35.218  31.386  29.109  1.00  0.00     0.261 C 
BRANCH  34  35
ATOM     35  O   UNL A   1      35.816  30.094  29.313  1.00  0.00    -0.460 OA
BRANCH  35  36
ATOM     36  C   UNL A   1      36.616  30.014  30.405  1.00  0.00     0.338 C 
ATOM     37  O   UNL A   1      36.267  29.827  31.559  1.00  0.00    -0.246 OA
BRANCH  36  38
ATOM     38  C   UNL A   1      38.035  29.983  30.000  1.00  0.00     0.060 A 
ATOM     39  C   UNL A   1      38.303  29.822  28.635  1.00  0.00     0.016 A 
ATOM     40  C   UNL A   1      39.079  30.021  30.928  1.00  0.00     0.016 A 
ATOM     41  C   UNL A   1      39.609  29.628  28.196  1.00  0.00     0.010 A 
ATOM     42  C   UNL A   1      40.394  29.823  30.483  1.00  0.00     0.010 A 
ATOM     43  C   UNL A   1      40.659  29.583  29.122  1.00  0.00    -0.014 A 
BRANCH  43  44
ATOM     44  C   UNL A   1      41.997  29.121  28.670  1.00  0.00     0.031 A 
ATOM     45  C   UNL A   1      43.146  30.095  28.672  1.00  0.00     0.074 A 
ATOM     46  C   UNL A   1      42.203  27.834  28.332  1.00  0.00     0.049 A 
ATOM     47  N   UNL A   1      44.398  29.902  28.346  1.00  0.00    -0.248 NA
ATOM     48  C   UNL A   1      42.843  31.469  29.104  1.00  0.00     0.031 C 
ATOM     49  C   UNL A   1      41.183  26.787  28.333  1.00  0.00     0.029 A 
ATOM     50  N   UNL A   1      43.346  27.190  27.929  1.00  0.00    -0.354 N 
ATOM     51  C   UNL A   1      45.031  31.126  28.531  1.00  0.00     0.074 A 
ATOM     52  C   UNL A   1      44.018  32.064  28.962  1.00  0.00     0.031 C 
ATOM     53  C   UNL A   1      41.746  25.629  27.948  1.00  0.00     0.029 A 
ATOM     54  C   UNL A   1      43.159  25.858  27.648  1.00  0.00     0.049 A 
ATOM     55  H   UNL A   1      44.218  27.639  27.848  1.00  0.00     0.167 HD
ATOM     56  C   UNL A   1      46.340  31.438  28.368  1.00  0.00     0.037 A 
ATOM     57  C   UNL A   1      44.025  24.932  27.191  1.00  0.00     0.037 A 
ATOM     58  C   UNL A   1      47.347  30.500  27.940  1.00  0.00     0.049 A 
ATOM     59  C   UNL A   1      45.463  25.317  26.954  1.00  0.00     0.074 A 
ATOM     60  C   UNL A   1      48.701  30.718  27.751  1.00  0.00     0.029 A 
ATOM     61  N   UNL A   1      47.109  29.170  27.626  1.00  0.00    -0.354 N 
ATOM     62  N   UNL A   1      46.049  26.475  27.147  1.00  0.00    -0.248 NA
ATOM     63  C   UNL A   1      46.357  24.269  26.445  1.00  0.00     0.031 C 
ATOM     64  C   UNL A   1      49.273  29.530  27.281  1.00  0.00     0.029 A 
ATOM     65  C   UNL A   1      48.287  28.559  27.226  1.00  0.00     0.049 A 
ATOM     66  H   UNL A   1      46.232  28.725  27.681  1.00  0.00     0.167 HD
ATOM     67  C   UNL A   1      47.387  26.285  26.813  1.00  0.00     0.074 A 
ATOM     68  C   UNL A   1      47.523  24.899  26.414  1.00  0.00     0.031 C 
ATOM     69  C   UNL A   1      48.410  27.175  26.838  1.00  0.00     0.037 A 
BRANCH  56  70
ATOM     70  C   UNL A   1      46.753  32.860  28.632  1.00  0.00     0.058 A 
ATOM     71  C   UNL A   1      46.757  33.831  27.617  1.00  0.00     0.135 A 
ATOM     72  C   UNL A   1      47.124  33.265  29.925  1.00  0.00     0.135 A 
ATOM     73  F   UNL A   1      46.427  33.495  26.359  1.00  0.00    -0.206 F 
ATOM     74  C   UNL A   1      47.144  35.144  27.868  1.00  0.00     0.059 A 
ATOM     75  C   UNL A   1      47.487  34.580  30.204  1.00  0.00     0.059 A 
ATOM     76  F   UNL A   1      47.138  32.378  30.932  1.00  0.00    -0.206 F 
ATOM     77  C   UNL A   1      47.509  35.509  29.164  1.00  0.00     0.060 A 
BRANCH  77  78
ATOM     78  S   UNL A   1      48.007  37.216  29.475  1.00  0.00     0.124 S 
ATOM     79  O   UNL A   1      47.933  37.790  28.135  1.00  0.00    -0.237 OA
ATOM     80  O   UNL A   1      46.989  37.673  30.416  1.00  0.00    -0.237 OA
ATOM     81  O   UNL A   1      49.352  37.084  30.028  1.00  0.00    -0.744 OA
ENDBRANCH  77  78
ENDBRANCH  56  70
BRANCH  57  82
ATOM     82  C   UNL A   1      43.557  23.544  26.924  1.00  0.00     0.058 A 
ATOM     83  C   UNL A   1      43.301  22.649  27.972  1.00  0.00     0.135 A 
ATOM     84  C   UNL A   1      43.357  23.088  25.611  1.00  0.00     0.135 A 
ATOM     85  F   UNL A   1      43.487  23.033  29.243  1.00  0.00    -0.206 F 
ATOM     86  C   UNL A   1      42.876  21.345  27.729  1.00  0.00     0.059 A 
ATOM     87  C   UNL A   1      42.909  21.799  25.344  1.00  0.00     0.059 A 
ATOM     88  F   UNL A   1      43.580  23.909  24.572  1.00  0.00    -0.206 F 
ATOM     89  C   UNL A   1      42.680  20.931  26.411  1.00  0.00     0.060 A 
BRANCH  89  90
ATOM     90  S   UNL A   1      42.080  19.255  26.108  1.00  0.00     0.124 S 
ATOM     91  O   UNL A   1      40.648  19.480  25.950  1.00  0.00    -0.237 OA
ATOM     92  O   UNL A   1      42.807  18.884  24.898  1.00  0.00    -0.237 OA
ATOM     93  O   UNL A   1      42.477  18.534  27.314  1.00  0.00    -0.744 OA
ENDBRANCH  89  90
ENDBRANCH  57  82
BRANCH  69  94
ATOM     94  C   UNL A   1      49.778  26.673  26.462  1.00  0.00     0.058 A 
ATOM     95  C   UNL A   1      50.655  26.129  27.412  1.00  0.00     0.135 A 
ATOM     96  C   UNL A   1      50.199  26.698  25.123  1.00  0.00     0.135 A 
ATOM     97  F   UNL A   1      50.305  26.084  28.708  1.00  0.00    -0.206 F 
ATOM     98  C   UNL A   1      51.912  25.652  27.053  1.00  0.00     0.059 A 
ATOM     99  C   UNL A   1      51.440  26.201  24.736  1.00  0.00     0.059 A 
ATOM    100  F   UNL A   1      49.394  27.197  24.170  1.00  0.00    -0.206 F 
ATOM    101  C   UNL A   1      52.297  25.694  25.711  1.00  0.00     0.060 A 
BRANCH 101 102
ATOM    102  S   UNL A   1      53.920  25.053  25.253  1.00  0.00     0.124 S 
ATOM    103  O   UNL A   1      54.672  25.247  26.488  1.00  0.00    -0.237 OA
ATOM    104  O   UNL A   1      53.623  23.666  24.905  1.00  0.00    -0.237 OA
ATOM    105  O   UNL A   1      54.319  25.902  24.134  1.00  0.00    -0.744 OA
ENDBRANCH 101 102
ENDBRANCH  69  94
ENDBRANCH  43  44
ENDBRANCH  36  38
ENDBRANCH  35  36
ENDBRANCH  34  35
ENDBRANCH  33  34
ENDBRANCH  32  33
ENDBRANCH  31  32
ENDBRANCH  30  31
ENDBRANCH   1  30
TORSDOF 26
ENDMDL
