MODEL 1
REMARK VINA RESULT:     -10.5      0.000      0.000
REMARK SMILES O=C(CCn1ccnc1)N[C@H]1C=C[C@H](C(=O)OCCOCCOC(=O)c2ccc(-c3c4nc(c(-c5c(F)cc(S(=O)(=O)[O-])cc5F)c5ccc([nH]5)c(-c5c(F)cc(S(=O)(=O)[O-])cc5F)c5nc(c(-c6c(F)cc(S(=O)(=O)[O-])cc6F)c6ccc3[nH]6)C=C5)C=C4)cc2)C1
REMARK SMILES IDX 19 1 18 2 17 3 15 4 16 5 14 6 11 7 12 8 92 9 13 10 10 11
REMARK SMILES IDX 1 12 2 13 3 15 4 16 5 17 6 18 9 19 7 20 8 21 20 22 21 23
REMARK SMILES IDX 22 24 23 25 24 26 25 27 26 28 27 29 91 30 28 31 90 32 29 33
REMARK SMILES IDX 30 34 31 35 84 36 32 37 89 38 83 39 85 40 33 41 88 42 82 43
REMARK SMILES IDX 81 44 34 46 68 47 47 48 67 49 48 50 51 51 66 52 86 53 49 54
REMARK SMILES IDX 50 55 65 57 87 58 52 59 35 60 36 61 45 62 37 63 38 64 44 65
REMARK SMILES IDX 46 66 39 67 40 68 41 69 42 70 43 71 69 72 70 73 79 74 71 75
REMARK SMILES IDX 72 76 78 77 80 78 73 79 74 80 75 81 76 82 77 83 53 84 54 85
REMARK SMILES IDX 63 86 55 87 56 88 62 89 64 90 57 91 58 92 59 93 60 94 61 95
REMARK H PARENT 10 14 85 45 51 56
REMARK Flexibility Score: inf
ROOT
ATOM      1  C   UNL A   1      39.764  22.035  26.506  1.00  0.00     0.202 C 
ENDROOT
BRANCH   1   2
ATOM      2  C   UNL A   1      38.723  21.225  25.734  1.00  0.00     0.261 C 
BRANCH   2   3
ATOM      3  O   UNL A   1      37.568  21.995  25.357  1.00  0.00    -0.463 OA
BRANCH   3   4
ATOM      4  C   UNL A   1      36.410  21.281  25.294  1.00  0.00     0.312 C 
ATOM      5  O   UNL A   1      36.350  20.101  24.961  1.00  0.00    -0.252 OA
BRANCH   4   6
ATOM      6  C   UNL A   1      35.182  22.137  25.607  1.00  0.00     0.124 C 
ATOM      7  C   UNL A   1      34.220  23.432  23.725  1.00  0.00     0.106 C 
ATOM      8  C   UNL A   1      35.147  24.253  24.566  1.00  0.00    -0.006 C 
ATOM      9  C   UNL A   1      34.042  22.157  24.574  1.00  0.00     0.048 C 
ATOM     10  C   UNL A   1      35.618  23.575  25.615  1.00  0.00    -0.014 C 
BRANCH   7  11
ATOM     11  N   UNL A   1      33.070  24.276  23.483  1.00  0.00    -0.350 N 
ATOM     12  O   UNL A   1      33.816  25.532  21.719  1.00  0.00    -0.275 OA
ATOM     13  C   UNL A   1      32.923  25.218  22.499  1.00  0.00     0.222 C 
ATOM     14  H   UNL A   1      32.307  24.162  24.094  1.00  0.00     0.164 HD
BRANCH  13  15
ATOM     15  C   UNL A   1      31.561  25.893  22.450  1.00  0.00     0.122 C 
BRANCH  15  16
ATOM     16  C   UNL A   1      31.517  27.266  23.127  1.00  0.00     0.133 C 
BRANCH  16  17
ATOM     17  N   UNL A   1      31.528  27.208  24.578  1.00  0.00    -0.337 N 
ATOM     18  C   UNL A   1      32.526  27.656  25.400  1.00  0.00     0.107 A 
ATOM     19  C   UNL A   1      30.594  26.593  25.363  1.00  0.00     0.199 A 
ATOM     20  C   UNL A   1      32.180  27.212  26.655  1.00  0.00     0.130 A 
ATOM     21  N   UNL A   1      30.981  26.548  26.619  1.00  0.00    -0.245 NA
ENDBRANCH  16  17
ENDBRANCH  15  16
ENDBRANCH  13  15
ENDBRANCH   7  11
ENDBRANCH   4   6
ENDBRANCH   3   4
ENDBRANCH   2   3
ENDBRANCH   1   2
BRANCH   1  22
ATOM     22  O   UNL A   1      40.401  21.417  27.623  1.00  0.00    -0.374 OA
BRANCH  22  23
ATOM     23  C   UNL A   1      41.732  20.929  27.483  1.00  0.00     0.202 C 
BRANCH  23  24
ATOM     24  C   UNL A   1      42.160  20.408  26.120  1.00  0.00     0.261 C 
BRANCH  24  25
ATOM     25  O   UNL A   1      43.573  20.300  26.040  1.00  0.00    -0.460 OA
BRANCH  25  26
ATOM     26  C   UNL A   1      44.106  20.730  24.871  1.00  0.00     0.338 C 
ATOM     27  O   UNL A   1      44.384  20.064  23.898  1.00  0.00    -0.246 OA
BRANCH  26  28
ATOM     28  C   UNL A   1      44.428  22.154  25.027  1.00  0.00     0.060 A 
ATOM     29  C   UNL A   1      45.311  22.450  26.063  1.00  0.00     0.016 A 
ATOM     30  C   UNL A   1      43.607  23.124  24.432  1.00  0.00     0.016 A 
ATOM     31  C   UNL A   1      45.152  23.650  26.708  1.00  0.00     0.010 A 
ATOM     32  C   UNL A   1      43.439  24.316  25.087  1.00  0.00     0.010 A 
ATOM     33  C   UNL A   1      44.137  24.510  26.274  1.00  0.00    -0.014 A 
BRANCH  33  34
ATOM     34  C   UNL A   1      43.896  25.705  27.046  1.00  0.00     0.031 A 
ATOM     35  C   UNL A   1      44.955  26.708  26.819  1.00  0.00     0.074 A 
ATOM     36  C   UNL A   1      42.788  25.868  27.792  1.00  0.00     0.049 A 
ATOM     37  N   UNL A   1      45.894  27.051  27.634  1.00  0.00    -0.248 NA
ATOM     38  C   UNL A   1      45.151  27.188  25.440  1.00  0.00     0.031 C 
ATOM     39  C   UNL A   1      41.602  25.010  27.866  1.00  0.00     0.029 A 
ATOM     40  N   UNL A   1      42.450  26.920  28.583  1.00  0.00    -0.354 N 
ATOM     41  C   UNL A   1      46.633  28.004  26.947  1.00  0.00     0.074 A 
ATOM     42  C   UNL A   1      46.302  27.849  25.557  1.00  0.00     0.031 C 
ATOM     43  C   UNL A   1      40.597  25.692  28.463  1.00  0.00     0.029 A 
ATOM     44  C   UNL A   1      41.100  26.975  28.919  1.00  0.00     0.049 A 
ATOM     45  H   UNL A   1      43.106  27.586  28.892  1.00  0.00     0.167 HD
ATOM     46  C   UNL A   1      47.200  29.047  27.608  1.00  0.00     0.037 A 
ATOM     47  C   UNL A   1      40.466  28.062  29.436  1.00  0.00     0.037 A 
ATOM     48  C   UNL A   1      47.311  28.766  29.020  1.00  0.00     0.049 A 
ATOM     49  C   UNL A   1      41.525  28.929  30.032  1.00  0.00     0.074 A 
ATOM     50  C   UNL A   1      47.931  27.774  29.757  1.00  0.00     0.029 A 
ATOM     51  N   UNL A   1      46.381  29.335  29.859  1.00  0.00    -0.354 N 
ATOM     52  N   UNL A   1      42.236  28.579  31.072  1.00  0.00    -0.248 NA
ATOM     53  C   UNL A   1      42.141  29.928  29.168  1.00  0.00     0.031 C 
ATOM     54  C   UNL A   1      47.025  27.481  30.818  1.00  0.00     0.029 A 
ATOM     55  C   UNL A   1      45.946  28.359  30.721  1.00  0.00     0.049 A 
ATOM     56  H   UNL A   1      46.082  30.272  29.843  1.00  0.00     0.167 HD
ATOM     57  C   UNL A   1      43.533  28.975  30.769  1.00  0.00     0.074 A 
ATOM     58  C   UNL A   1      43.401  29.853  29.607  1.00  0.00     0.031 C 
ATOM     59  C   UNL A   1      44.616  28.324  31.291  1.00  0.00     0.037 A 
BRANCH  46  60
ATOM     60  C   UNL A   1      47.252  30.446  27.048  1.00  0.00     0.058 A 
ATOM     61  C   UNL A   1      48.466  31.158  27.104  1.00  0.00     0.135 A 
ATOM     62  C   UNL A   1      46.110  31.216  26.719  1.00  0.00     0.135 A 
ATOM     63  F   UNL A   1      49.610  30.530  27.416  1.00  0.00    -0.206 F 
ATOM     64  C   UNL A   1      48.527  32.539  26.924  1.00  0.00     0.059 A 
ATOM     65  C   UNL A   1      46.160  32.581  26.478  1.00  0.00     0.059 A 
ATOM     66  F   UNL A   1      44.871  30.712  26.709  1.00  0.00    -0.206 F 
ATOM     67  C   UNL A   1      47.364  33.241  26.625  1.00  0.00     0.060 A 
BRANCH  67  68
ATOM     68  S   UNL A   1      47.417  35.034  26.490  1.00  0.00     0.124 S 
ATOM     69  O   UNL A   1      48.169  35.209  25.253  1.00  0.00    -0.237 OA
ATOM     70  O   UNL A   1      45.999  35.372  26.434  1.00  0.00    -0.237 OA
ATOM     71  O   UNL A   1      48.105  35.443  27.712  1.00  0.00    -0.744 OA
ENDBRANCH  67  68
ENDBRANCH  46  60
BRANCH  47  72
ATOM     72  C   UNL A   1      39.107  28.569  29.085  1.00  0.00     0.058 A 
ATOM     73  C   UNL A   1      38.093  28.691  30.053  1.00  0.00     0.135 A 
ATOM     74  C   UNL A   1      38.855  29.202  27.851  1.00  0.00     0.135 A 
ATOM     75  F   UNL A   1      38.252  28.143  31.268  1.00  0.00    -0.206 F 
ATOM     76  C   UNL A   1      36.922  29.431  29.826  1.00  0.00     0.059 A 
ATOM     77  C   UNL A   1      37.695  29.935  27.598  1.00  0.00     0.059 A 
ATOM     78  F   UNL A   1      39.771  29.208  26.872  1.00  0.00    -0.206 F 
ATOM     79  C   UNL A   1      36.742  30.067  28.599  1.00  0.00     0.060 A 
BRANCH  79  80
ATOM     80  S   UNL A   1      35.324  31.162  28.349  1.00  0.00     0.124 S 
ATOM     81  O   UNL A   1      34.976  31.525  29.719  1.00  0.00    -0.237 OA
ATOM     82  O   UNL A   1      35.894  32.227  27.531  1.00  0.00    -0.237 OA
ATOM     83  O   UNL A   1      34.352  30.310  27.667  1.00  0.00    -0.744 OA
ENDBRANCH  79  80
ENDBRANCH  47  72
BRANCH  59  84
ATOM     84  C   UNL A   1      44.391  27.336  32.409  1.00  0.00     0.058 A 
ATOM     85  C   UNL A   1      44.204  25.952  32.229  1.00  0.00     0.135 A 
ATOM     86  C   UNL A   1      44.541  27.793  33.726  1.00  0.00     0.135 A 
ATOM     87  F   UNL A   1      44.159  25.419  31.001  1.00  0.00    -0.206 F 
ATOM     88  C   UNL A   1      44.126  25.073  33.312  1.00  0.00     0.059 A 
ATOM     89  C   UNL A   1      44.499  26.932  34.819  1.00  0.00     0.059 A 
ATOM     90  F   UNL A   1      44.788  29.092  33.963  1.00  0.00    -0.206 F 
ATOM     91  C   UNL A   1      44.277  25.573  34.605  1.00  0.00     0.060 A 
BRANCH  91  92
ATOM     92  S   UNL A   1      44.241  24.433  36.006  1.00  0.00     0.124 S 
ATOM     93  O   UNL A   1      44.032  25.337  37.132  1.00  0.00    -0.237 OA
ATOM     94  O   UNL A   1      43.119  23.560  35.676  1.00  0.00    -0.237 OA
ATOM     95  O   UNL A   1      45.553  23.791  35.958  1.00  0.00    -0.744 OA
ENDBRANCH  91  92
ENDBRANCH  59  84
ENDBRANCH  33  34
ENDBRANCH  26  28
ENDBRANCH  25  26
ENDBRANCH  24  25
ENDBRANCH  23  24
ENDBRANCH  22  23
ENDBRANCH   1  22
TORSDOF 21
ENDMDL
MODEL 2
REMARK VINA RESULT:     -10.4      3.002      9.611
REMARK SMILES O=C(CCn1ccnc1)N[C@H]1C=C[C@H](C(=O)OCCOCCOC(=O)c2ccc(-c3c4nc(c(-c5c(F)cc(S(=O)(=O)[O-])cc5F)c5ccc([nH]5)c(-c5c(F)cc(S(=O)(=O)[O-])cc5F)c5nc(c(-c6c(F)cc(S(=O)(=O)[O-])cc6F)c6ccc3[nH]6)C=C5)C=C4)cc2)C1
REMARK SMILES IDX 19 1 18 2 17 3 15 4 16 5 14 6 11 7 12 8 92 9 13 10 10 11
REMARK SMILES IDX 1 12 2 13 3 15 4 16 5 17 6 18 9 19 7 20 8 21 20 22 21 23
REMARK SMILES IDX 22 24 23 25 24 26 25 27 26 28 27 29 91 30 28 31 90 32 29 33
REMARK SMILES IDX 30 34 31 35 84 36 32 37 89 38 83 39 85 40 33 41 88 42 82 43
REMARK SMILES IDX 81 44 34 46 68 47 47 48 67 49 48 50 51 51 66 52 86 53 49 54
REMARK SMILES IDX 50 55 65 57 87 58 52 59 35 60 36 61 45 62 37 63 38 64 44 65
REMARK SMILES IDX 46 66 39 67 40 68 41 69 42 70 43 71 69 72 70 73 79 74 71 75
REMARK SMILES IDX 72 76 78 77 80 78 73 79 74 80 75 81 76 82 77 83 53 84 54 85
REMARK SMILES IDX 63 86 55 87 56 88 62 89 64 90 57 91 58 92 59 93 60 94 61 95
REMARK H PARENT 10 14 85 45 51 56
REMARK Flexibility Score: inf
ROOT
ATOM      1  C   UNL A   1      31.063  29.382  24.426  1.00  0.00     0.202 C 
ENDROOT
BRANCH   1   2
ATOM      2  C   UNL A   1      31.158  28.657  23.084  1.00  0.00     0.261 C 
BRANCH   2   3
ATOM      3  O   UNL A   1      30.147  27.650  22.908  1.00  0.00    -0.463 OA
BRANCH   3   4
ATOM      4  C   UNL A   1      30.244  26.597  23.766  1.00  0.00     0.312 C 
ATOM      5  O   UNL A   1      29.395  26.317  24.607  1.00  0.00    -0.252 OA
BRANCH   4   6
ATOM      6  C   UNL A   1      31.569  25.848  23.618  1.00  0.00     0.124 C 
ATOM      7  C   UNL A   1      31.567  23.450  24.246  1.00  0.00     0.106 C 
ATOM      8  C   UNL A   1      32.059  24.329  25.354  1.00  0.00    -0.006 C 
ATOM      9  C   UNL A   1      31.523  24.419  23.048  1.00  0.00     0.048 C 
ATOM     10  C   UNL A   1      32.118  25.614  24.996  1.00  0.00    -0.014 C 
BRANCH   7  11
ATOM     11  N   UNL A   1      32.485  22.331  24.207  1.00  0.00    -0.350 N 
ATOM     12  O   UNL A   1      31.423  20.848  25.592  1.00  0.00    -0.275 OA
ATOM     13  C   UNL A   1      32.343  21.118  24.828  1.00  0.00     0.222 C 
ATOM     14  H   UNL A   1      33.303  22.455  23.674  1.00  0.00     0.164 HD
BRANCH  13  15
ATOM     15  C   UNL A   1      33.443  20.110  24.532  1.00  0.00     0.122 C 
BRANCH  15  16
ATOM     16  C   UNL A   1      33.019  18.974  23.597  1.00  0.00     0.133 C 
BRANCH  16  17
ATOM     17  N   UNL A   1      33.016  17.664  24.225  1.00  0.00    -0.337 N 
ATOM     18  C   UNL A   1      32.550  17.364  25.475  1.00  0.00     0.107 A 
ATOM     19  C   UNL A   1      33.585  16.531  23.715  1.00  0.00     0.199 A 
ATOM     20  C   UNL A   1      32.937  16.063  25.696  1.00  0.00     0.130 A 
ATOM     21  N   UNL A   1      33.584  15.558  24.599  1.00  0.00    -0.245 NA
ENDBRANCH  16  17
ENDBRANCH  15  16
ENDBRANCH  13  15
ENDBRANCH   7  11
ENDBRANCH   4   6
ENDBRANCH   3   4
ENDBRANCH   2   3
ENDBRANCH   1   2
BRANCH   1  22
ATOM     22  O   UNL A   1      32.276  29.700  25.105  1.00  0.00    -0.374 OA
BRANCH  22  23
ATOM     23  C   UNL A   1      32.289  29.733  26.529  1.00  0.00     0.202 C 
BRANCH  23  24
ATOM     24  C   UNL A   1      33.055  30.858  27.208  1.00  0.00     0.261 C 
BRANCH  24  25
ATOM     25  O   UNL A   1      34.447  30.587  27.220  1.00  0.00    -0.460 OA
BRANCH  25  26
ATOM     26  C   UNL A   1      35.203  31.547  27.805  1.00  0.00     0.338 C 
ATOM     27  O   UNL A   1      35.199  32.735  27.568  1.00  0.00    -0.246 OA
BRANCH  26  28
ATOM     28  C   UNL A   1      36.152  30.880  28.704  1.00  0.00     0.060 A 
ATOM     29  C   UNL A   1      37.063  31.726  29.336  1.00  0.00     0.016 A 
ATOM     30  C   UNL A   1      36.349  29.494  28.608  1.00  0.00     0.016 A 
ATOM     31  C   UNL A   1      38.313  31.228  29.600  1.00  0.00     0.010 A 
ATOM     32  C   UNL A   1      37.603  29.002  28.859  1.00  0.00     0.010 A 
ATOM     33  C   UNL A   1      38.589  29.903  29.248  1.00  0.00    -0.014 A 
BRANCH  33  34
ATOM     34  C   UNL A   1      39.945  29.436  29.409  1.00  0.00     0.031 A 
ATOM     35  C   UNL A   1      40.291  29.288  30.837  1.00  0.00     0.074 A 
ATOM     36  C   UNL A   1      40.722  29.107  28.360  1.00  0.00     0.049 A 
ATOM     37  N   UNL A   1      41.068  30.046  31.534  1.00  0.00    -0.248 NA
ATOM     38  C   UNL A   1      39.478  28.358  31.640  1.00  0.00     0.031 C 
ATOM     39  C   UNL A   1      40.354  29.009  26.946  1.00  0.00     0.029 A 
ATOM     40  N   UNL A   1      42.014  28.685  28.367  1.00  0.00    -0.354 N 
ATOM     41  C   UNL A   1      41.046  29.500  32.811  1.00  0.00     0.074 A 
ATOM     42  C   UNL A   1      39.881  28.661  32.873  1.00  0.00     0.031 C 
ATOM     43  C   UNL A   1      41.321  28.336  26.280  1.00  0.00     0.029 A 
ATOM     44  C   UNL A   1      42.421  28.066  27.188  1.00  0.00     0.049 A 
ATOM     45  H   UNL A   1      42.611  28.808  29.140  1.00  0.00     0.167 HD
ATOM     46  C   UNL A   1      42.157  29.527  33.592  1.00  0.00     0.037 A 
ATOM     47  C   UNL A   1      43.541  27.306  27.049  1.00  0.00     0.037 A 
ATOM     48  C   UNL A   1      43.092  30.524  33.129  1.00  0.00     0.049 A 
ATOM     49  C   UNL A   1      44.454  27.687  28.168  1.00  0.00     0.074 A 
ATOM     50  C   UNL A   1      43.021  31.891  32.934  1.00  0.00     0.029 A 
ATOM     51  N   UNL A   1      44.175  30.094  32.399  1.00  0.00    -0.354 N 
ATOM     52  N   UNL A   1      45.005  28.868  28.272  1.00  0.00    -0.248 NA
ATOM     53  C   UNL A   1      44.331  26.948  29.418  1.00  0.00     0.031 C 
ATOM     54  C   UNL A   1      43.753  32.131  31.734  1.00  0.00     0.029 A 
ATOM     55  C   UNL A   1      44.297  30.920  31.309  1.00  0.00     0.049 A 
ATOM     56  H   UNL A   1      44.756  29.331  32.618  1.00  0.00     0.167 HD
ATOM     57  C   UNL A   1      44.903  29.194  29.619  1.00  0.00     0.074 A 
ATOM     58  C   UNL A   1      44.531  27.946  30.284  1.00  0.00     0.031 C 
ATOM     59  C   UNL A   1      44.833  30.494  30.034  1.00  0.00     0.037 A 
BRANCH  46  60
ATOM     60  C   UNL A   1      42.561  28.382  34.487  1.00  0.00     0.058 A 
ATOM     61  C   UNL A   1      42.738  28.622  35.863  1.00  0.00     0.135 A 
ATOM     62  C   UNL A   1      43.053  27.140  34.019  1.00  0.00     0.135 A 
ATOM     63  F   UNL A   1      42.318  29.772  36.414  1.00  0.00    -0.206 F 
ATOM     64  C   UNL A   1      43.417  27.732  36.693  1.00  0.00     0.059 A 
ATOM     65  C   UNL A   1      43.680  26.215  34.840  1.00  0.00     0.059 A 
ATOM     66  F   UNL A   1      43.044  26.793  32.727  1.00  0.00    -0.206 F 
ATOM     67  C   UNL A   1      43.897  26.537  36.165  1.00  0.00     0.060 A 
BRANCH  67  68
ATOM     68  S   UNL A   1      44.861  25.430  37.204  1.00  0.00     0.124 S 
ATOM     69  O   UNL A   1      46.215  25.695  36.732  1.00  0.00    -0.237 OA
ATOM     70  O   UNL A   1      44.539  25.918  38.541  1.00  0.00    -0.237 OA
ATOM     71  O   UNL A   1      44.325  24.111  36.879  1.00  0.00    -0.744 OA
ENDBRANCH  67  68
ENDBRANCH  46  60
BRANCH  47  72
ATOM     72  C   UNL A   1      43.681  26.031  26.288  1.00  0.00     0.058 A 
ATOM     73  C   UNL A   1      44.789  25.788  25.453  1.00  0.00     0.135 A 
ATOM     74  C   UNL A   1      42.872  24.912  26.573  1.00  0.00     0.135 A 
ATOM     75  F   UNL A   1      45.632  26.786  25.146  1.00  0.00    -0.206 F 
ATOM     76  C   UNL A   1      45.098  24.508  24.968  1.00  0.00     0.059 A 
ATOM     77  C   UNL A   1      43.154  23.633  26.094  1.00  0.00     0.059 A 
ATOM     78  F   UNL A   1      41.825  25.005  27.404  1.00  0.00    -0.206 F 
ATOM     79  C   UNL A   1      44.283  23.431  25.312  1.00  0.00     0.060 A 
BRANCH  79  80
ATOM     80  S   UNL A   1      44.759  21.750  24.839  1.00  0.00     0.124 S 
ATOM     81  O   UNL A   1      46.146  21.691  25.288  1.00  0.00    -0.237 OA
ATOM     82  O   UNL A   1      43.809  20.936  25.588  1.00  0.00    -0.237 OA
ATOM     83  O   UNL A   1      44.576  21.741  23.389  1.00  0.00    -0.744 OA
ENDBRANCH  79  80
ENDBRANCH  47  72
BRANCH  59  84
ATOM     84  C   UNL A   1      45.133  31.584  29.034  1.00  0.00     0.058 A 
ATOM     85  C   UNL A   1      46.427  32.017  28.685  1.00  0.00     0.135 A 
ATOM     86  C   UNL A   1      44.067  32.091  28.279  1.00  0.00     0.135 A 
ATOM     87  F   UNL A   1      47.509  31.501  29.284  1.00  0.00    -0.206 F 
ATOM     88  C   UNL A   1      46.642  32.942  27.661  1.00  0.00     0.059 A 
ATOM     89  C   UNL A   1      44.259  32.989  27.233  1.00  0.00     0.059 A 
ATOM     90  F   UNL A   1      42.814  31.669  28.518  1.00  0.00    -0.206 F 
ATOM     91  C   UNL A   1      45.550  33.422  26.938  1.00  0.00     0.060 A 
BRANCH  91  92
ATOM     92  S   UNL A   1      45.827  34.570  25.572  1.00  0.00     0.124 S 
ATOM     93  O   UNL A   1      44.921  34.056  24.550  1.00  0.00    -0.237 OA
ATOM     94  O   UNL A   1      45.459  35.856  26.157  1.00  0.00    -0.237 OA
ATOM     95  O   UNL A   1      47.250  34.415  25.277  1.00  0.00    -0.744 OA
ENDBRANCH  91  92
ENDBRANCH  59  84
ENDBRANCH  33  34
ENDBRANCH  26  28
ENDBRANCH  25  26
ENDBRANCH  24  25
ENDBRANCH  23  24
ENDBRANCH  22  23
ENDBRANCH   1  22
TORSDOF 21
ENDMDL
MODEL 3
REMARK VINA RESULT:     -10.1      2.628      9.472
REMARK SMILES O=C(CCn1ccnc1)N[C@H]1C=C[C@H](C(=O)OCCOCCOC(=O)c2ccc(-c3c4nc(c(-c5c(F)cc(S(=O)(=O)[O-])cc5F)c5ccc([nH]5)c(-c5c(F)cc(S(=O)(=O)[O-])cc5F)c5nc(c(-c6c(F)cc(S(=O)(=O)[O-])cc6F)c6ccc3[nH]6)C=C5)C=C4)cc2)C1
REMARK SMILES IDX 19 1 18 2 17 3 15 4 16 5 14 6 11 7 12 8 92 9 13 10 10 11
REMARK SMILES IDX 1 12 2 13 3 15 4 16 5 17 6 18 9 19 7 20 8 21 20 22 21 23
REMARK SMILES IDX 22 24 23 25 24 26 25 27 26 28 27 29 91 30 28 31 90 32 29 33
REMARK SMILES IDX 30 34 31 35 84 36 32 37 89 38 83 39 85 40 33 41 88 42 82 43
REMARK SMILES IDX 81 44 34 46 68 47 47 48 67 49 48 50 51 51 66 52 86 53 49 54
REMARK SMILES IDX 50 55 65 57 87 58 52 59 35 60 36 61 45 62 37 63 38 64 44 65
REMARK SMILES IDX 46 66 39 67 40 68 41 69 42 70 43 71 69 72 70 73 79 74 71 75
REMARK SMILES IDX 72 76 78 77 80 78 73 79 74 80 75 81 76 82 77 83 53 84 54 85
REMARK SMILES IDX 63 86 55 87 56 88 62 89 64 90 57 91 58 92 59 93 60 94 61 95
REMARK H PARENT 10 14 85 45 51 56
REMARK Flexibility Score: inf
ROOT
ATOM      1  C   UNL A   1      31.142  29.950  24.594  1.00  0.00     0.202 C 
ENDROOT
BRANCH   1   2
ATOM      2  C   UNL A   1      31.018  28.765  23.636  1.00  0.00     0.261 C 
BRANCH   2   3
ATOM      3  O   UNL A   1      29.879  27.929  23.909  1.00  0.00    -0.463 OA
BRANCH   3   4
ATOM      4  C   UNL A   1      30.180  26.744  24.509  1.00  0.00     0.312 C 
ATOM      5  O   UNL A   1      29.339  25.932  24.883  1.00  0.00    -0.252 OA
BRANCH   4   6
ATOM      6  C   UNL A   1      31.683  26.574  24.737  1.00  0.00     0.124 C 
ATOM      7  C   UNL A   1      32.535  24.249  24.846  1.00  0.00     0.106 C 
ATOM      8  C   UNL A   1      32.280  24.826  26.204  1.00  0.00    -0.006 C 
ATOM      9  C   UNL A   1      32.409  25.484  23.931  1.00  0.00     0.048 C 
ATOM     10  C   UNL A   1      31.879  26.099  26.149  1.00  0.00    -0.014 C 
BRANCH   7  11
ATOM     11  N   UNL A   1      33.815  23.580  24.947  1.00  0.00    -0.350 N 
ATOM     12  O   UNL A   1      33.470  21.773  23.583  1.00  0.00    -0.275 OA
ATOM     13  C   UNL A   1      34.210  22.441  24.296  1.00  0.00     0.222 C 
ATOM     14  H   UNL A   1      34.475  23.989  25.550  1.00  0.00     0.164 HD
BRANCH  13  15
ATOM     15  C   UNL A   1      35.651  22.023  24.547  1.00  0.00     0.122 C 
BRANCH  15  16
ATOM     16  C   UNL A   1      36.247  22.572  25.846  1.00  0.00     0.133 C 
BRANCH  16  17
ATOM     17  N   UNL A   1      37.691  22.442  25.933  1.00  0.00    -0.337 N 
ATOM     18  C   UNL A   1      38.422  21.316  25.669  1.00  0.00     0.107 A 
ATOM     19  C   UNL A   1      38.554  23.391  26.404  1.00  0.00     0.199 A 
ATOM     20  C   UNL A   1      39.700  21.618  26.076  1.00  0.00     0.130 A 
ATOM     21  N   UNL A   1      39.769  22.907  26.536  1.00  0.00    -0.245 NA
ENDBRANCH  16  17
ENDBRANCH  15  16
ENDBRANCH  13  15
ENDBRANCH   7  11
ENDBRANCH   4   6
ENDBRANCH   3   4
ENDBRANCH   2   3
ENDBRANCH   1   2
BRANCH   1  22
ATOM     22  O   UNL A   1      32.362  30.105  25.313  1.00  0.00    -0.374 OA
BRANCH  22  23
ATOM     23  C   UNL A   1      32.359  29.961  26.731  1.00  0.00     0.202 C 
BRANCH  23  24
ATOM     24  C   UNL A   1      33.232  30.904  27.545  1.00  0.00     0.261 C 
BRANCH  24  25
ATOM     25  O   UNL A   1      34.601  30.740  27.211  1.00  0.00    -0.460 OA
BRANCH  25  26
ATOM     26  C   UNL A   1      35.429  31.657  27.767  1.00  0.00     0.338 C 
ATOM     27  O   UNL A   1      35.492  32.842  27.519  1.00  0.00    -0.246 OA
BRANCH  26  28
ATOM     28  C   UNL A   1      36.361  30.941  28.647  1.00  0.00     0.060 A 
ATOM     29  C   UNL A   1      37.264  31.748  29.335  1.00  0.00     0.016 A 
ATOM     30  C   UNL A   1      36.553  29.560  28.483  1.00  0.00     0.016 A 
ATOM     31  C   UNL A   1      38.507  31.230  29.594  1.00  0.00     0.010 A 
ATOM     32  C   UNL A   1      37.799  29.049  28.729  1.00  0.00     0.010 A 
ATOM     33  C   UNL A   1      38.783  29.923  29.180  1.00  0.00    -0.014 A 
BRANCH  33  34
ATOM     34  C   UNL A   1      40.134  29.441  29.339  1.00  0.00     0.031 A 
ATOM     35  C   UNL A   1      40.467  29.252  30.765  1.00  0.00     0.074 A 
ATOM     36  C   UNL A   1      40.917  29.135  28.289  1.00  0.00     0.049 A 
ATOM     37  N   UNL A   1      41.244  29.984  31.490  1.00  0.00    -0.248 NA
ATOM     38  C   UNL A   1      39.640  28.307  31.536  1.00  0.00     0.031 C 
ATOM     39  C   UNL A   1      40.561  29.078  26.869  1.00  0.00     0.029 A 
ATOM     40  N   UNL A   1      42.206  28.703  28.294  1.00  0.00    -0.354 N 
ATOM     41  C   UNL A   1      41.207  29.404  32.750  1.00  0.00     0.074 A 
ATOM     42  C   UNL A   1      40.034  28.574  32.780  1.00  0.00     0.031 C 
ATOM     43  C   UNL A   1      41.528  28.416  26.193  1.00  0.00     0.029 A 
ATOM     44  C   UNL A   1      42.618  28.112  27.103  1.00  0.00     0.049 A 
ATOM     45  H   UNL A   1      42.797  28.799  29.076  1.00  0.00     0.167 HD
ATOM     46  C   UNL A   1      42.311  29.401  33.542  1.00  0.00     0.037 A 
ATOM     47  C   UNL A   1      43.733  27.348  26.952  1.00  0.00     0.037 A 
ATOM     48  C   UNL A   1      43.257  30.403  33.114  1.00  0.00     0.049 A 
ATOM     49  C   UNL A   1      44.640  27.690  28.088  1.00  0.00     0.074 A 
ATOM     50  C   UNL A   1      43.199  31.775  32.955  1.00  0.00     0.029 A 
ATOM     51  N   UNL A   1      44.343  29.984  32.381  1.00  0.00    -0.354 N 
ATOM     52  N   UNL A   1      45.199  28.864  28.229  1.00  0.00    -0.248 NA
ATOM     53  C   UNL A   1      44.500  26.920  29.316  1.00  0.00     0.031 C 
ATOM     54  C   UNL A   1      43.943  32.042  31.768  1.00  0.00     0.029 A 
ATOM     55  C   UNL A   1      44.481  30.838  31.315  1.00  0.00     0.049 A 
ATOM     56  H   UNL A   1      44.917  29.211  32.584  1.00  0.00     0.167 HD
ATOM     57  C   UNL A   1      45.088  29.154  29.584  1.00  0.00     0.074 A 
ATOM     58  C   UNL A   1      44.700  27.892  30.212  1.00  0.00     0.031 C 
ATOM     59  C   UNL A   1      45.025  30.443  30.033  1.00  0.00     0.037 A 
BRANCH  46  60
ATOM     60  C   UNL A   1      42.699  28.229  34.408  1.00  0.00     0.058 A 
ATOM     61  C   UNL A   1      42.877  28.433  35.790  1.00  0.00     0.135 A 
ATOM     62  C   UNL A   1      43.174  26.992  33.910  1.00  0.00     0.135 A 
ATOM     63  F   UNL A   1      42.472  29.575  36.368  1.00  0.00    -0.206 F 
ATOM     64  C   UNL A   1      43.544  27.513  36.598  1.00  0.00     0.059 A 
ATOM     65  C   UNL A   1      43.788  26.039  34.708  1.00  0.00     0.059 A 
ATOM     66  F   UNL A   1      43.162  26.678  32.610  1.00  0.00    -0.206 F 
ATOM     67  C   UNL A   1      44.008  26.325  36.041  1.00  0.00     0.060 A 
BRANCH  67  68
ATOM     68  S   UNL A   1      44.956  25.180  37.053  1.00  0.00     0.124 S 
ATOM     69  O   UNL A   1      46.311  25.687  36.872  1.00  0.00    -0.237 OA
ATOM     70  O   UNL A   1      44.364  25.384  38.371  1.00  0.00    -0.237 OA
ATOM     71  O   UNL A   1      44.679  23.883  36.443  1.00  0.00    -0.744 OA
ENDBRANCH  67  68
ENDBRANCH  46  60
BRANCH  47  72
ATOM     72  C   UNL A   1      43.870  26.093  26.157  1.00  0.00     0.058 A 
ATOM     73  C   UNL A   1      45.024  25.823  25.397  1.00  0.00     0.135 A 
ATOM     74  C   UNL A   1      42.991  25.006  26.342  1.00  0.00     0.135 A 
ATOM     75  F   UNL A   1      45.933  26.788  25.187  1.00  0.00    -0.206 F 
ATOM     76  C   UNL A   1      45.308  24.546  24.890  1.00  0.00     0.059 A 
ATOM     77  C   UNL A   1      43.248  23.731  25.840  1.00  0.00     0.059 A 
ATOM     78  F   UNL A   1      41.891  25.123  27.099  1.00  0.00    -0.206 F 
ATOM     79  C   UNL A   1      44.421  23.499  25.135  1.00  0.00     0.060 A 
BRANCH  79  80
ATOM     80  S   UNL A   1      44.852  21.814  24.637  1.00  0.00     0.124 S 
ATOM     81  O   UNL A   1      44.456  21.803  23.232  1.00  0.00    -0.237 OA
ATOM     82  O   UNL A   1      46.287  21.772  24.896  1.00  0.00    -0.237 OA
ATOM     83  O   UNL A   1      44.038  20.980  25.517  1.00  0.00    -0.744 OA
ENDBRANCH  79  80
ENDBRANCH  47  72
BRANCH  59  84
ATOM     84  C   UNL A   1      45.342  31.558  29.066  1.00  0.00     0.058 A 
ATOM     85  C   UNL A   1      46.641  31.992  28.743  1.00  0.00     0.135 A 
ATOM     86  C   UNL A   1      44.286  32.090  28.312  1.00  0.00     0.135 A 
ATOM     87  F   UNL A   1      47.714  31.456  29.341  1.00  0.00    -0.206 F 
ATOM     88  C   UNL A   1      46.873  32.943  27.746  1.00  0.00     0.059 A 
ATOM     89  C   UNL A   1      44.495  33.014  27.293  1.00  0.00     0.059 A 
ATOM     90  F   UNL A   1      43.029  31.668  28.526  1.00  0.00    -0.206 F 
ATOM     91  C   UNL A   1      45.792  33.448  27.024  1.00  0.00     0.060 A 
BRANCH  91  92
ATOM     92  S   UNL A   1      46.090  34.630  25.692  1.00  0.00     0.124 S 
ATOM     93  O   UNL A   1      45.756  35.900  26.328  1.00  0.00    -0.237 OA
ATOM     94  O   UNL A   1      47.505  34.423  25.394  1.00  0.00    -0.237 OA
ATOM     95  O   UNL A   1      45.172  34.200  24.640  1.00  0.00    -0.744 OA
ENDBRANCH  91  92
ENDBRANCH  59  84
ENDBRANCH  33  34
ENDBRANCH  26  28
ENDBRANCH  25  26
ENDBRANCH  24  25
ENDBRANCH  23  24
ENDBRANCH  22  23
ENDBRANCH   1  22
TORSDOF 21
ENDMDL
