MODEL 1
REMARK VINA RESULT:     -11.2      0.000      0.000
REMARK SMILES Cc1nccn1CCC[NH+]1CCC2(CC1)[C@@H](C(=O)OCCOCCOC(=O)c1ccc(-c3c4nc(c(-c5c(F)cc(S(=O)(=O)[O-])cc5F)c5ccc([nH]5)c(-c5c(F)cc(S(=O)(=O)[O-])cc5F)c5nc(c(-c6c(F)cc(S(=O)(=O)[O-])cc6F)c6ccc3[nH]6)C=C5)C=C4)cc1)CC(=O)N2C
REMARK SMILES IDX 21 1 20 2 19 3 17 4 18 5 16 6 10 7 11 8 15 9 12 11 14 12
REMARK SMILES IDX 13 13 97 14 94 15 95 16 98 17 96 18 9 19 8 20 7 21 6 22 1 23
REMARK SMILES IDX 2 24 3 25 4 26 5 27 22 28 23 29 24 30 25 31 26 32 27 33
REMARK SMILES IDX 28 34 29 35 93 36 30 37 92 38 31 39 32 40 33 41 86 42 34 43
REMARK SMILES IDX 91 44 85 45 87 46 35 47 90 48 84 49 83 50 36 52 70 53 49 54
REMARK SMILES IDX 69 55 50 56 53 57 68 58 88 59 51 60 52 61 67 63 89 64 54 65
REMARK SMILES IDX 37 66 38 67 47 68 39 69 40 70 46 71 48 72 41 73 42 74 43 75
REMARK SMILES IDX 44 76 45 77 71 78 72 79 81 80 73 81 74 82 80 83 82 84 75 85
REMARK SMILES IDX 76 86 77 87 78 88 79 89 55 90 56 91 65 92 57 93 58 94 64 95
REMARK SMILES IDX 66 96 59 97 60 98 61 99 62 100 63 101
REMARK H PARENT 10 10 87 51 53 62
REMARK Flexibility Score: inf
ROOT
ATOM      1  C   UNL A   1      33.597  31.572  27.590  1.00  0.00     0.202 C 
ENDROOT
BRANCH   1   2
ATOM      2  C   UNL A   1      32.700  30.401  27.176  1.00  0.00     0.261 C 
BRANCH   2   3
ATOM      3  O   UNL A   1      33.422  29.417  26.420  1.00  0.00    -0.463 OA
BRANCH   3   4
ATOM      4  C   UNL A   1      32.997  29.227  25.140  1.00  0.00     0.311 C 
ATOM      5  O   UNL A   1      33.619  29.570  24.146  1.00  0.00    -0.252 OA
BRANCH   4   6
ATOM      6  C   UNL A   1      31.672  28.473  25.151  1.00  0.00     0.134 C 
ATOM      7  N   UNL A   1      31.962  24.266  25.529  1.00  0.00    -0.335 N 
ATOM      8  C   UNL A   1      30.677  24.704  25.039  1.00  0.00     0.264 C 
ATOM      9  C   UNL A   1      33.097  24.816  24.836  1.00  0.00     0.264 C 
ATOM     10  H   UNL A   1      31.946  23.274  25.293  1.00  0.00     0.348 HD
ATOM     11  C   UNL A   1      30.522  26.215  25.169  1.00  0.00     0.091 C 
ATOM     12  C   UNL A   1      33.069  26.342  24.827  1.00  0.00     0.091 C 
ATOM     13  C   UNL A   1      31.700  27.030  24.556  1.00  0.00     0.067 C 
ATOM     14  N   UNL A   1      31.409  27.331  23.148  1.00  0.00    -0.339 N 
ATOM     15  C   UNL A   1      30.669  29.245  24.309  1.00  0.00     0.118 C 
ATOM     16  C   UNL A   1      30.755  28.550  22.978  1.00  0.00     0.223 C 
ATOM     17  C   UNL A   1      31.477  26.396  22.049  1.00  0.00     0.147 C 
ATOM     18  O   UNL A   1      30.269  28.970  21.940  1.00  0.00    -0.275 OA
BRANCH   7  19
ATOM     19  C   UNL A   1      32.114  23.572  26.792  1.00  0.00     0.264 C 
BRANCH  19  20
ATOM     20  C   UNL A   1      33.475  22.968  27.169  1.00  0.00     0.083 C 
BRANCH  20  21
ATOM     21  C   UNL A   1      33.670  21.451  27.214  1.00  0.00     0.129 C 
BRANCH  21  22
ATOM     22  N   UNL A   1      33.702  20.645  26.011  1.00  0.00    -0.335 N 
ATOM     23  C   UNL A   1      35.843  21.531  24.927  1.00  0.00     0.087 C 
ATOM     24  C   UNL A   1      34.780  20.517  25.147  1.00  0.00     0.105 A 
ATOM     25  N   UNL A   1      34.722  19.367  24.505  1.00  0.00    -0.242 NA
ATOM     26  C   UNL A   1      33.521  18.816  24.829  1.00  0.00     0.131 A 
ATOM     27  C   UNL A   1      32.837  19.639  25.686  1.00  0.00     0.107 A 
ENDBRANCH  21  22
ENDBRANCH  20  21
ENDBRANCH  19  20
ENDBRANCH   7  19
ENDBRANCH   4   6
ENDBRANCH   3   4
ENDBRANCH   2   3
ENDBRANCH   1   2
BRANCH   1  28
ATOM     28  O   UNL A   1      33.034  32.883  27.598  1.00  0.00    -0.374 OA
BRANCH  28  29
ATOM     29  C   UNL A   1      33.832  33.994  27.971  1.00  0.00     0.202 C 
BRANCH  29  30
ATOM     30  C   UNL A   1      33.622  34.713  29.304  1.00  0.00     0.261 C 
BRANCH  30  31
ATOM     31  O   UNL A   1      33.662  33.870  30.431  1.00  0.00    -0.460 OA
BRANCH  31  32
ATOM     32  C   UNL A   1      34.761  34.106  31.177  1.00  0.00     0.338 C 
ATOM     33  O   UNL A   1      34.901  34.983  32.029  1.00  0.00    -0.246 OA
BRANCH  32  34
ATOM     34  C   UNL A   1      35.842  33.272  30.682  1.00  0.00     0.060 A 
ATOM     35  C   UNL A   1      35.702  31.899  30.878  1.00  0.00     0.016 A 
ATOM     36  C   UNL A   1      37.057  33.866  30.303  1.00  0.00     0.016 A 
ATOM     37  C   UNL A   1      36.834  31.125  30.848  1.00  0.00     0.010 A 
ATOM     38  C   UNL A   1      38.189  33.096  30.294  1.00  0.00     0.010 A 
ATOM     39  C   UNL A   1      38.064  31.751  30.624  1.00  0.00    -0.014 A 
BRANCH  39  40
ATOM     40  C   UNL A   1      39.235  30.913  30.633  1.00  0.00     0.031 A 
ATOM     41  C   UNL A   1      39.852  30.820  31.970  1.00  0.00     0.074 A 
ATOM     42  C   UNL A   1      39.616  30.208  29.559  1.00  0.00     0.049 A 
ATOM     43  N   UNL A   1      40.964  31.333  32.376  1.00  0.00    -0.248 NA
ATOM     44  C   UNL A   1      39.016  30.255  33.044  1.00  0.00     0.031 C 
ATOM     45  C   UNL A   1      38.853  29.963  28.332  1.00  0.00     0.029 A 
ATOM     46  N   UNL A   1      40.731  29.456  29.396  1.00  0.00    -0.354 N 
ATOM     47  C   UNL A   1      41.076  30.929  33.702  1.00  0.00     0.074 A 
ATOM     48  C   UNL A   1      39.768  30.505  34.114  1.00  0.00     0.031 C 
ATOM     49  C   UNL A   1      39.432  28.946  27.656  1.00  0.00     0.029 A 
ATOM     50  C   UNL A   1      40.660  28.568  28.337  1.00  0.00     0.049 A 
ATOM     51  H   UNL A   1      41.520  29.533  29.980  1.00  0.00     0.167 HD
ATOM     52  C   UNL A   1      42.290  30.672  34.253  1.00  0.00     0.037 A 
ATOM     53  C   UNL A   1      41.506  27.534  28.119  1.00  0.00     0.037 A 
ATOM     54  C   UNL A   1      43.352  31.268  33.483  1.00  0.00     0.049 A 
ATOM     55  C   UNL A   1      42.748  27.798  28.896  1.00  0.00     0.074 A 
ATOM     56  C   UNL A   1      43.693  32.557  33.127  1.00  0.00     0.029 A 
ATOM     57  N   UNL A   1      44.044  30.434  32.639  1.00  0.00    -0.354 N 
ATOM     58  N   UNL A   1      43.565  28.792  28.665  1.00  0.00    -0.248 NA
ATOM     59  C   UNL A   1      42.896  27.175  30.205  1.00  0.00     0.031 C 
ATOM     60  C   UNL A   1      44.287  32.453  31.836  1.00  0.00     0.029 A 
ATOM     61  C   UNL A   1      44.309  31.104  31.472  1.00  0.00     0.049 A 
ATOM     62  H   UNL A   1      44.307  29.507  32.840  1.00  0.00     0.167 HD
ATOM     63  C   UNL A   1      44.038  29.171  29.915  1.00  0.00     0.074 A 
ATOM     64  C   UNL A   1      43.705  28.059  30.795  1.00  0.00     0.031 C 
ATOM     65  C   UNL A   1      44.398  30.464  30.172  1.00  0.00     0.037 A 
BRANCH  52  66
ATOM     66  C   UNL A   1      42.534  29.534  35.223  1.00  0.00     0.058 A 
ATOM     67  C   UNL A   1      43.299  29.777  36.379  1.00  0.00     0.135 A 
ATOM     68  C   UNL A   1      42.301  28.170  34.924  1.00  0.00     0.135 A 
ATOM     69  F   UNL A   1      43.586  31.033  36.756  1.00  0.00    -0.206 F 
ATOM     70  C   UNL A   1      43.862  28.744  37.131  1.00  0.00     0.059 A 
ATOM     71  C   UNL A   1      42.798  27.128  35.694  1.00  0.00     0.059 A 
ATOM     72  F   UNL A   1      41.671  27.765  33.817  1.00  0.00    -0.206 F 
ATOM     73  C   UNL A   1      43.621  27.424  36.764  1.00  0.00     0.060 A 
BRANCH  73  74
ATOM     74  S   UNL A   1      44.455  26.089  37.636  1.00  0.00     0.124 S 
ATOM     75  O   UNL A   1      45.852  26.473  37.475  1.00  0.00    -0.237 OA
ATOM     76  O   UNL A   1      43.903  26.212  38.980  1.00  0.00    -0.237 OA
ATOM     77  O   UNL A   1      44.037  24.898  36.901  1.00  0.00    -0.744 OA
ENDBRANCH  73  74
ENDBRANCH  52  66
BRANCH  53  78
ATOM     78  C   UNL A   1      41.147  26.201  27.576  1.00  0.00     0.058 A 
ATOM     79  C   UNL A   1      41.975  25.544  26.651  1.00  0.00     0.135 A 
ATOM     80  C   UNL A   1      40.107  25.431  28.139  1.00  0.00     0.135 A 
ATOM     81  F   UNL A   1      43.009  26.192  26.095  1.00  0.00    -0.206 F 
ATOM     82  C   UNL A   1      41.796  24.197  26.321  1.00  0.00     0.059 A 
ATOM     83  C   UNL A   1      39.898  24.094  27.813  1.00  0.00     0.059 A 
ATOM     84  F   UNL A   1      39.309  25.934  29.094  1.00  0.00    -0.206 F 
ATOM     85  C   UNL A   1      40.760  23.476  26.917  1.00  0.00     0.060 A 
BRANCH  85  86
ATOM     86  S   UNL A   1      40.611  21.704  26.599  1.00  0.00     0.124 S 
ATOM     87  O   UNL A   1      41.709  21.472  25.667  1.00  0.00    -0.237 OA
ATOM     88  O   UNL A   1      40.776  21.137  27.934  1.00  0.00    -0.237 OA
ATOM     89  O   UNL A   1      39.273  21.572  26.030  1.00  0.00    -0.744 OA
ENDBRANCH  85  86
ENDBRANCH  53  78
BRANCH  65  90
ATOM     90  C   UNL A   1      44.693  31.361  29.000  1.00  0.00     0.058 A 
ATOM     91  C   UNL A   1      43.777  32.265  28.437  1.00  0.00     0.135 A 
ATOM     92  C   UNL A   1      46.014  31.411  28.528  1.00  0.00     0.135 A 
ATOM     93  F   UNL A   1      42.521  32.350  28.897  1.00  0.00    -0.206 F 
ATOM     94  C   UNL A   1      44.151  33.157  27.428  1.00  0.00     0.059 A 
ATOM     95  C   UNL A   1      46.418  32.312  27.546  1.00  0.00     0.059 A 
ATOM     96  F   UNL A   1      46.951  30.613  29.068  1.00  0.00    -0.206 F 
ATOM     97  C   UNL A   1      45.476  33.176  26.993  1.00  0.00     0.060 A 
BRANCH  97  98
ATOM     98  S   UNL A   1      45.984  34.401  25.765  1.00  0.00     0.124 S 
ATOM     99  O   UNL A   1      47.403  34.104  25.604  1.00  0.00    -0.237 OA
ATOM    100  O   UNL A   1      45.134  34.079  24.622  1.00  0.00    -0.237 OA
ATOM    101  O   UNL A   1      45.683  35.677  26.411  1.00  0.00    -0.744 OA
ENDBRANCH  97  98
ENDBRANCH  65  90
ENDBRANCH  39  40
ENDBRANCH  32  34
ENDBRANCH  31  32
ENDBRANCH  30  31
ENDBRANCH  29  30
ENDBRANCH  28  29
ENDBRANCH   1  28
TORSDOF 21
ENDMDL
MODEL 2
REMARK VINA RESULT:     -10.6      1.478      2.098
REMARK SMILES Cc1nccn1CCC[NH+]1CCC2(CC1)[C@@H](C(=O)OCCOCCOC(=O)c1ccc(-c3c4nc(c(-c5c(F)cc(S(=O)(=O)[O-])cc5F)c5ccc([nH]5)c(-c5c(F)cc(S(=O)(=O)[O-])cc5F)c5nc(c(-c6c(F)cc(S(=O)(=O)[O-])cc6F)c6ccc3[nH]6)C=C5)C=C4)cc1)CC(=O)N2C
REMARK SMILES IDX 21 1 20 2 19 3 17 4 18 5 16 6 10 7 11 8 15 9 12 11 14 12
REMARK SMILES IDX 13 13 97 14 94 15 95 16 98 17 96 18 9 19 8 20 7 21 6 22 1 23
REMARK SMILES IDX 2 24 3 25 4 26 5 27 22 28 23 29 24 30 25 31 26 32 27 33
REMARK SMILES IDX 28 34 29 35 93 36 30 37 92 38 31 39 32 40 33 41 86 42 34 43
REMARK SMILES IDX 91 44 85 45 87 46 35 47 90 48 84 49 83 50 36 52 70 53 49 54
REMARK SMILES IDX 69 55 50 56 53 57 68 58 88 59 51 60 52 61 67 63 89 64 54 65
REMARK SMILES IDX 37 66 38 67 47 68 39 69 40 70 46 71 48 72 41 73 42 74 43 75
REMARK SMILES IDX 44 76 45 77 71 78 72 79 81 80 73 81 74 82 80 83 82 84 75 85
REMARK SMILES IDX 76 86 77 87 78 88 79 89 55 90 56 91 65 92 57 93 58 94 64 95
REMARK SMILES IDX 66 96 59 97 60 98 61 99 62 100 63 101
REMARK H PARENT 10 10 87 51 53 62
REMARK Flexibility Score: inf
ROOT
ATOM      1  C   UNL A   1      34.628  30.198  27.416  1.00  0.00     0.202 C 
ENDROOT
BRANCH   1   2
ATOM      2  C   UNL A   1      34.065  28.826  27.029  1.00  0.00     0.261 C 
BRANCH   2   3
ATOM      3  O   UNL A   1      32.692  28.910  26.620  1.00  0.00    -0.463 OA
BRANCH   3   4
ATOM      4  C   UNL A   1      32.466  28.779  25.283  1.00  0.00     0.311 C 
ATOM      5  O   UNL A   1      33.125  29.326  24.413  1.00  0.00    -0.252 OA
BRANCH   4   6
ATOM      6  C   UNL A   1      31.316  27.804  25.055  1.00  0.00     0.134 C 
ATOM      7  N   UNL A   1      32.381  23.708  24.943  1.00  0.00    -0.335 N 
ATOM      8  C   UNL A   1      31.082  23.972  24.370  1.00  0.00     0.264 C 
ATOM      9  C   UNL A   1      33.443  24.546  24.451  1.00  0.00     0.264 C 
ATOM     10  H   UNL A   1      32.578  22.773  24.586  1.00  0.00     0.348 HD
ATOM     11  C   UNL A   1      30.628  25.397  24.668  1.00  0.00     0.091 C 
ATOM     12  C   UNL A   1      33.121  26.028  24.627  1.00  0.00     0.091 C 
ATOM     13  C   UNL A   1      31.674  26.489  24.293  1.00  0.00     0.067 C 
ATOM     14  N   UNL A   1      31.451  26.929  22.910  1.00  0.00    -0.339 N 
ATOM     15  C   UNL A   1      30.258  28.494  24.208  1.00  0.00     0.118 C 
ATOM     16  C   UNL A   1      30.590  28.021  22.820  1.00  0.00     0.223 C 
ATOM     17  C   UNL A   1      31.792  26.187  21.719  1.00  0.00     0.147 C 
ATOM     18  O   UNL A   1      30.123  28.489  21.793  1.00  0.00    -0.275 OA
BRANCH   7  19
ATOM     19  C   UNL A   1      32.556  22.881  26.119  1.00  0.00     0.264 C 
BRANCH  19  20
ATOM     20  C   UNL A   1      33.849  22.993  26.943  1.00  0.00     0.083 C 
BRANCH  20  21
ATOM     21  C   UNL A   1      34.868  21.853  26.953  1.00  0.00     0.129 C 
BRANCH  21  22
ATOM     22  N   UNL A   1      35.837  21.679  25.889  1.00  0.00    -0.335 N 
ATOM     23  C   UNL A   1      37.143  23.867  26.102  1.00  0.00     0.087 C 
ATOM     24  C   UNL A   1      36.972  22.451  25.690  1.00  0.00     0.105 A 
ATOM     25  N   UNL A   1      37.890  21.761  25.043  1.00  0.00    -0.242 NA
ATOM     26  C   UNL A   1      37.295  20.594  24.676  1.00  0.00     0.131 A 
ATOM     27  C   UNL A   1      35.995  20.567  25.110  1.00  0.00     0.107 A 
ENDBRANCH  21  22
ENDBRANCH  20  21
ENDBRANCH  19  20
ENDBRANCH   7  19
ENDBRANCH   4   6
ENDBRANCH   3   4
ENDBRANCH   2   3
ENDBRANCH   1   2
BRANCH   1  28
ATOM     28  O   UNL A   1      33.710  31.217  27.809  1.00  0.00    -0.374 OA
BRANCH  28  29
ATOM     29  C   UNL A   1      34.142  32.566  27.890  1.00  0.00     0.202 C 
BRANCH  29  30
ATOM     30  C   UNL A   1      34.097  33.337  29.210  1.00  0.00     0.261 C 
BRANCH  30  31
ATOM     31  O   UNL A   1      35.265  33.226  29.988  1.00  0.00    -0.460 OA
BRANCH  31  32
ATOM     32  C   UNL A   1      35.040  32.499  31.101  1.00  0.00     0.338 C 
ATOM     33  O   UNL A   1      34.079  32.593  31.864  1.00  0.00    -0.246 OA
BRANCH  32  34
ATOM     34  C   UNL A   1      36.221  31.700  31.376  1.00  0.00     0.060 A 
ATOM     35  C   UNL A   1      37.310  32.374  31.925  1.00  0.00     0.016 A 
ATOM     36  C   UNL A   1      36.320  30.404  30.841  1.00  0.00     0.016 A 
ATOM     37  C   UNL A   1      38.552  31.807  31.795  1.00  0.00     0.010 A 
ATOM     38  C   UNL A   1      37.562  29.848  30.693  1.00  0.00     0.010 A 
ATOM     39  C   UNL A   1      38.660  30.587  31.121  1.00  0.00    -0.014 A 
BRANCH  39  40
ATOM     40  C   UNL A   1      39.983  30.038  30.973  1.00  0.00     0.031 A 
ATOM     41  C   UNL A   1      40.668  29.858  32.267  1.00  0.00     0.074 A 
ATOM     42  C   UNL A   1      40.457  29.628  29.788  1.00  0.00     0.049 A 
ATOM     43  N   UNL A   1      41.662  30.526  32.747  1.00  0.00    -0.248 NA
ATOM     44  C   UNL A   1      40.026  28.948  33.231  1.00  0.00     0.031 C 
ATOM     45  C   UNL A   1      39.708  29.433  28.543  1.00  0.00     0.029 A 
ATOM     46  N   UNL A   1      41.699  29.179  29.486  1.00  0.00    -0.354 N 
ATOM     47  C   UNL A   1      41.920  29.938  33.980  1.00  0.00     0.074 A 
ATOM     48  C   UNL A   1      40.755  29.172  34.322  1.00  0.00     0.031 C 
ATOM     49  C   UNL A   1      40.461  28.699  27.694  1.00  0.00     0.029 A 
ATOM     50  C   UNL A   1      41.771  28.491  28.288  1.00  0.00     0.049 A 
ATOM     51  H   UNL A   1      42.479  29.328  30.067  1.00  0.00     0.167 HD
ATOM     52  C   UNL A   1      43.186  29.865  34.468  1.00  0.00     0.037 A 
ATOM     53  C   UNL A   1      42.809  27.721  27.884  1.00  0.00     0.037 A 
ATOM     54  C   UNL A   1      44.057  30.803  33.805  1.00  0.00     0.049 A 
ATOM     55  C   UNL A   1      44.000  28.116  28.685  1.00  0.00     0.074 A 
ATOM     56  C   UNL A   1      44.094  32.176  33.679  1.00  0.00     0.029 A 
ATOM     57  N   UNL A   1      44.872  30.297  32.822  1.00  0.00    -0.354 N 
ATOM     58  N   UNL A   1      44.572  29.290  28.625  1.00  0.00    -0.248 NA
ATOM     59  C   UNL A   1      44.341  27.328  29.862  1.00  0.00     0.031 C 
ATOM     60  C   UNL A   1      44.636  32.426  32.385  1.00  0.00     0.029 A 
ATOM     61  C   UNL A   1      44.931  31.197  31.789  1.00  0.00     0.049 A 
ATOM     62  H   UNL A   1      45.337  29.431  32.855  1.00  0.00     0.167 HD
ATOM     63  C   UNL A   1      45.010  29.546  29.918  1.00  0.00     0.074 A 
ATOM     64  C   UNL A   1      44.967  28.255  30.591  1.00  0.00     0.031 C 
ATOM     65  C   UNL A   1      45.094  30.823  30.396  1.00  0.00     0.037 A 
BRANCH  52  66
ATOM     66  C   UNL A   1      43.714  28.661  35.219  1.00  0.00     0.058 A 
ATOM     67  C   UNL A   1      44.351  28.858  36.459  1.00  0.00     0.135 A 
ATOM     68  C   UNL A   1      43.880  27.375  34.649  1.00  0.00     0.135 A 
ATOM     69  F   UNL A   1      44.266  30.040  37.090  1.00  0.00    -0.206 F 
ATOM     70  C   UNL A   1      45.162  27.884  37.044  1.00  0.00     0.059 A 
ATOM     71  C   UNL A   1      44.630  26.372  35.244  1.00  0.00     0.059 A 
ATOM     72  F   UNL A   1      43.417  27.052  33.437  1.00  0.00    -0.206 F 
ATOM     73  C   UNL A   1      45.310  26.652  36.414  1.00  0.00     0.060 A 
BRANCH  73  74
ATOM     74  S   UNL A   1      46.463  25.441  37.081  1.00  0.00     0.124 S 
ATOM     75  O   UNL A   1      45.562  24.572  37.828  1.00  0.00    -0.237 OA
ATOM     76  O   UNL A   1      47.045  24.877  35.868  1.00  0.00    -0.237 OA
ATOM     77  O   UNL A   1      47.372  26.253  37.885  1.00  0.00    -0.744 OA
ENDBRANCH  73  74
ENDBRANCH  52  66
BRANCH  53  78
ATOM     78  C   UNL A   1      42.721  26.454  27.117  1.00  0.00     0.058 A 
ATOM     79  C   UNL A   1      43.341  26.315  25.865  1.00  0.00     0.135 A 
ATOM     80  C   UNL A   1      42.233  25.268  27.707  1.00  0.00     0.135 A 
ATOM     81  F   UNL A   1      43.864  27.386  25.250  1.00  0.00    -0.206 F 
ATOM     82  C   UNL A   1      43.490  25.071  25.245  1.00  0.00     0.059 A 
ATOM     83  C   UNL A   1      42.354  24.020  27.101  1.00  0.00     0.059 A 
ATOM     84  F   UNL A   1      41.698  25.274  28.937  1.00  0.00    -0.206 F 
ATOM     85  C   UNL A   1      43.003  23.926  25.877  1.00  0.00     0.060 A 
BRANCH  85  86
ATOM     86  S   UNL A   1      43.314  22.303  25.146  1.00  0.00     0.124 S 
ATOM     87  O   UNL A   1      44.417  21.812  25.964  1.00  0.00    -0.237 OA
ATOM     88  O   UNL A   1      42.032  21.631  25.332  1.00  0.00    -0.237 OA
ATOM     89  O   UNL A   1      43.657  22.614  23.761  1.00  0.00    -0.744 OA
ENDBRANCH  85  86
ENDBRANCH  53  78
BRANCH  65  90
ATOM     90  C   UNL A   1      45.134  31.950  29.398  1.00  0.00     0.058 A 
ATOM     91  C   UNL A   1      46.295  32.396  28.744  1.00  0.00     0.135 A 
ATOM     92  C   UNL A   1      43.911  32.497  28.978  1.00  0.00     0.135 A 
ATOM     93  F   UNL A   1      47.490  31.855  29.018  1.00  0.00    -0.206 F 
ATOM     94  C   UNL A   1      46.245  33.365  27.739  1.00  0.00     0.059 A 
ATOM     95  C   UNL A   1      43.833  33.441  27.957  1.00  0.00     0.059 A 
ATOM     96  F   UNL A   1      42.760  32.069  29.522  1.00  0.00    -0.206 F 
ATOM     97  C   UNL A   1      45.007  33.878  27.348  1.00  0.00     0.060 A 
BRANCH  97  98
ATOM     98  S   UNL A   1      44.932  35.052  25.976  1.00  0.00     0.124 S 
ATOM     99  O   UNL A   1      43.528  34.980  25.588  1.00  0.00    -0.237 OA
ATOM    100  O   UNL A   1      45.356  36.301  26.602  1.00  0.00    -0.237 OA
ATOM    101  O   UNL A   1      45.876  34.503  25.005  1.00  0.00    -0.744 OA
ENDBRANCH  97  98
ENDBRANCH  65  90
ENDBRANCH  39  40
ENDBRANCH  32  34
ENDBRANCH  31  32
ENDBRANCH  30  31
ENDBRANCH  29  30
ENDBRANCH  28  29
ENDBRANCH   1  28
TORSDOF 21
ENDMDL
MODEL 3
REMARK VINA RESULT:      -9.8      2.045      7.102
REMARK SMILES Cc1nccn1CCC[NH+]1CCC2(CC1)[C@@H](C(=O)OCCOCCOC(=O)c1ccc(-c3c4nc(c(-c5c(F)cc(S(=O)(=O)[O-])cc5F)c5ccc([nH]5)c(-c5c(F)cc(S(=O)(=O)[O-])cc5F)c5nc(c(-c6c(F)cc(S(=O)(=O)[O-])cc6F)c6ccc3[nH]6)C=C5)C=C4)cc1)CC(=O)N2C
REMARK SMILES IDX 21 1 20 2 19 3 17 4 18 5 16 6 10 7 11 8 15 9 12 11 14 12
REMARK SMILES IDX 13 13 97 14 94 15 95 16 98 17 96 18 9 19 8 20 7 21 6 22 1 23
REMARK SMILES IDX 2 24 3 25 4 26 5 27 22 28 23 29 24 30 25 31 26 32 27 33
REMARK SMILES IDX 28 34 29 35 93 36 30 37 92 38 31 39 32 40 33 41 86 42 34 43
REMARK SMILES IDX 91 44 85 45 87 46 35 47 90 48 84 49 83 50 36 52 70 53 49 54
REMARK SMILES IDX 69 55 50 56 53 57 68 58 88 59 51 60 52 61 67 63 89 64 54 65
REMARK SMILES IDX 37 66 38 67 47 68 39 69 40 70 46 71 48 72 41 73 42 74 43 75
REMARK SMILES IDX 44 76 45 77 71 78 72 79 81 80 73 81 74 82 80 83 82 84 75 85
REMARK SMILES IDX 76 86 77 87 78 88 79 89 55 90 56 91 65 92 57 93 58 94 64 95
REMARK SMILES IDX 66 96 59 97 60 98 61 99 62 100 63 101
REMARK H PARENT 10 10 87 51 53 62
REMARK Flexibility Score: inf
ROOT
ATOM      1  C   UNL A   1      34.695  30.517  27.636  1.00  0.00     0.202 C 
ENDROOT
BRANCH   1   2
ATOM      2  C   UNL A   1      33.824  29.344  27.173  1.00  0.00     0.261 C 
BRANCH   2   3
ATOM      3  O   UNL A   1      32.738  29.782  26.342  1.00  0.00    -0.463 OA
BRANCH   3   4
ATOM      4  C   UNL A   1      32.680  29.220  25.103  1.00  0.00     0.311 C 
ATOM      5  O   UNL A   1      33.525  29.370  24.234  1.00  0.00    -0.252 OA
BRANCH   4   6
ATOM      6  C   UNL A   1      31.440  28.338  25.003  1.00  0.00     0.134 C 
ATOM      7  N   UNL A   1      32.133  24.169  25.246  1.00  0.00    -0.335 N 
ATOM      8  C   UNL A   1      30.842  24.497  24.692  1.00  0.00     0.264 C 
ATOM      9  C   UNL A   1      33.245  24.858  24.646  1.00  0.00     0.264 C 
ATOM     10  H   UNL A   1      32.232  23.191  24.974  1.00  0.00     0.348 HD
ATOM     11  C   UNL A   1      30.527  25.979  24.867  1.00  0.00     0.091 C 
ATOM     12  C   UNL A   1      33.063  26.372  24.691  1.00  0.00     0.091 C 
ATOM     13  C   UNL A   1      31.650  26.931  24.359  1.00  0.00     0.067 C 
ATOM     14  N   UNL A   1      31.414  27.261  22.947  1.00  0.00    -0.339 N 
ATOM     15  C   UNL A   1      30.416  29.042  24.128  1.00  0.00     0.118 C 
ATOM     16  C   UNL A   1      30.650  28.416  22.781  1.00  0.00     0.223 C 
ATOM     17  C   UNL A   1      31.641  26.386  21.822  1.00  0.00     0.147 C 
ATOM     18  O   UNL A   1      30.186  28.829  21.730  1.00  0.00    -0.275 OA
BRANCH   7  19
ATOM     19  C   UNL A   1      32.280  23.440  26.490  1.00  0.00     0.264 C 
BRANCH  19  20
ATOM     20  C   UNL A   1      33.661  23.345  27.158  1.00  0.00     0.083 C 
BRANCH  20  21
ATOM     21  C   UNL A   1      34.485  22.060  27.065  1.00  0.00     0.129 C 
BRANCH  21  22
ATOM     22  N   UNL A   1      35.351  21.782  25.937  1.00  0.00    -0.335 N 
ATOM     23  C   UNL A   1      36.826  23.871  25.971  1.00  0.00     0.087 C 
ATOM     24  C   UNL A   1      36.520  22.461  25.623  1.00  0.00     0.105 A 
ATOM     25  N   UNL A   1      37.330  21.685  24.932  1.00  0.00    -0.242 NA
ATOM     26  C   UNL A   1      36.624  20.555  24.653  1.00  0.00     0.131 A 
ATOM     27  C   UNL A   1      35.365  20.639  25.187  1.00  0.00     0.107 A 
ENDBRANCH  21  22
ENDBRANCH  20  21
ENDBRANCH  19  20
ENDBRANCH   7  19
ENDBRANCH   4   6
ENDBRANCH   3   4
ENDBRANCH   2   3
ENDBRANCH   1   2
BRANCH   1  28
ATOM     28  O   UNL A   1      34.050  31.648  28.218  1.00  0.00    -0.374 OA
BRANCH  28  29
ATOM     29  C   UNL A   1      34.773  32.852  28.416  1.00  0.00     0.202 C 
BRANCH  29  30
ATOM     30  C   UNL A   1      34.844  33.522  29.788  1.00  0.00     0.261 C 
BRANCH  30  31
ATOM     31  O   UNL A   1      36.019  33.244  30.511  1.00  0.00    -0.460 OA
BRANCH  31  32
ATOM     32  C   UNL A   1      35.783  32.361  31.503  1.00  0.00     0.338 C 
ATOM     33  O   UNL A   1      34.845  32.377  32.299  1.00  0.00    -0.246 OA
BRANCH  32  34
ATOM     34  C   UNL A   1      36.928  31.474  31.613  1.00  0.00     0.060 A 
ATOM     35  C   UNL A   1      37.822  31.745  32.647  1.00  0.00     0.016 A 
ATOM     36  C   UNL A   1      37.231  30.599  30.556  1.00  0.00     0.016 A 
ATOM     37  C   UNL A   1      39.098  31.255  32.541  1.00  0.00     0.010 A 
ATOM     38  C   UNL A   1      38.511  30.128  30.440  1.00  0.00     0.010 A 
ATOM     39  C   UNL A   1      39.436  30.513  31.404  1.00  0.00    -0.014 A 
BRANCH  39  40
ATOM     40  C   UNL A   1      40.794  30.044  31.309  1.00  0.00     0.031 A 
ATOM     41  C   UNL A   1      41.636  30.919  30.471  1.00  0.00     0.074 A 
ATOM     42  C   UNL A   1      41.239  28.999  32.021  1.00  0.00     0.049 A 
ATOM     43  N   UNL A   1      42.117  30.681  29.298  1.00  0.00    -0.248 NA
ATOM     44  C   UNL A   1      41.785  32.314  30.917  1.00  0.00     0.031 C 
ATOM     45  C   UNL A   1      40.569  28.326  33.137  1.00  0.00     0.029 A 
ATOM     46  N   UNL A   1      42.452  28.399  31.968  1.00  0.00    -0.354 N 
ATOM     47  C   UNL A   1      42.844  31.823  28.976  1.00  0.00     0.074 A 
ATOM     48  C   UNL A   1      42.400  32.857  29.869  1.00  0.00     0.031 C 
ATOM     49  C   UNL A   1      41.475  27.565  33.791  1.00  0.00     0.029 A 
ATOM     50  C   UNL A   1      42.734  27.605  33.066  1.00  0.00     0.049 A 
ATOM     51  H   UNL A   1      43.077  28.517  31.217  1.00  0.00     0.167 HD
ATOM     52  C   UNL A   1      43.974  31.744  28.227  1.00  0.00     0.037 A 
ATOM     53  C   UNL A   1      43.953  27.115  33.390  1.00  0.00     0.037 A 
ATOM     54  C   UNL A   1      44.035  30.499  27.503  1.00  0.00     0.049 A 
ATOM     55  C   UNL A   1      44.798  27.164  32.166  1.00  0.00     0.074 A 
ATOM     56  C   UNL A   1      43.253  29.890  26.542  1.00  0.00     0.029 A 
ATOM     57  N   UNL A   1      44.839  29.518  28.031  1.00  0.00    -0.354 N 
ATOM     58  N   UNL A   1      44.571  26.465  31.085  1.00  0.00    -0.248 NA
ATOM     59  C   UNL A   1      45.698  28.296  31.985  1.00  0.00     0.031 C 
ATOM     60  C   UNL A   1      43.356  28.492  26.796  1.00  0.00     0.029 A 
ATOM     61  C   UNL A   1      44.216  28.306  27.881  1.00  0.00     0.049 A 
ATOM     62  H   UNL A   1      45.718  29.663  28.449  1.00  0.00     0.167 HD
ATOM     63  C   UNL A   1      44.962  27.284  30.034  1.00  0.00     0.074 A 
ATOM     64  C   UNL A   1      45.771  28.326  30.651  1.00  0.00     0.031 C 
ATOM     65  C   UNL A   1      44.361  27.199  28.810  1.00  0.00     0.037 A 
BRANCH  52  66
ATOM     66  C   UNL A   1      45.202  32.588  28.491  1.00  0.00     0.058 A 
ATOM     67  C   UNL A   1      45.747  33.346  27.437  1.00  0.00     0.135 A 
ATOM     68  C   UNL A   1      46.026  32.459  29.636  1.00  0.00     0.135 A 
ATOM     69  F   UNL A   1      45.056  33.531  26.301  1.00  0.00    -0.206 F 
ATOM     70  C   UNL A   1      47.043  33.862  27.483  1.00  0.00     0.059 A 
ATOM     71  C   UNL A   1      47.293  33.017  29.726  1.00  0.00     0.059 A 
ATOM     72  F   UNL A   1      45.698  31.700  30.686  1.00  0.00    -0.206 F 
ATOM     73  C   UNL A   1      47.814  33.672  28.626  1.00  0.00     0.060 A 
BRANCH  73  74
ATOM     74  S   UNL A   1      49.532  34.205  28.643  1.00  0.00     0.124 S 
ATOM     75  O   UNL A   1      49.530  35.135  29.767  1.00  0.00    -0.237 OA
ATOM     76  O   UNL A   1      50.239  32.946  28.850  1.00  0.00    -0.237 OA
ATOM     77  O   UNL A   1      49.709  34.806  27.324  1.00  0.00    -0.744 OA
ENDBRANCH  73  74
ENDBRANCH  52  66
BRANCH  53  78
ATOM     78  C   UNL A   1      44.504  26.955  34.759  1.00  0.00     0.058 A 
ATOM     79  C   UNL A   1      44.855  28.069  35.538  1.00  0.00     0.135 A 
ATOM     80  C   UNL A   1      44.469  25.712  35.426  1.00  0.00     0.135 A 
ATOM     81  F   UNL A   1      44.879  29.294  34.991  1.00  0.00    -0.206 F 
ATOM     82  C   UNL A   1      45.132  27.961  36.905  1.00  0.00     0.059 A 
ATOM     83  C   UNL A   1      44.757  25.577  36.782  1.00  0.00     0.059 A 
ATOM     84  F   UNL A   1      44.067  24.598  34.798  1.00  0.00    -0.206 F 
ATOM     85  C   UNL A   1      45.069  26.710  37.521  1.00  0.00     0.060 A 
BRANCH  85  86
ATOM     86  S   UNL A   1      45.290  26.586  39.310  1.00  0.00     0.124 S 
ATOM     87  O   UNL A   1      43.910  26.596  39.784  1.00  0.00    -0.237 OA
ATOM     88  O   UNL A   1      46.003  25.320  39.444  1.00  0.00    -0.237 OA
ATOM     89  O   UNL A   1      46.070  27.776  39.640  1.00  0.00    -0.744 OA
ENDBRANCH  85  86
ENDBRANCH  53  78
BRANCH  65  90
ATOM     90  C   UNL A   1      43.597  25.944  28.483  1.00  0.00     0.058 A 
ATOM     91  C   UNL A   1      42.222  25.765  28.709  1.00  0.00     0.135 A 
ATOM     92  C   UNL A   1      44.266  24.936  27.770  1.00  0.00     0.135 A 
ATOM     93  F   UNL A   1      41.491  26.722  29.297  1.00  0.00    -0.206 F 
ATOM     94  C   UNL A   1      41.549  24.621  28.273  1.00  0.00     0.059 A 
ATOM     95  C   UNL A   1      43.610  23.802  27.297  1.00  0.00     0.059 A 
ATOM     96  F   UNL A   1      45.568  25.075  27.470  1.00  0.00    -0.206 F 
ATOM     97  C   UNL A   1      42.251  23.647  27.562  1.00  0.00     0.060 A 
BRANCH  97  98
ATOM     98  S   UNL A   1      41.358  22.220  26.905  1.00  0.00     0.124 S 
ATOM     99  O   UNL A   1      41.940  22.080  25.574  1.00  0.00    -0.237 OA
ATOM    100  O   UNL A   1      41.695  21.166  27.859  1.00  0.00    -0.237 OA
ATOM    101  O   UNL A   1      39.962  22.648  26.933  1.00  0.00    -0.744 OA
ENDBRANCH  97  98
ENDBRANCH  65  90
ENDBRANCH  39  40
ENDBRANCH  32  34
ENDBRANCH  31  32
ENDBRANCH  30  31
ENDBRANCH  29  30
ENDBRANCH  28  29
ENDBRANCH   1  28
TORSDOF 21
ENDMDL
