MODEL 1
REMARK VINA RESULT:     -10.4      0.000      0.000
REMARK SMILES CCCC[C@H](C(=O)OCCOCCOC(=O)c1ccc(-c2c3nc(c(-c4c(F)cc(S(=O)(=O)[O-])cc4F)c4ccc([nH]4)c(-c4c(F)cc(S(=O)(=O)[O-])cc4F)c4nc(c(-c5c(F)cc(S(=O)(=O)[O-])cc5F)c5ccc2[nH]5)C=C4)C=C3)cc1)[C@H](O)c1ccc(C(F)(F)F)cc1
REMARK SMILES IDX 11 1 10 2 9 3 8 4 6 5 7 6 5 7 4 8 3 9 2 10 1 11 83 12 85 13
REMARK SMILES IDX 86 14 94 15 87 16 93 17 88 18 89 19 90 20 91 21 92 22 84 23
REMARK SMILES IDX 12 25 13 26 14 27 15 28 16 29 17 30 18 31 82 32 19 33 81 34
REMARK SMILES IDX 20 35 21 36 22 37 75 38 23 39 80 40 74 41 76 42 24 43 79 44
REMARK SMILES IDX 73 45 72 46 25 48 59 49 38 50 58 51 39 52 42 53 57 54 77 55
REMARK SMILES IDX 40 56 41 57 56 59 78 60 43 61 26 62 27 63 36 64 28 65 29 66
REMARK SMILES IDX 35 67 37 68 30 69 31 70 32 71 33 72 34 73 60 74 61 75 70 76
REMARK SMILES IDX 62 77 63 78 69 79 71 80 64 81 65 82 66 83 67 84 68 85 44 86
REMARK SMILES IDX 45 87 54 88 46 89 47 90 53 91 55 92 48 93 49 94 50 95 51 96
REMARK SMILES IDX 52 97
REMARK H PARENT 84 24 76 47 42 58
REMARK Flexibility Score: inf
ROOT
ATOM      1  O   UNL A   1      32.255  29.976  27.303  1.00  0.00    -0.374 OA
ENDROOT
BRANCH   1   2
ATOM      2  C   UNL A   1      32.567  28.582  27.351  1.00  0.00     0.202 C 
BRANCH   2   3
ATOM      3  C   UNL A   1      31.768  27.677  26.409  1.00  0.00     0.261 C 
BRANCH   3   4
ATOM      4  O   UNL A   1      31.582  26.390  27.012  1.00  0.00    -0.463 OA
BRANCH   4   5
ATOM      5  C   UNL A   1      31.070  25.428  26.199  1.00  0.00     0.312 C 
ATOM      6  O   UNL A   1      30.210  24.621  26.522  1.00  0.00    -0.252 OA
BRANCH   5   7
ATOM      7  C   UNL A   1      31.681  25.545  24.819  1.00  0.00     0.132 C 
BRANCH   7   8
ATOM      8  C   UNL A   1      32.771  24.486  24.576  1.00  0.00     0.018 C 
BRANCH   8   9
ATOM      9  C   UNL A   1      34.116  24.711  25.283  1.00  0.00     0.001 C 
BRANCH   9  10
ATOM     10  C   UNL A   1      35.360  24.053  24.675  1.00  0.00    -0.003 C 
ATOM     11  C   UNL A   1      36.453  23.708  25.673  1.00  0.00     0.004 C 
ENDBRANCH   9  10
ENDBRANCH   8   9
ENDBRANCH   7   8
BRANCH   7  12
ATOM     12  C   UNL A   1      30.541  25.429  23.779  1.00  0.00     0.158 C 
BRANCH  12  13
ATOM     13  C   UNL A   1      29.966  26.765  23.328  1.00  0.00    -0.019 A 
ATOM     14  C   UNL A   1      28.602  27.034  23.517  1.00  0.00     0.007 A 
ATOM     15  C   UNL A   1      30.771  27.757  22.751  1.00  0.00     0.007 A 
ATOM     16  C   UNL A   1      28.059  28.269  23.157  1.00  0.00     0.013 A 
ATOM     17  C   UNL A   1      30.226  28.992  22.381  1.00  0.00     0.013 A 
ATOM     18  C   UNL A   1      28.865  29.262  22.585  1.00  0.00     0.056 A 
BRANCH  18  19
ATOM     19  C   UNL A   1      28.262  30.596  22.217  1.00  0.00     0.416 C 
ATOM     20  F   UNL A   1      27.313  31.001  23.107  1.00  0.00    -0.166 F 
ATOM     21  F   UNL A   1      29.184  31.597  22.176  1.00  0.00    -0.166 F 
ATOM     22  F   UNL A   1      27.650  30.601  20.999  1.00  0.00    -0.166 F 
ENDBRANCH  18  19
ENDBRANCH  12  13
BRANCH  12  23
ATOM     23  O   UNL A   1      31.011  24.730  22.619  1.00  0.00    -0.388 OA
ATOM     24  H   UNL A   1      30.266  24.556  22.023  1.00  0.00     0.211 HD
ENDBRANCH  12  23
ENDBRANCH   7  12
ENDBRANCH   5   7
ENDBRANCH   4   5
ENDBRANCH   3   4
ENDBRANCH   2   3
ENDBRANCH   1   2
BRANCH   1  25
ATOM     25  C   UNL A   1      33.306  30.881  26.969  1.00  0.00     0.202 C 
BRANCH  25  26
ATOM     26  C   UNL A   1      33.638  31.991  27.980  1.00  0.00     0.261 C 
BRANCH  26  27
ATOM     27  O   UNL A   1      33.346  33.325  27.521  1.00  0.00    -0.460 OA
BRANCH  27  28
ATOM     28  C   UNL A   1      33.354  34.265  28.501  1.00  0.00     0.338 C 
ATOM     29  O   UNL A   1      32.513  35.127  28.700  1.00  0.00    -0.246 OA
BRANCH  28  30
ATOM     30  C   UNL A   1      34.495  34.086  29.417  1.00  0.00     0.060 A 
ATOM     31  C   UNL A   1      35.783  34.239  28.894  1.00  0.00     0.016 A 
ATOM     32  C   UNL A   1      34.309  33.564  30.700  1.00  0.00     0.016 A 
ATOM     33  C   UNL A   1      36.889  33.823  29.636  1.00  0.00     0.010 A 
ATOM     34  C   UNL A   1      35.424  33.146  31.441  1.00  0.00     0.010 A 
ATOM     35  C   UNL A   1      36.717  33.233  30.897  1.00  0.00    -0.014 A 
BRANCH  35  36
ATOM     36  C   UNL A   1      37.889  32.611  31.568  1.00  0.00     0.031 A 
ATOM     37  C   UNL A   1      38.337  33.112  32.916  1.00  0.00     0.074 A 
ATOM     38  C   UNL A   1      38.510  31.556  31.008  1.00  0.00     0.049 A 
ATOM     39  N   UNL A   1      39.277  32.649  33.703  1.00  0.00    -0.248 NA
ATOM     40  C   UNL A   1      37.637  34.290  33.451  1.00  0.00     0.031 C 
ATOM     41  C   UNL A   1      38.172  30.968  29.713  1.00  0.00     0.029 A 
ATOM     42  N   UNL A   1      39.549  30.786  31.466  1.00  0.00    -0.354 N 
ATOM     43  C   UNL A   1      39.277  33.471  34.824  1.00  0.00     0.074 A 
ATOM     44  C   UNL A   1      38.269  34.485  34.599  1.00  0.00     0.031 C 
ATOM     45  C   UNL A   1      38.985  29.924  29.482  1.00  0.00     0.029 A 
ATOM     46  C   UNL A   1      39.908  29.775  30.606  1.00  0.00     0.049 A 
ATOM     47  H   UNL A   1      39.997  30.942  32.330  1.00  0.00     0.167 HD
ATOM     48  C   UNL A   1      40.036  33.383  35.945  1.00  0.00     0.037 A 
ATOM     49  C   UNL A   1      40.868  28.836  30.712  1.00  0.00     0.037 A 
ATOM     50  C   UNL A   1      41.039  32.373  36.173  1.00  0.00     0.049 A 
ATOM     51  C   UNL A   1      41.710  28.768  31.958  1.00  0.00     0.074 A 
ATOM     52  C   UNL A   1      41.841  32.191  37.287  1.00  0.00     0.029 A 
ATOM     53  N   UNL A   1      41.383  31.378  35.270  1.00  0.00    -0.354 N 
ATOM     54  N   UNL A   1      41.669  29.529  33.026  1.00  0.00    -0.248 NA
ATOM     55  C   UNL A   1      42.719  27.700  32.020  1.00  0.00     0.031 C 
ATOM     56  C   UNL A   1      42.694  31.108  37.044  1.00  0.00     0.029 A 
ATOM     57  C   UNL A   1      42.395  30.590  35.795  1.00  0.00     0.049 A 
ATOM     58  H   UNL A   1      40.969  31.250  34.387  1.00  0.00     0.167 HD
ATOM     59  C   UNL A   1      42.630  29.019  33.894  1.00  0.00     0.074 A 
ATOM     60  C   UNL A   1      43.225  27.876  33.233  1.00  0.00     0.031 C 
ATOM     61  C   UNL A   1      42.984  29.456  35.128  1.00  0.00     0.037 A 
BRANCH  48  62
ATOM     62  C   UNL A   1      39.817  34.419  37.013  1.00  0.00     0.058 A 
ATOM     63  C   UNL A   1      38.992  34.169  38.122  1.00  0.00     0.135 A 
ATOM     64  C   UNL A   1      40.469  35.661  36.947  1.00  0.00     0.135 A 
ATOM     65  F   UNL A   1      38.336  33.003  38.226  1.00  0.00    -0.206 F 
ATOM     66  C   UNL A   1      38.799  35.126  39.114  1.00  0.00     0.059 A 
ATOM     67  C   UNL A   1      40.308  36.624  37.940  1.00  0.00     0.059 A 
ATOM     68  F   UNL A   1      41.270  35.950  35.910  1.00  0.00    -0.206 F 
ATOM     69  C   UNL A   1      39.460  36.351  39.013  1.00  0.00     0.060 A 
BRANCH  69  70
ATOM     70  S   UNL A   1      39.202  37.584  40.307  1.00  0.00     0.124 S 
ATOM     71  O   UNL A   1      38.866  36.740  41.451  1.00  0.00    -0.237 OA
ATOM     72  O   UNL A   1      40.500  38.250  40.371  1.00  0.00    -0.237 OA
ATOM     73  O   UNL A   1      38.109  38.399  39.787  1.00  0.00    -0.744 OA
ENDBRANCH  69  70
ENDBRANCH  48  62
BRANCH  49  74
ATOM     74  C   UNL A   1      41.073  27.865  29.606  1.00  0.00     0.058 A 
ATOM     75  C   UNL A   1      42.168  27.974  28.737  1.00  0.00     0.135 A 
ATOM     76  C   UNL A   1      40.179  26.803  29.404  1.00  0.00     0.135 A 
ATOM     77  F   UNL A   1      43.045  28.980  28.885  1.00  0.00    -0.206 F 
ATOM     78  C   UNL A   1      42.364  27.072  27.697  1.00  0.00     0.059 A 
ATOM     79  C   UNL A   1      40.366  25.875  28.386  1.00  0.00     0.059 A 
ATOM     80  F   UNL A   1      39.122  26.650  30.217  1.00  0.00    -0.206 F 
ATOM     81  C   UNL A   1      41.457  26.023  27.531  1.00  0.00     0.060 A 
BRANCH  81  82
ATOM     82  S   UNL A   1      41.751  24.820  26.216  1.00  0.00     0.124 S 
ATOM     83  O   UNL A   1      40.568  23.974  26.324  1.00  0.00    -0.237 OA
ATOM     84  O   UNL A   1      41.824  25.669  25.031  1.00  0.00    -0.237 OA
ATOM     85  O   UNL A   1      43.012  24.199  26.610  1.00  0.00    -0.744 OA
ENDBRANCH  81  82
ENDBRANCH  49  74
BRANCH  61  86
ATOM     86  C   UNL A   1      44.047  28.676  35.853  1.00  0.00     0.058 A 
ATOM     87  C   UNL A   1      43.726  27.593  36.687  1.00  0.00     0.135 A 
ATOM     88  C   UNL A   1      45.402  29.011  35.707  1.00  0.00     0.135 A 
ATOM     89  F   UNL A   1      42.445  27.232  36.863  1.00  0.00    -0.206 F 
ATOM     90  C   UNL A   1      44.710  26.894  37.382  1.00  0.00     0.059 A 
ATOM     91  C   UNL A   1      46.404  28.311  36.374  1.00  0.00     0.059 A 
ATOM     92  F   UNL A   1      45.766  30.029  34.912  1.00  0.00    -0.206 F 
ATOM     93  C   UNL A   1      46.045  27.267  37.225  1.00  0.00     0.060 A 
BRANCH  93  94
ATOM     94  S   UNL A   1      47.315  26.364  38.138  1.00  0.00     0.124 S 
ATOM     95  O   UNL A   1      47.355  25.100  37.411  1.00  0.00    -0.237 OA
ATOM     96  O   UNL A   1      48.487  27.222  37.982  1.00  0.00    -0.237 OA
ATOM     97  O   UNL A   1      46.774  26.294  39.492  1.00  0.00    -0.744 OA
ENDBRANCH  93  94
ENDBRANCH  61  86
ENDBRANCH  35  36
ENDBRANCH  28  30
ENDBRANCH  27  28
ENDBRANCH  26  27
ENDBRANCH  25  26
ENDBRANCH   1  25
TORSDOF 24
ENDMDL
MODEL 2
REMARK VINA RESULT:     -10.4      2.732      8.232
REMARK SMILES CCCC[C@H](C(=O)OCCOCCOC(=O)c1ccc(-c2c3nc(c(-c4c(F)cc(S(=O)(=O)[O-])cc4F)c4ccc([nH]4)c(-c4c(F)cc(S(=O)(=O)[O-])cc4F)c4nc(c(-c5c(F)cc(S(=O)(=O)[O-])cc5F)c5ccc2[nH]5)C=C4)C=C3)cc1)[C@H](O)c1ccc(C(F)(F)F)cc1
REMARK SMILES IDX 11 1 10 2 9 3 8 4 6 5 7 6 5 7 4 8 3 9 2 10 1 11 83 12 85 13
REMARK SMILES IDX 86 14 94 15 87 16 93 17 88 18 89 19 90 20 91 21 92 22 84 23
REMARK SMILES IDX 12 25 13 26 14 27 15 28 16 29 17 30 18 31 82 32 19 33 81 34
REMARK SMILES IDX 20 35 21 36 22 37 75 38 23 39 80 40 74 41 76 42 24 43 79 44
REMARK SMILES IDX 73 45 72 46 25 48 59 49 38 50 58 51 39 52 42 53 57 54 77 55
REMARK SMILES IDX 40 56 41 57 56 59 78 60 43 61 26 62 27 63 36 64 28 65 29 66
REMARK SMILES IDX 35 67 37 68 30 69 31 70 32 71 33 72 34 73 60 74 61 75 70 76
REMARK SMILES IDX 62 77 63 78 69 79 71 80 64 81 65 82 66 83 67 84 68 85 44 86
REMARK SMILES IDX 45 87 54 88 46 89 47 90 53 91 55 92 48 93 49 94 50 95 51 96
REMARK SMILES IDX 52 97
REMARK H PARENT 84 24 76 47 42 58
REMARK Flexibility Score: inf
ROOT
ATOM      1  O   UNL A   1      36.658  22.779  26.035  1.00  0.00    -0.374 OA
ENDROOT
BRANCH   1   2
ATOM      2  C   UNL A   1      35.489  21.977  26.228  1.00  0.00     0.202 C 
BRANCH   2   3
ATOM      3  C   UNL A   1      34.174  22.562  25.705  1.00  0.00     0.261 C 
BRANCH   3   4
ATOM      4  O   UNL A   1      33.692  23.562  26.612  1.00  0.00    -0.463 OA
BRANCH   4   5
ATOM      5  C   UNL A   1      32.515  24.148  26.270  1.00  0.00     0.312 C 
ATOM      6  O   UNL A   1      31.409  23.754  26.613  1.00  0.00    -0.252 OA
BRANCH   5   7
ATOM      7  C   UNL A   1      32.781  25.392  25.450  1.00  0.00     0.132 C 
BRANCH   7   8
ATOM      8  C   UNL A   1      32.518  25.166  23.950  1.00  0.00     0.018 C 
BRANCH   8   9
ATOM      9  C   UNL A   1      33.638  25.589  22.988  1.00  0.00     0.001 C 
BRANCH   9  10
ATOM     10  C   UNL A   1      33.405  26.838  22.129  1.00  0.00    -0.003 C 
ATOM     11  C   UNL A   1      33.681  28.157  22.832  1.00  0.00     0.004 C 
ENDBRANCH   9  10
ENDBRANCH   8   9
ENDBRANCH   7   8
BRANCH   7  12
ATOM     12  C   UNL A   1      31.897  26.532  26.010  1.00  0.00     0.158 C 
BRANCH  12  13
ATOM     13  C   UNL A   1      32.670  27.772  26.438  1.00  0.00    -0.019 A 
ATOM     14  C   UNL A   1      31.975  28.904  26.888  1.00  0.00     0.007 A 
ATOM     15  C   UNL A   1      34.072  27.807  26.425  1.00  0.00     0.007 A 
ATOM     16  C   UNL A   1      32.661  30.036  27.331  1.00  0.00     0.013 A 
ATOM     17  C   UNL A   1      34.761  28.945  26.860  1.00  0.00     0.013 A 
ATOM     18  C   UNL A   1      34.063  30.070  27.323  1.00  0.00     0.056 A 
BRANCH  18  19
ATOM     19  C   UNL A   1      34.785  31.297  27.821  1.00  0.00     0.416 C 
ATOM     20  F   UNL A   1      36.092  31.324  27.433  1.00  0.00    -0.166 F 
ATOM     21  F   UNL A   1      34.237  32.454  27.358  1.00  0.00    -0.166 F 
ATOM     22  F   UNL A   1      34.802  31.408  29.179  1.00  0.00    -0.166 F 
ENDBRANCH  18  19
ENDBRANCH  12  13
BRANCH  12  23
ATOM     23  O   UNL A   1      30.930  26.925  25.026  1.00  0.00    -0.388 OA
ATOM     24  H   UNL A   1      30.124  27.229  25.470  1.00  0.00     0.211 HD
ENDBRANCH  12  23
ENDBRANCH   7  12
ENDBRANCH   5   7
ENDBRANCH   4   5
ENDBRANCH   3   4
ENDBRANCH   2   3
ENDBRANCH   1   2
BRANCH   1  25
ATOM     25  C   UNL A   1      37.844  22.127  25.582  1.00  0.00     0.202 C 
BRANCH  25  26
ATOM     26  C   UNL A   1      39.167  22.502  26.268  1.00  0.00     0.261 C 
BRANCH  26  27
ATOM     27  O   UNL A   1      39.094  23.667  27.112  1.00  0.00    -0.460 OA
BRANCH  27  28
ATOM     28  C   UNL A   1      40.300  24.222  27.400  1.00  0.00     0.338 C 
ATOM     29  O   UNL A   1      41.398  23.807  27.068  1.00  0.00    -0.246 OA
BRANCH  28  30
ATOM     30  C   UNL A   1      40.152  25.501  28.118  1.00  0.00     0.060 A 
ATOM     31  C   UNL A   1      41.267  26.343  28.190  1.00  0.00     0.016 A 
ATOM     32  C   UNL A   1      39.014  25.765  28.885  1.00  0.00     0.016 A 
ATOM     33  C   UNL A   1      41.266  27.425  29.071  1.00  0.00     0.010 A 
ATOM     34  C   UNL A   1      39.019  26.853  29.770  1.00  0.00     0.010 A 
ATOM     35  C   UNL A   1      40.160  27.664  29.900  1.00  0.00    -0.014 A 
BRANCH  35  36
ATOM     36  C   UNL A   1      40.270  28.689  30.972  1.00  0.00     0.031 A 
ATOM     37  C   UNL A   1      39.317  29.856  30.998  1.00  0.00     0.074 A 
ATOM     38  C   UNL A   1      41.173  28.544  31.959  1.00  0.00     0.049 A 
ATOM     39  N   UNL A   1      39.192  30.805  31.891  1.00  0.00    -0.248 NA
ATOM     40  C   UNL A   1      38.381  29.971  29.868  1.00  0.00     0.031 C 
ATOM     41  C   UNL A   1      42.148  27.458  32.058  1.00  0.00     0.029 A 
ATOM     42  N   UNL A   1      41.409  29.309  33.074  1.00  0.00    -0.354 N 
ATOM     43  C   UNL A   1      38.164  31.625  31.439  1.00  0.00     0.074 A 
ATOM     44  C   UNL A   1      37.724  31.081  30.171  1.00  0.00     0.031 C 
ATOM     45  C   UNL A   1      42.873  27.623  33.177  1.00  0.00     0.029 A 
ATOM     46  C   UNL A   1      42.423  28.830  33.868  1.00  0.00     0.049 A 
ATOM     47  H   UNL A   1      40.899  30.125  33.285  1.00  0.00     0.167 HD
ATOM     48  C   UNL A   1      37.625  32.720  32.029  1.00  0.00     0.037 A 
ATOM     49  C   UNL A   1      42.931  29.307  35.022  1.00  0.00     0.037 A 
ATOM     50  C   UNL A   1      38.059  33.262  33.293  1.00  0.00     0.049 A 
ATOM     51  C   UNL A   1      42.327  30.535  35.650  1.00  0.00     0.074 A 
ATOM     52  C   UNL A   1      37.556  34.354  33.980  1.00  0.00     0.029 A 
ATOM     53  N   UNL A   1      39.100  32.757  34.057  1.00  0.00    -0.354 N 
ATOM     54  N   UNL A   1      41.329  31.273  35.228  1.00  0.00    -0.248 NA
ATOM     55  C   UNL A   1      42.911  30.984  36.923  1.00  0.00     0.031 C 
ATOM     56  C   UNL A   1      38.317  34.531  35.142  1.00  0.00     0.029 A 
ATOM     57  C   UNL A   1      39.266  33.525  35.199  1.00  0.00     0.049 A 
ATOM     58  H   UNL A   1      39.641  31.970  33.823  1.00  0.00     0.167 HD
ATOM     59  C   UNL A   1      41.150  32.260  36.193  1.00  0.00     0.074 A 
ATOM     60  C   UNL A   1      42.134  32.014  37.228  1.00  0.00     0.031 C 
ATOM     61  C   UNL A   1      40.251  33.275  36.221  1.00  0.00     0.037 A 
BRANCH  48  62
ATOM     62  C   UNL A   1      36.505  33.417  31.306  1.00  0.00     0.058 A 
ATOM     63  C   UNL A   1      35.193  33.413  31.805  1.00  0.00     0.135 A 
ATOM     64  C   UNL A   1      36.754  34.127  30.121  1.00  0.00     0.135 A 
ATOM     65  F   UNL A   1      34.899  32.738  32.928  1.00  0.00    -0.206 F 
ATOM     66  C   UNL A   1      34.160  34.067  31.139  1.00  0.00     0.059 A 
ATOM     67  C   UNL A   1      35.741  34.808  29.451  1.00  0.00     0.059 A 
ATOM     68  F   UNL A   1      37.991  34.165  29.602  1.00  0.00    -0.206 F 
ATOM     69  C   UNL A   1      34.444  34.760  29.962  1.00  0.00     0.060 A 
BRANCH  69  70
ATOM     70  S   UNL A   1      33.096  35.605  29.107  1.00  0.00     0.124 S 
ATOM     71  O   UNL A   1      32.513  34.513  28.332  1.00  0.00    -0.237 OA
ATOM     72  O   UNL A   1      32.283  36.100  30.215  1.00  0.00    -0.237 OA
ATOM     73  O   UNL A   1      33.779  36.633  28.328  1.00  0.00    -0.744 OA
ENDBRANCH  69  70
ENDBRANCH  48  62
BRANCH  49  74
ATOM     74  C   UNL A   1      44.068  28.606  35.671  1.00  0.00     0.058 A 
ATOM     75  C   UNL A   1      45.396  28.924  35.350  1.00  0.00     0.135 A 
ATOM     76  C   UNL A   1      43.847  27.608  36.632  1.00  0.00     0.135 A 
ATOM     77  F   UNL A   1      45.657  29.865  34.430  1.00  0.00    -0.206 F 
ATOM     78  C   UNL A   1      46.466  28.269  35.951  1.00  0.00     0.059 A 
ATOM     79  C   UNL A   1      44.899  26.955  37.262  1.00  0.00     0.059 A 
ATOM     80  F   UNL A   1      42.593  27.276  36.979  1.00  0.00    -0.206 F 
ATOM     81  C   UNL A   1      46.206  27.286  36.909  1.00  0.00     0.060 A 
BRANCH  81  82
ATOM     82  S   UNL A   1      47.601  26.482  37.728  1.00  0.00     0.124 S 
ATOM     83  O   UNL A   1      46.962  25.304  38.304  1.00  0.00    -0.237 OA
ATOM     84  O   UNL A   1      48.514  26.235  36.616  1.00  0.00    -0.237 OA
ATOM     85  O   UNL A   1      48.050  27.489  38.684  1.00  0.00    -0.744 OA
ENDBRANCH  81  82
ENDBRANCH  49  74
BRANCH  61  86
ATOM     86  C   UNL A   1      40.274  34.178  37.424  1.00  0.00     0.058 A 
ATOM     87  C   UNL A   1      41.097  35.315  37.477  1.00  0.00     0.135 A 
ATOM     88  C   UNL A   1      39.458  33.909  38.534  1.00  0.00     0.135 A 
ATOM     89  F   UNL A   1      41.899  35.617  36.444  1.00  0.00    -0.206 F 
ATOM     90  C   UNL A   1      41.140  36.130  38.605  1.00  0.00     0.059 A 
ATOM     91  C   UNL A   1      39.467  34.724  39.663  1.00  0.00     0.059 A 
ATOM     92  F   UNL A   1      38.642  32.843  38.531  1.00  0.00    -0.206 F 
ATOM     93  C   UNL A   1      40.327  35.821  39.697  1.00  0.00     0.060 A 
BRANCH  93  94
ATOM     94  S   UNL A   1      40.394  36.876  41.161  1.00  0.00     0.124 S 
ATOM     95  O   UNL A   1      41.469  36.250  41.923  1.00  0.00    -0.237 OA
ATOM     96  O   UNL A   1      40.700  38.186  40.593  1.00  0.00    -0.237 OA
ATOM     97  O   UNL A   1      39.058  36.745  41.734  1.00  0.00    -0.744 OA
ENDBRANCH  93  94
ENDBRANCH  61  86
ENDBRANCH  35  36
ENDBRANCH  28  30
ENDBRANCH  27  28
ENDBRANCH  26  27
ENDBRANCH  25  26
ENDBRANCH   1  25
TORSDOF 24
ENDMDL
MODEL 3
REMARK VINA RESULT:     -10.3      6.629      8.983
REMARK SMILES CCCC[C@H](C(=O)OCCOCCOC(=O)c1ccc(-c2c3nc(c(-c4c(F)cc(S(=O)(=O)[O-])cc4F)c4ccc([nH]4)c(-c4c(F)cc(S(=O)(=O)[O-])cc4F)c4nc(c(-c5c(F)cc(S(=O)(=O)[O-])cc5F)c5ccc2[nH]5)C=C4)C=C3)cc1)[C@H](O)c1ccc(C(F)(F)F)cc1
REMARK SMILES IDX 11 1 10 2 9 3 8 4 6 5 7 6 5 7 4 8 3 9 2 10 1 11 83 12 85 13
REMARK SMILES IDX 86 14 94 15 87 16 93 17 88 18 89 19 90 20 91 21 92 22 84 23
REMARK SMILES IDX 12 25 13 26 14 27 15 28 16 29 17 30 18 31 82 32 19 33 81 34
REMARK SMILES IDX 20 35 21 36 22 37 75 38 23 39 80 40 74 41 76 42 24 43 79 44
REMARK SMILES IDX 73 45 72 46 25 48 59 49 38 50 58 51 39 52 42 53 57 54 77 55
REMARK SMILES IDX 40 56 41 57 56 59 78 60 43 61 26 62 27 63 36 64 28 65 29 66
REMARK SMILES IDX 35 67 37 68 30 69 31 70 32 71 33 72 34 73 60 74 61 75 70 76
REMARK SMILES IDX 62 77 63 78 69 79 71 80 64 81 65 82 66 83 67 84 68 85 44 86
REMARK SMILES IDX 45 87 54 88 46 89 47 90 53 91 55 92 48 93 49 94 50 95 51 96
REMARK SMILES IDX 52 97
REMARK H PARENT 84 24 76 47 42 58
REMARK Flexibility Score: inf
ROOT
ATOM      1  O   UNL A   1      33.556  30.987  27.977  1.00  0.00    -0.374 OA
ENDROOT
BRANCH   1   2
ATOM      2  C   UNL A   1      33.756  30.422  26.679  1.00  0.00     0.202 C 
BRANCH   2   3
ATOM      3  C   UNL A   1      32.597  29.594  26.116  1.00  0.00     0.261 C 
BRANCH   3   4
ATOM      4  O   UNL A   1      32.670  29.565  24.685  1.00  0.00    -0.463 OA
BRANCH   4   5
ATOM      5  C   UNL A   1      31.610  28.994  24.054  1.00  0.00     0.312 C 
ATOM      6  O   UNL A   1      30.723  29.607  23.476  1.00  0.00    -0.252 OA
BRANCH   5   7
ATOM      7  C   UNL A   1      31.724  27.486  24.123  1.00  0.00     0.132 C 
BRANCH   7   8
ATOM      8  C   UNL A   1      30.406  26.787  23.742  1.00  0.00     0.018 C 
BRANCH   8   9
ATOM      9  C   UNL A   1      29.872  25.745  24.735  1.00  0.00     0.001 C 
BRANCH   9  10
ATOM     10  C   UNL A   1      30.736  25.419  25.959  1.00  0.00    -0.003 C 
ATOM     11  C   UNL A   1      31.172  23.966  26.065  1.00  0.00     0.004 C 
ENDBRANCH   9  10
ENDBRANCH   8   9
ENDBRANCH   7   8
BRANCH   7  12
ATOM     12  C   UNL A   1      32.882  27.051  23.193  1.00  0.00     0.158 C 
BRANCH  12  13
ATOM     13  C   UNL A   1      33.560  25.751  23.605  1.00  0.00    -0.019 A 
ATOM     14  C   UNL A   1      33.486  24.631  22.764  1.00  0.00     0.007 A 
ATOM     15  C   UNL A   1      34.290  25.646  24.797  1.00  0.00     0.007 A 
ATOM     16  C   UNL A   1      34.140  23.443  23.094  1.00  0.00     0.013 A 
ATOM     17  C   UNL A   1      34.938  24.452  25.135  1.00  0.00     0.013 A 
ATOM     18  C   UNL A   1      34.874  23.339  24.284  1.00  0.00     0.056 A 
BRANCH  18  19
ATOM     19  C   UNL A   1      35.585  22.051  24.615  1.00  0.00     0.416 C 
ATOM     20  F   UNL A   1      35.897  21.954  25.939  1.00  0.00    -0.166 F 
ATOM     21  F   UNL A   1      34.839  20.949  24.329  1.00  0.00    -0.166 F 
ATOM     22  F   UNL A   1      36.762  21.889  23.948  1.00  0.00    -0.166 F 
ENDBRANCH  18  19
ENDBRANCH  12  13
BRANCH  12  23
ATOM     23  O   UNL A   1      32.397  26.897  21.853  1.00  0.00    -0.388 OA
ATOM     24  H   UNL A   1      32.833  26.137  21.437  1.00  0.00     0.211 HD
ENDBRANCH  12  23
ENDBRANCH   7  12
ENDBRANCH   5   7
ENDBRANCH   4   5
ENDBRANCH   3   4
ENDBRANCH   2   3
ENDBRANCH   1   2
BRANCH   1  25
ATOM     25  C   UNL A   1      34.319  32.142  28.324  1.00  0.00     0.202 C 
BRANCH  25  26
ATOM     26  C   UNL A   1      35.821  32.126  28.000  1.00  0.00     0.261 C 
BRANCH  26  27
ATOM     27  O   UNL A   1      36.679  32.397  29.125  1.00  0.00    -0.460 OA
BRANCH  27  28
ATOM     28  C   UNL A   1      36.806  31.360  29.993  1.00  0.00     0.338 C 
ATOM     29  O   UNL A   1      36.057  31.076  30.913  1.00  0.00    -0.246 OA
BRANCH  28  30
ATOM     30  C   UNL A   1      37.952  30.500  29.647  1.00  0.00     0.060 A 
ATOM     31  C   UNL A   1      39.054  30.502  30.508  1.00  0.00     0.016 A 
ATOM     32  C   UNL A   1      38.030  29.878  28.398  1.00  0.00     0.016 A 
ATOM     33  C   UNL A   1      40.257  29.925  30.100  1.00  0.00     0.010 A 
ATOM     34  C   UNL A   1      39.242  29.300  27.992  1.00  0.00     0.010 A 
ATOM     35  C   UNL A   1      40.375  29.357  28.823  1.00  0.00    -0.014 A 
BRANCH  35  36
ATOM     36  C   UNL A   1      41.718  28.942  28.339  1.00  0.00     0.031 A 
ATOM     37  C   UNL A   1      42.835  29.951  28.266  1.00  0.00     0.074 A 
ATOM     38  C   UNL A   1      41.961  27.655  28.030  1.00  0.00     0.049 A 
ATOM     39  N   UNL A   1      44.096  29.772  27.957  1.00  0.00    -0.248 NA
ATOM     40  C   UNL A   1      42.490  31.346  28.583  1.00  0.00     0.031 C 
ATOM     41  C   UNL A   1      40.972  26.578  28.065  1.00  0.00     0.029 A 
ATOM     42  N   UNL A   1      43.120  27.035  27.637  1.00  0.00    -0.354 N 
ATOM     43  C   UNL A   1      44.694  31.024  28.047  1.00  0.00     0.074 A 
ATOM     44  C   UNL A   1      43.649  31.961  28.405  1.00  0.00     0.031 C 
ATOM     45  C   UNL A   1      41.568  25.427  27.713  1.00  0.00     0.029 A 
ATOM     46  C   UNL A   1      42.977  25.685  27.418  1.00  0.00     0.049 A 
ATOM     47  H   UNL A   1      43.974  27.511  27.522  1.00  0.00     0.167 HD
ATOM     48  C   UNL A   1      45.994  31.362  27.864  1.00  0.00     0.037 A 
ATOM     49  C   UNL A   1      43.877  24.761  27.028  1.00  0.00     0.037 A 
ATOM     50  C   UNL A   1      47.037  30.431  27.512  1.00  0.00     0.049 A 
ATOM     51  C   UNL A   1      45.312  25.163  26.815  1.00  0.00     0.074 A 
ATOM     52  C   UNL A   1      48.387  30.678  27.328  1.00  0.00     0.029 A 
ATOM     53  N   UNL A   1      46.847  29.076  27.283  1.00  0.00    -0.354 N 
ATOM     54  N   UNL A   1      45.867  26.345  26.944  1.00  0.00    -0.248 NA
ATOM     55  C   UNL A   1      46.247  24.100  26.417  1.00  0.00     0.031 C 
ATOM     56  C   UNL A   1      49.007  29.480  26.954  1.00  0.00     0.029 A 
ATOM     57  C   UNL A   1      48.051  28.479  26.945  1.00  0.00     0.049 A 
ATOM     58  H   UNL A   1      45.984  28.608  27.352  1.00  0.00     0.167 HD
ATOM     59  C   UNL A   1      47.219  26.162  26.666  1.00  0.00     0.074 A 
ATOM     60  C   UNL A   1      47.399  24.754  26.376  1.00  0.00     0.031 C 
ATOM     61  C   UNL A   1      48.220  27.077  26.654  1.00  0.00     0.037 A 
BRANCH  48  62
ATOM     62  C   UNL A   1      46.365  32.810  28.034  1.00  0.00     0.058 A 
ATOM     63  C   UNL A   1      46.875  33.302  29.245  1.00  0.00     0.135 A 
ATOM     64  C   UNL A   1      46.242  33.708  26.961  1.00  0.00     0.135 A 
ATOM     65  F   UNL A   1      46.999  32.489  30.306  1.00  0.00    -0.206 F 
ATOM     66  C   UNL A   1      47.226  34.640  29.396  1.00  0.00     0.059 A 
ATOM     67  C   UNL A   1      46.609  35.046  27.083  1.00  0.00     0.059 A 
ATOM     68  F   UNL A   1      45.762  33.290  25.780  1.00  0.00    -0.206 F 
ATOM     69  C   UNL A   1      47.087  35.505  28.310  1.00  0.00     0.060 A 
BRANCH  69  70
ATOM     70  S   UNL A   1      47.547  37.239  28.518  1.00  0.00     0.124 S 
ATOM     71  O   UNL A   1      46.557  37.905  27.676  1.00  0.00    -0.237 OA
ATOM     72  O   UNL A   1      47.390  37.435  29.956  1.00  0.00    -0.237 OA
ATOM     73  O   UNL A   1      48.921  37.288  28.029  1.00  0.00    -0.744 OA
ENDBRANCH  69  70
ENDBRANCH  48  62
BRANCH  49  74
ATOM     74  C   UNL A   1      43.448  23.353  26.831  1.00  0.00     0.058 A 
ATOM     75  C   UNL A   1      43.263  22.823  25.546  1.00  0.00     0.135 A 
ATOM     76  C   UNL A   1      43.222  22.507  27.927  1.00  0.00     0.135 A 
ATOM     77  F   UNL A   1      43.458  23.596  24.466  1.00  0.00    -0.206 F 
ATOM     78  C   UNL A   1      42.858  21.506  25.353  1.00  0.00     0.059 A 
ATOM     79  C   UNL A   1      42.839  21.182  27.760  1.00  0.00     0.059 A 
ATOM     80  F   UNL A   1      43.396  22.966  29.176  1.00  0.00    -0.206 F 
ATOM     81  C   UNL A   1      42.650  20.692  26.468  1.00  0.00     0.060 A 
BRANCH  81  82
ATOM     82  S   UNL A   1      42.182  18.967  26.210  1.00  0.00     0.124 S 
ATOM     83  O   UNL A   1      43.170  18.539  25.227  1.00  0.00    -0.237 OA
ATOM     84  O   UNL A   1      42.325  18.404  27.549  1.00  0.00    -0.237 OA
ATOM     85  O   UNL A   1      40.808  19.065  25.726  1.00  0.00    -0.744 OA
ENDBRANCH  81  82
ENDBRANCH  49  74
BRANCH  61  86
ATOM     86  C   UNL A   1      49.604  26.576  26.345  1.00  0.00     0.058 A 
ATOM     87  C   UNL A   1      50.185  26.749  25.079  1.00  0.00     0.135 A 
ATOM     88  C   UNL A   1      50.362  25.921  27.329  1.00  0.00     0.135 A 
ATOM     89  F   UNL A   1      49.503  27.367  24.101  1.00  0.00    -0.206 F 
ATOM     90  C   UNL A   1      51.454  26.255  24.786  1.00  0.00     0.059 A 
ATOM     91  C   UNL A   1      51.642  25.440  27.066  1.00  0.00     0.059 A 
ATOM     92  F   UNL A   1      49.860  25.740  28.560  1.00  0.00    -0.206 F 
ATOM     93  C   UNL A   1      52.170  25.594  25.785  1.00  0.00     0.060 A 
BRANCH  93  94
ATOM     94  S   UNL A   1      53.811  24.946  25.397  1.00  0.00     0.124 S 
ATOM     95  O   UNL A   1      54.125  25.662  24.166  1.00  0.00    -0.237 OA
ATOM     96  O   UNL A   1      54.589  25.331  26.571  1.00  0.00    -0.237 OA
ATOM     97  O   UNL A   1      53.582  23.511  25.250  1.00  0.00    -0.744 OA
ENDBRANCH  93  94
ENDBRANCH  61  86
ENDBRANCH  35  36
ENDBRANCH  28  30
ENDBRANCH  27  28
ENDBRANCH  26  27
ENDBRANCH  25  26
ENDBRANCH   1  25
TORSDOF 24
ENDMDL
