MODEL 1
REMARK VINA RESULT:     -10.0      0.000      0.000
REMARK SMILES O=C(OCCOCCOC(=O)c1cn2ccccc2n1)c1ccc(-c2c3nc(c(-c4c(F)cc(S(=O)(=O)[O-])cc4F)c4ccc([nH]4)c(-c4c(F)cc(S(=O)(=O)[O-])cc4F)c4nc(c(-c5c(F)cc(S(=O)(=O)[O-])cc5F)c5ccc2[nH]5)C=C4)C=C3)cc1
REMARK SMILES IDX 4 1 3 2 2 3 1 4 21 5 22 6 86 7 23 8 85 9 24 10 25 11 26 12
REMARK SMILES IDX 79 13 27 14 84 15 78 16 80 17 28 18 83 19 77 20 76 21 29 23
REMARK SMILES IDX 63 24 42 25 62 26 43 27 46 28 61 29 81 30 44 31 45 32 60 34
REMARK SMILES IDX 82 35 47 36 30 37 31 38 40 39 32 40 33 41 39 42 41 43 34 44
REMARK SMILES IDX 35 45 36 46 37 47 38 48 64 49 65 50 74 51 66 52 67 53 73 54
REMARK SMILES IDX 75 55 68 56 69 57 70 58 71 59 72 60 48 61 49 62 58 63 50 64
REMARK SMILES IDX 51 65 57 66 59 67 52 68 53 69 54 70 55 71 56 72 5 73 6 74
REMARK SMILES IDX 7 75 8 76 9 77 10 78 11 79 12 80 13 81 20 82 14 83 19 84
REMARK SMILES IDX 15 85 18 86 16 87 17 88
REMARK H PARENT 80 22 46 33
REMARK Flexibility Score: inf
ROOT
ATOM      1  C   UNL A   1      34.084  32.569  28.774  1.00  0.00     0.261 C 
ENDROOT
BRANCH   1   2
ATOM      2  O   UNL A   1      33.838  31.454  27.896  1.00  0.00    -0.460 OA
BRANCH   2   3
ATOM      3  C   UNL A   1      34.408  30.227  27.893  1.00  0.00     0.338 C 
ATOM      4  O   UNL A   1      33.723  29.272  27.529  1.00  0.00    -0.246 OA
BRANCH   3   5
ATOM      5  C   UNL A   1      35.829  29.958  28.277  1.00  0.00     0.060 A 
ATOM      6  C   UNL A   1      36.256  29.478  29.518  1.00  0.00     0.016 A 
ATOM      7  C   UNL A   1      36.787  30.088  27.256  1.00  0.00     0.016 A 
ATOM      8  C   UNL A   1      37.607  29.204  29.759  1.00  0.00     0.010 A 
ATOM      9  C   UNL A   1      38.132  29.766  27.476  1.00  0.00     0.010 A 
ATOM     10  C   UNL A   1      38.554  29.335  28.737  1.00  0.00    -0.014 A 
BRANCH  10  11
ATOM     11  C   UNL A   1      39.975  29.005  28.993  1.00  0.00     0.031 A 
ATOM     12  C   UNL A   1      40.868  29.994  29.682  1.00  0.00     0.074 A 
ATOM     13  C   UNL A   1      40.459  27.803  28.621  1.00  0.00     0.049 A 
ATOM     14  N   UNL A   1      42.137  29.889  29.983  1.00  0.00    -0.248 NA
ATOM     15  C   UNL A   1      40.254  31.268  30.084  1.00  0.00     0.031 C 
ATOM     16  C   UNL A   1      39.690  26.754  27.950  1.00  0.00     0.029 A 
ATOM     17  N   UNL A   1      41.710  27.261  28.767  1.00  0.00    -0.354 N 
ATOM     18  C   UNL A   1      42.477  31.082  30.607  1.00  0.00     0.074 A 
ATOM     19  C   UNL A   1      41.284  31.903  30.626  1.00  0.00     0.031 C 
ATOM     20  C   UNL A   1      40.481  25.683  27.765  1.00  0.00     0.029 A 
ATOM     21  C   UNL A   1      41.814  25.980  28.281  1.00  0.00     0.049 A 
ATOM     22  H   UNL A   1      42.462  27.743  29.180  1.00  0.00     0.167 HD
ATOM     23  C   UNL A   1      43.671  31.459  31.122  1.00  0.00     0.037 A 
ATOM     24  C   UNL A   1      42.867  25.141  28.256  1.00  0.00     0.037 A 
ATOM     25  C   UNL A   1      44.859  30.650  31.108  1.00  0.00     0.049 A 
ATOM     26  C   UNL A   1      44.183  25.583  28.829  1.00  0.00     0.074 A 
ATOM     27  C   UNL A   1      46.124  30.962  31.575  1.00  0.00     0.029 A 
ATOM     28  N   UNL A   1      44.925  29.360  30.603  1.00  0.00    -0.354 N 
ATOM     29  N   UNL A   1      44.490  26.724  29.397  1.00  0.00    -0.248 NA
ATOM     30  C   UNL A   1      45.297  24.628  28.748  1.00  0.00     0.031 C 
ATOM     31  C   UNL A   1      46.958  29.860  31.346  1.00  0.00     0.029 A 
ATOM     32  C   UNL A   1      46.210  28.862  30.745  1.00  0.00     0.049 A 
ATOM     33  H   UNL A   1      44.172  28.872  30.201  1.00  0.00     0.167 HD
ATOM     34  C   UNL A   1      45.833  26.625  29.739  1.00  0.00     0.074 A 
ATOM     35  C   UNL A   1      46.276  25.308  29.330  1.00  0.00     0.031 C 
ATOM     36  C   UNL A   1      46.630  27.549  30.329  1.00  0.00     0.037 A 
BRANCH  23  37
ATOM     37  C   UNL A   1      43.733  32.824  31.736  1.00  0.00     0.058 A 
ATOM     38  C   UNL A   1      44.070  33.948  30.968  1.00  0.00     0.135 A 
ATOM     39  C   UNL A   1      43.493  33.005  33.106  1.00  0.00     0.135 A 
ATOM     40  F   UNL A   1      44.327  33.818  29.656  1.00  0.00    -0.206 F 
ATOM     41  C   UNL A   1      44.200  35.206  31.545  1.00  0.00     0.059 A 
ATOM     42  C   UNL A   1      43.610  34.257  33.703  1.00  0.00     0.059 A 
ATOM     43  F   UNL A   1      43.178  31.956  33.882  1.00  0.00    -0.206 F 
ATOM     44  C   UNL A   1      43.984  35.347  32.916  1.00  0.00     0.060 A 
BRANCH  44  45
ATOM     45  S   UNL A   1      44.208  36.970  33.676  1.00  0.00     0.124 S 
ATOM     46  O   UNL A   1      45.087  36.645  34.796  1.00  0.00    -0.237 OA
ATOM     47  O   UNL A   1      44.815  37.749  32.601  1.00  0.00    -0.237 OA
ATOM     48  O   UNL A   1      42.848  37.361  34.036  1.00  0.00    -0.744 OA
ENDBRANCH  44  45
ENDBRANCH  23  37
BRANCH  24  49
ATOM     49  C   UNL A   1      42.711  23.787  27.673  1.00  0.00     0.058 A 
ATOM     50  C   UNL A   1      42.831  23.584  26.291  1.00  0.00     0.135 A 
ATOM     51  C   UNL A   1      42.465  22.672  28.485  1.00  0.00     0.135 A 
ATOM     52  F   UNL A   1      43.062  24.627  25.479  1.00  0.00    -0.206 F 
ATOM     53  C   UNL A   1      42.710  22.318  25.730  1.00  0.00     0.059 A 
ATOM     54  C   UNL A   1      42.351  21.394  27.948  1.00  0.00     0.059 A 
ATOM     55  F   UNL A   1      42.351  22.819  29.814  1.00  0.00    -0.206 F 
ATOM     56  C   UNL A   1      42.469  21.228  26.567  1.00  0.00     0.060 A 
BRANCH  56  57
ATOM     57  S   UNL A   1      42.373  19.567  25.863  1.00  0.00     0.124 S 
ATOM     58  O   UNL A   1      43.371  19.641  24.802  1.00  0.00    -0.237 OA
ATOM     59  O   UNL A   1      42.712  18.714  26.998  1.00  0.00    -0.237 OA
ATOM     60  O   UNL A   1      40.983  19.483  25.423  1.00  0.00    -0.744 OA
ENDBRANCH  56  57
ENDBRANCH  24  49
BRANCH  36  61
ATOM     61  C   UNL A   1      48.061  27.168  30.555  1.00  0.00     0.058 A 
ATOM     62  C   UNL A   1      49.059  27.549  29.646  1.00  0.00     0.135 A 
ATOM     63  C   UNL A   1      48.445  26.456  31.702  1.00  0.00     0.135 A 
ATOM     64  F   UNL A   1      48.735  28.225  28.533  1.00  0.00    -0.206 F 
ATOM     65  C   UNL A   1      50.395  27.232  29.864  1.00  0.00     0.059 A 
ATOM     66  C   UNL A   1      49.777  26.135  31.943  1.00  0.00     0.059 A 
ATOM     67  F   UNL A   1      47.524  26.071  32.598  1.00  0.00    -0.206 F 
ATOM     68  C   UNL A   1      50.745  26.522  31.013  1.00  0.00     0.060 A 
BRANCH  68  69
ATOM     69  S   UNL A   1      52.484  26.145  31.323  1.00  0.00     0.124 S 
ATOM     70  O   UNL A   1      53.025  26.124  29.968  1.00  0.00    -0.237 OA
ATOM     71  O   UNL A   1      52.914  27.262  32.158  1.00  0.00    -0.237 OA
ATOM     72  O   UNL A   1      52.428  24.853  32.000  1.00  0.00    -0.744 OA
ENDBRANCH  68  69
ENDBRANCH  36  61
ENDBRANCH  10  11
ENDBRANCH   3   5
ENDBRANCH   2   3
ENDBRANCH   1   2
BRANCH   1  73
ATOM     73  C   UNL A   1      34.868  33.644  28.020  1.00  0.00     0.202 C 
BRANCH  73  74
ATOM     74  O   UNL A   1      34.652  34.955  28.546  1.00  0.00    -0.374 OA
BRANCH  74  75
ATOM     75  C   UNL A   1      33.282  35.348  28.681  1.00  0.00     0.202 C 
BRANCH  75  76
ATOM     76  C   UNL A   1      33.194  36.524  29.661  1.00  0.00     0.261 C 
BRANCH  76  77
ATOM     77  O   UNL A   1      32.282  36.167  30.715  1.00  0.00    -0.458 OA
BRANCH  77  78
ATOM     78  C   UNL A   1      32.776  36.374  31.977  1.00  0.00     0.358 C 
ATOM     79  O   UNL A   1      32.338  37.200  32.768  1.00  0.00    -0.244 OA
BRANCH  78  80
ATOM     80  C   UNL A   1      33.819  35.401  32.302  1.00  0.00     0.167 A 
ATOM     81  C   UNL A   1      35.076  35.668  32.820  1.00  0.00     0.128 A 
ATOM     82  N   UNL A   1      33.704  34.048  32.021  1.00  0.00    -0.222 NA
ATOM     83  N   UNL A   1      35.742  34.473  32.825  1.00  0.00    -0.306 N 
ATOM     84  C   UNL A   1      34.871  33.521  32.310  1.00  0.00     0.137 A 
ATOM     85  C   UNL A   1      37.047  34.186  33.220  1.00  0.00     0.093 A 
ATOM     86  C   UNL A   1      35.367  32.197  32.159  1.00  0.00     0.048 A 
ATOM     87  C   UNL A   1      37.510  32.931  33.087  1.00  0.00     0.018 A 
ATOM     88  C   UNL A   1      36.632  31.912  32.526  1.00  0.00     0.005 A 
ENDBRANCH  78  80
ENDBRANCH  77  78
ENDBRANCH  76  77
ENDBRANCH  75  76
ENDBRANCH  74  75
ENDBRANCH  73  74
ENDBRANCH   1  73
TORSDOF 17
ENDMDL
MODEL 2
REMARK VINA RESULT:     -10.0      3.183     12.030
REMARK SMILES O=C(OCCOCCOC(=O)c1cn2ccccc2n1)c1ccc(-c2c3nc(c(-c4c(F)cc(S(=O)(=O)[O-])cc4F)c4ccc([nH]4)c(-c4c(F)cc(S(=O)(=O)[O-])cc4F)c4nc(c(-c5c(F)cc(S(=O)(=O)[O-])cc5F)c5ccc2[nH]5)C=C4)C=C3)cc1
REMARK SMILES IDX 4 1 3 2 2 3 1 4 21 5 22 6 86 7 23 8 85 9 24 10 25 11 26 12
REMARK SMILES IDX 79 13 27 14 84 15 78 16 80 17 28 18 83 19 77 20 76 21 29 23
REMARK SMILES IDX 63 24 42 25 62 26 43 27 46 28 61 29 81 30 44 31 45 32 60 34
REMARK SMILES IDX 82 35 47 36 30 37 31 38 40 39 32 40 33 41 39 42 41 43 34 44
REMARK SMILES IDX 35 45 36 46 37 47 38 48 64 49 65 50 74 51 66 52 67 53 73 54
REMARK SMILES IDX 75 55 68 56 69 57 70 58 71 59 72 60 48 61 49 62 58 63 50 64
REMARK SMILES IDX 51 65 57 66 59 67 52 68 53 69 54 70 55 71 56 72 5 73 6 74
REMARK SMILES IDX 7 75 8 76 9 77 10 78 11 79 12 80 13 81 20 82 14 83 19 84
REMARK SMILES IDX 15 85 18 86 16 87 17 88
REMARK H PARENT 80 22 46 33
REMARK Flexibility Score: inf
ROOT
ATOM      1  C   UNL A   1      40.511  21.398  26.252  1.00  0.00     0.261 C 
ENDROOT
BRANCH   1   2
ATOM      2  O   UNL A   1      39.151  21.848  26.398  1.00  0.00    -0.460 OA
BRANCH   2   3
ATOM      3  C   UNL A   1      38.655  23.104  26.325  1.00  0.00     0.338 C 
ATOM      4  O   UNL A   1      37.517  23.251  25.879  1.00  0.00    -0.246 OA
BRANCH   3   5
ATOM      5  C   UNL A   1      39.387  24.327  26.778  1.00  0.00     0.060 A 
ATOM      6  C   UNL A   1      40.057  25.226  25.944  1.00  0.00     0.016 A 
ATOM      7  C   UNL A   1      39.282  24.649  28.142  1.00  0.00     0.016 A 
ATOM      8  C   UNL A   1      40.665  26.374  26.462  1.00  0.00     0.010 A 
ATOM      9  C   UNL A   1      39.844  25.823  28.658  1.00  0.00     0.010 A 
ATOM     10  C   UNL A   1      40.554  26.688  27.821  1.00  0.00    -0.014 A 
BRANCH  10  11
ATOM     11  C   UNL A   1      41.169  27.927  28.352  1.00  0.00     0.031 A 
ATOM     12  C   UNL A   1      42.655  28.124  28.278  1.00  0.00     0.074 A 
ATOM     13  C   UNL A   1      40.386  28.886  28.883  1.00  0.00     0.049 A 
ATOM     14  N   UNL A   1      43.374  29.133  28.696  1.00  0.00    -0.248 NA
ATOM     15  C   UNL A   1      43.433  27.044  27.653  1.00  0.00     0.031 C 
ATOM     16  C   UNL A   1      38.930  28.816  29.006  1.00  0.00     0.029 A 
ATOM     17  N   UNL A   1      40.708  30.111  29.409  1.00  0.00    -0.354 N 
ATOM     18  C   UNL A   1      44.690  28.812  28.390  1.00  0.00     0.074 A 
ATOM     19  C   UNL A   1      44.671  27.505  27.765  1.00  0.00     0.031 C 
ATOM     20  C   UNL A   1      38.481  29.961  29.549  1.00  0.00     0.029 A 
ATOM     21  C   UNL A   1      39.618  30.832  29.833  1.00  0.00     0.049 A 
ATOM     22  H   UNL A   1      41.633  30.443  29.477  1.00  0.00     0.167 HD
ATOM     23  C   UNL A   1      45.812  29.539  28.604  1.00  0.00     0.037 A 
ATOM     24  C   UNL A   1      39.546  32.057  30.387  1.00  0.00     0.037 A 
ATOM     25  C   UNL A   1      45.839  30.837  29.223  1.00  0.00     0.049 A 
ATOM     26  C   UNL A   1      40.804  32.842  30.619  1.00  0.00     0.074 A 
ATOM     27  C   UNL A   1      46.932  31.634  29.512  1.00  0.00     0.029 A 
ATOM     28  N   UNL A   1      44.714  31.531  29.642  1.00  0.00    -0.354 N 
ATOM     29  N   UNL A   1      42.042  32.513  30.341  1.00  0.00    -0.248 NA
ATOM     30  C   UNL A   1      40.656  34.162  31.250  1.00  0.00     0.031 C 
ATOM     31  C   UNL A   1      46.468  32.811  30.114  1.00  0.00     0.029 A 
ATOM     32  C   UNL A   1      45.086  32.748  30.189  1.00  0.00     0.049 A 
ATOM     33  H   UNL A   1      43.789  31.207  29.563  1.00  0.00     0.167 HD
ATOM     34  C   UNL A   1      42.821  33.582  30.764  1.00  0.00     0.074 A 
ATOM     35  C   UNL A   1      41.916  34.577  31.302  1.00  0.00     0.031 C 
ATOM     36  C   UNL A   1      44.169  33.722  30.721  1.00  0.00     0.037 A 
BRANCH  23  37
ATOM     37  C   UNL A   1      47.103  28.921  28.163  1.00  0.00     0.058 A 
ATOM     38  C   UNL A   1      47.583  29.101  26.857  1.00  0.00     0.135 A 
ATOM     39  C   UNL A   1      47.844  28.112  29.036  1.00  0.00     0.135 A 
ATOM     40  F   UNL A   1      46.894  29.851  25.982  1.00  0.00    -0.206 F 
ATOM     41  C   UNL A   1      48.742  28.471  26.419  1.00  0.00     0.059 A 
ATOM     42  C   UNL A   1      49.012  27.478  28.621  1.00  0.00     0.059 A 
ATOM     43  F   UNL A   1      47.418  27.902  30.291  1.00  0.00    -0.206 F 
ATOM     44  C   UNL A   1      49.441  27.648  27.304  1.00  0.00     0.060 A 
BRANCH  44  45
ATOM     45  S   UNL A   1      50.915  26.786  26.719  1.00  0.00     0.124 S 
ATOM     46  O   UNL A   1      51.824  27.903  26.477  1.00  0.00    -0.237 OA
ATOM     47  O   UNL A   1      51.257  25.928  27.849  1.00  0.00    -0.237 OA
ATOM     48  O   UNL A   1      50.445  26.088  25.527  1.00  0.00    -0.744 OA
ENDBRANCH  44  45
ENDBRANCH  23  37
BRANCH  24  49
ATOM     49  C   UNL A   1      38.223  32.619  30.752  1.00  0.00     0.058 A 
ATOM     50  C   UNL A   1      37.724  32.488  32.055  1.00  0.00     0.135 A 
ATOM     51  C   UNL A   1      37.448  33.316  29.815  1.00  0.00     0.135 A 
ATOM     52  F   UNL A   1      38.433  31.823  32.980  1.00  0.00    -0.206 F 
ATOM     53  C   UNL A   1      36.496  33.028  32.420  1.00  0.00     0.059 A 
ATOM     54  C   UNL A   1      36.222  33.875  30.159  1.00  0.00     0.059 A 
ATOM     55  F   UNL A   1      37.892  33.473  28.559  1.00  0.00    -0.206 F 
ATOM     56  C   UNL A   1      35.751  33.719  31.464  1.00  0.00     0.060 A 
BRANCH  56  57
ATOM     57  S   UNL A   1      34.184  34.483  31.937  1.00  0.00     0.124 S 
ATOM     58  O   UNL A   1      34.637  35.727  32.547  1.00  0.00    -0.237 OA
ATOM     59  O   UNL A   1      33.490  34.616  30.659  1.00  0.00    -0.237 OA
ATOM     60  O   UNL A   1      33.608  33.500  32.850  1.00  0.00    -0.744 OA
ENDBRANCH  56  57
ENDBRANCH  24  49
BRANCH  36  61
ATOM     61  C   UNL A   1      44.740  34.989  31.280  1.00  0.00     0.058 A 
ATOM     62  C   UNL A   1      45.145  35.065  32.621  1.00  0.00     0.135 A 
ATOM     63  C   UNL A   1      44.922  36.117  30.467  1.00  0.00     0.135 A 
ATOM     64  F   UNL A   1      44.982  34.011  33.436  1.00  0.00    -0.206 F 
ATOM     65  C   UNL A   1      45.709  36.224  33.142  1.00  0.00     0.059 A 
ATOM     66  C   UNL A   1      45.492  37.285  30.966  1.00  0.00     0.059 A 
ATOM     67  F   UNL A   1      44.550  36.089  29.179  1.00  0.00    -0.206 F 
ATOM     68  C   UNL A   1      45.875  37.331  32.307  1.00  0.00     0.060 A 
BRANCH  68  69
ATOM     69  S   UNL A   1      46.648  38.825  32.967  1.00  0.00     0.124 S 
ATOM     70  O   UNL A   1      45.851  39.870  32.335  1.00  0.00    -0.237 OA
ATOM     71  O   UNL A   1      46.465  38.675  34.408  1.00  0.00    -0.237 OA
ATOM     72  O   UNL A   1      48.029  38.715  32.505  1.00  0.00    -0.744 OA
ENDBRANCH  68  69
ENDBRANCH  36  61
ENDBRANCH  10  11
ENDBRANCH   3   5
ENDBRANCH   2   3
ENDBRANCH   1   2
BRANCH   1  73
ATOM     73  C   UNL A   1      41.081  21.048  27.628  1.00  0.00     0.202 C 
BRANCH  73  74
ATOM     74  O   UNL A   1      42.058  20.008  27.572  1.00  0.00    -0.374 OA
BRANCH  74  75
ATOM     75  C   UNL A   1      41.758  18.925  26.683  1.00  0.00     0.202 C 
BRANCH  75  76
ATOM     76  C   UNL A   1      43.020  18.077  26.486  1.00  0.00     0.261 C 
BRANCH  76  77
ATOM     77  O   UNL A   1      43.526  18.321  25.162  1.00  0.00    -0.458 OA
BRANCH  77  78
ATOM     78  C   UNL A   1      44.823  18.764  25.130  1.00  0.00     0.358 C 
ATOM     79  O   UNL A   1      45.807  18.036  25.113  1.00  0.00    -0.244 OA
BRANCH  78  80
ATOM     80  C   UNL A   1      44.879  20.221  25.002  1.00  0.00     0.167 A 
ATOM     81  C   UNL A   1      45.999  21.027  25.135  1.00  0.00     0.128 A 
ATOM     82  N   UNL A   1      43.752  21.008  24.824  1.00  0.00    -0.222 NA
ATOM     83  N   UNL A   1      45.544  22.316  25.070  1.00  0.00    -0.306 N 
ATOM     84  C   UNL A   1      44.167  22.251  24.900  1.00  0.00     0.137 A 
ATOM     85  C   UNL A   1      46.250  23.512  25.176  1.00  0.00     0.093 A 
ATOM     86  C   UNL A   1      43.455  23.483  24.866  1.00  0.00     0.048 A 
ATOM     87  C   UNL A   1      45.577  24.675  25.132  1.00  0.00     0.018 A 
ATOM     88  C   UNL A   1      44.128  24.645  24.981  1.00  0.00     0.005 A 
ENDBRANCH  78  80
ENDBRANCH  77  78
ENDBRANCH  76  77
ENDBRANCH  75  76
ENDBRANCH  74  75
ENDBRANCH  73  74
ENDBRANCH   1  73
TORSDOF 17
ENDMDL
MODEL 3
REMARK VINA RESULT:      -9.8      4.721     12.396
REMARK SMILES O=C(OCCOCCOC(=O)c1cn2ccccc2n1)c1ccc(-c2c3nc(c(-c4c(F)cc(S(=O)(=O)[O-])cc4F)c4ccc([nH]4)c(-c4c(F)cc(S(=O)(=O)[O-])cc4F)c4nc(c(-c5c(F)cc(S(=O)(=O)[O-])cc5F)c5ccc2[nH]5)C=C4)C=C3)cc1
REMARK SMILES IDX 4 1 3 2 2 3 1 4 21 5 22 6 86 7 23 8 85 9 24 10 25 11 26 12
REMARK SMILES IDX 79 13 27 14 84 15 78 16 80 17 28 18 83 19 77 20 76 21 29 23
REMARK SMILES IDX 63 24 42 25 62 26 43 27 46 28 61 29 81 30 44 31 45 32 60 34
REMARK SMILES IDX 82 35 47 36 30 37 31 38 40 39 32 40 33 41 39 42 41 43 34 44
REMARK SMILES IDX 35 45 36 46 37 47 38 48 64 49 65 50 74 51 66 52 67 53 73 54
REMARK SMILES IDX 75 55 68 56 69 57 70 58 71 59 72 60 48 61 49 62 58 63 50 64
REMARK SMILES IDX 51 65 57 66 59 67 52 68 53 69 54 70 55 71 56 72 5 73 6 74
REMARK SMILES IDX 7 75 8 76 9 77 10 78 11 79 12 80 13 81 20 82 14 83 19 84
REMARK SMILES IDX 15 85 18 86 16 87 17 88
REMARK H PARENT 80 22 46 33
REMARK Flexibility Score: inf
ROOT
ATOM      1  C   UNL A   1      40.669  22.274  26.130  1.00  0.00     0.261 C 
ENDROOT
BRANCH   1   2
ATOM      2  O   UNL A   1      40.040  23.442  26.692  1.00  0.00    -0.460 OA
BRANCH   2   3
ATOM      3  C   UNL A   1      40.405  24.740  26.593  1.00  0.00     0.338 C 
ATOM      4  O   UNL A   1      40.855  25.134  25.517  1.00  0.00    -0.246 OA
BRANCH   3   5
ATOM      5  C   UNL A   1      40.271  25.739  27.698  1.00  0.00     0.060 A 
ATOM      6  C   UNL A   1      39.353  25.667  28.750  1.00  0.00     0.016 A 
ATOM      7  C   UNL A   1      41.232  26.765  27.733  1.00  0.00     0.016 A 
ATOM      8  C   UNL A   1      39.346  26.626  29.768  1.00  0.00     0.010 A 
ATOM      9  C   UNL A   1      41.263  27.697  28.777  1.00  0.00     0.010 A 
ATOM     10  C   UNL A   1      40.308  27.642  29.796  1.00  0.00    -0.014 A 
BRANCH  10  11
ATOM     11  C   UNL A   1      40.315  28.630  30.901  1.00  0.00     0.031 A 
ATOM     12  C   UNL A   1      39.344  29.773  30.897  1.00  0.00     0.074 A 
ATOM     13  C   UNL A   1      41.185  28.486  31.919  1.00  0.00     0.049 A 
ATOM     14  N   UNL A   1      39.205  30.740  31.768  1.00  0.00    -0.248 NA
ATOM     15  C   UNL A   1      38.406  29.839  29.766  1.00  0.00     0.031 C 
ATOM     16  C   UNL A   1      42.174  27.413  32.041  1.00  0.00     0.029 A 
ATOM     17  N   UNL A   1      41.368  29.239  33.050  1.00  0.00    -0.354 N 
ATOM     18  C   UNL A   1      38.169  31.532  31.292  1.00  0.00     0.074 A 
ATOM     19  C   UNL A   1      37.726  30.942  30.045  1.00  0.00     0.031 C 
ATOM     20  C   UNL A   1      42.843  27.565  33.197  1.00  0.00     0.029 A 
ATOM     21  C   UNL A   1      42.347  28.755  33.882  1.00  0.00     0.049 A 
ATOM     22  H   UNL A   1      40.847  30.051  33.247  1.00  0.00     0.167 HD
ATOM     23  C   UNL A   1      37.631  32.646  31.843  1.00  0.00     0.037 A 
ATOM     24  C   UNL A   1      42.793  29.217  35.065  1.00  0.00     0.037 A 
ATOM     25  C   UNL A   1      38.066  33.237  33.079  1.00  0.00     0.049 A 
ATOM     26  C   UNL A   1      42.185  30.458  35.654  1.00  0.00     0.074 A 
ATOM     27  C   UNL A   1      37.603  34.384  33.699  1.00  0.00     0.029 A 
ATOM     28  N   UNL A   1      39.063  32.718  33.891  1.00  0.00    -0.354 N 
ATOM     29  N   UNL A   1      41.219  31.205  35.179  1.00  0.00    -0.248 NA
ATOM     30  C   UNL A   1      42.735  30.923  36.935  1.00  0.00     0.031 C 
ATOM     31  C   UNL A   1      38.328  34.564  34.884  1.00  0.00     0.029 A 
ATOM     32  C   UNL A   1      39.233  33.523  35.005  1.00  0.00     0.049 A 
ATOM     33  H   UNL A   1      39.576  31.900  33.702  1.00  0.00     0.167 HD
ATOM     34  C   UNL A   1      41.046  32.230  36.100  1.00  0.00     0.074 A 
ATOM     35  C   UNL A   1      41.995  32.000  37.170  1.00  0.00     0.031 C 
ATOM     36  C   UNL A   1      40.185  33.276  36.057  1.00  0.00     0.037 A 
BRANCH  23  37
ATOM     37  C   UNL A   1      36.513  33.292  31.085  1.00  0.00     0.058 A 
ATOM     38  C   UNL A   1      36.760  34.020  29.911  1.00  0.00     0.135 A 
ATOM     39  C   UNL A   1      35.194  33.220  31.554  1.00  0.00     0.135 A 
ATOM     40  F   UNL A   1      38.011  34.132  29.437  1.00  0.00    -0.206 F 
ATOM     41  C   UNL A   1      35.738  34.683  29.243  1.00  0.00     0.059 A 
ATOM     42  C   UNL A   1      34.153  33.870  30.897  1.00  0.00     0.059 A 
ATOM     43  F   UNL A   1      34.912  32.544  32.679  1.00  0.00    -0.206 F 
ATOM     44  C   UNL A   1      34.440  34.616  29.752  1.00  0.00     0.060 A 
BRANCH  44  45
ATOM     45  S   UNL A   1      33.122  35.523  28.916  1.00  0.00     0.124 S 
ATOM     46  O   UNL A   1      33.888  36.508  28.156  1.00  0.00    -0.237 OA
ATOM     47  O   UNL A   1      32.468  34.485  28.126  1.00  0.00    -0.237 OA
ATOM     48  O   UNL A   1      32.331  36.057  30.020  1.00  0.00    -0.744 OA
ENDBRANCH  44  45
ENDBRANCH  23  37
BRANCH  24  49
ATOM     49  C   UNL A   1      43.873  28.492  35.776  1.00  0.00     0.058 A 
ATOM     50  C   UNL A   1      45.218  28.832  35.575  1.00  0.00     0.135 A 
ATOM     51  C   UNL A   1      43.580  27.466  36.685  1.00  0.00     0.135 A 
ATOM     52  F   UNL A   1      45.541  29.805  34.710  1.00  0.00    -0.206 F 
ATOM     53  C   UNL A   1      46.241  28.177  36.251  1.00  0.00     0.059 A 
ATOM     54  C   UNL A   1      44.586  26.804  37.381  1.00  0.00     0.059 A 
ATOM     55  F   UNL A   1      42.306  27.115  36.915  1.00  0.00    -0.206 F 
ATOM     56  C   UNL A   1      45.915  27.163  37.152  1.00  0.00     0.060 A 
BRANCH  56  57
ATOM     57  S   UNL A   1      47.227  26.344  38.086  1.00  0.00     0.124 S 
ATOM     58  O   UNL A   1      46.992  24.944  37.755  1.00  0.00    -0.237 OA
ATOM     59  O   UNL A   1      48.440  26.935  37.526  1.00  0.00    -0.237 OA
ATOM     60  O   UNL A   1      46.933  26.731  39.463  1.00  0.00    -0.744 OA
ENDBRANCH  56  57
ENDBRANCH  24  49
BRANCH  36  61
ATOM     61  C   UNL A   1      40.241  34.251  37.193  1.00  0.00     0.058 A 
ATOM     62  C   UNL A   1      41.146  35.322  37.178  1.00  0.00     0.135 A 
ATOM     63  C   UNL A   1      39.361  34.141  38.280  1.00  0.00     0.135 A 
ATOM     64  F   UNL A   1      42.010  35.461  36.161  1.00  0.00    -0.206 F 
ATOM     65  C   UNL A   1      41.183  36.253  38.210  1.00  0.00     0.059 A 
ATOM     66  C   UNL A   1      39.376  35.066  39.320  1.00  0.00     0.059 A 
ATOM     67  F   UNL A   1      38.478  33.132  38.336  1.00  0.00    -0.206 F 
ATOM     68  C   UNL A   1      40.296  36.115  39.279  1.00  0.00     0.060 A 
BRANCH  68  69
ATOM     69  S   UNL A   1      40.309  37.346  40.601  1.00  0.00     0.124 S 
ATOM     70  O   UNL A   1      41.190  36.717  41.578  1.00  0.00    -0.237 OA
ATOM     71  O   UNL A   1      40.845  38.530  39.935  1.00  0.00    -0.237 OA
ATOM     72  O   UNL A   1      38.903  37.437  40.983  1.00  0.00    -0.744 OA
ENDBRANCH  68  69
ENDBRANCH  36  61
ENDBRANCH  10  11
ENDBRANCH   3   5
ENDBRANCH   2   3
ENDBRANCH   1   2
BRANCH   1  73
ATOM     73  C   UNL A   1      40.838  21.215  27.221  1.00  0.00     0.202 C 
BRANCH  73  74
ATOM     74  O   UNL A   1      41.199  19.936  26.696  1.00  0.00    -0.374 OA
BRANCH  74  75
ATOM     75  C   UNL A   1      42.150  19.197  27.470  1.00  0.00     0.202 C 
BRANCH  75  76
ATOM     76  C   UNL A   1      42.813  18.144  26.573  1.00  0.00     0.261 C 
BRANCH  76  77
ATOM     77  O   UNL A   1      43.124  18.758  25.310  1.00  0.00    -0.458 OA
BRANCH  77  78
ATOM     78  C   UNL A   1      44.460  19.000  25.119  1.00  0.00     0.358 C 
ATOM     79  O   UNL A   1      45.311  18.131  24.977  1.00  0.00    -0.244 OA
BRANCH  78  80
ATOM     80  C   UNL A   1      44.724  20.433  24.988  1.00  0.00     0.167 A 
ATOM     81  C   UNL A   1      45.955  21.064  25.061  1.00  0.00     0.128 A 
ATOM     82  N   UNL A   1      43.716  21.379  24.873  1.00  0.00    -0.222 NA
ATOM     83  N   UNL A   1      45.692  22.407  25.022  1.00  0.00    -0.306 N 
ATOM     84  C   UNL A   1      44.313  22.547  24.928  1.00  0.00     0.137 A 
ATOM     85  C   UNL A   1      46.571  23.486  25.092  1.00  0.00     0.093 A 
ATOM     86  C   UNL A   1      43.790  23.870  24.933  1.00  0.00     0.048 A 
ATOM     87  C   UNL A   1      46.075  24.735  25.085  1.00  0.00     0.018 A 
ATOM     88  C   UNL A   1      44.632  24.920  25.013  1.00  0.00     0.005 A 
ENDBRANCH  78  80
ENDBRANCH  77  78
ENDBRANCH  76  77
ENDBRANCH  75  76
ENDBRANCH  74  75
ENDBRANCH  73  74
ENDBRANCH   1  73
TORSDOF 17
ENDMDL
