MODEL 1
REMARK VINA RESULT:     -10.5      0.000      0.000
REMARK SMILES CCOc1ncccc1C(=O)N1CCC[C@](CC)(C(=O)OCCOCCOC(=O)c2ccc(-c3c4nc(c(-c5c(F)cc(S(=O)(=O)[O-])cc5F)c5ccc([nH]5)c(-c5c(F)cc(S(=O)(=O)[O-])cc5F)c5nc(c(-c6c(F)cc(S(=O)(=O)[O-])cc6F)c6ccc3[nH]6)C=C5)C=C4)cc2)C1
REMARK SMILES IDX 23 1 22 2 21 3 19 4 20 5 16 6 12 7 13 8 96 9 14 10 15 11
REMARK SMILES IDX 10 12 11 13 9 14 4 15 5 16 6 17 8 18 7 19 3 20 2 21 1 22
REMARK SMILES IDX 17 23 18 24 24 25 25 26 26 27 27 28 28 29 29 30 30 31 31 32
REMARK SMILES IDX 95 33 32 34 94 35 33 36 34 37 35 38 88 39 36 40 93 41 87 42
REMARK SMILES IDX 89 43 37 44 92 45 86 46 85 47 38 49 72 50 51 51 71 52 52 53
REMARK SMILES IDX 55 54 70 55 90 56 53 57 54 58 69 60 91 61 56 62 39 63 40 64
REMARK SMILES IDX 49 65 41 66 42 67 48 68 50 69 43 70 44 71 45 72 46 73 47 74
REMARK SMILES IDX 73 75 74 76 83 77 75 78 76 79 82 80 84 81 77 82 78 83 79 84
REMARK SMILES IDX 80 85 81 86 57 87 58 88 67 89 59 90 60 91 66 92 68 93 61 94
REMARK SMILES IDX 62 95 63 96 64 97 65 98
REMARK H PARENT 89 48 55 59
REMARK Flexibility Score: inf
ROOT
ATOM      1  C   UNL A   1      38.186  21.882  25.442  1.00  0.00     0.202 C 
ENDROOT
BRANCH   1   2
ATOM      2  C   UNL A   1      36.834  22.597  25.584  1.00  0.00     0.261 C 
BRANCH   2   3
ATOM      3  O   UNL A   1      35.744  21.695  25.916  1.00  0.00    -0.463 OA
BRANCH   3   4
ATOM      4  C   UNL A   1      34.599  22.271  26.342  1.00  0.00     0.313 C 
ATOM      5  O   UNL A   1      34.492  22.796  27.449  1.00  0.00    -0.252 OA
BRANCH   4   6
ATOM      6  C   UNL A   1      33.442  22.292  25.310  1.00  0.00     0.085 C 
ATOM      7  N   UNL A   1      32.524  24.662  24.707  1.00  0.00    -0.337 N 
ATOM      8  C   UNL A   1      31.274  24.353  25.381  1.00  0.00     0.120 C 
ATOM      9  C   UNL A   1      33.399  23.529  24.348  1.00  0.00     0.138 C 
ATOM     10  C   UNL A   1      31.518  23.478  26.580  1.00  0.00     0.023 C 
ATOM     11  C   UNL A   1      32.131  22.155  26.143  1.00  0.00     0.022 C 
BRANCH   7  12
ATOM     12  C   UNL A   1      32.626  25.975  24.213  1.00  0.00     0.259 C 
ATOM     13  O   UNL A   1      32.787  26.216  23.018  1.00  0.00    -0.269 OA
BRANCH  12  14
ATOM     14  C   UNL A   1      32.648  27.126  25.132  1.00  0.00     0.102 A 
ATOM     15  C   UNL A   1      31.603  28.037  25.155  1.00  0.00     0.226 A 
ATOM     16  N   UNL A   1      31.600  29.175  25.889  1.00  0.00    -0.221 NA
ATOM     17  C   UNL A   1      32.713  29.444  26.596  1.00  0.00     0.115 A 
ATOM     18  C   UNL A   1      33.789  27.431  25.876  1.00  0.00     0.021 A 
ATOM     19  C   UNL A   1      33.821  28.611  26.621  1.00  0.00     0.021 A 
BRANCH  15  20
ATOM     20  O   UNL A   1      30.502  27.842  24.370  1.00  0.00    -0.477 OA
BRANCH  20  21
ATOM     21  C   UNL A   1      30.197  29.037  23.667  1.00  0.00     0.228 C 
ATOM     22  C   UNL A   1      31.087  29.164  22.456  1.00  0.00     0.049 C 
ENDBRANCH  20  21
ENDBRANCH  15  20
ENDBRANCH  12  14
ENDBRANCH   7  12
BRANCH   6  23
ATOM     23  C   UNL A   1      33.637  20.931  24.512  1.00  0.00     0.017 C 
ATOM     24  C   UNL A   1      32.435  20.351  23.778  1.00  0.00     0.005 C 
ENDBRANCH   6  23
ENDBRANCH   4   6
ENDBRANCH   3   4
ENDBRANCH   2   3
ENDBRANCH   1   2
BRANCH   1  25
ATOM     25  O   UNL A   1      39.135  22.158  26.475  1.00  0.00    -0.374 OA
BRANCH  25  26
ATOM     26  C   UNL A   1      40.370  21.455  26.370  1.00  0.00     0.202 C 
BRANCH  26  27
ATOM     27  C   UNL A   1      41.615  22.253  26.774  1.00  0.00     0.261 C 
BRANCH  27  28
ATOM     28  O   UNL A   1      41.429  23.667  26.563  1.00  0.00    -0.460 OA
BRANCH  28  29
ATOM     29  C   UNL A   1      42.437  24.447  27.034  1.00  0.00     0.338 C 
ATOM     30  O   UNL A   1      43.614  24.363  26.745  1.00  0.00    -0.246 OA
BRANCH  29  31
ATOM     31  C   UNL A   1      41.901  25.565  27.845  1.00  0.00     0.060 A 
ATOM     32  C   UNL A   1      42.760  26.646  28.079  1.00  0.00     0.016 A 
ATOM     33  C   UNL A   1      40.625  25.553  28.413  1.00  0.00     0.016 A 
ATOM     34  C   UNL A   1      42.377  27.688  28.926  1.00  0.00     0.010 A 
ATOM     35  C   UNL A   1      40.237  26.607  29.254  1.00  0.00     0.010 A 
ATOM     36  C   UNL A   1      41.127  27.662  29.554  1.00  0.00    -0.014 A 
BRANCH  36  37
ATOM     37  C   UNL A   1      40.828  28.630  30.650  1.00  0.00     0.031 A 
ATOM     38  C   UNL A   1      41.592  28.491  31.943  1.00  0.00     0.074 A 
ATOM     39  C   UNL A   1      39.948  29.643  30.508  1.00  0.00     0.049 A 
ATOM     40  N   UNL A   1      41.543  29.235  33.020  1.00  0.00    -0.248 NA
ATOM     41  C   UNL A   1      42.560  27.384  32.025  1.00  0.00     0.031 C 
ATOM     42  C   UNL A   1      39.198  29.966  29.297  1.00  0.00     0.029 A 
ATOM     43  N   UNL A   1      39.519  30.587  31.412  1.00  0.00    -0.354 N 
ATOM     44  C   UNL A   1      42.489  28.703  33.888  1.00  0.00     0.074 A 
ATOM     45  C   UNL A   1      43.046  27.533  33.247  1.00  0.00     0.031 C 
ATOM     46  C   UNL A   1      38.332  30.959  29.557  1.00  0.00     0.029 A 
ATOM     47  C   UNL A   1      38.505  31.391  30.939  1.00  0.00     0.049 A 
ATOM     48  H   UNL A   1      39.900  30.680  32.315  1.00  0.00     0.167 HD
ATOM     49  C   UNL A   1      42.891  29.167  35.094  1.00  0.00     0.037 A 
ATOM     50  C   UNL A   1      37.805  32.375  31.537  1.00  0.00     0.037 A 
ATOM     51  C   UNL A   1      42.338  30.328  35.738  1.00  0.00     0.049 A 
ATOM     52  C   UNL A   1      38.197  32.815  32.923  1.00  0.00     0.074 A 
ATOM     53  C   UNL A   1      42.699  30.893  36.947  1.00  0.00     0.029 A 
ATOM     54  N   UNL A   1      41.298  31.094  35.233  1.00  0.00    -0.354 N 
ATOM     55  N   UNL A   1      39.146  32.347  33.698  1.00  0.00    -0.248 NA
ATOM     56  C   UNL A   1      37.458  33.947  33.497  1.00  0.00     0.031 C 
ATOM     57  C   UNL A   1      41.843  31.969  37.201  1.00  0.00     0.029 A 
ATOM     58  C   UNL A   1      40.985  32.109  36.121  1.00  0.00     0.049 A 
ATOM     59  H   UNL A   1      40.849  30.939  34.371  1.00  0.00     0.167 HD
ATOM     60  C   UNL A   1      39.149  33.158  34.828  1.00  0.00     0.074 A 
ATOM     61  C   UNL A   1      38.109  34.146  34.635  1.00  0.00     0.031 C 
ATOM     62  C   UNL A   1      39.953  33.095  35.919  1.00  0.00     0.037 A 
BRANCH  49  63
ATOM     63  C   UNL A   1      43.986  28.412  35.794  1.00  0.00     0.058 A 
ATOM     64  C   UNL A   1      45.342  28.692  35.553  1.00  0.00     0.135 A 
ATOM     65  C   UNL A   1      43.680  27.416  36.734  1.00  0.00     0.135 A 
ATOM     66  F   UNL A   1      45.692  29.621  34.650  1.00  0.00    -0.206 F 
ATOM     67  C   UNL A   1      46.355  27.993  36.201  1.00  0.00     0.059 A 
ATOM     68  C   UNL A   1      44.677  26.723  37.414  1.00  0.00     0.059 A 
ATOM     69  F   UNL A   1      42.401  27.106  36.998  1.00  0.00    -0.206 F 
ATOM     70  C   UNL A   1      46.012  27.010  37.130  1.00  0.00     0.060 A 
BRANCH  70  71
ATOM     71  S   UNL A   1      47.338  26.119  37.971  1.00  0.00     0.124 S 
ATOM     72  O   UNL A   1      47.245  24.802  37.348  1.00  0.00    -0.237 OA
ATOM     73  O   UNL A   1      48.515  26.906  37.615  1.00  0.00    -0.237 OA
ATOM     74  O   UNL A   1      46.951  26.177  39.376  1.00  0.00    -0.744 OA
ENDBRANCH  70  71
ENDBRANCH  49  63
BRANCH  50  75
ATOM     75  C   UNL A   1      36.694  33.053  30.815  1.00  0.00     0.058 A 
ATOM     76  C   UNL A   1      36.946  33.987  29.800  1.00  0.00     0.135 A 
ATOM     77  C   UNL A   1      35.353  32.789  31.138  1.00  0.00     0.135 A 
ATOM     78  F   UNL A   1      38.210  34.281  29.458  1.00  0.00    -0.206 F 
ATOM     79  C   UNL A   1      35.912  34.655  29.148  1.00  0.00     0.059 A 
ATOM     80  C   UNL A   1      34.301  33.426  30.484  1.00  0.00     0.059 A 
ATOM     81  F   UNL A   1      35.056  31.899  32.097  1.00  0.00    -0.206 F 
ATOM     82  C   UNL A   1      34.592  34.367  29.498  1.00  0.00     0.060 A 
BRANCH  82  83
ATOM     83  S   UNL A   1      33.259  35.218  28.622  1.00  0.00     0.124 S 
ATOM     84  O   UNL A   1      34.004  36.123  27.755  1.00  0.00    -0.237 OA
ATOM     85  O   UNL A   1      32.577  34.112  27.956  1.00  0.00    -0.237 OA
ATOM     86  O   UNL A   1      32.502  35.853  29.696  1.00  0.00    -0.744 OA
ENDBRANCH  82  83
ENDBRANCH  50  75
BRANCH  62  87
ATOM     87  C   UNL A   1      39.771  34.147  36.979  1.00  0.00     0.058 A 
ATOM     88  C   UNL A   1      39.025  33.906  38.142  1.00  0.00     0.135 A 
ATOM     89  C   UNL A   1      40.398  35.398  36.851  1.00  0.00     0.135 A 
ATOM     90  F   UNL A   1      38.399  32.730  38.313  1.00  0.00    -0.206 F 
ATOM     91  C   UNL A   1      38.884  34.876  39.129  1.00  0.00     0.059 A 
ATOM     92  C   UNL A   1      40.298  36.371  37.839  1.00  0.00     0.059 A 
ATOM     93  F   UNL A   1      41.134  35.678  35.763  1.00  0.00    -0.206 F 
ATOM     94  C   UNL A   1      39.527  36.105  38.970  1.00  0.00     0.060 A 
BRANCH  94  95
ATOM     95  S   UNL A   1      39.364  37.343  40.275  1.00  0.00     0.124 S 
ATOM     96  O   UNL A   1      38.615  38.393  39.592  1.00  0.00    -0.237 OA
ATOM     97  O   UNL A   1      38.636  36.614  41.308  1.00  0.00    -0.237 OA
ATOM     98  O   UNL A   1      40.746  37.673  40.606  1.00  0.00    -0.744 OA
ENDBRANCH  94  95
ENDBRANCH  62  87
ENDBRANCH  36  37
ENDBRANCH  29  31
ENDBRANCH  28  29
ENDBRANCH  27  28
ENDBRANCH  26  27
ENDBRANCH  25  26
ENDBRANCH   1  25
TORSDOF 22
ENDMDL
MODEL 2
REMARK VINA RESULT:     -10.3      6.621     11.835
REMARK SMILES CCOc1ncccc1C(=O)N1CCC[C@](CC)(C(=O)OCCOCCOC(=O)c2ccc(-c3c4nc(c(-c5c(F)cc(S(=O)(=O)[O-])cc5F)c5ccc([nH]5)c(-c5c(F)cc(S(=O)(=O)[O-])cc5F)c5nc(c(-c6c(F)cc(S(=O)(=O)[O-])cc6F)c6ccc3[nH]6)C=C5)C=C4)cc2)C1
REMARK SMILES IDX 23 1 22 2 21 3 19 4 20 5 16 6 12 7 13 8 96 9 14 10 15 11
REMARK SMILES IDX 10 12 11 13 9 14 4 15 5 16 6 17 8 18 7 19 3 20 2 21 1 22
REMARK SMILES IDX 17 23 18 24 24 25 25 26 26 27 27 28 28 29 29 30 30 31 31 32
REMARK SMILES IDX 95 33 32 34 94 35 33 36 34 37 35 38 88 39 36 40 93 41 87 42
REMARK SMILES IDX 89 43 37 44 92 45 86 46 85 47 38 49 72 50 51 51 71 52 52 53
REMARK SMILES IDX 55 54 70 55 90 56 53 57 54 58 69 60 91 61 56 62 39 63 40 64
REMARK SMILES IDX 49 65 41 66 42 67 48 68 50 69 43 70 44 71 45 72 46 73 47 74
REMARK SMILES IDX 73 75 74 76 83 77 75 78 76 79 82 80 84 81 77 82 78 83 79 84
REMARK SMILES IDX 80 85 81 86 57 87 58 88 67 89 59 90 60 91 66 92 68 93 61 94
REMARK SMILES IDX 62 95 63 96 64 97 65 98
REMARK H PARENT 89 48 55 59
REMARK Flexibility Score: inf
ROOT
ATOM      1  C   UNL A   1      31.765  29.560  27.006  1.00  0.00     0.202 C 
ENDROOT
BRANCH   1   2
ATOM      2  C   UNL A   1      31.718  28.103  27.489  1.00  0.00     0.261 C 
BRANCH   2   3
ATOM      3  O   UNL A   1      32.158  27.154  26.481  1.00  0.00    -0.463 OA
BRANCH   3   4
ATOM      4  C   UNL A   1      31.190  26.428  25.880  1.00  0.00     0.313 C 
ATOM      5  O   UNL A   1      30.323  25.826  26.511  1.00  0.00    -0.252 OA
BRANCH   4   6
ATOM      6  C   UNL A   1      31.202  26.460  24.330  1.00  0.00     0.085 C 
ATOM      7  N   UNL A   1      32.898  24.833  23.190  1.00  0.00    -0.337 N 
ATOM      8  C   UNL A   1      33.688  25.966  22.739  1.00  0.00     0.120 C 
ATOM      9  C   UNL A   1      31.510  25.099  23.615  1.00  0.00     0.138 C 
ATOM     10  C   UNL A   1      33.654  27.077  23.754  1.00  0.00     0.023 C 
ATOM     11  C   UNL A   1      32.225  27.570  23.938  1.00  0.00     0.022 C 
BRANCH   7  12
ATOM     12  C   UNL A   1      33.446  23.571  22.897  1.00  0.00     0.259 C 
ATOM     13  O   UNL A   1      34.031  23.339  21.841  1.00  0.00    -0.269 OA
BRANCH  12  14
ATOM     14  C   UNL A   1      33.245  22.432  23.811  1.00  0.00     0.102 A 
ATOM     15  C   UNL A   1      33.959  22.340  24.997  1.00  0.00     0.226 A 
ATOM     16  N   UNL A   1      33.914  21.276  25.832  1.00  0.00    -0.221 NA
ATOM     17  C   UNL A   1      33.159  20.232  25.445  1.00  0.00     0.115 A 
ATOM     18  C   UNL A   1      32.469  21.336  23.436  1.00  0.00     0.021 A 
ATOM     19  C   UNL A   1      32.426  20.215  24.267  1.00  0.00     0.021 A 
BRANCH  15  20
ATOM     20  O   UNL A   1      34.812  23.341  25.367  1.00  0.00    -0.477 OA
BRANCH  20  21
ATOM     21  C   UNL A   1      36.055  22.786  25.771  1.00  0.00     0.228 C 
ATOM     22  C   UNL A   1      37.184  23.702  25.368  1.00  0.00     0.049 C 
ENDBRANCH  20  21
ENDBRANCH  15  20
ENDBRANCH  12  14
ENDBRANCH   7  12
BRANCH   6  23
ATOM     23  C   UNL A   1      29.754  27.005  23.963  1.00  0.00     0.017 C 
ATOM     24  C   UNL A   1      29.651  28.154  22.968  1.00  0.00     0.005 C 
ENDBRANCH   6  23
ENDBRANCH   4   6
ENDBRANCH   3   4
ENDBRANCH   2   3
ENDBRANCH   1   2
BRANCH   1  25
ATOM     25  O   UNL A   1      33.011  29.978  26.446  1.00  0.00    -0.374 OA
BRANCH  25  26
ATOM     26  C   UNL A   1      33.795  30.832  27.275  1.00  0.00     0.202 C 
BRANCH  26  27
ATOM     27  C   UNL A   1      35.109  30.227  27.783  1.00  0.00     0.261 C 
BRANCH  27  28
ATOM     28  O   UNL A   1      36.118  31.238  27.974  1.00  0.00    -0.460 OA
BRANCH  28  29
ATOM     29  C   UNL A   1      36.821  31.126  29.132  1.00  0.00     0.338 C 
ATOM     30  O   UNL A   1      36.430  31.406  30.247  1.00  0.00    -0.246 OA
BRANCH  29  31
ATOM     31  C   UNL A   1      38.113  30.439  28.897  1.00  0.00     0.060 A 
ATOM     32  C   UNL A   1      39.088  30.568  29.895  1.00  0.00     0.016 A 
ATOM     33  C   UNL A   1      38.402  29.736  27.726  1.00  0.00     0.016 A 
ATOM     34  C   UNL A   1      40.371  30.050  29.706  1.00  0.00     0.010 A 
ATOM     35  C   UNL A   1      39.689  29.205  27.543  1.00  0.00     0.010 A 
ATOM     36  C   UNL A   1      40.698  29.397  28.512  1.00  0.00    -0.014 A 
BRANCH  36  37
ATOM     37  C   UNL A   1      42.124  29.080  28.208  1.00  0.00     0.031 A 
ATOM     38  C   UNL A   1      42.482  27.644  27.915  1.00  0.00     0.074 A 
ATOM     39  C   UNL A   1      43.082  30.028  28.135  1.00  0.00     0.049 A 
ATOM     40  N   UNL A   1      43.637  27.128  27.581  1.00  0.00    -0.248 NA
ATOM     41  C   UNL A   1      41.385  26.663  27.980  1.00  0.00     0.031 C 
ATOM     42  C   UNL A   1      42.883  31.465  28.304  1.00  0.00     0.029 A 
ATOM     43  N   UNL A   1      44.436  29.914  27.918  1.00  0.00    -0.354 N 
ATOM     44  C   UNL A   1      43.400  25.776  27.370  1.00  0.00     0.074 A 
ATOM     45  C   UNL A   1      42.010  25.534  27.683  1.00  0.00     0.031 C 
ATOM     46  C   UNL A   1      44.074  32.088  28.286  1.00  0.00     0.029 A 
ATOM     47  C   UNL A   1      45.122  31.102  28.042  1.00  0.00     0.049 A 
ATOM     48  H   UNL A   1      44.876  29.062  27.694  1.00  0.00     0.167 HD
ATOM     49  C   UNL A   1      44.249  24.824  26.917  1.00  0.00     0.037 A 
ATOM     50  C   UNL A   1      46.438  31.377  27.954  1.00  0.00     0.037 A 
ATOM     51  C   UNL A   1      45.634  25.058  26.608  1.00  0.00     0.049 A 
ATOM     52  C   UNL A   1      47.388  30.283  27.548  1.00  0.00     0.074 A 
ATOM     53  C   UNL A   1      46.567  24.164  26.116  1.00  0.00     0.029 A 
ATOM     54  N   UNL A   1      46.289  26.270  26.774  1.00  0.00    -0.354 N 
ATOM     55  N   UNL A   1      47.131  29.025  27.280  1.00  0.00    -0.248 NA
ATOM     56  C   UNL A   1      48.801  30.653  27.384  1.00  0.00     0.031 C 
ATOM     57  C   UNL A   1      47.800  24.819  26.035  1.00  0.00     0.029 A 
ATOM     58  C   UNL A   1      47.621  26.138  26.422  1.00  0.00     0.049 A 
ATOM     59  H   UNL A   1      45.868  27.100  27.093  1.00  0.00     0.167 HD
ATOM     60  C   UNL A   1      48.337  28.468  26.869  1.00  0.00     0.074 A 
ATOM     61  C   UNL A   1      49.324  29.526  26.922  1.00  0.00     0.031 C 
ATOM     62  C   UNL A   1      48.597  27.198  26.470  1.00  0.00     0.037 A 
BRANCH  49  63
ATOM     63  C   UNL A   1      43.696  23.439  26.730  1.00  0.00     0.058 A 
ATOM     64  C   UNL A   1      43.417  22.604  27.825  1.00  0.00     0.135 A 
ATOM     65  C   UNL A   1      43.418  22.949  25.445  1.00  0.00     0.135 A 
ATOM     66  F   UNL A   1      43.682  23.015  29.075  1.00  0.00    -0.206 F 
ATOM     67  C   UNL A   1      42.905  21.323  27.651  1.00  0.00     0.059 A 
ATOM     68  C   UNL A   1      42.880  21.680  25.249  1.00  0.00     0.059 A 
ATOM     69  F   UNL A   1      43.670  23.703  24.364  1.00  0.00    -0.206 F 
ATOM     70  C   UNL A   1      42.639  20.870  26.358  1.00  0.00     0.060 A 
BRANCH  70  71
ATOM     71  S   UNL A   1      41.965  19.209  26.149  1.00  0.00     0.124 S 
ATOM     72  O   UNL A   1      42.724  18.728  24.998  1.00  0.00    -0.237 OA
ATOM     73  O   UNL A   1      42.287  18.580  27.426  1.00  0.00    -0.237 OA
ATOM     74  O   UNL A   1      40.546  19.444  25.910  1.00  0.00    -0.744 OA
ENDBRANCH  70  71
ENDBRANCH  49  63
BRANCH  50  75
ATOM     75  C   UNL A   1      46.936  32.758  28.203  1.00  0.00     0.058 A 
ATOM     76  C   UNL A   1      47.377  33.156  29.474  1.00  0.00     0.135 A 
ATOM     77  C   UNL A   1      46.966  33.713  27.174  1.00  0.00     0.135 A 
ATOM     78  F   UNL A   1      47.362  32.284  30.492  1.00  0.00    -0.206 F 
ATOM     79  C   UNL A   1      47.806  34.457  29.723  1.00  0.00     0.059 A 
ATOM     80  C   UNL A   1      47.413  35.014  27.394  1.00  0.00     0.059 A 
ATOM     81  F   UNL A   1      46.562  33.383  25.939  1.00  0.00    -0.206 F 
ATOM     82  C   UNL A   1      47.820  35.380  28.676  1.00  0.00     0.060 A 
BRANCH  82  83
ATOM     83  S   UNL A   1      48.408  37.057  29.006  1.00  0.00     0.124 S 
ATOM     84  O   UNL A   1      48.361  37.654  27.676  1.00  0.00    -0.237 OA
ATOM     85  O   UNL A   1      47.419  37.545  29.961  1.00  0.00    -0.237 OA
ATOM     86  O   UNL A   1      49.745  36.843  29.554  1.00  0.00    -0.744 OA
ENDBRANCH  82  83
ENDBRANCH  50  75
BRANCH  62  87
ATOM     87  C   UNL A   1      49.997  26.882  26.020  1.00  0.00     0.058 A 
ATOM     88  C   UNL A   1      50.412  27.079  24.694  1.00  0.00     0.135 A 
ATOM     89  C   UNL A   1      50.952  26.424  26.943  1.00  0.00     0.135 A 
ATOM     90  F   UNL A   1      49.539  27.510  23.769  1.00  0.00    -0.206 F 
ATOM     91  C   UNL A   1      51.717  26.810  24.292  1.00  0.00     0.059 A 
ATOM     92  C   UNL A   1      52.270  26.178  26.571  1.00  0.00     0.059 A 
ATOM     93  F   UNL A   1      50.613  26.229  28.227  1.00  0.00    -0.206 F 
ATOM     94  C   UNL A   1      52.639  26.362  25.239  1.00  0.00     0.060 A 
BRANCH  94  95
ATOM     95  S   UNL A   1      54.337  26.048  24.712  1.00  0.00     0.124 S 
ATOM     96  O   UNL A   1      54.476  24.624  25.000  1.00  0.00    -0.237 OA
ATOM     97  O   UNL A   1      54.298  26.408  23.298  1.00  0.00    -0.237 OA
ATOM     98  O   UNL A   1      55.127  26.939  25.557  1.00  0.00    -0.744 OA
ENDBRANCH  94  95
ENDBRANCH  62  87
ENDBRANCH  36  37
ENDBRANCH  29  31
ENDBRANCH  28  29
ENDBRANCH  27  28
ENDBRANCH  26  27
ENDBRANCH  25  26
ENDBRANCH   1  25
TORSDOF 22
ENDMDL
MODEL 3
REMARK VINA RESULT:      -9.9      6.093     10.663
REMARK SMILES CCOc1ncccc1C(=O)N1CCC[C@](CC)(C(=O)OCCOCCOC(=O)c2ccc(-c3c4nc(c(-c5c(F)cc(S(=O)(=O)[O-])cc5F)c5ccc([nH]5)c(-c5c(F)cc(S(=O)(=O)[O-])cc5F)c5nc(c(-c6c(F)cc(S(=O)(=O)[O-])cc6F)c6ccc3[nH]6)C=C5)C=C4)cc2)C1
REMARK SMILES IDX 23 1 22 2 21 3 19 4 20 5 16 6 12 7 13 8 96 9 14 10 15 11
REMARK SMILES IDX 10 12 11 13 9 14 4 15 5 16 6 17 8 18 7 19 3 20 2 21 1 22
REMARK SMILES IDX 17 23 18 24 24 25 25 26 26 27 27 28 28 29 29 30 30 31 31 32
REMARK SMILES IDX 95 33 32 34 94 35 33 36 34 37 35 38 88 39 36 40 93 41 87 42
REMARK SMILES IDX 89 43 37 44 92 45 86 46 85 47 38 49 72 50 51 51 71 52 52 53
REMARK SMILES IDX 55 54 70 55 90 56 53 57 54 58 69 60 91 61 56 62 39 63 40 64
REMARK SMILES IDX 49 65 41 66 42 67 48 68 50 69 43 70 44 71 45 72 46 73 47 74
REMARK SMILES IDX 73 75 74 76 83 77 75 78 76 79 82 80 84 81 77 82 78 83 79 84
REMARK SMILES IDX 80 85 81 86 57 87 58 88 67 89 59 90 60 91 66 92 68 93 61 94
REMARK SMILES IDX 62 95 63 96 64 97 65 98
REMARK H PARENT 89 48 55 59
REMARK Flexibility Score: inf
ROOT
ATOM      1  C   UNL A   1      37.336  22.528  25.299  1.00  0.00     0.202 C 
ENDROOT
BRANCH   1   2
ATOM      2  C   UNL A   1      35.841  22.298  25.562  1.00  0.00     0.261 C 
BRANCH   2   3
ATOM      3  O   UNL A   1      35.057  22.188  24.343  1.00  0.00    -0.463 OA
BRANCH   3   4
ATOM      4  C   UNL A   1      34.225  23.218  24.072  1.00  0.00     0.313 C 
ATOM      5  O   UNL A   1      34.614  24.382  23.990  1.00  0.00    -0.252 OA
BRANCH   4   6
ATOM      6  C   UNL A   1      32.750  22.826  23.799  1.00  0.00     0.085 C 
ATOM      7  N   UNL A   1      30.966  24.195  25.129  1.00  0.00    -0.337 N 
ATOM      8  C   UNL A   1      30.632  23.013  25.905  1.00  0.00     0.120 C 
ATOM      9  C   UNL A   1      31.704  23.992  23.867  1.00  0.00     0.138 C 
ATOM     10  C   UNL A   1      31.855  22.168  26.142  1.00  0.00     0.023 C 
ATOM     11  C   UNL A   1      32.421  21.688  24.814  1.00  0.00     0.022 C 
BRANCH   7  12
ATOM     12  C   UNL A   1      30.298  25.371  25.517  1.00  0.00     0.259 C 
ATOM     13  O   UNL A   1      29.612  25.430  26.536  1.00  0.00    -0.269 OA
BRANCH  12  14
ATOM     14  C   UNL A   1      30.309  26.564  24.652  1.00  0.00     0.102 A 
ATOM     15  C   UNL A   1      31.323  27.505  24.753  1.00  0.00     0.226 A 
ATOM     16  N   UNL A   1      31.345  28.676  24.075  1.00  0.00    -0.221 NA
ATOM     17  C   UNL A   1      30.283  28.946  23.295  1.00  0.00     0.115 A 
ATOM     18  C   UNL A   1      29.221  26.870  23.834  1.00  0.00     0.021 A 
ATOM     19  C   UNL A   1      29.208  28.083  23.144  1.00  0.00     0.021 A 
BRANCH  15  20
ATOM     20  O   UNL A   1      32.365  27.304  25.614  1.00  0.00    -0.477 OA
BRANCH  20  21
ATOM     21  C   UNL A   1      32.470  28.406  26.503  1.00  0.00     0.228 C 
ATOM     22  C   UNL A   1      31.522  28.226  27.662  1.00  0.00     0.049 C 
ENDBRANCH  20  21
ENDBRANCH  15  20
ENDBRANCH  12  14
ENDBRANCH   7  12
BRANCH   6  23
ATOM     23  C   UNL A   1      32.806  22.167  22.354  1.00  0.00     0.017 C 
ATOM     24  C   UNL A   1      31.833  21.037  22.043  1.00  0.00     0.005 C 
ENDBRANCH   6  23
ENDBRANCH   4   6
ENDBRANCH   3   4
ENDBRANCH   2   3
ENDBRANCH   1   2
BRANCH   1  25
ATOM     25  O   UNL A   1      38.083  21.360  24.951  1.00  0.00    -0.374 OA
BRANCH  25  26
ATOM     26  C   UNL A   1      38.984  20.894  25.952  1.00  0.00     0.202 C 
BRANCH  26  27
ATOM     27  C   UNL A   1      39.624  19.529  25.675  1.00  0.00     0.261 C 
BRANCH  27  28
ATOM     28  O   UNL A   1      41.063  19.610  25.679  1.00  0.00    -0.460 OA
BRANCH  28  29
ATOM     29  C   UNL A   1      41.611  19.895  26.890  1.00  0.00     0.338 C 
ATOM     30  O   UNL A   1      41.573  19.199  27.884  1.00  0.00    -0.246 OA
BRANCH  29  31
ATOM     31  C   UNL A   1      42.437  21.123  26.817  1.00  0.00     0.060 A 
ATOM     32  C   UNL A   1      43.109  21.504  27.986  1.00  0.00     0.016 A 
ATOM     33  C   UNL A   1      42.523  21.919  25.673  1.00  0.00     0.016 A 
ATOM     34  C   UNL A   1      43.817  22.706  28.039  1.00  0.00     0.010 A 
ATOM     35  C   UNL A   1      43.245  23.121  25.724  1.00  0.00     0.010 A 
ATOM     36  C   UNL A   1      43.860  23.547  26.921  1.00  0.00    -0.014 A 
BRANCH  36  37
ATOM     37  C   UNL A   1      44.389  24.936  27.060  1.00  0.00     0.031 A 
ATOM     38  C   UNL A   1      43.414  26.030  27.420  1.00  0.00     0.074 A 
ATOM     39  C   UNL A   1      45.698  25.235  26.928  1.00  0.00     0.049 A 
ATOM     40  N   UNL A   1      43.637  27.301  27.640  1.00  0.00    -0.248 NA
ATOM     41  C   UNL A   1      42.005  25.634  27.580  1.00  0.00     0.031 C 
ATOM     42  C   UNL A   1      46.775  24.282  26.670  1.00  0.00     0.029 A 
ATOM     43  N   UNL A   1      46.347  26.448  26.974  1.00  0.00    -0.354 N 
ATOM     44  C   UNL A   1      42.407  27.845  27.990  1.00  0.00     0.074 A 
ATOM     45  C   UNL A   1      41.429  26.787  27.884  1.00  0.00     0.031 C 
ATOM     46  C   UNL A   1      47.927  24.947  26.480  1.00  0.00     0.029 A 
ATOM     47  C   UNL A   1      47.686  26.375  26.664  1.00  0.00     0.049 A 
ATOM     48  H   UNL A   1      45.895  27.292  27.208  1.00  0.00     0.167 HD
ATOM     49  C   UNL A   1      42.120  29.101  28.404  1.00  0.00     0.037 A 
ATOM     50  C   UNL A   1      48.623  27.338  26.556  1.00  0.00     0.037 A 
ATOM     51  C   UNL A   1      43.090  30.158  28.509  1.00  0.00     0.049 A 
ATOM     52  C   UNL A   1      48.263  28.753  26.922  1.00  0.00     0.074 A 
ATOM     53  C   UNL A   1      42.900  31.457  28.945  1.00  0.00     0.029 A 
ATOM     54  N   UNL A   1      44.427  30.044  28.159  1.00  0.00    -0.354 N 
ATOM     55  N   UNL A   1      47.110  29.233  27.323  1.00  0.00    -0.248 NA
ATOM     56  C   UNL A   1      49.341  29.751  26.868  1.00  0.00     0.031 C 
ATOM     57  C   UNL A   1      44.111  32.144  28.809  1.00  0.00     0.029 A 
ATOM     58  C   UNL A   1      45.068  31.258  28.343  1.00  0.00     0.049 A 
ATOM     59  H   UNL A   1      44.857  29.222  27.831  1.00  0.00     0.167 HD
ATOM     60  C   UNL A   1      47.337  30.573  27.616  1.00  0.00     0.074 A 
ATOM     61  C   UNL A   1      48.736  30.829  27.347  1.00  0.00     0.031 C 
ATOM     62  C   UNL A   1      46.465  31.503  28.080  1.00  0.00     0.037 A 
BRANCH  49  63
ATOM     63  C   UNL A   1      40.694  29.396  28.776  1.00  0.00     0.058 A 
ATOM     64  C   UNL A   1      39.687  29.499  27.801  1.00  0.00     0.135 A 
ATOM     65  C   UNL A   1      40.324  29.551  30.120  1.00  0.00     0.135 A 
ATOM     66  F   UNL A   1      39.989  29.379  26.499  1.00  0.00    -0.206 F 
ATOM     67  C   UNL A   1      38.367  29.772  28.145  1.00  0.00     0.059 A 
ATOM     68  C   UNL A   1      39.004  29.797  30.489  1.00  0.00     0.059 A 
ATOM     69  F   UNL A   1      41.247  29.466  31.090  1.00  0.00    -0.206 F 
ATOM     70  C   UNL A   1      38.036  29.918  29.493  1.00  0.00     0.060 A 
BRANCH  70  71
ATOM     71  S   UNL A   1      36.317  30.261  29.925  1.00  0.00     0.124 S 
ATOM     72  O   UNL A   1      36.361  31.698  30.179  1.00  0.00    -0.237 OA
ATOM     73  O   UNL A   1      35.606  29.855  28.717  1.00  0.00    -0.237 OA
ATOM     74  O   UNL A   1      36.086  29.423  31.096  1.00  0.00    -0.744 OA
ENDBRANCH  70  71
ENDBRANCH  49  63
BRANCH  50  75
ATOM     75  C   UNL A   1      50.008  26.995  26.131  1.00  0.00     0.058 A 
ATOM     76  C   UNL A   1      50.365  26.946  24.775  1.00  0.00     0.135 A 
ATOM     77  C   UNL A   1      51.002  26.694  27.077  1.00  0.00     0.135 A 
ATOM     78  F   UNL A   1      49.451  27.218  23.832  1.00  0.00    -0.206 F 
ATOM     79  C   UNL A   1      51.648  26.587  24.370  1.00  0.00     0.059 A 
ATOM     80  C   UNL A   1      52.298  26.355  26.697  1.00  0.00     0.059 A 
ATOM     81  F   UNL A   1      50.716  26.733  28.387  1.00  0.00    -0.206 F 
ATOM     82  C   UNL A   1      52.608  26.293  25.339  1.00  0.00     0.060 A 
BRANCH  82  83
ATOM     83  S   UNL A   1      54.278  25.859  24.800  1.00  0.00     0.124 S 
ATOM     84  O   UNL A   1      55.097  26.668  25.695  1.00  0.00    -0.237 OA
ATOM     85  O   UNL A   1      54.309  24.418  25.034  1.00  0.00    -0.237 OA
ATOM     86  O   UNL A   1      54.293  26.258  23.396  1.00  0.00    -0.744 OA
ENDBRANCH  82  83
ENDBRANCH  50  75
BRANCH  62  87
ATOM     87  C   UNL A   1      47.000  32.879  28.366  1.00  0.00     0.058 A 
ATOM     88  C   UNL A   1      47.543  33.218  29.615  1.00  0.00     0.135 A 
ATOM     89  C   UNL A   1      47.018  33.857  27.358  1.00  0.00     0.135 A 
ATOM     90  F   UNL A   1      47.546  32.324  30.617  1.00  0.00    -0.206 F 
ATOM     91  C   UNL A   1      48.061  34.485  29.863  1.00  0.00     0.059 A 
ATOM     92  C   UNL A   1      47.559  35.120  27.573  1.00  0.00     0.059 A 
ATOM     93  F   UNL A   1      46.522  33.582  26.141  1.00  0.00    -0.206 F 
ATOM     94  C   UNL A   1      48.066  35.429  28.834  1.00  0.00     0.060 A 
BRANCH  94  95
ATOM     95  S   UNL A   1      48.772  37.059  29.159  1.00  0.00     0.124 S 
ATOM     96  O   UNL A   1      47.869  37.925  28.408  1.00  0.00    -0.237 OA
ATOM     97  O   UNL A   1      48.681  37.155  30.612  1.00  0.00    -0.237 OA
ATOM     98  O   UNL A   1      50.128  36.955  28.628  1.00  0.00    -0.744 OA
ENDBRANCH  94  95
ENDBRANCH  62  87
ENDBRANCH  36  37
ENDBRANCH  29  31
ENDBRANCH  28  29
ENDBRANCH  27  28
ENDBRANCH  26  27
ENDBRANCH  25  26
ENDBRANCH   1  25
TORSDOF 22
ENDMDL
