MODEL 1
REMARK VINA RESULT:     -11.7      0.000      0.000
REMARK SMILES Cc1cc(C)n(C)c(=O)c1C(=O)[NH+]1CCC2(CC1)C[NH2+][C@@H](C(=O)OCCOCCOC(=O)c1ccc(-c3c4nc(c(-c5c(F)cc(S(=O)(=O)[O-])cc5F)c5ccc([nH]5)c(-c5c(F)cc(S(=O)(=O)[O-])cc5F)c5nc(c(-c6c(F)cc(S(=O)(=O)[O-])cc6F)c6ccc3[nH]6)C=C5)C=C4)cc1)C2
REMARK SMILES IDX 28 1 27 2 26 3 25 4 24 5 22 6 23 7 21 8 13 9 14 10 18 11
REMARK SMILES IDX 15 13 17 14 16 15 19 16 99 17 20 18 11 21 12 22 10 23 1 24
REMARK SMILES IDX 2 25 3 26 4 27 8 28 5 29 6 30 9 31 7 32 29 33 30 34 31 35
REMARK SMILES IDX 32 36 33 37 34 38 98 39 35 40 97 41 36 42 37 43 38 44 91 45
REMARK SMILES IDX 39 46 96 47 90 48 92 49 40 50 95 51 89 52 88 53 41 55 75 56
REMARK SMILES IDX 54 57 74 58 55 59 58 60 73 61 93 62 56 63 57 64 72 66 94 67
REMARK SMILES IDX 59 68 42 69 43 70 52 71 44 72 45 73 51 74 53 75 46 76 47 77
REMARK SMILES IDX 48 78 49 79 50 80 76 81 77 82 86 83 78 84 79 85 85 86 87 87
REMARK SMILES IDX 80 88 81 89 82 90 83 91 84 92 60 93 61 94 70 95 62 96 63 97
REMARK SMILES IDX 69 98 71 99 64 100 65 101 66 102 67 103 68 104
REMARK H PARENT 13 12 20 19 20 20 92 54 58 65
REMARK Flexibility Score: inf
ROOT
ATOM      1  C   UNL A   1      43.068  22.101  25.242  1.00  0.00     0.202 C 
ENDROOT
BRANCH   1   2
ATOM      2  O   UNL A   1      42.542  21.394  26.364  1.00  0.00    -0.374 OA
BRANCH   2   3
ATOM      3  C   UNL A   1      41.320  20.679  26.177  1.00  0.00     0.202 C 
BRANCH   3   4
ATOM      4  C   UNL A   1      40.056  21.319  26.756  1.00  0.00     0.261 C 
BRANCH   4   5
ATOM      5  O   UNL A   1      39.268  21.915  25.715  1.00  0.00    -0.459 OA
BRANCH   5   6
ATOM      6  C   UNL A   1      38.158  21.228  25.343  1.00  0.00     0.364 C 
ATOM      7  O   UNL A   1      38.144  20.065  24.948  1.00  0.00    -0.245 OA
BRANCH   6   8
ATOM      8  C   UNL A   1      36.880  22.055  25.464  1.00  0.00     0.294 C 
ATOM      9  N   UNL A   1      32.399  23.775  23.370  1.00  0.00    -0.267 N 
ATOM     10  C   UNL A   1      33.701  24.418  23.348  1.00  0.00     0.271 C 
ATOM     11  C   UNL A   1      32.473  22.323  23.272  1.00  0.00     0.271 C 
ATOM     12  H   UNL A   1      32.756  23.183  24.071  1.00  0.00     0.357 HD
ATOM     13  C   UNL A   1      34.384  24.097  24.668  1.00  0.00     0.075 C 
ATOM     14  C   UNL A   1      33.400  21.697  24.333  1.00  0.00     0.075 C 
ATOM     15  C   UNL A   1      34.575  22.570  24.884  1.00  0.00     0.036 C 
ATOM     16  C   UNL A   1      34.788  22.310  26.404  1.00  0.00     0.268 C 
ATOM     17  C   UNL A   1      35.932  22.129  24.269  1.00  0.00     0.090 C 
ATOM     18  N   UNL A   1      36.000  21.508  26.505  1.00  0.00    -0.334 N 
ATOM     19  H   UNL A   1      35.798  20.524  26.329  1.00  0.00     0.347 HD
ATOM     20  H   UNL A   1      36.420  21.548  27.434  1.00  0.00     0.347 HD
BRANCH   9  21
ATOM     21  C   UNL A   1      31.276  24.582  23.526  1.00  0.00     0.350 C 
ATOM     22  O   UNL A   1      30.294  24.446  22.789  1.00  0.00    -0.225 OA
BRANCH  21  23
ATOM     23  C   UNL A   1      31.254  25.733  24.486  1.00  0.00     0.147 A 
ATOM     24  C   UNL A   1      31.119  24.262  26.573  1.00  0.00     0.045 C 
ATOM     25  C   UNL A   1      31.235  25.554  25.826  1.00  0.00    -0.027 A 
ATOM     26  C   UNL A   1      31.502  26.662  26.719  1.00  0.00     0.026 A 
ATOM     27  C   UNL A   1      32.043  27.805  26.277  1.00  0.00     0.018 A 
ATOM     28  C   UNL A   1      31.670  27.090  23.967  1.00  0.00     0.267 A 
ATOM     29  C   UNL A   1      32.481  28.832  27.288  1.00  0.00     0.064 C 
ATOM     30  N   UNL A   1      32.184  28.005  24.908  1.00  0.00    -0.315 N 
ATOM     31  O   UNL A   1      31.579  27.354  22.767  1.00  0.00    -0.268 OA
ATOM     32  C   UNL A   1      32.848  29.197  24.399  1.00  0.00     0.153 C 
ENDBRANCH  21  23
ENDBRANCH   9  21
ENDBRANCH   6   8
ENDBRANCH   5   6
ENDBRANCH   4   5
ENDBRANCH   3   4
ENDBRANCH   2   3
ENDBRANCH   1   2
BRANCH   1  33
ATOM     33  C   UNL A   1      43.119  23.632  25.332  1.00  0.00     0.261 C 
BRANCH  33  34
ATOM     34  O   UNL A   1      42.065  24.179  26.144  1.00  0.00    -0.460 OA
BRANCH  34  35
ATOM     35  C   UNL A   1      41.859  25.508  25.973  1.00  0.00     0.338 C 
ATOM     36  O   UNL A   1      41.545  26.076  24.934  1.00  0.00    -0.246 OA
BRANCH  35  37
ATOM     37  C   UNL A   1      41.877  26.203  27.270  1.00  0.00     0.060 A 
ATOM     38  C   UNL A   1      40.872  25.877  28.190  1.00  0.00     0.016 A 
ATOM     39  C   UNL A   1      42.791  27.223  27.548  1.00  0.00     0.016 A 
ATOM     40  C   UNL A   1      40.745  26.601  29.371  1.00  0.00     0.010 A 
ATOM     41  C   UNL A   1      42.652  27.959  28.731  1.00  0.00     0.010 A 
ATOM     42  C   UNL A   1      41.605  27.677  29.627  1.00  0.00    -0.014 A 
BRANCH  42  43
ATOM     43  C   UNL A   1      41.289  28.602  30.743  1.00  0.00     0.031 A 
ATOM     44  C   UNL A   1      42.141  28.555  31.984  1.00  0.00     0.074 A 
ATOM     45  C   UNL A   1      40.306  29.512  30.629  1.00  0.00     0.049 A 
ATOM     46  N   UNL A   1      42.049  29.264  33.078  1.00  0.00    -0.248 NA
ATOM     47  C   UNL A   1      43.248  27.585  31.985  1.00  0.00     0.031 C 
ATOM     48  C   UNL A   1      39.456  29.692  29.454  1.00  0.00     0.029 A 
ATOM     49  N   UNL A   1      39.863  30.462  31.516  1.00  0.00    -0.354 N 
ATOM     50  C   UNL A   1      43.086  28.832  33.897  1.00  0.00     0.074 A 
ATOM     51  C   UNL A   1      43.774  27.775  33.187  1.00  0.00     0.031 C 
ATOM     52  C   UNL A   1      38.592  30.695  29.690  1.00  0.00     0.029 A 
ATOM     53  C   UNL A   1      38.807  31.205  31.044  1.00  0.00     0.049 A 
ATOM     54  H   UNL A   1      40.263  30.597  32.404  1.00  0.00     0.167 HD
ATOM     55  C   UNL A   1      43.443  29.285  35.122  1.00  0.00     0.037 A 
ATOM     56  C   UNL A   1      38.091  32.177  31.643  1.00  0.00     0.037 A 
ATOM     57  C   UNL A   1      42.753  30.334  35.826  1.00  0.00     0.049 A 
ATOM     58  C   UNL A   1      38.446  32.599  33.045  1.00  0.00     0.074 A 
ATOM     59  C   UNL A   1      43.032  30.858  37.075  1.00  0.00     0.029 A 
ATOM     60  N   UNL A   1      41.647  31.018  35.342  1.00  0.00    -0.354 N 
ATOM     61  N   UNL A   1      39.423  32.176  33.812  1.00  0.00    -0.248 NA
ATOM     62  C   UNL A   1      37.599  33.628  33.667  1.00  0.00     0.031 C 
ATOM     63  C   UNL A   1      42.067  31.828  37.367  1.00  0.00     0.029 A 
ATOM     64  C   UNL A   1      41.217  31.943  36.279  1.00  0.00     0.049 A 
ATOM     65  H   UNL A   1      41.230  30.867  34.464  1.00  0.00     0.167 HD
ATOM     66  C   UNL A   1      39.321  32.898  34.996  1.00  0.00     0.074 A 
ATOM     67  C   UNL A   1      38.195  33.796  34.840  1.00  0.00     0.031 C 
ATOM     68  C   UNL A   1      40.091  32.828  36.110  1.00  0.00     0.037 A 
BRANCH  55  69
ATOM     69  C   UNL A   1      44.624  28.636  35.788  1.00  0.00     0.058 A 
ATOM     70  C   UNL A   1      44.472  27.524  36.631  1.00  0.00     0.135 A 
ATOM     71  C   UNL A   1      45.925  29.102  35.546  1.00  0.00     0.135 A 
ATOM     72  F   UNL A   1      43.246  27.050  36.912  1.00  0.00    -0.206 F 
ATOM     73  C   UNL A   1      45.568  26.908  37.226  1.00  0.00     0.059 A 
ATOM     74  C   UNL A   1      47.039  28.486  36.110  1.00  0.00     0.059 A 
ATOM     75  F   UNL A   1      46.125  30.165  34.751  1.00  0.00    -0.206 F 
ATOM     76  C   UNL A   1      46.848  27.394  36.956  1.00  0.00     0.060 A 
BRANCH  76  77
ATOM     77  S   UNL A   1      48.261  26.572  37.723  1.00  0.00     0.124 S 
ATOM     78  O   UNL A   1      49.175  27.692  37.924  1.00  0.00    -0.237 OA
ATOM     79  O   UNL A   1      47.672  26.010  38.935  1.00  0.00    -0.237 OA
ATOM     80  O   UNL A   1      48.675  25.597  36.720  1.00  0.00    -0.744 OA
ENDBRANCH  76  77
ENDBRANCH  55  69
BRANCH  56  81
ATOM     81  C   UNL A   1      36.959  32.815  30.919  1.00  0.00     0.058 A 
ATOM     82  C   UNL A   1      35.631  32.461  31.196  1.00  0.00     0.135 A 
ATOM     83  C   UNL A   1      37.183  33.801  29.946  1.00  0.00     0.135 A 
ATOM     84  F   UNL A   1      35.366  31.513  32.108  1.00  0.00    -0.206 F 
ATOM     85  C   UNL A   1      34.563  33.060  30.533  1.00  0.00     0.059 A 
ATOM     86  C   UNL A   1      36.132  34.431  29.286  1.00  0.00     0.059 A 
ATOM     87  F   UNL A   1      38.436  34.180  29.647  1.00  0.00    -0.206 F 
ATOM     88  C   UNL A   1      34.825  34.050  29.584  1.00  0.00     0.060 A 
BRANCH  88  89
ATOM     89  S   UNL A   1      33.429  34.864  28.778  1.00  0.00     0.124 S 
ATOM     90  O   UNL A   1      33.045  33.873  27.780  1.00  0.00    -0.237 OA
ATOM     91  O   UNL A   1      32.501  35.048  29.889  1.00  0.00    -0.237 OA
ATOM     92  O   UNL A   1      34.017  36.093  28.252  1.00  0.00    -0.744 OA
ENDBRANCH  88  89
ENDBRANCH  56  81
BRANCH  68  93
ATOM     93  C   UNL A   1      39.757  33.751  37.250  1.00  0.00     0.058 A 
ATOM     94  C   UNL A   1      38.890  33.359  38.281  1.00  0.00     0.135 A 
ATOM     95  C   UNL A   1      40.365  35.013  37.347  1.00  0.00     0.135 A 
ATOM     96  F   UNL A   1      38.279  32.165  38.233  1.00  0.00    -0.206 F 
ATOM     97  C   UNL A   1      38.624  34.194  39.363  1.00  0.00     0.059 A 
ATOM     98  C   UNL A   1      40.134  35.853  38.432  1.00  0.00     0.059 A 
ATOM     99  F   UNL A   1      41.211  35.432  36.392  1.00  0.00    -0.206 F 
ATOM    100  C   UNL A   1      39.255  35.438  39.431  1.00  0.00     0.060 A 
BRANCH 100 101
ATOM    101  S   UNL A   1      38.931  36.491  40.861  1.00  0.00     0.124 S 
ATOM    102  O   UNL A   1      40.251  36.563  41.478  1.00  0.00    -0.237 OA
ATOM    103  O   UNL A   1      38.453  37.722  40.240  1.00  0.00    -0.237 OA
ATOM    104  O   UNL A   1      37.927  35.745  41.613  1.00  0.00    -0.744 OA
ENDBRANCH 100 101
ENDBRANCH  68  93
ENDBRANCH  42  43
ENDBRANCH  35  37
ENDBRANCH  34  35
ENDBRANCH  33  34
ENDBRANCH   1  33
TORSDOF 19
ENDMDL
MODEL 2
REMARK VINA RESULT:     -11.6      1.057      1.827
REMARK SMILES Cc1cc(C)n(C)c(=O)c1C(=O)[NH+]1CCC2(CC1)C[NH2+][C@@H](C(=O)OCCOCCOC(=O)c1ccc(-c3c4nc(c(-c5c(F)cc(S(=O)(=O)[O-])cc5F)c5ccc([nH]5)c(-c5c(F)cc(S(=O)(=O)[O-])cc5F)c5nc(c(-c6c(F)cc(S(=O)(=O)[O-])cc6F)c6ccc3[nH]6)C=C5)C=C4)cc1)C2
REMARK SMILES IDX 28 1 27 2 26 3 25 4 24 5 22 6 23 7 21 8 13 9 14 10 18 11
REMARK SMILES IDX 15 13 17 14 16 15 19 16 99 17 20 18 11 21 12 22 10 23 1 24
REMARK SMILES IDX 2 25 3 26 4 27 8 28 5 29 6 30 9 31 7 32 29 33 30 34 31 35
REMARK SMILES IDX 32 36 33 37 34 38 98 39 35 40 97 41 36 42 37 43 38 44 91 45
REMARK SMILES IDX 39 46 96 47 90 48 92 49 40 50 95 51 89 52 88 53 41 55 75 56
REMARK SMILES IDX 54 57 74 58 55 59 58 60 73 61 93 62 56 63 57 64 72 66 94 67
REMARK SMILES IDX 59 68 42 69 43 70 52 71 44 72 45 73 51 74 53 75 46 76 47 77
REMARK SMILES IDX 48 78 49 79 50 80 76 81 77 82 86 83 78 84 79 85 85 86 87 87
REMARK SMILES IDX 80 88 81 89 82 90 83 91 84 92 60 93 61 94 70 95 62 96 63 97
REMARK SMILES IDX 69 98 71 99 64 100 65 101 66 102 67 103 68 104
REMARK H PARENT 13 12 20 19 20 20 92 54 58 65
REMARK Flexibility Score: inf
ROOT
ATOM      1  C   UNL A   1      43.562  23.019  25.299  1.00  0.00     0.202 C 
ENDROOT
BRANCH   1   2
ATOM      2  O   UNL A   1      43.134  21.711  24.926  1.00  0.00    -0.374 OA
BRANCH   2   3
ATOM      3  C   UNL A   1      43.569  20.619  25.737  1.00  0.00     0.202 C 
BRANCH   3   4
ATOM      4  C   UNL A   1      42.572  19.477  25.943  1.00  0.00     0.261 C 
BRANCH   4   5
ATOM      5  O   UNL A   1      41.251  19.883  25.554  1.00  0.00    -0.459 OA
BRANCH   5   6
ATOM      6  C   UNL A   1      40.478  20.413  26.538  1.00  0.00     0.364 C 
ATOM      7  O   UNL A   1      40.890  20.806  27.626  1.00  0.00    -0.245 OA
BRANCH   6   8
ATOM      8  C   UNL A   1      39.001  20.483  26.159  1.00  0.00     0.294 C 
ATOM      9  N   UNL A   1      34.915  23.249  24.406  1.00  0.00    -0.267 N 
ATOM     10  C   UNL A   1      35.319  23.026  25.784  1.00  0.00     0.271 C 
ATOM     11  C   UNL A   1      36.040  23.385  23.492  1.00  0.00     0.271 C 
ATOM     12  H   UNL A   1      35.526  22.519  24.159  1.00  0.00     0.357 HD
ATOM     13  C   UNL A   1      35.894  21.621  25.861  1.00  0.00     0.075 C 
ATOM     14  C   UNL A   1      37.029  22.204  23.578  1.00  0.00     0.075 C 
ATOM     15  C   UNL A   1      37.126  21.429  24.933  1.00  0.00     0.036 C 
ATOM     16  C   UNL A   1      37.323  19.906  24.683  1.00  0.00     0.268 C 
ATOM     17  C   UNL A   1      38.418  21.819  25.704  1.00  0.00     0.090 C 
ATOM     18  N   UNL A   1      38.718  19.627  24.998  1.00  0.00    -0.334 N 
ATOM     19  H   UNL A   1      39.322  19.871  24.213  1.00  0.00     0.347 HD
ATOM     20  H   UNL A   1      38.887  18.639  25.190  1.00  0.00     0.347 HD
BRANCH   9  21
ATOM     21  C   UNL A   1      33.553  23.260  24.121  1.00  0.00     0.350 C 
ATOM     22  O   UNL A   1      32.986  22.240  23.716  1.00  0.00    -0.225 OA
BRANCH  21  23
ATOM     23  C   UNL A   1      32.745  24.522  24.155  1.00  0.00     0.147 A 
ATOM     24  C   UNL A   1      31.730  24.060  26.455  1.00  0.00     0.045 C 
ATOM     25  C   UNL A   1      31.991  24.867  25.222  1.00  0.00    -0.027 A 
ATOM     26  C   UNL A   1      31.459  26.209  25.342  1.00  0.00     0.026 A 
ATOM     27  C   UNL A   1      31.909  27.214  24.579  1.00  0.00     0.018 A 
ATOM     28  C   UNL A   1      33.097  25.608  23.165  1.00  0.00     0.267 A 
ATOM     29  C   UNL A   1      31.461  28.615  24.896  1.00  0.00     0.064 C 
ATOM     30  N   UNL A   1      32.773  26.931  23.525  1.00  0.00    -0.315 N 
ATOM     31  O   UNL A   1      33.666  25.330  22.108  1.00  0.00    -0.268 OA
ATOM     32  C   UNL A   1      33.348  28.009  22.732  1.00  0.00     0.153 C 
ENDBRANCH  21  23
ENDBRANCH   9  21
ENDBRANCH   6   8
ENDBRANCH   5   6
ENDBRANCH   4   5
ENDBRANCH   3   4
ENDBRANCH   2   3
ENDBRANCH   1   2
BRANCH   1  33
ATOM     33  C   UNL A   1      42.891  23.662  26.520  1.00  0.00     0.261 C 
BRANCH  33  34
ATOM     34  O   UNL A   1      41.546  24.095  26.255  1.00  0.00    -0.460 OA
BRANCH  34  35
ATOM     35  C   UNL A   1      41.413  25.431  26.074  1.00  0.00     0.338 C 
ATOM     36  O   UNL A   1      41.151  26.010  25.026  1.00  0.00    -0.246 OA
BRANCH  35  37
ATOM     37  C   UNL A   1      41.442  26.132  27.368  1.00  0.00     0.060 A 
ATOM     38  C   UNL A   1      40.360  25.929  28.234  1.00  0.00     0.016 A 
ATOM     39  C   UNL A   1      42.450  27.045  27.690  1.00  0.00     0.016 A 
ATOM     40  C   UNL A   1      40.254  26.674  29.405  1.00  0.00     0.010 A 
ATOM     41  C   UNL A   1      42.333  27.803  28.862  1.00  0.00     0.010 A 
ATOM     42  C   UNL A   1      41.215  27.648  29.702  1.00  0.00    -0.014 A 
BRANCH  42  43
ATOM     43  C   UNL A   1      40.949  28.613  30.798  1.00  0.00     0.031 A 
ATOM     44  C   UNL A   1      41.810  28.563  32.031  1.00  0.00     0.074 A 
ATOM     45  C   UNL A   1      40.001  29.558  30.670  1.00  0.00     0.049 A 
ATOM     46  N   UNL A   1      41.758  29.302  33.108  1.00  0.00    -0.248 NA
ATOM     47  C   UNL A   1      42.878  27.550  32.047  1.00  0.00     0.031 C 
ATOM     48  C   UNL A   1      39.146  29.743  29.498  1.00  0.00     0.029 A 
ATOM     49  N   UNL A   1      39.605  30.547  31.536  1.00  0.00    -0.354 N 
ATOM     50  C   UNL A   1      42.785  28.850  33.927  1.00  0.00     0.074 A 
ATOM     51  C   UNL A   1      43.423  27.749  33.239  1.00  0.00     0.031 C 
ATOM     52  C   UNL A   1      38.326  30.785  29.717  1.00  0.00     0.029 A 
ATOM     53  C   UNL A   1      38.575  31.320  31.055  1.00  0.00     0.049 A 
ATOM     54  H   UNL A   1      40.019  30.689  32.417  1.00  0.00     0.167 HD
ATOM     55  C   UNL A   1      43.172  29.319  35.137  1.00  0.00     0.037 A 
ATOM     56  C   UNL A   1      37.904  32.335  31.636  1.00  0.00     0.037 A 
ATOM     57  C   UNL A   1      42.532  30.412  35.821  1.00  0.00     0.049 A 
ATOM     58  C   UNL A   1      38.290  32.777  33.023  1.00  0.00     0.074 A 
ATOM     59  C   UNL A   1      42.845  30.955  37.054  1.00  0.00     0.029 A 
ATOM     60  N   UNL A   1      41.449  31.127  35.330  1.00  0.00    -0.354 N 
ATOM     61  N   UNL A   1      39.257  32.334  33.791  1.00  0.00    -0.248 NA
ATOM     62  C   UNL A   1      37.491  33.855  33.626  1.00  0.00     0.031 C 
ATOM     63  C   UNL A   1      41.922  31.970  37.330  1.00  0.00     0.029 A 
ATOM     64  C   UNL A   1      41.066  32.092  36.247  1.00  0.00     0.049 A 
ATOM     65  H   UNL A   1      41.017  30.971  34.460  1.00  0.00     0.167 HD
ATOM     66  C   UNL A   1      39.196  33.090  34.957  1.00  0.00     0.074 A 
ATOM     67  C   UNL A   1      38.105  34.028  34.789  1.00  0.00     0.031 C 
ATOM     68  C   UNL A   1      39.974  33.017  36.066  1.00  0.00     0.037 A 
BRANCH  55  69
ATOM     69  C   UNL A   1      44.333  28.640  35.809  1.00  0.00     0.058 A 
ATOM     70  C   UNL A   1      45.651  29.092  35.633  1.00  0.00     0.135 A 
ATOM     71  C   UNL A   1      44.123  27.553  36.672  1.00  0.00     0.135 A 
ATOM     72  F   UNL A   1      45.909  30.115  34.802  1.00  0.00    -0.206 F 
ATOM     73  C   UNL A   1      46.721  28.479  36.276  1.00  0.00     0.059 A 
ATOM     74  C   UNL A   1      45.176  26.940  37.345  1.00  0.00     0.059 A 
ATOM     75  F   UNL A   1      42.883  27.078  36.870  1.00  0.00    -0.206 F 
ATOM     76  C   UNL A   1      46.473  27.406  37.133  1.00  0.00     0.060 A 
BRANCH  76  77
ATOM     77  S   UNL A   1      47.872  26.633  37.973  1.00  0.00     0.124 S 
ATOM     78  O   UNL A   1      48.142  27.597  39.035  1.00  0.00    -0.237 OA
ATOM     79  O   UNL A   1      47.308  25.357  38.402  1.00  0.00    -0.237 OA
ATOM     80  O   UNL A   1      48.890  26.547  36.932  1.00  0.00    -0.744 OA
ENDBRANCH  76  77
ENDBRANCH  55  69
BRANCH  56  81
ATOM     81  C   UNL A   1      36.791  32.999  30.906  1.00  0.00     0.058 A 
ATOM     82  C   UNL A   1      35.453  32.759  31.253  1.00  0.00     0.135 A 
ATOM     83  C   UNL A   1      37.044  33.897  29.858  1.00  0.00     0.135 A 
ATOM     84  F   UNL A   1      35.160  31.898  32.238  1.00  0.00    -0.206 F 
ATOM     85  C   UNL A   1      34.404  33.384  30.585  1.00  0.00     0.059 A 
ATOM     86  C   UNL A   1      36.014  34.552  29.190  1.00  0.00     0.059 A 
ATOM     87  F   UNL A   1      38.307  34.165  29.490  1.00  0.00    -0.206 F 
ATOM     88  C   UNL A   1      34.696  34.285  29.559  1.00  0.00     0.060 A 
BRANCH  88  89
ATOM     89  S   UNL A   1      33.329  35.138  28.743  1.00  0.00     0.124 S 
ATOM     90  O   UNL A   1      34.029  36.185  28.009  1.00  0.00    -0.237 OA
ATOM     91  O   UNL A   1      32.744  34.072  27.936  1.00  0.00    -0.237 OA
ATOM     92  O   UNL A   1      32.504  35.594  29.859  1.00  0.00    -0.744 OA
ENDBRANCH  88  89
ENDBRANCH  56  81
BRANCH  68  93
ATOM     93  C   UNL A   1      39.689  33.981  37.185  1.00  0.00     0.058 A 
ATOM     94  C   UNL A   1      38.828  33.645  38.240  1.00  0.00     0.135 A 
ATOM     95  C   UNL A   1      40.338  35.225  37.237  1.00  0.00     0.135 A 
ATOM     96  F   UNL A   1      38.179  32.470  38.236  1.00  0.00    -0.206 F 
ATOM     97  C   UNL A   1      38.607  34.517  39.303  1.00  0.00     0.059 A 
ATOM     98  C   UNL A   1      40.153  36.101  38.302  1.00  0.00     0.059 A 
ATOM     99  F   UNL A   1      41.181  35.590  36.257  1.00  0.00    -0.206 F 
ATOM    100  C   UNL A   1      39.278  35.742  39.326  1.00  0.00     0.060 A 
BRANCH 100 101
ATOM    101  S   UNL A   1      39.011  36.844  40.732  1.00  0.00     0.124 S 
ATOM    102  O   UNL A   1      38.298  35.971  41.658  1.00  0.00    -0.237 OA
ATOM    103  O   UNL A   1      40.375  37.196  41.114  1.00  0.00    -0.237 OA
ATOM    104  O   UNL A   1      38.224  37.934  40.164  1.00  0.00    -0.744 OA
ENDBRANCH 100 101
ENDBRANCH  68  93
ENDBRANCH  42  43
ENDBRANCH  35  37
ENDBRANCH  34  35
ENDBRANCH  33  34
ENDBRANCH   1  33
TORSDOF 19
ENDMDL
MODEL 3
REMARK VINA RESULT:     -11.6      5.785     11.883
REMARK SMILES Cc1cc(C)n(C)c(=O)c1C(=O)[NH+]1CCC2(CC1)C[NH2+][C@@H](C(=O)OCCOCCOC(=O)c1ccc(-c3c4nc(c(-c5c(F)cc(S(=O)(=O)[O-])cc5F)c5ccc([nH]5)c(-c5c(F)cc(S(=O)(=O)[O-])cc5F)c5nc(c(-c6c(F)cc(S(=O)(=O)[O-])cc6F)c6ccc3[nH]6)C=C5)C=C4)cc1)C2
REMARK SMILES IDX 28 1 27 2 26 3 25 4 24 5 22 6 23 7 21 8 13 9 14 10 18 11
REMARK SMILES IDX 15 13 17 14 16 15 19 16 99 17 20 18 11 21 12 22 10 23 1 24
REMARK SMILES IDX 2 25 3 26 4 27 8 28 5 29 6 30 9 31 7 32 29 33 30 34 31 35
REMARK SMILES IDX 32 36 33 37 34 38 98 39 35 40 97 41 36 42 37 43 38 44 91 45
REMARK SMILES IDX 39 46 96 47 90 48 92 49 40 50 95 51 89 52 88 53 41 55 75 56
REMARK SMILES IDX 54 57 74 58 55 59 58 60 73 61 93 62 56 63 57 64 72 66 94 67
REMARK SMILES IDX 59 68 42 69 43 70 52 71 44 72 45 73 51 74 53 75 46 76 47 77
REMARK SMILES IDX 48 78 49 79 50 80 76 81 77 82 86 83 78 84 79 85 85 86 87 87
REMARK SMILES IDX 80 88 81 89 82 90 83 91 84 92 60 93 61 94 70 95 62 96 63 97
REMARK SMILES IDX 69 98 71 99 64 100 65 101 66 102 67 103 68 104
REMARK H PARENT 13 12 20 19 20 20 92 54 58 65
REMARK Flexibility Score: inf
ROOT
ATOM      1  C   UNL A   1      34.661  33.801  30.397  1.00  0.00     0.202 C 
ENDROOT
BRANCH   1   2
ATOM      2  O   UNL A   1      35.561  33.812  29.291  1.00  0.00    -0.374 OA
BRANCH   2   3
ATOM      3  C   UNL A   1      35.037  33.457  28.011  1.00  0.00     0.202 C 
BRANCH   3   4
ATOM      4  C   UNL A   1      33.687  32.736  27.999  1.00  0.00     0.261 C 
BRANCH   4   5
ATOM      5  O   UNL A   1      33.828  31.408  27.472  1.00  0.00    -0.459 OA
BRANCH   5   6
ATOM      6  C   UNL A   1      32.737  30.898  26.844  1.00  0.00     0.364 C 
ATOM      7  O   UNL A   1      31.686  31.503  26.649  1.00  0.00    -0.245 OA
BRANCH   6   8
ATOM      8  C   UNL A   1      32.937  29.456  26.383  1.00  0.00     0.294 C 
ATOM      9  N   UNL A   1      31.002  24.651  25.618  1.00  0.00    -0.267 N 
ATOM     10  C   UNL A   1      31.696  25.160  26.789  1.00  0.00     0.271 C 
ATOM     11  C   UNL A   1      30.146  25.642  24.981  1.00  0.00     0.271 C 
ATOM     12  H   UNL A   1      31.327  25.447  25.139  1.00  0.00     0.357 HD
ATOM     13  C   UNL A   1      32.748  26.141  26.296  1.00  0.00     0.075 C 
ATOM     14  C   UNL A   1      30.892  26.948  24.639  1.00  0.00     0.075 C 
ATOM     15  C   UNL A   1      32.130  27.333  25.514  1.00  0.00     0.036 C 
ATOM     16  C   UNL A   1      33.244  27.978  24.638  1.00  0.00     0.268 C 
ATOM     17  C   UNL A   1      31.775  28.473  26.508  1.00  0.00     0.090 C 
ATOM     18  N   UNL A   1      33.215  29.402  24.942  1.00  0.00    -0.334 N 
ATOM     19  H   UNL A   1      32.478  29.870  24.413  1.00  0.00     0.347 HD
ATOM     20  H   UNL A   1      34.085  29.874  24.692  1.00  0.00     0.347 HD
BRANCH   9  21
ATOM     21  C   UNL A   1      31.261  23.341  25.226  1.00  0.00     0.350 C 
ATOM     22  O   UNL A   1      30.489  22.427  25.533  1.00  0.00    -0.225 OA
BRANCH  21  23
ATOM     23  C   UNL A   1      32.539  22.956  24.544  1.00  0.00     0.147 A 
ATOM     24  C   UNL A   1      32.091  24.357  22.453  1.00  0.00     0.045 C 
ATOM     25  C   UNL A   1      32.896  23.462  23.343  1.00  0.00    -0.027 A 
ATOM     26  C   UNL A   1      34.247  23.297  22.849  1.00  0.00     0.026 A 
ATOM     27  C   UNL A   1      35.245  22.904  23.651  1.00  0.00     0.018 A 
ATOM     28  C   UNL A   1      33.620  22.319  25.385  1.00  0.00     0.267 A 
ATOM     29  C   UNL A   1      36.654  22.951  23.124  1.00  0.00     0.064 C 
ATOM     30  N   UNL A   1      34.949  22.467  24.939  1.00  0.00    -0.315 N 
ATOM     31  O   UNL A   1      33.334  21.724  26.425  1.00  0.00    -0.268 OA
ATOM     32  C   UNL A   1      36.017  22.116  25.865  1.00  0.00     0.153 C 
ENDBRANCH  21  23
ENDBRANCH   9  21
ENDBRANCH   6   8
ENDBRANCH   5   6
ENDBRANCH   4   5
ENDBRANCH   3   4
ENDBRANCH   2   3
ENDBRANCH   1   2
BRANCH   1  33
ATOM     33  C   UNL A   1      34.812  32.669  31.421  1.00  0.00     0.261 C 
BRANCH  33  34
ATOM     34  O   UNL A   1      35.644  31.595  30.946  1.00  0.00    -0.460 OA
BRANCH  34  35
ATOM     35  C   UNL A   1      36.643  31.245  31.793  1.00  0.00     0.338 C 
ATOM     36  O   UNL A   1      36.641  31.342  33.014  1.00  0.00    -0.246 OA
BRANCH  35  37
ATOM     37  C   UNL A   1      37.709  30.535  31.066  1.00  0.00     0.060 A 
ATOM     38  C   UNL A   1      38.704  29.913  31.831  1.00  0.00     0.016 A 
ATOM     39  C   UNL A   1      37.794  30.560  29.672  1.00  0.00     0.016 A 
ATOM     40  C   UNL A   1      39.816  29.354  31.208  1.00  0.00     0.010 A 
ATOM     41  C   UNL A   1      38.922  30.010  29.049  1.00  0.00     0.010 A 
ATOM     42  C   UNL A   1      39.954  29.441  29.817  1.00  0.00    -0.014 A 
BRANCH  42  43
ATOM     43  C   UNL A   1      41.256  29.090  29.199  1.00  0.00     0.031 A 
ATOM     44  C   UNL A   1      42.324  30.147  29.114  1.00  0.00     0.074 A 
ATOM     45  C   UNL A   1      41.507  27.837  28.781  1.00  0.00     0.049 A 
ATOM     46  N   UNL A   1      43.531  30.068  28.616  1.00  0.00    -0.248 NA
ATOM     47  C   UNL A   1      41.990  31.467  29.674  1.00  0.00     0.031 C 
ATOM     48  C   UNL A   1      40.573  26.716  28.868  1.00  0.00     0.029 A 
ATOM     49  N   UNL A   1      42.631  27.297  28.207  1.00  0.00    -0.354 N 
ATOM     50  C   UNL A   1      44.101  31.321  28.805  1.00  0.00     0.074 A 
ATOM     51  C   UNL A   1      43.098  32.153  29.433  1.00  0.00     0.031 C 
ATOM     52  C   UNL A   1      41.163  25.617  28.365  1.00  0.00     0.029 A 
ATOM     53  C   UNL A   1      42.503  25.964  27.893  1.00  0.00     0.049 A 
ATOM     54  H   UNL A   1      43.450  27.814  28.036  1.00  0.00     0.167 HD
ATOM     55  C   UNL A   1      45.353  31.736  28.499  1.00  0.00     0.037 A 
ATOM     56  C   UNL A   1      43.366  25.127  27.283  1.00  0.00     0.037 A 
ATOM     57  C   UNL A   1      46.347  30.906  27.871  1.00  0.00     0.049 A 
ATOM     58  C   UNL A   1      44.719  25.638  26.864  1.00  0.00     0.074 A 
ATOM     59  C   UNL A   1      47.641  31.237  27.512  1.00  0.00     0.029 A 
ATOM     60  N   UNL A   1      46.157  29.580  27.509  1.00  0.00    -0.354 N 
ATOM     61  N   UNL A   1      45.243  26.828  27.040  1.00  0.00    -0.248 NA
ATOM     62  C   UNL A   1      45.599  24.694  26.158  1.00  0.00     0.031 C 
ATOM     63  C   UNL A   1      48.220  30.125  26.891  1.00  0.00     0.029 A 
ATOM     64  C   UNL A   1      47.303  29.086  26.908  1.00  0.00     0.049 A 
ATOM     65  H   UNL A   1      45.330  29.067  27.656  1.00  0.00     0.167 HD
ATOM     66  C   UNL A   1      46.518  26.770  26.487  1.00  0.00     0.074 A 
ATOM     67  C   UNL A   1      46.692  25.424  25.981  1.00  0.00     0.031 C 
ATOM     68  C   UNL A   1      47.460  27.743  26.406  1.00  0.00     0.037 A 
BRANCH  55  69
ATOM     69  C   UNL A   1      45.714  33.159  28.823  1.00  0.00     0.058 A 
ATOM     70  C   UNL A   1      45.452  34.206  27.924  1.00  0.00     0.135 A 
ATOM     71  C   UNL A   1      46.286  33.486  30.062  1.00  0.00     0.135 A 
ATOM     72  F   UNL A   1      44.924  33.945  26.717  1.00  0.00    -0.206 F 
ATOM     73  C   UNL A   1      45.762  35.525  28.237  1.00  0.00     0.059 A 
ATOM     74  C   UNL A   1      46.582  34.802  30.406  1.00  0.00     0.059 A 
ATOM     75  F   UNL A   1      46.561  32.522  30.955  1.00  0.00    -0.206 F 
ATOM     76  C   UNL A   1      46.324  35.814  29.481  1.00  0.00     0.060 A 
BRANCH  76  77
ATOM     77  S   UNL A   1      46.704  37.534  29.876  1.00  0.00     0.124 S 
ATOM     78  O   UNL A   1      46.621  37.523  31.333  1.00  0.00    -0.237 OA
ATOM     79  O   UNL A   1      48.044  37.690  29.319  1.00  0.00    -0.237 OA
ATOM     80  O   UNL A   1      45.654  38.282  29.194  1.00  0.00    -0.744 OA
ENDBRANCH  76  77
ENDBRANCH  55  69
BRANCH  56  81
ATOM     81  C   UNL A   1      42.971  23.716  27.027  1.00  0.00     0.058 A 
ATOM     82  C   UNL A   1      42.643  23.279  25.735  1.00  0.00     0.135 A 
ATOM     83  C   UNL A   1      42.926  22.774  28.067  1.00  0.00     0.135 A 
ATOM     84  F   UNL A   1      42.656  24.145  24.711  1.00  0.00    -0.206 F 
ATOM     85  C   UNL A   1      42.283  21.959  25.482  1.00  0.00     0.059 A 
ATOM     86  C   UNL A   1      42.593  21.443  27.835  1.00  0.00     0.059 A 
ATOM     87  F   UNL A   1      43.235  23.140  29.321  1.00  0.00    -0.206 F 
ATOM     88  C   UNL A   1      42.268  21.046  26.539  1.00  0.00     0.060 A 
BRANCH  88  89
ATOM     89  S   UNL A   1      41.863  19.322  26.186  1.00  0.00     0.124 S 
ATOM     90  O   UNL A   1      42.283  18.662  27.417  1.00  0.00    -0.237 OA
ATOM     91  O   UNL A   1      40.423  19.389  25.955  1.00  0.00    -0.237 OA
ATOM     92  O   UNL A   1      42.667  19.023  25.005  1.00  0.00    -0.744 OA
ENDBRANCH  88  89
ENDBRANCH  56  81
BRANCH  68  93
ATOM     93  C   UNL A   1      48.772  27.392  25.760  1.00  0.00     0.058 A 
ATOM     94  C   UNL A   1      48.944  27.453  24.368  1.00  0.00     0.135 A 
ATOM     95  C   UNL A   1      49.887  27.060  26.546  1.00  0.00     0.135 A 
ATOM     96  F   UNL A   1      47.908  27.761  23.572  1.00  0.00    -0.206 F 
ATOM     97  C   UNL A   1      50.174  27.181  23.776  1.00  0.00     0.059 A 
ATOM     98  C   UNL A   1      51.133  26.810  25.977  1.00  0.00     0.059 A 
ATOM     99  F   UNL A   1      49.779  26.999  27.883  1.00  0.00    -0.206 F 
ATOM    100  C   UNL A   1      51.264  26.865  24.590  1.00  0.00     0.060 A 
BRANCH 100 101
ATOM    101  S   UNL A   1      52.862  26.554  23.808  1.00  0.00     0.124 S 
ATOM    102  O   UNL A   1      53.253  25.293  24.430  1.00  0.00    -0.237 OA
ATOM    103  O   UNL A   1      52.508  26.481  22.395  1.00  0.00    -0.237 OA
ATOM    104  O   UNL A   1      53.659  27.716  24.190  1.00  0.00    -0.744 OA
ENDBRANCH 100 101
ENDBRANCH  68  93
ENDBRANCH  42  43
ENDBRANCH  35  37
ENDBRANCH  34  35
ENDBRANCH  33  34
ENDBRANCH   1  33
TORSDOF 19
ENDMDL
