MODEL 1
REMARK VINA RESULT:     -10.6      0.000      0.000
REMARK SMILES O=C(CSc1csc(C(=O)OCCOCCOC(=O)c2ccc(-c3c4nc(c(-c5c(F)cc(S(=O)(=O)[O-])cc5F)c5ccc([nH]5)c(-c5c(F)cc(S(=O)(=O)[O-])cc5F)c5nc(c(-c6c(F)cc(S(=O)(=O)[O-])cc6F)c6ccc3[nH]6)C=C5)C=C4)cc2)c1)NC(=O)c1ccc[nH]1
REMARK SMILES IDX 13 1 12 2 11 3 9 4 10 5 8 6 5 7 6 8 86 9 7 10 4 11 3 12 2 13
REMARK SMILES IDX 1 14 87 15 88 16 89 18 90 19 91 20 94 21 92 22 93 23 14 25
REMARK SMILES IDX 15 26 16 27 17 28 18 29 19 30 20 31 21 32 85 33 22 34 84 35
REMARK SMILES IDX 23 36 24 37 25 38 78 39 26 40 83 41 77 42 79 43 27 44 82 45
REMARK SMILES IDX 76 46 75 47 28 49 62 50 41 51 61 52 42 53 45 54 60 55 80 56
REMARK SMILES IDX 43 57 44 58 59 60 81 61 46 62 29 63 30 64 39 65 31 66 32 67
REMARK SMILES IDX 38 68 40 69 33 70 34 71 35 72 36 73 37 74 63 75 64 76 73 77
REMARK SMILES IDX 65 78 66 79 72 80 74 81 67 82 68 83 69 84 70 85 71 86 47 87
REMARK SMILES IDX 48 88 57 89 49 90 50 91 56 92 58 93 51 94 52 95 53 96 54 97
REMARK SMILES IDX 55 98
REMARK H PARENT 87 17 94 24 79 48 45 59
REMARK Flexibility Score: inf
ROOT
ATOM      1  C   UNL A   1      33.238  30.552  26.892  1.00  0.00     0.202 C 
ENDROOT
BRANCH   1   2
ATOM      2  C   UNL A   1      31.865  30.449  26.223  1.00  0.00     0.261 C 
BRANCH   2   3
ATOM      3  O   UNL A   1      31.596  29.101  25.795  1.00  0.00    -0.459 OA
BRANCH   3   4
ATOM      4  C   UNL A   1      31.041  28.986  24.553  1.00  0.00     0.348 C 
ATOM      5  O   UNL A   1      30.270  29.800  24.060  1.00  0.00    -0.245 OA
BRANCH   4   6
ATOM      6  C   UNL A   1      31.568  27.815  23.877  1.00  0.00     0.113 A 
ATOM      7  C   UNL A   1      32.682  25.841  23.300  1.00  0.00     0.019 A 
ATOM      8  C   UNL A   1      31.891  26.042  22.195  1.00  0.00     0.080 A 
ATOM      9  C   UNL A   1      32.532  26.894  24.258  1.00  0.00     0.042 A 
ATOM     10  S   UNL A   1      30.946  27.455  22.319  1.00  0.00    -0.136 S 
BRANCH   7  11
ATOM     11  S   UNL A   1      33.641  24.398  23.616  1.00  0.00    -0.115 SA
BRANCH  11  12
ATOM     12  C   UNL A   1      32.715  23.055  22.826  1.00  0.00     0.175 C 
BRANCH  12  13
ATOM     13  C   UNL A   1      32.968  21.702  23.461  1.00  0.00     0.237 C 
ATOM     14  O   UNL A   1      32.177  20.781  23.289  1.00  0.00    -0.274 OA
ATOM     15  N   UNL A   1      34.169  21.615  24.158  1.00  0.00    -0.290 N 
ATOM     16  C   UNL A   1      34.543  20.697  25.125  1.00  0.00     0.274 C 
ATOM     17  H   UNL A   1      34.842  22.297  23.934  1.00  0.00     0.173 HD
ATOM     18  O   UNL A   1      35.243  21.101  26.055  1.00  0.00    -0.267 OA
BRANCH  16  19
ATOM     19  C   UNL A   1      34.045  19.343  25.085  1.00  0.00     0.104 A 
ATOM     20  C   UNL A   1      34.504  18.212  24.432  1.00  0.00     0.033 A 
ATOM     21  N   UNL A   1      32.943  18.949  25.816  1.00  0.00    -0.357 N 
ATOM     22  C   UNL A   1      33.614  17.146  24.713  1.00  0.00     0.020 A 
ATOM     23  C   UNL A   1      32.650  17.636  25.562  1.00  0.00     0.083 A 
ATOM     24  H   UNL A   1      32.439  19.529  26.433  1.00  0.00     0.166 HD
ENDBRANCH  16  19
ENDBRANCH  12  13
ENDBRANCH  11  12
ENDBRANCH   7  11
ENDBRANCH   4   6
ENDBRANCH   3   4
ENDBRANCH   2   3
ENDBRANCH   1   2
BRANCH   1  25
ATOM     25  O   UNL A   1      33.386  31.659  27.784  1.00  0.00    -0.374 OA
BRANCH  25  26
ATOM     26  C   UNL A   1      34.721  32.131  27.987  1.00  0.00     0.202 C 
BRANCH  26  27
ATOM     27  C   UNL A   1      35.310  31.844  29.373  1.00  0.00     0.261 C 
BRANCH  27  28
ATOM     28  O   UNL A   1      35.869  30.520  29.433  1.00  0.00    -0.460 OA
BRANCH  28  29
ATOM     29  C   UNL A   1      36.609  30.266  30.539  1.00  0.00     0.338 C 
ATOM     30  O   UNL A   1      36.195  30.065  31.669  1.00  0.00    -0.246 OA
BRANCH  29  31
ATOM     31  C   UNL A   1      38.029  30.086  30.169  1.00  0.00     0.060 A 
ATOM     32  C   UNL A   1      38.336  30.096  28.804  1.00  0.00     0.016 A 
ATOM     33  C   UNL A   1      39.033  29.868  31.118  1.00  0.00     0.016 A 
ATOM     34  C   UNL A   1      39.637  29.833  28.380  1.00  0.00     0.010 A 
ATOM     35  C   UNL A   1      40.338  29.602  30.689  1.00  0.00     0.010 A 
ATOM     36  C   UNL A   1      40.640  29.549  29.316  1.00  0.00    -0.014 A 
BRANCH  36  37
ATOM     37  C   UNL A   1      41.965  29.088  28.833  1.00  0.00     0.031 A 
ATOM     38  C   UNL A   1      43.121  30.051  28.816  1.00  0.00     0.074 A 
ATOM     39  C   UNL A   1      42.149  27.806  28.469  1.00  0.00     0.049 A 
ATOM     40  N   UNL A   1      44.373  29.836  28.500  1.00  0.00    -0.248 NA
ATOM     41  C   UNL A   1      42.829  31.438  29.209  1.00  0.00     0.031 C 
ATOM     42  C   UNL A   1      41.111  26.777  28.453  1.00  0.00     0.029 A 
ATOM     43  N   UNL A   1      43.279  27.152  28.048  1.00  0.00    -0.354 N 
ATOM     44  C   UNL A   1      45.019  31.057  28.659  1.00  0.00     0.074 A 
ATOM     45  C   UNL A   1      44.013  32.016  29.064  1.00  0.00     0.031 C 
ATOM     46  C   UNL A   1      41.653  25.617  28.043  1.00  0.00     0.029 A 
ATOM     47  C   UNL A   1      43.071  25.826  27.754  1.00  0.00     0.049 A 
ATOM     48  H   UNL A   1      44.156  27.590  27.965  1.00  0.00     0.167 HD
ATOM     49  C   UNL A   1      46.331  31.348  28.496  1.00  0.00     0.037 A 
ATOM     50  C   UNL A   1      43.926  24.888  27.300  1.00  0.00     0.037 A 
ATOM     51  C   UNL A   1      47.331  30.393  28.093  1.00  0.00     0.049 A 
ATOM     52  C   UNL A   1      45.373  25.244  27.093  1.00  0.00     0.074 A 
ATOM     53  C   UNL A   1      48.693  30.585  27.934  1.00  0.00     0.029 A 
ATOM     54  N   UNL A   1      47.077  29.067  27.776  1.00  0.00    -0.354 N 
ATOM     55  N   UNL A   1      45.978  26.390  27.292  1.00  0.00    -0.248 NA
ATOM     56  C   UNL A   1      46.257  24.174  26.608  1.00  0.00     0.031 C 
ATOM     57  C   UNL A   1      49.254  29.387  27.477  1.00  0.00     0.029 A 
ATOM     58  C   UNL A   1      48.250  28.435  27.394  1.00  0.00     0.049 A 
ATOM     59  H   UNL A   1      46.192  28.637  27.814  1.00  0.00     0.167 HD
ATOM     60  C   UNL A   1      47.315  26.178  26.972  1.00  0.00     0.074 A 
ATOM     61  C   UNL A   1      47.433  24.786  26.584  1.00  0.00     0.031 C 
ATOM     62  C   UNL A   1      48.352  27.053  26.997  1.00  0.00     0.037 A 
BRANCH  49  63
ATOM     63  C   UNL A   1      46.758  32.769  28.738  1.00  0.00     0.058 A 
ATOM     64  C   UNL A   1      47.164  33.213  30.007  1.00  0.00     0.135 A 
ATOM     65  C   UNL A   1      46.781  33.696  27.682  1.00  0.00     0.135 A 
ATOM     66  F   UNL A   1      47.145  32.373  31.054  1.00  0.00    -0.206 F 
ATOM     67  C   UNL A   1      47.549  34.531  30.228  1.00  0.00     0.059 A 
ATOM     68  C   UNL A   1      47.186  35.013  27.875  1.00  0.00     0.059 A 
ATOM     69  F   UNL A   1      46.402  33.324  26.450  1.00  0.00    -0.206 F 
ATOM     70  C   UNL A   1      47.551  35.425  29.156  1.00  0.00     0.060 A 
BRANCH  70  71
ATOM     71  S   UNL A   1      48.045  37.136  29.457  1.00  0.00     0.124 S 
ATOM     72  O   UNL A   1      48.298  37.116  30.895  1.00  0.00    -0.237 OA
ATOM     73  O   UNL A   1      49.224  37.278  28.609  1.00  0.00    -0.237 OA
ATOM     74  O   UNL A   1      46.879  37.905  29.036  1.00  0.00    -0.744 OA
ENDBRANCH  70  71
ENDBRANCH  49  63
BRANCH  50  75
ATOM     75  C   UNL A   1      43.431  23.516  27.017  1.00  0.00     0.058 A 
ATOM     76  C   UNL A   1      43.185  23.088  25.704  1.00  0.00     0.135 A 
ATOM     77  C   UNL A   1      43.210  22.600  28.057  1.00  0.00     0.135 A 
ATOM     78  F   UNL A   1      43.372  23.933  24.678  1.00  0.00    -0.206 F 
ATOM     79  C   UNL A   1      42.731  21.802  25.431  1.00  0.00     0.059 A 
ATOM     80  C   UNL A   1      42.777  21.302  27.807  1.00  0.00     0.059 A 
ATOM     81  F   UNL A   1      43.441  22.959  29.329  1.00  0.00    -0.206 F 
ATOM     82  C   UNL A   1      42.535  20.914  26.491  1.00  0.00     0.060 A 
BRANCH  82  83
ATOM     83  S   UNL A   1      42.013  19.224  26.123  1.00  0.00     0.124 S 
ATOM     84  O   UNL A   1      40.610  19.418  25.780  1.00  0.00    -0.237 OA
ATOM     85  O   UNL A   1      42.898  18.863  25.020  1.00  0.00    -0.237 OA
ATOM     86  O   UNL A   1      42.266  18.518  27.375  1.00  0.00    -0.744 OA
ENDBRANCH  82  83
ENDBRANCH  50  75
BRANCH  62  87
ATOM     87  C   UNL A   1      49.704  26.527  26.602  1.00  0.00     0.058 A 
ATOM     88  C   UNL A   1      50.128  26.521  25.264  1.00  0.00     0.135 A 
ATOM     89  C   UNL A   1      50.596  26.043  27.573  1.00  0.00     0.135 A 
ATOM     90  F   UNL A   1      49.312  26.968  24.294  1.00  0.00    -0.206 F 
ATOM     91  C   UNL A   1      51.374  26.021  24.897  1.00  0.00     0.059 A 
ATOM     92  C   UNL A   1      51.856  25.562  27.233  1.00  0.00     0.059 A 
ATOM     93  F   UNL A   1      50.246  26.039  28.869  1.00  0.00    -0.206 F 
ATOM     94  C   UNL A   1      52.229  25.538  25.889  1.00  0.00     0.060 A 
BRANCH  94  95
ATOM     95  S   UNL A   1      53.844  24.894  25.405  1.00  0.00     0.124 S 
ATOM     96  O   UNL A   1      54.635  25.155  26.603  1.00  0.00    -0.237 OA
ATOM     97  O   UNL A   1      53.555  23.489  25.131  1.00  0.00    -0.237 OA
ATOM     98  O   UNL A   1      54.191  25.694  24.234  1.00  0.00    -0.744 OA
ENDBRANCH  94  95
ENDBRANCH  62  87
ENDBRANCH  36  37
ENDBRANCH  29  31
ENDBRANCH  28  29
ENDBRANCH  27  28
ENDBRANCH  26  27
ENDBRANCH  25  26
ENDBRANCH   1  25
TORSDOF 21
ENDMDL
MODEL 2
REMARK VINA RESULT:     -10.6      2.815      4.224
REMARK SMILES O=C(CSc1csc(C(=O)OCCOCCOC(=O)c2ccc(-c3c4nc(c(-c5c(F)cc(S(=O)(=O)[O-])cc5F)c5ccc([nH]5)c(-c5c(F)cc(S(=O)(=O)[O-])cc5F)c5nc(c(-c6c(F)cc(S(=O)(=O)[O-])cc6F)c6ccc3[nH]6)C=C5)C=C4)cc2)c1)NC(=O)c1ccc[nH]1
REMARK SMILES IDX 13 1 12 2 11 3 9 4 10 5 8 6 5 7 6 8 86 9 7 10 4 11 3 12 2 13
REMARK SMILES IDX 1 14 87 15 88 16 89 18 90 19 91 20 94 21 92 22 93 23 14 25
REMARK SMILES IDX 15 26 16 27 17 28 18 29 19 30 20 31 21 32 85 33 22 34 84 35
REMARK SMILES IDX 23 36 24 37 25 38 78 39 26 40 83 41 77 42 79 43 27 44 82 45
REMARK SMILES IDX 76 46 75 47 28 49 62 50 41 51 61 52 42 53 45 54 60 55 80 56
REMARK SMILES IDX 43 57 44 58 59 60 81 61 46 62 29 63 30 64 39 65 31 66 32 67
REMARK SMILES IDX 38 68 40 69 33 70 34 71 35 72 36 73 37 74 63 75 64 76 73 77
REMARK SMILES IDX 65 78 66 79 72 80 74 81 67 82 68 83 69 84 70 85 71 86 47 87
REMARK SMILES IDX 48 88 57 89 49 90 50 91 56 92 58 93 51 94 52 95 53 96 54 97
REMARK SMILES IDX 55 98
REMARK H PARENT 87 17 94 24 79 48 45 59
REMARK Flexibility Score: inf
ROOT
ATOM      1  C   UNL A   1      33.972  33.118  28.387  1.00  0.00     0.202 C 
ENDROOT
BRANCH   1   2
ATOM      2  C   UNL A   1      34.841  31.971  27.863  1.00  0.00     0.261 C 
BRANCH   2   3
ATOM      3  O   UNL A   1      34.039  30.970  27.208  1.00  0.00    -0.459 OA
BRANCH   3   4
ATOM      4  C   UNL A   1      34.449  29.682  27.400  1.00  0.00     0.348 C 
ATOM      5  O   UNL A   1      35.400  29.353  28.099  1.00  0.00    -0.245 OA
BRANCH   4   6
ATOM      6  C   UNL A   1      33.543  28.766  26.733  1.00  0.00     0.113 A 
ATOM      7  C   UNL A   1      32.537  27.214  25.301  1.00  0.00     0.019 A 
ATOM      8  C   UNL A   1      31.588  27.332  26.287  1.00  0.00     0.080 A 
ATOM      9  C   UNL A   1      33.652  28.081  25.533  1.00  0.00     0.042 A 
ATOM     10  S   UNL A   1      32.044  28.437  27.502  1.00  0.00    -0.136 S 
BRANCH   7  11
ATOM     11  S   UNL A   1      32.506  26.034  23.994  1.00  0.00    -0.115 SA
BRANCH  11  12
ATOM     12  C   UNL A   1      32.467  27.031  22.481  1.00  0.00     0.175 C 
BRANCH  12  13
ATOM     13  C   UNL A   1      31.375  28.082  22.488  1.00  0.00     0.237 C 
ATOM     14  O   UNL A   1      31.660  29.270  22.375  1.00  0.00    -0.274 OA
ATOM     15  N   UNL A   1      30.086  27.566  22.561  1.00  0.00    -0.290 N 
ATOM     16  C   UNL A   1      28.918  28.205  22.940  1.00  0.00     0.274 C 
ATOM     17  H   UNL A   1      29.992  26.619  22.309  1.00  0.00     0.173 HD
ATOM     18  O   UNL A   1      28.089  27.551  23.575  1.00  0.00    -0.267 OA
BRANCH  16  19
ATOM     19  C   UNL A   1      28.733  29.613  22.681  1.00  0.00     0.104 A 
ATOM     20  C   UNL A   1      28.200  30.287  21.596  1.00  0.00     0.033 A 
ATOM     21  N   UNL A   1      29.062  30.577  23.613  1.00  0.00    -0.357 N 
ATOM     22  C   UNL A   1      28.288  31.677  21.851  1.00  0.00     0.020 A 
ATOM     23  C   UNL A   1      28.839  31.827  23.102  1.00  0.00     0.083 A 
ATOM     24  H   UNL A   1      29.408  30.391  24.516  1.00  0.00     0.166 HD
ENDBRANCH  16  19
ENDBRANCH  12  13
ENDBRANCH  11  12
ENDBRANCH   7  11
ENDBRANCH   4   6
ENDBRANCH   3   4
ENDBRANCH   2   3
ENDBRANCH   1   2
BRANCH   1  25
ATOM     25  O   UNL A   1      34.065  33.344  29.795  1.00  0.00    -0.374 OA
BRANCH  25  26
ATOM     26  C   UNL A   1      35.356  33.152  30.380  1.00  0.00     0.202 C 
BRANCH  26  27
ATOM     27  C   UNL A   1      35.364  32.374  31.700  1.00  0.00     0.261 C 
BRANCH  27  28
ATOM     28  O   UNL A   1      36.663  31.813  31.962  1.00  0.00    -0.460 OA
BRANCH  28  29
ATOM     29  C   UNL A   1      36.844  30.555  31.489  1.00  0.00     0.338 C 
ATOM     30  O   UNL A   1      35.993  29.691  31.358  1.00  0.00    -0.246 OA
BRANCH  29  31
ATOM     31  C   UNL A   1      38.218  30.402  30.968  1.00  0.00     0.060 A 
ATOM     32  C   UNL A   1      38.376  30.405  29.577  1.00  0.00     0.016 A 
ATOM     33  C   UNL A   1      39.324  30.215  31.804  1.00  0.00     0.016 A 
ATOM     34  C   UNL A   1      39.628  30.167  29.017  1.00  0.00     0.010 A 
ATOM     35  C   UNL A   1      40.581  29.972  31.238  1.00  0.00     0.010 A 
ATOM     36  C   UNL A   1      40.733  29.913  29.841  1.00  0.00    -0.014 A 
BRANCH  36  37
ATOM     37  C   UNL A   1      42.008  29.476  29.219  1.00  0.00     0.031 A 
ATOM     38  C   UNL A   1      43.148  30.451  29.107  1.00  0.00     0.074 A 
ATOM     39  C   UNL A   1      42.166  28.203  28.815  1.00  0.00     0.049 A 
ATOM     40  N   UNL A   1      44.363  30.256  28.664  1.00  0.00    -0.248 NA
ATOM     41  C   UNL A   1      42.882  31.828  29.553  1.00  0.00     0.031 C 
ATOM     42  C   UNL A   1      41.142  27.162  28.882  1.00  0.00     0.029 A 
ATOM     43  N   UNL A   1      43.256  27.569  28.271  1.00  0.00    -0.354 N 
ATOM     44  C   UNL A   1      45.010  31.481  28.782  1.00  0.00     0.074 A 
ATOM     45  C   UNL A   1      44.041  32.421  29.302  1.00  0.00     0.031 C 
ATOM     46  C   UNL A   1      41.652  26.016  28.398  1.00  0.00     0.029 A 
ATOM     47  C   UNL A   1      43.032  26.246  27.975  1.00  0.00     0.049 A 
ATOM     48  H   UNL A   1      44.116  28.019  28.110  1.00  0.00     0.167 HD
ATOM     49  C   UNL A   1      46.298  31.790  28.495  1.00  0.00     0.037 A 
ATOM     50  C   UNL A   1      43.847  25.326  27.421  1.00  0.00     0.037 A 
ATOM     51  C   UNL A   1      47.261  30.854  27.977  1.00  0.00     0.049 A 
ATOM     52  C   UNL A   1      45.263  25.702  27.078  1.00  0.00     0.074 A 
ATOM     53  C   UNL A   1      48.599  31.064  27.688  1.00  0.00     0.029 A 
ATOM     54  N   UNL A   1      46.990  29.531  27.661  1.00  0.00    -0.354 N 
ATOM     55  N   UNL A   1      45.873  26.852  27.237  1.00  0.00    -0.248 NA
ATOM     56  C   UNL A   1      46.104  24.652  26.487  1.00  0.00     0.031 C 
ATOM     57  C   UNL A   1      49.124  29.881  27.155  1.00  0.00     0.029 A 
ATOM     58  C   UNL A   1      48.125  28.920  27.153  1.00  0.00     0.049 A 
ATOM     59  H   UNL A   1      46.117  29.090  27.779  1.00  0.00     0.167 HD
ATOM     60  C   UNL A   1      47.174  26.660  26.783  1.00  0.00     0.074 A 
ATOM     61  C   UNL A   1      47.266  25.277  26.359  1.00  0.00     0.031 C 
ATOM     62  C   UNL A   1      48.200  27.546  26.721  1.00  0.00     0.037 A 
BRANCH  49  63
ATOM     63  C   UNL A   1      46.733  33.212  28.720  1.00  0.00     0.058 A 
ATOM     64  C   UNL A   1      47.231  33.644  29.960  1.00  0.00     0.135 A 
ATOM     65  C   UNL A   1      46.670  34.150  27.677  1.00  0.00     0.135 A 
ATOM     66  F   UNL A   1      47.298  32.792  30.995  1.00  0.00    -0.206 F 
ATOM     67  C   UNL A   1      47.624  34.962  30.167  1.00  0.00     0.059 A 
ATOM     68  C   UNL A   1      47.080  35.468  27.855  1.00  0.00     0.059 A 
ATOM     69  F   UNL A   1      46.200  33.790  26.473  1.00  0.00    -0.206 F 
ATOM     70  C   UNL A   1      47.540  35.868  29.108  1.00  0.00     0.060 A 
BRANCH  70  71
ATOM     71  S   UNL A   1      48.044  37.579  29.392  1.00  0.00     0.124 S 
ATOM     72  O   UNL A   1      48.809  37.860  28.180  1.00  0.00    -0.237 OA
ATOM     73  O   UNL A   1      46.764  38.270  29.507  1.00  0.00    -0.237 OA
ATOM     74  O   UNL A   1      48.824  37.504  30.623  1.00  0.00    -0.744 OA
ENDBRANCH  70  71
ENDBRANCH  49  63
BRANCH  50  75
ATOM     75  C   UNL A   1      43.339  23.954  27.161  1.00  0.00     0.058 A 
ATOM     76  C   UNL A   1      43.312  22.984  28.173  1.00  0.00     0.135 A 
ATOM     77  C   UNL A   1      42.852  23.594  25.896  1.00  0.00     0.135 A 
ATOM     78  F   UNL A   1      43.778  23.280  29.397  1.00  0.00    -0.206 F 
ATOM     79  C   UNL A   1      42.827  21.701  27.940  1.00  0.00     0.059 A 
ATOM     80  C   UNL A   1      42.341  22.324  25.643  1.00  0.00     0.059 A 
ATOM     81  F   UNL A   1      42.846  24.490  24.897  1.00  0.00    -0.206 F 
ATOM     82  C   UNL A   1      42.340  21.383  26.671  1.00  0.00     0.060 A 
BRANCH  82  83
ATOM     83  S   UNL A   1      41.647  19.738  26.394  1.00  0.00     0.124 S 
ATOM     84  O   UNL A   1      41.953  19.074  27.656  1.00  0.00    -0.237 OA
ATOM     85  O   UNL A   1      40.238  20.034  26.153  1.00  0.00    -0.237 OA
ATOM     86  O   UNL A   1      42.386  19.256  25.232  1.00  0.00    -0.744 OA
ENDBRANCH  82  83
ENDBRANCH  50  75
BRANCH  62  87
ATOM     87  C   UNL A   1      49.511  27.043  26.184  1.00  0.00     0.058 A 
ATOM     88  C   UNL A   1      49.845  27.166  24.827  1.00  0.00     0.135 A 
ATOM     89  C   UNL A   1      50.454  26.450  27.039  1.00  0.00     0.135 A 
ATOM     90  F   UNL A   1      48.976  27.721  23.965  1.00  0.00    -0.206 F 
ATOM     91  C   UNL A   1      51.052  26.687  24.327  1.00  0.00     0.059 A 
ATOM     92  C   UNL A   1      51.678  25.987  26.567  1.00  0.00     0.059 A 
ATOM     93  F   UNL A   1      50.191  26.319  28.349  1.00  0.00    -0.206 F 
ATOM     94  C   UNL A   1      51.961  26.094  25.206  1.00  0.00     0.060 A 
BRANCH  94  95
ATOM     95  S   UNL A   1      53.526  25.477  24.550  1.00  0.00     0.124 S 
ATOM     96  O   UNL A   1      54.482  26.390  25.168  1.00  0.00    -0.237 OA
ATOM     97  O   UNL A   1      53.555  24.103  25.042  1.00  0.00    -0.237 OA
ATOM     98  O   UNL A   1      53.366  25.616  23.106  1.00  0.00    -0.744 OA
ENDBRANCH  94  95
ENDBRANCH  62  87
ENDBRANCH  36  37
ENDBRANCH  29  31
ENDBRANCH  28  29
ENDBRANCH  27  28
ENDBRANCH  26  27
ENDBRANCH  25  26
ENDBRANCH   1  25
TORSDOF 21
ENDMDL
MODEL 3
REMARK VINA RESULT:     -10.4      1.145      8.269
REMARK SMILES O=C(CSc1csc(C(=O)OCCOCCOC(=O)c2ccc(-c3c4nc(c(-c5c(F)cc(S(=O)(=O)[O-])cc5F)c5ccc([nH]5)c(-c5c(F)cc(S(=O)(=O)[O-])cc5F)c5nc(c(-c6c(F)cc(S(=O)(=O)[O-])cc6F)c6ccc3[nH]6)C=C5)C=C4)cc2)c1)NC(=O)c1ccc[nH]1
REMARK SMILES IDX 13 1 12 2 11 3 9 4 10 5 8 6 5 7 6 8 86 9 7 10 4 11 3 12 2 13
REMARK SMILES IDX 1 14 87 15 88 16 89 18 90 19 91 20 94 21 92 22 93 23 14 25
REMARK SMILES IDX 15 26 16 27 17 28 18 29 19 30 20 31 21 32 85 33 22 34 84 35
REMARK SMILES IDX 23 36 24 37 25 38 78 39 26 40 83 41 77 42 79 43 27 44 82 45
REMARK SMILES IDX 76 46 75 47 28 49 62 50 41 51 61 52 42 53 45 54 60 55 80 56
REMARK SMILES IDX 43 57 44 58 59 60 81 61 46 62 29 63 30 64 39 65 31 66 32 67
REMARK SMILES IDX 38 68 40 69 33 70 34 71 35 72 36 73 37 74 63 75 64 76 73 77
REMARK SMILES IDX 65 78 66 79 72 80 74 81 67 82 68 83 69 84 70 85 71 86 47 87
REMARK SMILES IDX 48 88 57 89 49 90 50 91 56 92 58 93 51 94 52 95 53 96 54 97
REMARK SMILES IDX 55 98
REMARK H PARENT 87 17 94 24 79 48 45 59
REMARK Flexibility Score: inf
ROOT
ATOM      1  C   UNL A   1      33.770  29.661  26.579  1.00  0.00     0.202 C 
ENDROOT
BRANCH   1   2
ATOM      2  C   UNL A   1      32.758  29.572  25.433  1.00  0.00     0.261 C 
BRANCH   2   3
ATOM      3  O   UNL A   1      32.132  28.276  25.393  1.00  0.00    -0.459 OA
BRANCH   3   4
ATOM      4  C   UNL A   1      32.455  27.510  24.311  1.00  0.00     0.348 C 
ATOM      5  O   UNL A   1      32.317  27.861  23.145  1.00  0.00    -0.245 OA
BRANCH   4   6
ATOM      6  C   UNL A   1      33.067  26.267  24.744  1.00  0.00     0.113 A 
ATOM      7  C   UNL A   1      34.425  24.381  25.009  1.00  0.00     0.019 A 
ATOM      8  C   UNL A   1      33.599  24.280  26.103  1.00  0.00     0.080 A 
ATOM      9  C   UNL A   1      34.087  25.507  24.192  1.00  0.00     0.042 A 
ATOM     10  S   UNL A   1      32.458  25.544  26.176  1.00  0.00    -0.136 S 
BRANCH   7  11
ATOM     11  S   UNL A   1      35.839  23.377  24.705  1.00  0.00    -0.115 SA
BRANCH  11  12
ATOM     12  C   UNL A   1      35.763  22.088  25.978  1.00  0.00     0.175 C 
BRANCH  12  13
ATOM     13  C   UNL A   1      35.234  20.767  25.457  1.00  0.00     0.237 C 
ATOM     14  O   UNL A   1      35.975  20.002  24.848  1.00  0.00    -0.274 OA
ATOM     15  N   UNL A   1      33.910  20.509  25.795  1.00  0.00    -0.290 N 
ATOM     16  C   UNL A   1      33.027  19.617  25.212  1.00  0.00     0.274 C 
ATOM     17  H   UNL A   1      33.554  21.032  26.550  1.00  0.00     0.173 HD
ATOM     18  O   UNL A   1      31.844  19.953  25.134  1.00  0.00    -0.267 OA
BRANCH  16  19
ATOM     19  C   UNL A   1      33.503  18.384  24.634  1.00  0.00     0.104 A 
ATOM     20  C   UNL A   1      33.428  17.881  23.346  1.00  0.00     0.033 A 
ATOM     21  N   UNL A   1      34.218  17.460  25.369  1.00  0.00    -0.357 N 
ATOM     22  C   UNL A   1      34.035  16.602  23.333  1.00  0.00     0.020 A 
ATOM     23  C   UNL A   1      34.503  16.362  24.603  1.00  0.00     0.083 A 
ATOM     24  H   UNL A   1      34.485  17.575  26.310  1.00  0.00     0.166 HD
ENDBRANCH  16  19
ENDBRANCH  12  13
ENDBRANCH  11  12
ENDBRANCH   7  11
ENDBRANCH   4   6
ENDBRANCH   3   4
ENDBRANCH   2   3
ENDBRANCH   1   2
BRANCH   1  25
ATOM     25  O   UNL A   1      33.367  30.493  27.669  1.00  0.00    -0.374 OA
BRANCH  25  26
ATOM     26  C   UNL A   1      34.082  31.722  27.822  1.00  0.00     0.202 C 
BRANCH  26  27
ATOM     27  C   UNL A   1      34.752  31.920  29.186  1.00  0.00     0.261 C 
BRANCH  27  28
ATOM     28  O   UNL A   1      36.175  31.723  29.097  1.00  0.00    -0.460 OA
BRANCH  28  29
ATOM     29  C   UNL A   1      36.634  30.612  29.722  1.00  0.00     0.338 C 
ATOM     30  O   UNL A   1      35.971  29.775  30.313  1.00  0.00    -0.246 OA
BRANCH  29  31
ATOM     31  C   UNL A   1      38.076  30.435  29.448  1.00  0.00     0.060 A 
ATOM     32  C   UNL A   1      38.430  29.997  28.167  1.00  0.00     0.016 A 
ATOM     33  C   UNL A   1      39.059  30.643  30.421  1.00  0.00     0.016 A 
ATOM     34  C   UNL A   1      39.761  29.715  27.869  1.00  0.00     0.010 A 
ATOM     35  C   UNL A   1      40.395  30.356  30.120  1.00  0.00     0.010 A 
ATOM     36  C   UNL A   1      40.749  29.857  28.853  1.00  0.00    -0.014 A 
BRANCH  36  37
ATOM     37  C   UNL A   1      42.122  29.371  28.569  1.00  0.00     0.031 A 
ATOM     38  C   UNL A   1      42.335  27.922  28.220  1.00  0.00     0.074 A 
ATOM     39  C   UNL A   1      43.160  30.226  28.564  1.00  0.00     0.049 A 
ATOM     40  N   UNL A   1      43.436  27.309  27.870  1.00  0.00    -0.248 NA
ATOM     41  C   UNL A   1      41.150  27.052  28.271  1.00  0.00     0.031 C 
ATOM     42  C   UNL A   1      43.079  31.652  28.873  1.00  0.00     0.029 A 
ATOM     43  N   UNL A   1      44.486  30.017  28.280  1.00  0.00    -0.354 N 
ATOM     44  C   UNL A   1      43.079  25.983  27.654  1.00  0.00     0.074 A 
ATOM     45  C   UNL A   1      41.666  25.874  27.949  1.00  0.00     0.031 C 
ATOM     46  C   UNL A   1      44.305  32.193  28.763  1.00  0.00     0.029 A 
ATOM     47  C   UNL A   1      45.258  31.149  28.388  1.00  0.00     0.049 A 
ATOM     48  H   UNL A   1      44.851  29.140  28.023  1.00  0.00     0.167 HD
ATOM     49  C   UNL A   1      43.854  24.954  27.236  1.00  0.00     0.037 A 
ATOM     50  C   UNL A   1      46.583  31.322  28.210  1.00  0.00     0.037 A 
ATOM     51  C   UNL A   1      45.260  25.064  26.943  1.00  0.00     0.049 A 
ATOM     52  C   UNL A   1      47.430  30.156  27.779  1.00  0.00     0.074 A 
ATOM     53  C   UNL A   1      46.124  24.085  26.479  1.00  0.00     0.029 A 
ATOM     54  N   UNL A   1      46.013  26.219  27.093  1.00  0.00    -0.354 N 
ATOM     55  N   UNL A   1      47.070  28.919  27.535  1.00  0.00    -0.248 NA
ATOM     56  C   UNL A   1      48.865  30.413  27.590  1.00  0.00     0.031 C 
ATOM     57  C   UNL A   1      47.407  24.638  26.393  1.00  0.00     0.029 A 
ATOM     58  C   UNL A   1      47.336  25.972  26.760  1.00  0.00     0.049 A 
ATOM     59  H   UNL A   1      45.659  27.088  27.395  1.00  0.00     0.167 HD
ATOM     60  C   UNL A   1      48.228  28.253  27.149  1.00  0.00     0.074 A 
ATOM     61  C   UNL A   1      49.298  29.231  27.174  1.00  0.00     0.031 C 
ATOM     62  C   UNL A   1      48.393  26.951  26.803  1.00  0.00     0.037 A 
BRANCH  49  63
ATOM     63  C   UNL A   1      43.197  23.610  27.088  1.00  0.00     0.058 A 
ATOM     64  C   UNL A   1      43.013  22.752  28.185  1.00  0.00     0.135 A 
ATOM     65  C   UNL A   1      42.727  23.181  25.836  1.00  0.00     0.135 A 
ATOM     66  F   UNL A   1      43.459  23.107  29.400  1.00  0.00    -0.206 F 
ATOM     67  C   UNL A   1      42.414  21.506  28.041  1.00  0.00     0.059 A 
ATOM     68  C   UNL A   1      42.102  21.948  25.674  1.00  0.00     0.059 A 
ATOM     69  F   UNL A   1      42.878  23.961  24.754  1.00  0.00    -0.206 F 
ATOM     70  C   UNL A   1      41.966  21.110  26.780  1.00  0.00     0.060 A 
BRANCH  70  71
ATOM     71  S   UNL A   1      41.196  19.486  26.605  1.00  0.00     0.124 S 
ATOM     72  O   UNL A   1      39.965  19.823  25.895  1.00  0.00    -0.237 OA
ATOM     73  O   UNL A   1      42.191  18.748  25.832  1.00  0.00    -0.237 OA
ATOM     74  O   UNL A   1      41.024  19.041  27.984  1.00  0.00    -0.744 OA
ENDBRANCH  70  71
ENDBRANCH  49  63
BRANCH  50  75
ATOM     75  C   UNL A   1      47.186  32.661  28.436  1.00  0.00     0.058 A 
ATOM     76  C   UNL A   1      47.675  33.036  29.695  1.00  0.00     0.135 A 
ATOM     77  C   UNL A   1      47.300  33.586  27.387  1.00  0.00     0.135 A 
ATOM     78  F   UNL A   1      47.577  32.189  30.731  1.00  0.00    -0.206 F 
ATOM     79  C   UNL A   1      48.251  34.284  29.911  1.00  0.00     0.059 A 
ATOM     80  C   UNL A   1      47.892  34.832  27.572  1.00  0.00     0.059 A 
ATOM     81  F   UNL A   1      46.857  33.270  26.160  1.00  0.00    -0.206 F 
ATOM     82  C   UNL A   1      48.358  35.173  28.840  1.00  0.00     0.060 A 
BRANCH  82  83
ATOM     83  S   UNL A   1      49.171  36.764  29.110  1.00  0.00     0.124 S 
ATOM     84  O   UNL A   1      50.222  36.401  30.053  1.00  0.00    -0.237 OA
ATOM     85  O   UNL A   1      49.612  37.116  27.764  1.00  0.00    -0.237 OA
ATOM     86  O   UNL A   1      48.100  37.598  29.648  1.00  0.00    -0.744 OA
ENDBRANCH  82  83
ENDBRANCH  50  75
BRANCH  62  87
ATOM     87  C   UNL A   1      49.779  26.514  26.418  1.00  0.00     0.058 A 
ATOM     88  C   UNL A   1      50.663  25.959  27.357  1.00  0.00     0.135 A 
ATOM     89  C   UNL A   1      50.223  26.630  25.090  1.00  0.00     0.135 A 
ATOM     90  F   UNL A   1      50.290  25.829  28.641  1.00  0.00    -0.206 F 
ATOM     91  C   UNL A   1      51.950  25.567  27.002  1.00  0.00     0.059 A 
ATOM     92  C   UNL A   1      51.497  26.221  24.708  1.00  0.00     0.059 A 
ATOM     93  F   UNL A   1      49.414  27.142  24.149  1.00  0.00    -0.206 F 
ATOM     94  C   UNL A   1      52.360  25.708  25.675  1.00  0.00     0.060 A 
BRANCH  94  95
ATOM     95  S   UNL A   1      54.031  25.195  25.223  1.00  0.00     0.124 S 
ATOM     96  O   UNL A   1      54.763  25.458  26.458  1.00  0.00    -0.237 OA
ATOM     97  O   UNL A   1      53.848  23.786  24.884  1.00  0.00    -0.237 OA
ATOM     98  O   UNL A   1      54.360  26.066  24.099  1.00  0.00    -0.744 OA
ENDBRANCH  94  95
ENDBRANCH  62  87
ENDBRANCH  36  37
ENDBRANCH  29  31
ENDBRANCH  28  29
ENDBRANCH  27  28
ENDBRANCH  26  27
ENDBRANCH  25  26
ENDBRANCH   1  25
TORSDOF 21
ENDMDL
