MODEL 1
REMARK VINA RESULT:     -10.9      0.000      0.000
REMARK SMILES O=C1NC(=O)/C(=C/c2ccc(OCc3cn(-c4ccc(C(=O)OCCOCCOC(=O)c5ccc(-c6c7nc(c(-c8c(F)cc(S(=O)(=O)[O-])cc8F)c8ccc([nH]8)c(-c8c(F)cc(S(=O)(=O)[O-])cc8F)c8nc(c(-c9c(F)cc(S(=O)(=O)[O-])cc9F)c9ccc6[nH]9)C=C8)C=C7)cc5)cc4)nn3)cc2)S1
REMARK SMILES IDX 25 1 24 2 23 3 21 4 22 5 20 6 17 7 18 8 99 9 19 10 98 11
REMARK SMILES IDX 16 12 14 13 15 14 101 15 100 16 13 17 12 18 11 19 8 20 9 21
REMARK SMILES IDX 103 22 10 23 102 24 7 25 1 26 2 27 3 28 104 29 4 30 6 32
REMARK SMILES IDX 5 33 26 34 27 35 28 36 29 37 30 38 31 39 32 40 33 41 97 42
REMARK SMILES IDX 34 43 96 44 35 45 36 46 37 47 90 48 38 49 95 50 89 51 91 52
REMARK SMILES IDX 39 53 94 54 88 55 87 56 40 58 74 59 53 60 73 61 54 62 57 63
REMARK SMILES IDX 72 64 92 65 55 66 56 67 71 69 93 70 58 71 41 72 42 73 51 74
REMARK SMILES IDX 43 75 44 76 50 77 52 78 45 79 46 80 47 81 48 82 49 83 75 84
REMARK SMILES IDX 76 85 85 86 77 87 78 88 84 89 86 90 79 91 80 92 81 93 82 94
REMARK SMILES IDX 83 95 59 96 60 97 69 98 61 99 62 100 68 101 70 102 63 103
REMARK SMILES IDX 64 104 65 105 66 106 67 107
REMARK H PARENT 3 31 91 57 57 68
REMARK Flexibility Score: inf
ROOT
ATOM      1  C   UNL A   1      46.546  29.077  26.084  1.00  0.00     0.202 C 
ENDROOT
BRANCH   1   2
ATOM      2  C   UNL A   1      46.892  28.025  25.031  1.00  0.00     0.261 C 
BRANCH   2   3
ATOM      3  O   UNL A   1      47.445  26.828  25.596  1.00  0.00    -0.460 OA
BRANCH   3   4
ATOM      4  C   UNL A   1      47.527  25.798  24.723  1.00  0.00     0.338 C 
ATOM      5  O   UNL A   1      48.272  25.702  23.760  1.00  0.00    -0.246 OA
BRANCH   4   6
ATOM      6  C   UNL A   1      46.688  24.675  25.176  1.00  0.00     0.060 A 
ATOM      7  C   UNL A   1      44.827  22.706  25.771  1.00  0.00     0.066 A 
ATOM      8  C   UNL A   1      45.520  22.657  24.553  1.00  0.00     0.029 A 
ATOM      9  C   UNL A   1      45.146  23.674  26.735  1.00  0.00     0.029 A 
ATOM     10  C   UNL A   1      46.423  23.665  24.243  1.00  0.00     0.018 A 
ATOM     11  C   UNL A   1      46.104  24.649  26.444  1.00  0.00     0.018 A 
BRANCH   7  12
ATOM     12  N   UNL A   1      43.725  21.841  25.942  1.00  0.00    -0.220 N 
ATOM     13  C   UNL A   1      41.710  21.048  26.210  1.00  0.00     0.120 A 
ATOM     14  C   UNL A   1      42.517  22.114  26.548  1.00  0.00     0.144 A 
ATOM     15  N   UNL A   1      42.439  20.170  25.456  1.00  0.00    -0.131 NA
ATOM     16  N   UNL A   1      43.655  20.656  25.297  1.00  0.00    -0.062 NA
BRANCH  13  17
ATOM     17  C   UNL A   1      40.249  20.824  26.423  1.00  0.00     0.289 C 
BRANCH  17  18
ATOM     18  O   UNL A   1      39.455  22.012  26.565  1.00  0.00    -0.487 OA
BRANCH  18  19
ATOM     19  C   UNL A   1      38.309  22.115  25.825  1.00  0.00     0.119 A 
ATOM     20  C   UNL A   1      35.816  22.550  24.604  1.00  0.00    -0.024 A 
ATOM     21  C   UNL A   1      36.553  23.628  25.099  1.00  0.00     0.012 A 
ATOM     22  C   UNL A   1      36.375  21.271  24.642  1.00  0.00     0.012 A 
ATOM     23  C   UNL A   1      37.792  23.407  25.710  1.00  0.00     0.047 A 
ATOM     24  C   UNL A   1      37.625  21.060  25.224  1.00  0.00     0.047 A 
BRANCH  20  25
ATOM     25  C   UNL A   1      34.480  22.754  24.038  1.00  0.00     0.029 C 
ATOM     26  O   UNL A   1      30.700  23.457  27.292  1.00  0.00    -0.261 OA
ATOM     27  C   UNL A   1      31.454  23.365  26.332  1.00  0.00     0.290 C 
ATOM     28  N   UNL A   1      31.075  23.328  25.032  1.00  0.00    -0.282 N 
ATOM     29  S   UNL A   1      33.190  23.180  26.449  1.00  0.00    -0.022 SA
ATOM     30  C   UNL A   1      32.033  23.097  24.090  1.00  0.00     0.265 C 
ATOM     31  H   UNL A   1      30.135  23.464  24.775  1.00  0.00     0.174 HD
ATOM     32  C   UNL A   1      33.364  22.990  24.743  1.00  0.00     0.083 C 
ATOM     33  O   UNL A   1      31.815  22.943  22.899  1.00  0.00    -0.268 OA
ENDBRANCH  20  25
ENDBRANCH  18  19
ENDBRANCH  17  18
ENDBRANCH  13  17
ENDBRANCH   7  12
ENDBRANCH   4   6
ENDBRANCH   3   4
ENDBRANCH   2   3
ENDBRANCH   1   2
BRANCH   1  34
ATOM     34  O   UNL A   1      46.388  30.438  25.682  1.00  0.00    -0.374 OA
BRANCH  34  35
ATOM     35  C   UNL A   1      46.400  31.486  26.647  1.00  0.00     0.202 C 
BRANCH  35  36
ATOM     36  C   UNL A   1      46.189  32.923  26.193  1.00  0.00     0.261 C 
BRANCH  36  37
ATOM     37  O   UNL A   1      47.013  33.824  26.907  1.00  0.00    -0.460 OA
BRANCH  37  38
ATOM     38  C   UNL A   1      46.529  35.089  26.928  1.00  0.00     0.338 C 
ATOM     39  O   UNL A   1      46.931  36.044  26.293  1.00  0.00    -0.246 OA
BRANCH  38  40
ATOM     40  C   UNL A   1      45.506  35.168  27.975  1.00  0.00     0.060 A 
ATOM     41  C   UNL A   1      45.943  34.800  29.247  1.00  0.00     0.016 A 
ATOM     42  C   UNL A   1      44.155  35.156  27.603  1.00  0.00     0.016 A 
ATOM     43  C   UNL A   1      45.064  34.107  30.039  1.00  0.00     0.010 A 
ATOM     44  C   UNL A   1      43.288  34.441  28.382  1.00  0.00     0.010 A 
ATOM     45  C   UNL A   1      43.788  33.839  29.533  1.00  0.00    -0.014 A 
BRANCH  45  46
ATOM     46  C   UNL A   1      42.906  33.018  30.325  1.00  0.00     0.031 A 
ATOM     47  C   UNL A   1      43.129  31.588  30.025  1.00  0.00     0.074 A 
ATOM     48  C   UNL A   1      42.102  33.536  31.271  1.00  0.00     0.049 A 
ATOM     49  N   UNL A   1      42.372  30.804  29.334  1.00  0.00    -0.248 NA
ATOM     50  C   UNL A   1      44.484  31.053  30.260  1.00  0.00     0.031 C 
ATOM     51  C   UNL A   1      42.045  34.918  31.759  1.00  0.00     0.029 A 
ATOM     52  N   UNL A   1      41.221  32.894  32.083  1.00  0.00    -0.354 N 
ATOM     53  C   UNL A   1      43.044  29.587  29.321  1.00  0.00     0.074 A 
ATOM     54  C   UNL A   1      44.415  29.889  29.616  1.00  0.00     0.031 C 
ATOM     55  C   UNL A   1      41.358  34.953  32.925  1.00  0.00     0.029 A 
ATOM     56  C   UNL A   1      40.824  33.630  33.198  1.00  0.00     0.049 A 
ATOM     57  H   UNL A   1      40.892  31.984  31.898  1.00  0.00     0.167 HD
ATOM     58  C   UNL A   1      42.352  28.423  29.449  1.00  0.00     0.037 A 
ATOM     59  C   UNL A   1      40.187  33.121  34.287  1.00  0.00     0.037 A 
ATOM     60  C   UNL A   1      40.964  28.623  29.101  1.00  0.00     0.049 A 
ATOM     61  C   UNL A   1      39.585  31.826  33.859  1.00  0.00     0.074 A 
ATOM     62  C   UNL A   1      40.302  29.073  27.973  1.00  0.00     0.029 A 
ATOM     63  N   UNL A   1      40.064  28.735  30.135  1.00  0.00    -0.354 N 
ATOM     64  N   UNL A   1      38.624  31.736  32.975  1.00  0.00    -0.248 NA
ATOM     65  C   UNL A   1      40.393  30.626  34.021  1.00  0.00     0.031 C 
ATOM     66  C   UNL A   1      39.215  29.853  28.465  1.00  0.00     0.029 A 
ATOM     67  C   UNL A   1      39.215  29.775  29.858  1.00  0.00     0.049 A 
ATOM     68  H   UNL A   1      40.035  28.166  30.938  1.00  0.00     0.167 HD
ATOM     69  C   UNL A   1      38.971  30.651  32.180  1.00  0.00     0.074 A 
ATOM     70  C   UNL A   1      40.041  29.972  32.909  1.00  0.00     0.031 C 
ATOM     71  C   UNL A   1      38.571  30.578  30.875  1.00  0.00     0.037 A 
BRANCH  58  72
ATOM     72  C   UNL A   1      42.816  27.272  30.326  1.00  0.00     0.058 A 
ATOM     73  C   UNL A   1      42.894  27.486  31.717  1.00  0.00     0.135 A 
ATOM     74  C   UNL A   1      43.457  26.097  29.864  1.00  0.00     0.135 A 
ATOM     75  F   UNL A   1      42.302  28.552  32.279  1.00  0.00    -0.206 F 
ATOM     76  C   UNL A   1      43.649  26.669  32.558  1.00  0.00     0.059 A 
ATOM     77  C   UNL A   1      44.174  25.246  30.691  1.00  0.00     0.059 A 
ATOM     78  F   UNL A   1      43.503  25.736  28.578  1.00  0.00    -0.206 F 
ATOM     79  C   UNL A   1      44.304  25.563  32.028  1.00  0.00     0.060 A 
BRANCH  79  80
ATOM     80  S   UNL A   1      45.366  24.566  33.082  1.00  0.00     0.124 S 
ATOM     81  O   UNL A   1      45.027  25.082  34.403  1.00  0.00    -0.237 OA
ATOM     82  O   UNL A   1      44.903  23.217  32.778  1.00  0.00    -0.237 OA
ATOM     83  O   UNL A   1      46.708  24.885  32.603  1.00  0.00    -0.744 OA
ENDBRANCH  79  80
ENDBRANCH  58  72
BRANCH  59  84
ATOM     84  C   UNL A   1      40.412  33.459  35.722  1.00  0.00     0.058 A 
ATOM     85  C   UNL A   1      39.337  33.677  36.605  1.00  0.00     0.135 A 
ATOM     86  C   UNL A   1      41.676  33.292  36.326  1.00  0.00     0.135 A 
ATOM     87  F   UNL A   1      38.092  33.824  36.125  1.00  0.00    -0.206 F 
ATOM     88  C   UNL A   1      39.496  33.682  37.998  1.00  0.00     0.059 A 
ATOM     89  C   UNL A   1      41.861  33.302  37.709  1.00  0.00     0.059 A 
ATOM     90  F   UNL A   1      42.763  33.019  35.591  1.00  0.00    -0.206 F 
ATOM     91  C   UNL A   1      40.762  33.472  38.542  1.00  0.00     0.060 A 
BRANCH  91  92
ATOM     92  S   UNL A   1      40.956  33.305  40.334  1.00  0.00     0.124 S 
ATOM     93  O   UNL A   1      41.523  31.966  40.455  1.00  0.00    -0.237 OA
ATOM     94  O   UNL A   1      41.856  34.407  40.654  1.00  0.00    -0.237 OA
ATOM     95  O   UNL A   1      39.593  33.451  40.839  1.00  0.00    -0.744 OA
ENDBRANCH  91  92
ENDBRANCH  59  84
BRANCH  71  96
ATOM     96  C   UNL A   1      37.506  31.535  30.400  1.00  0.00     0.058 A 
ATOM     97  C   UNL A   1      37.752  32.743  29.722  1.00  0.00     0.135 A 
ATOM     98  C   UNL A   1      36.171  31.119  30.502  1.00  0.00     0.135 A 
ATOM     99  F   UNL A   1      39.006  33.161  29.494  1.00  0.00    -0.206 F 
ATOM    100  C   UNL A   1      36.712  33.520  29.203  1.00  0.00     0.059 A 
ATOM    101  C   UNL A   1      35.123  31.860  29.966  1.00  0.00     0.059 A 
ATOM    102  F   UNL A   1      35.876  29.945  31.082  1.00  0.00    -0.206 F 
ATOM    103  C   UNL A   1      35.399  33.067  29.329  1.00  0.00     0.060 A 
BRANCH 103 104
ATOM    104  S   UNL A   1      34.053  34.031  28.606  1.00  0.00     0.124 S 
ATOM    105  O   UNL A   1      34.775  35.074  27.885  1.00  0.00    -0.237 OA
ATOM    106  O   UNL A   1      33.366  33.046  27.778  1.00  0.00    -0.237 OA
ATOM    107  O   UNL A   1      33.296  34.489  29.770  1.00  0.00    -0.744 OA
ENDBRANCH 103 104
ENDBRANCH  71  96
ENDBRANCH  45  46
ENDBRANCH  38  40
ENDBRANCH  37  38
ENDBRANCH  36  37
ENDBRANCH  35  36
ENDBRANCH  34  35
ENDBRANCH   1  34
TORSDOF 22
ENDMDL
MODEL 2
REMARK VINA RESULT:     -10.6      1.357      2.107
REMARK SMILES O=C1NC(=O)/C(=C/c2ccc(OCc3cn(-c4ccc(C(=O)OCCOCCOC(=O)c5ccc(-c6c7nc(c(-c8c(F)cc(S(=O)(=O)[O-])cc8F)c8ccc([nH]8)c(-c8c(F)cc(S(=O)(=O)[O-])cc8F)c8nc(c(-c9c(F)cc(S(=O)(=O)[O-])cc9F)c9ccc6[nH]9)C=C8)C=C7)cc5)cc4)nn3)cc2)S1
REMARK SMILES IDX 25 1 24 2 23 3 21 4 22 5 20 6 17 7 18 8 99 9 19 10 98 11
REMARK SMILES IDX 16 12 14 13 15 14 101 15 100 16 13 17 12 18 11 19 8 20 9 21
REMARK SMILES IDX 103 22 10 23 102 24 7 25 1 26 2 27 3 28 104 29 4 30 6 32
REMARK SMILES IDX 5 33 26 34 27 35 28 36 29 37 30 38 31 39 32 40 33 41 97 42
REMARK SMILES IDX 34 43 96 44 35 45 36 46 37 47 90 48 38 49 95 50 89 51 91 52
REMARK SMILES IDX 39 53 94 54 88 55 87 56 40 58 74 59 53 60 73 61 54 62 57 63
REMARK SMILES IDX 72 64 92 65 55 66 56 67 71 69 93 70 58 71 41 72 42 73 51 74
REMARK SMILES IDX 43 75 44 76 50 77 52 78 45 79 46 80 47 81 48 82 49 83 75 84
REMARK SMILES IDX 76 85 85 86 77 87 78 88 84 89 86 90 79 91 80 92 81 93 82 94
REMARK SMILES IDX 83 95 59 96 60 97 69 98 61 99 62 100 68 101 70 102 63 103
REMARK SMILES IDX 64 104 65 105 66 106 67 107
REMARK H PARENT 3 31 91 57 57 68
REMARK Flexibility Score: inf
ROOT
ATOM      1  C   UNL A   1      46.627  28.772  25.764  1.00  0.00     0.202 C 
ENDROOT
BRANCH   1   2
ATOM      2  C   UNL A   1      47.241  27.907  24.664  1.00  0.00     0.261 C 
BRANCH   2   3
ATOM      3  O   UNL A   1      47.899  26.738  25.173  1.00  0.00    -0.460 OA
BRANCH   3   4
ATOM      4  C   UNL A   1      47.842  25.672  24.341  1.00  0.00     0.338 C 
ATOM      5  O   UNL A   1      48.491  25.494  23.322  1.00  0.00    -0.246 OA
BRANCH   4   6
ATOM      6  C   UNL A   1      46.983  24.622  24.913  1.00  0.00     0.060 A 
ATOM      7  C   UNL A   1      45.057  22.830  25.796  1.00  0.00     0.066 A 
ATOM      8  C   UNL A   1      45.503  22.768  24.468  1.00  0.00     0.029 A 
ATOM      9  C   UNL A   1      45.656  23.712  26.708  1.00  0.00     0.029 A 
ATOM     10  C   UNL A   1      46.439  23.691  24.020  1.00  0.00     0.018 A 
ATOM     11  C   UNL A   1      46.645  24.596  26.268  1.00  0.00     0.018 A 
BRANCH   7  12
ATOM     12  N   UNL A   1      43.917  22.076  26.149  1.00  0.00    -0.220 N 
ATOM     13  C   UNL A   1      41.912  21.484  26.770  1.00  0.00     0.120 A 
ATOM     14  C   UNL A   1      42.880  22.444  26.978  1.00  0.00     0.144 A 
ATOM     15  N   UNL A   1      42.388  20.571  25.869  1.00  0.00    -0.131 NA
ATOM     16  N   UNL A   1      43.600  20.936  25.498  1.00  0.00    -0.062 NA
BRANCH  13  17
ATOM     17  C   UNL A   1      40.499  21.403  27.249  1.00  0.00     0.289 C 
BRANCH  17  18
ATOM     18  O   UNL A   1      39.736  22.614  27.134  1.00  0.00    -0.487 OA
BRANCH  18  19
ATOM     19  C   UNL A   1      38.691  22.637  26.251  1.00  0.00     0.119 A 
ATOM     20  C   UNL A   1      36.316  22.772  24.755  1.00  0.00    -0.024 A 
ATOM     21  C   UNL A   1      36.660  23.811  25.621  1.00  0.00     0.012 A 
ATOM     22  C   UNL A   1      37.211  21.714  24.574  1.00  0.00     0.012 A 
ATOM     23  C   UNL A   1      37.841  23.739  26.368  1.00  0.00     0.047 A 
ATOM     24  C   UNL A   1      38.403  21.662  25.298  1.00  0.00     0.047 A 
BRANCH  20  25
ATOM     25  C   UNL A   1      35.044  22.792  24.029  1.00  0.00     0.029 C 
ATOM     26  O   UNL A   1      31.922  18.912  24.784  1.00  0.00    -0.261 OA
ATOM     27  C   UNL A   1      32.482  19.960  24.494  1.00  0.00     0.290 C 
ATOM     28  N   UNL A   1      32.046  20.863  23.583  1.00  0.00    -0.282 N 
ATOM     29  S   UNL A   1      34.022  20.476  25.148  1.00  0.00    -0.022 SA
ATOM     30  C   UNL A   1      32.853  21.920  23.288  1.00  0.00     0.265 C 
ATOM     31  H   UNL A   1      31.170  20.757  23.146  1.00  0.00     0.174 HD
ATOM     32  C   UNL A   1      34.077  21.868  24.130  1.00  0.00     0.083 C 
ATOM     33  O   UNL A   1      32.627  22.749  22.421  1.00  0.00    -0.268 OA
ENDBRANCH  20  25
ENDBRANCH  18  19
ENDBRANCH  17  18
ENDBRANCH  13  17
ENDBRANCH   7  12
ENDBRANCH   4   6
ENDBRANCH   3   4
ENDBRANCH   2   3
ENDBRANCH   1   2
BRANCH   1  34
ATOM     34  O   UNL A   1      46.449  30.169  25.532  1.00  0.00    -0.374 OA
BRANCH  34  35
ATOM     35  C   UNL A   1      46.477  31.095  26.614  1.00  0.00     0.202 C 
BRANCH  35  36
ATOM     36  C   UNL A   1      46.227  32.571  26.344  1.00  0.00     0.261 C 
BRANCH  36  37
ATOM     37  O   UNL A   1      47.208  33.389  26.953  1.00  0.00    -0.460 OA
BRANCH  37  38
ATOM     38  C   UNL A   1      46.830  34.684  27.063  1.00  0.00     0.338 C 
ATOM     39  O   UNL A   1      47.317  35.645  26.500  1.00  0.00    -0.246 OA
BRANCH  38  40
ATOM     40  C   UNL A   1      45.807  34.773  28.109  1.00  0.00     0.060 A 
ATOM     41  C   UNL A   1      46.256  34.462  29.392  1.00  0.00     0.016 A 
ATOM     42  C   UNL A   1      44.457  34.714  27.740  1.00  0.00     0.016 A 
ATOM     43  C   UNL A   1      45.396  33.774  30.210  1.00  0.00     0.010 A 
ATOM     44  C   UNL A   1      43.609  34.005  28.546  1.00  0.00     0.010 A 
ATOM     45  C   UNL A   1      44.126  33.456  29.716  1.00  0.00    -0.014 A 
BRANCH  45  46
ATOM     46  C   UNL A   1      43.267  32.641  30.538  1.00  0.00     0.031 A 
ATOM     47  C   UNL A   1      43.719  31.234  30.514  1.00  0.00     0.074 A 
ATOM     48  C   UNL A   1      42.283  33.168  31.289  1.00  0.00     0.049 A 
ATOM     49  N   UNL A   1      43.171  30.244  29.891  1.00  0.00    -0.248 NA
ATOM     50  C   UNL A   1      45.091  30.958  30.982  1.00  0.00     0.031 C 
ATOM     51  C   UNL A   1      41.977  34.583  31.523  1.00  0.00     0.029 A 
ATOM     52  N   UNL A   1      41.398  32.531  32.100  1.00  0.00    -0.354 N 
ATOM     53  C   UNL A   1      43.997  29.159  30.160  1.00  0.00     0.074 A 
ATOM     54  C   UNL A   1      45.264  29.712  30.544  1.00  0.00     0.031 C 
ATOM     55  C   UNL A   1      41.144  34.691  32.586  1.00  0.00     0.029 A 
ATOM     56  C   UNL A   1      40.762  33.360  33.023  1.00  0.00     0.049 A 
ATOM     57  H   UNL A   1      41.222  31.563  32.040  1.00  0.00     0.167 HD
ATOM     58  C   UNL A   1      43.458  27.936  30.412  1.00  0.00     0.037 A 
ATOM     59  C   UNL A   1      40.062  32.933  34.109  1.00  0.00     0.037 A 
ATOM     60  C   UNL A   1      42.113  27.863  29.887  1.00  0.00     0.049 A 
ATOM     61  C   UNL A   1      39.702  31.510  33.847  1.00  0.00     0.074 A 
ATOM     62  C   UNL A   1      41.551  28.025  28.634  1.00  0.00     0.029 A 
ATOM     63  N   UNL A   1      41.079  27.992  30.784  1.00  0.00    -0.354 N 
ATOM     64  N   UNL A   1      38.887  31.137  32.895  1.00  0.00    -0.248 NA
ATOM     65  C   UNL A   1      40.636  30.489  34.299  1.00  0.00     0.031 C 
ATOM     66  C   UNL A   1      40.313  28.694  28.865  1.00  0.00     0.029 A 
ATOM     67  C   UNL A   1      40.141  28.833  30.243  1.00  0.00     0.049 A 
ATOM     68  H   UNL A   1      41.021  27.557  31.665  1.00  0.00     0.167 HD
ATOM     69  C   UNL A   1      39.478  30.009  32.339  1.00  0.00     0.074 A 
ATOM     70  C   UNL A   1      40.524  29.625  33.285  1.00  0.00     0.031 C 
ATOM     71  C   UNL A   1      39.266  29.675  31.031  1.00  0.00     0.037 A 
BRANCH  58  72
ATOM     72  C   UNL A   1      43.953  27.021  31.518  1.00  0.00     0.058 A 
ATOM     73  C   UNL A   1      44.314  25.701  31.176  1.00  0.00     0.135 A 
ATOM     74  C   UNL A   1      43.814  27.263  32.906  1.00  0.00     0.135 A 
ATOM     75  F   UNL A   1      44.503  25.355  29.893  1.00  0.00    -0.206 F 
ATOM     76  C   UNL A   1      44.408  24.683  32.124  1.00  0.00     0.059 A 
ATOM     77  C   UNL A   1      43.949  26.273  33.868  1.00  0.00     0.059 A 
ATOM     78  F   UNL A   1      43.461  28.445  33.419  1.00  0.00    -0.206 F 
ATOM     79  C   UNL A   1      44.199  24.977  33.466  1.00  0.00     0.060 A 
BRANCH  79  80
ATOM     80  S   UNL A   1      44.211  23.653  34.682  1.00  0.00     0.124 S 
ATOM     81  O   UNL A   1      44.755  22.549  33.901  1.00  0.00    -0.237 OA
ATOM     82  O   UNL A   1      45.083  24.204  35.713  1.00  0.00    -0.237 OA
ATOM     83  O   UNL A   1      42.805  23.531  35.057  1.00  0.00    -0.744 OA
ENDBRANCH  79  80
ENDBRANCH  58  72
BRANCH  59  84
ATOM     84  C   UNL A   1      40.050  33.520  35.480  1.00  0.00     0.058 A 
ATOM     85  C   UNL A   1      41.235  33.677  36.223  1.00  0.00     0.135 A 
ATOM     86  C   UNL A   1      38.920  34.203  35.976  1.00  0.00     0.135 A 
ATOM     87  F   UNL A   1      42.368  33.083  35.817  1.00  0.00    -0.206 F 
ATOM     88  C   UNL A   1      41.308  34.496  37.359  1.00  0.00     0.059 A 
ATOM     89  C   UNL A   1      38.966  35.017  37.108  1.00  0.00     0.059 A 
ATOM     90  F   UNL A   1      37.752  34.177  35.319  1.00  0.00    -0.206 F 
ATOM     91  C   UNL A   1      40.169  35.180  37.783  1.00  0.00     0.060 A 
BRANCH  91  92
ATOM     92  S   UNL A   1      40.287  36.372  39.140  1.00  0.00     0.124 S 
ATOM     93  O   UNL A   1      40.139  35.515  40.311  1.00  0.00    -0.237 OA
ATOM     94  O   UNL A   1      41.612  36.947  38.936  1.00  0.00    -0.237 OA
ATOM     95  O   UNL A   1      39.172  37.283  38.891  1.00  0.00    -0.744 OA
ENDBRANCH  91  92
ENDBRANCH  59  84
BRANCH  71  96
ATOM     96  C   UNL A   1      38.154  30.370  30.288  1.00  0.00     0.058 A 
ATOM     97  C   UNL A   1      36.814  29.940  30.255  1.00  0.00     0.135 A 
ATOM     98  C   UNL A   1      38.439  31.619  29.717  1.00  0.00     0.135 A 
ATOM     99  F   UNL A   1      36.441  28.807  30.865  1.00  0.00    -0.206 F 
ATOM    100  C   UNL A   1      35.812  30.703  29.647  1.00  0.00     0.059 A 
ATOM    101  C   UNL A   1      37.453  32.409  29.135  1.00  0.00     0.059 A 
ATOM    102  F   UNL A   1      39.686  32.113  29.773  1.00  0.00    -0.206 F 
ATOM    103  C   UNL A   1      36.143  31.939  29.091  1.00  0.00     0.060 A 
BRANCH 103 104
ATOM    104  S   UNL A   1      34.845  32.961  28.360  1.00  0.00     0.124 S 
ATOM    105  O   UNL A   1      35.601  33.817  27.452  1.00  0.00    -0.237 OA
ATOM    106  O   UNL A   1      33.980  31.970  27.727  1.00  0.00    -0.237 OA
ATOM    107  O   UNL A   1      34.256  33.641  29.512  1.00  0.00    -0.744 OA
ENDBRANCH 103 104
ENDBRANCH  71  96
ENDBRANCH  45  46
ENDBRANCH  38  40
ENDBRANCH  37  38
ENDBRANCH  36  37
ENDBRANCH  35  36
ENDBRANCH  34  35
ENDBRANCH   1  34
TORSDOF 22
ENDMDL
MODEL 3
REMARK VINA RESULT:     -10.4      3.778      8.822
REMARK SMILES O=C1NC(=O)/C(=C/c2ccc(OCc3cn(-c4ccc(C(=O)OCCOCCOC(=O)c5ccc(-c6c7nc(c(-c8c(F)cc(S(=O)(=O)[O-])cc8F)c8ccc([nH]8)c(-c8c(F)cc(S(=O)(=O)[O-])cc8F)c8nc(c(-c9c(F)cc(S(=O)(=O)[O-])cc9F)c9ccc6[nH]9)C=C8)C=C7)cc5)cc4)nn3)cc2)S1
REMARK SMILES IDX 25 1 24 2 23 3 21 4 22 5 20 6 17 7 18 8 99 9 19 10 98 11
REMARK SMILES IDX 16 12 14 13 15 14 101 15 100 16 13 17 12 18 11 19 8 20 9 21
REMARK SMILES IDX 103 22 10 23 102 24 7 25 1 26 2 27 3 28 104 29 4 30 6 32
REMARK SMILES IDX 5 33 26 34 27 35 28 36 29 37 30 38 31 39 32 40 33 41 97 42
REMARK SMILES IDX 34 43 96 44 35 45 36 46 37 47 90 48 38 49 95 50 89 51 91 52
REMARK SMILES IDX 39 53 94 54 88 55 87 56 40 58 74 59 53 60 73 61 54 62 57 63
REMARK SMILES IDX 72 64 92 65 55 66 56 67 71 69 93 70 58 71 41 72 42 73 51 74
REMARK SMILES IDX 43 75 44 76 50 77 52 78 45 79 46 80 47 81 48 82 49 83 75 84
REMARK SMILES IDX 76 85 85 86 77 87 78 88 84 89 86 90 79 91 80 92 81 93 82 94
REMARK SMILES IDX 83 95 59 96 60 97 69 98 61 99 62 100 68 101 70 102 63 103
REMARK SMILES IDX 64 104 65 105 66 106 67 107
REMARK H PARENT 3 31 91 57 57 68
REMARK Flexibility Score: inf
ROOT
ATOM      1  C   UNL A   1      44.918  22.509  24.779  1.00  0.00     0.202 C 
ENDROOT
BRANCH   1   2
ATOM      2  C   UNL A   1      43.653  23.073  25.426  1.00  0.00     0.261 C 
BRANCH   2   3
ATOM      3  O   UNL A   1      43.242  22.335  26.586  1.00  0.00    -0.460 OA
BRANCH   3   4
ATOM      4  C   UNL A   1      42.525  23.065  27.472  1.00  0.00     0.338 C 
ATOM      5  O   UNL A   1      42.956  23.790  28.354  1.00  0.00    -0.246 OA
BRANCH   4   6
ATOM      6  C   UNL A   1      41.092  23.010  27.137  1.00  0.00     0.060 A 
ATOM      7  C   UNL A   1      38.514  22.893  26.117  1.00  0.00     0.066 A 
ATOM      8  C   UNL A   1      39.310  21.739  26.119  1.00  0.00     0.029 A 
ATOM      9  C   UNL A   1      38.967  24.072  26.727  1.00  0.00     0.029 A 
ATOM     10  C   UNL A   1      40.612  21.811  26.596  1.00  0.00     0.018 A 
ATOM     11  C   UNL A   1      40.256  24.121  27.265  1.00  0.00     0.018 A 
BRANCH   7  12
ATOM     12  N   UNL A   1      37.310  22.867  25.381  1.00  0.00    -0.220 N 
ATOM     13  C   UNL A   1      35.363  23.374  24.539  1.00  0.00     0.120 A 
ATOM     14  C   UNL A   1      36.112  23.473  25.693  1.00  0.00     0.144 A 
ATOM     15  N   UNL A   1      36.096  22.705  23.598  1.00  0.00    -0.131 NA
ATOM     16  N   UNL A   1      37.272  22.403  24.113  1.00  0.00    -0.062 NA
BRANCH  13  17
ATOM     17  C   UNL A   1      34.041  23.970  24.179  1.00  0.00     0.289 C 
BRANCH  17  18
ATOM     18  O   UNL A   1      32.967  23.688  25.089  1.00  0.00    -0.487 OA
BRANCH  18  19
ATOM     19  C   UNL A   1      31.803  24.394  24.954  1.00  0.00     0.119 A 
ATOM     20  C   UNL A   1      29.532  25.914  24.301  1.00  0.00    -0.024 A 
ATOM     21  C   UNL A   1      29.936  24.865  23.474  1.00  0.00     0.012 A 
ATOM     22  C   UNL A   1      30.214  26.135  25.500  1.00  0.00     0.012 A 
ATOM     23  C   UNL A   1      31.070  24.113  23.799  1.00  0.00     0.047 A 
ATOM     24  C   UNL A   1      31.326  25.362  25.836  1.00  0.00     0.047 A 
BRANCH  20  25
ATOM     25  C   UNL A   1      28.397  26.764  23.933  1.00  0.00     0.029 C 
ATOM     26  O   UNL A   1      29.448  31.043  21.491  1.00  0.00    -0.261 OA
ATOM     27  C   UNL A   1      28.959  30.051  22.015  1.00  0.00     0.290 C 
ATOM     28  N   UNL A   1      27.646  29.875  22.299  1.00  0.00    -0.282 N 
ATOM     29  S   UNL A   1      29.878  28.675  22.584  1.00  0.00    -0.022 SA
ATOM     30  C   UNL A   1      27.283  28.763  22.997  1.00  0.00     0.265 C 
ATOM     31  H   UNL A   1      26.973  30.532  22.008  1.00  0.00     0.174 HD
ATOM     32  C   UNL A   1      28.479  27.917  23.252  1.00  0.00     0.083 C 
ATOM     33  O   UNL A   1      26.155  28.531  23.401  1.00  0.00    -0.268 OA
ENDBRANCH  20  25
ENDBRANCH  18  19
ENDBRANCH  17  18
ENDBRANCH  13  17
ENDBRANCH   7  12
ENDBRANCH   4   6
ENDBRANCH   3   4
ENDBRANCH   2   3
ENDBRANCH   1   2
BRANCH   1  34
ATOM     34  O   UNL A   1      45.650  23.321  23.860  1.00  0.00    -0.374 OA
BRANCH  34  35
ATOM     35  C   UNL A   1      46.720  24.144  24.313  1.00  0.00     0.202 C 
BRANCH  35  36
ATOM     36  C   UNL A   1      46.427  25.297  25.262  1.00  0.00     0.261 C 
BRANCH  36  37
ATOM     37  O   UNL A   1      45.651  26.304  24.640  1.00  0.00    -0.460 OA
BRANCH  37  38
ATOM     38  C   UNL A   1      46.073  27.558  24.929  1.00  0.00     0.338 C 
ATOM     39  O   UNL A   1      46.879  28.226  24.312  1.00  0.00    -0.246 OA
BRANCH  38  40
ATOM     40  C   UNL A   1      45.500  27.945  26.221  1.00  0.00     0.060 A 
ATOM     41  C   UNL A   1      44.122  28.158  26.209  1.00  0.00     0.016 A 
ATOM     42  C   UNL A   1      46.345  28.486  27.200  1.00  0.00     0.016 A 
ATOM     43  C   UNL A   1      43.637  29.182  26.982  1.00  0.00     0.010 A 
ATOM     44  C   UNL A   1      45.864  29.524  27.950  1.00  0.00     0.010 A 
ATOM     45  C   UNL A   1      44.545  29.921  27.747  1.00  0.00    -0.014 A 
BRANCH  45  46
ATOM     46  C   UNL A   1      44.045  31.062  28.472  1.00  0.00     0.031 A 
ATOM     47  C   UNL A   1      44.592  32.312  27.903  1.00  0.00     0.074 A 
ATOM     48  C   UNL A   1      43.121  30.945  29.443  1.00  0.00     0.049 A 
ATOM     49  N   UNL A   1      45.512  33.066  28.406  1.00  0.00    -0.248 NA
ATOM     50  C   UNL A   1      44.303  32.590  26.483  1.00  0.00     0.031 C 
ATOM     51  C   UNL A   1      42.381  29.747  29.854  1.00  0.00     0.029 A 
ATOM     52  N   UNL A   1      42.566  31.919  30.211  1.00  0.00    -0.354 N 
ATOM     53  C   UNL A   1      45.681  34.082  27.472  1.00  0.00     0.074 A 
ATOM     54  C   UNL A   1      45.167  33.572  26.234  1.00  0.00     0.031 C 
ATOM     55  C   UNL A   1      41.324  30.114  30.616  1.00  0.00     0.029 A 
ATOM     56  C   UNL A   1      41.384  31.546  30.850  1.00  0.00     0.049 A 
ATOM     57  H   UNL A   1      42.966  32.815  30.306  1.00  0.00     0.167 HD
ATOM     58  C   UNL A   1      45.871  35.364  27.884  1.00  0.00     0.037 A 
ATOM     59  C   UNL A   1      40.504  32.404  31.433  1.00  0.00     0.037 A 
ATOM     60  C   UNL A   1      46.341  35.388  29.251  1.00  0.00     0.049 A 
ATOM     61  C   UNL A   1      41.250  33.670  31.685  1.00  0.00     0.074 A 
ATOM     62  C   UNL A   1      47.430  34.850  29.912  1.00  0.00     0.029 A 
ATOM     63  N   UNL A   1      45.423  35.697  30.227  1.00  0.00    -0.354 N 
ATOM     64  N   UNL A   1      42.244  33.763  32.530  1.00  0.00    -0.248 NA
ATOM     65  C   UNL A   1      41.230  34.679  30.637  1.00  0.00     0.031 C 
ATOM     66  C   UNL A   1      46.931  34.442  31.184  1.00  0.00     0.029 A 
ATOM     67  C   UNL A   1      45.591  34.823  31.270  1.00  0.00     0.049 A 
ATOM     68  H   UNL A   1      44.758  36.422  30.185  1.00  0.00     0.167 HD
ATOM     69  C   UNL A   1      43.190  34.549  31.883  1.00  0.00     0.074 A 
ATOM     70  C   UNL A   1      42.483  35.132  30.744  1.00  0.00     0.031 C 
ATOM     71  C   UNL A   1      44.523  34.416  32.157  1.00  0.00     0.037 A 
BRANCH  58  72
ATOM     72  C   UNL A   1      45.189  36.556  27.235  1.00  0.00     0.058 A 
ATOM     73  C   UNL A   1      45.981  37.672  26.898  1.00  0.00     0.135 A 
ATOM     74  C   UNL A   1      43.791  36.780  27.199  1.00  0.00     0.135 A 
ATOM     75  F   UNL A   1      47.319  37.577  26.870  1.00  0.00    -0.206 F 
ATOM     76  C   UNL A   1      45.434  38.934  26.666  1.00  0.00     0.059 A 
ATOM     77  C   UNL A   1      43.226  38.017  26.925  1.00  0.00     0.059 A 
ATOM     78  F   UNL A   1      42.884  35.848  27.503  1.00  0.00    -0.206 F 
ATOM     79  C   UNL A   1      44.054  39.099  26.706  1.00  0.00     0.060 A 
BRANCH  79  80
ATOM     80  S   UNL A   1      43.346  40.740  26.515  1.00  0.00     0.124 S 
ATOM     81  O   UNL A   1      42.039  40.564  27.136  1.00  0.00    -0.237 OA
ATOM     82  O   UNL A   1      44.302  41.563  27.248  1.00  0.00    -0.237 OA
ATOM     83  O   UNL A   1      43.338  40.935  25.069  1.00  0.00    -0.744 OA
ENDBRANCH  79  80
ENDBRANCH  58  72
BRANCH  59  84
ATOM     84  C   UNL A   1      39.013  32.349  31.400  1.00  0.00     0.058 A 
ATOM     85  C   UNL A   1      38.254  32.273  32.583  1.00  0.00     0.135 A 
ATOM     86  C   UNL A   1      38.293  32.662  30.229  1.00  0.00     0.135 A 
ATOM     87  F   UNL A   1      38.855  32.004  33.752  1.00  0.00    -0.206 F 
ATOM     88  C   UNL A   1      36.877  32.536  32.611  1.00  0.00     0.059 A 
ATOM     89  C   UNL A   1      36.922  32.919  30.230  1.00  0.00     0.059 A 
ATOM     90  F   UNL A   1      38.919  32.821  29.053  1.00  0.00    -0.206 F 
ATOM     91  C   UNL A   1      36.222  32.880  31.429  1.00  0.00     0.060 A 
BRANCH  91  92
ATOM     92  S   UNL A   1      34.485  33.388  31.476  1.00  0.00     0.124 S 
ATOM     93  O   UNL A   1      33.979  32.858  30.215  1.00  0.00    -0.237 OA
ATOM     94  O   UNL A   1      34.000  32.729  32.684  1.00  0.00    -0.237 OA
ATOM     95  O   UNL A   1      34.559  34.845  31.553  1.00  0.00    -0.744 OA
ENDBRANCH  91  92
ENDBRANCH  59  84
BRANCH  71  96
ATOM     96  C   UNL A   1      44.925  33.623  33.375  1.00  0.00     0.058 A 
ATOM     97  C   UNL A   1      44.994  34.135  34.684  1.00  0.00     0.135 A 
ATOM     98  C   UNL A   1      45.092  32.239  33.220  1.00  0.00     0.135 A 
ATOM     99  F   UNL A   1      44.748  35.429  34.929  1.00  0.00    -0.206 F 
ATOM    100  C   UNL A   1      45.256  33.311  35.782  1.00  0.00     0.059 A 
ATOM    101  C   UNL A   1      45.322  31.396  34.302  1.00  0.00     0.059 A 
ATOM    102  F   UNL A   1      44.975  31.681  32.004  1.00  0.00    -0.206 F 
ATOM    103  C   UNL A   1      45.416  31.940  35.580  1.00  0.00     0.060 A 
BRANCH 103 104
ATOM    104  S   UNL A   1      45.691  30.858  37.001  1.00  0.00     0.124 S 
ATOM    105  O   UNL A   1      46.435  31.726  37.908  1.00  0.00    -0.237 OA
ATOM    106  O   UNL A   1      44.332  30.524  37.413  1.00  0.00    -0.237 OA
ATOM    107  O   UNL A   1      46.453  29.744  36.440  1.00  0.00    -0.744 OA
ENDBRANCH 103 104
ENDBRANCH  71  96
ENDBRANCH  45  46
ENDBRANCH  38  40
ENDBRANCH  37  38
ENDBRANCH  36  37
ENDBRANCH  35  36
ENDBRANCH  34  35
ENDBRANCH   1  34
TORSDOF 22
ENDMDL
