MODEL 1
REMARK VINA RESULT:     -10.7      0.000      0.000
REMARK SMILES CCc1ccsc1CNC(=O)N1[C@H]2CC[C@@H]1[C@H](C(=O)OCCOCCOC(=O)c1ccc(-c3c4nc(c(-c5c(F)cc(S(=O)(=O)[O-])cc5F)c5ccc([nH]5)c(-c5c(F)cc(S(=O)(=O)[O-])cc5F)c5nc(c(-c6c(F)cc(S(=O)(=O)[O-])cc6F)c6ccc3[nH]6)C=C5)C=C4)cc1)C2
REMARK SMILES IDX 22 1 21 2 20 3 18 4 19 5 17 6 12 7 13 8 16 9 14 10 95 11
REMARK SMILES IDX 15 12 10 13 9 14 11 16 8 17 7 18 3 19 4 20 5 21 6 22 2 23
REMARK SMILES IDX 1 24 23 25 24 26 25 27 26 28 27 29 28 30 29 31 30 32 94 33
REMARK SMILES IDX 31 34 93 35 32 36 33 37 34 38 87 39 35 40 92 41 86 42 88 43
REMARK SMILES IDX 36 44 91 45 85 46 84 47 37 49 71 50 50 51 70 52 51 53 54 54
REMARK SMILES IDX 69 55 89 56 52 57 53 58 68 60 90 61 55 62 38 63 39 64 48 65
REMARK SMILES IDX 40 66 41 67 47 68 49 69 42 70 43 71 44 72 45 73 46 74 72 75
REMARK SMILES IDX 73 76 82 77 74 78 75 79 81 80 83 81 76 82 77 83 78 84 79 85
REMARK SMILES IDX 80 86 56 87 57 88 66 89 58 90 59 91 65 92 67 93 60 94 61 95
REMARK SMILES IDX 62 96 63 97 64 98
REMARK H PARENT 9 15 88 48 54 59
REMARK Flexibility Score: inf
ROOT
ATOM      1  C   UNL A   1      38.045  21.146  25.390  1.00  0.00     0.202 C 
ENDROOT
BRANCH   1   2
ATOM      2  C   UNL A   1      36.883  21.931  24.779  1.00  0.00     0.261 C 
BRANCH   2   3
ATOM      3  O   UNL A   1      35.770  21.989  25.687  1.00  0.00    -0.463 OA
BRANCH   3   4
ATOM      4  C   UNL A   1      34.665  21.310  25.311  1.00  0.00     0.311 C 
ATOM      5  O   UNL A   1      34.659  20.161  24.883  1.00  0.00    -0.252 OA
BRANCH   4   6
ATOM      6  C   UNL A   1      33.402  22.114  25.431  1.00  0.00     0.124 C 
ATOM      7  N   UNL A   1      32.037  23.882  25.601  1.00  0.00    -0.318 N 
ATOM      8  C   UNL A   1      32.068  23.650  24.169  1.00  0.00     0.088 C 
ATOM      9  C   UNL A   1      33.415  23.573  25.934  1.00  0.00     0.101 C 
ATOM     10  C   UNL A   1      33.224  24.585  23.759  1.00  0.00     0.027 C 
ATOM     11  C   UNL A   1      32.597  22.204  24.114  1.00  0.00     0.042 C 
ATOM     12  C   UNL A   1      34.131  24.565  25.006  1.00  0.00     0.028 C 
BRANCH   7  13
ATOM     13  C   UNL A   1      31.104  24.283  26.483  1.00  0.00     0.318 C 
ATOM     14  N   UNL A   1      30.753  25.587  26.551  1.00  0.00    -0.333 N 
ATOM     15  H   UNL A   1      30.416  25.891  27.425  1.00  0.00     0.165 HD
ATOM     16  O   UNL A   1      30.502  23.485  27.203  1.00  0.00    -0.249 OA
BRANCH  14  17
ATOM     17  C   UNL A   1      30.804  26.596  25.516  1.00  0.00     0.165 C 
BRANCH  17  18
ATOM     18  C   UNL A   1      31.723  27.746  25.872  1.00  0.00     0.027 A 
ATOM     19  C   UNL A   1      32.455  28.548  25.000  1.00  0.00    -0.033 A 
ATOM     20  C   UNL A   1      33.168  29.576  25.707  1.00  0.00     0.016 A 
ATOM     21  C   UNL A   1      32.953  29.538  27.063  1.00  0.00     0.065 A 
ATOM     22  S   UNL A   1      31.885  28.288  27.498  1.00  0.00    -0.147 S 
BRANCH  19  23
ATOM     23  C   UNL A   1      32.499  28.412  23.502  1.00  0.00     0.033 C 
ATOM     24  C   UNL A   1      33.919  28.393  22.959  1.00  0.00     0.009 C 
ENDBRANCH  19  23
ENDBRANCH  17  18
ENDBRANCH  14  17
ENDBRANCH   7  13
ENDBRANCH   4   6
ENDBRANCH   3   4
ENDBRANCH   2   3
ENDBRANCH   1   2
BRANCH   1  25
ATOM     25  O   UNL A   1      39.011  21.917  26.105  1.00  0.00    -0.374 OA
BRANCH  25  26
ATOM     26  C   UNL A   1      40.249  21.281  26.423  1.00  0.00     0.202 C 
BRANCH  26  27
ATOM     27  C   UNL A   1      41.486  22.184  26.485  1.00  0.00     0.261 C 
BRANCH  27  28
ATOM     28  O   UNL A   1      41.142  23.577  26.371  1.00  0.00    -0.460 OA
BRANCH  28  29
ATOM     29  C   UNL A   1      42.158  24.435  26.624  1.00  0.00     0.338 C 
ATOM     30  O   UNL A   1      43.265  24.440  26.098  1.00  0.00    -0.246 OA
BRANCH  29  31
ATOM     31  C   UNL A   1      41.699  25.526  27.503  1.00  0.00     0.060 A 
ATOM     32  C   UNL A   1      42.501  26.672  27.578  1.00  0.00     0.016 A 
ATOM     33  C   UNL A   1      40.550  25.413  28.289  1.00  0.00     0.016 A 
ATOM     34  C   UNL A   1      42.189  27.687  28.480  1.00  0.00     0.010 A 
ATOM     35  C   UNL A   1      40.244  26.429  29.202  1.00  0.00     0.010 A 
ATOM     36  C   UNL A   1      41.082  27.552  29.327  1.00  0.00    -0.014 A 
BRANCH  36  37
ATOM     37  C   UNL A   1      40.895  28.515  30.440  1.00  0.00     0.031 A 
ATOM     38  C   UNL A   1      41.781  28.408  31.653  1.00  0.00     0.074 A 
ATOM     39  C   UNL A   1      39.980  29.497  30.356  1.00  0.00     0.049 A 
ATOM     40  N   UNL A   1      41.777  29.122  32.748  1.00  0.00    -0.248 NA
ATOM     41  C   UNL A   1      42.808  27.354  31.626  1.00  0.00     0.031 C 
ATOM     42  C   UNL A   1      39.095  29.730  29.216  1.00  0.00     0.029 A 
ATOM     43  N   UNL A   1      39.640  30.479  31.253  1.00  0.00    -0.354 N 
ATOM     44  C   UNL A   1      42.793  28.604  33.542  1.00  0.00     0.074 A 
ATOM     45  C   UNL A   1      43.375  27.496  32.815  1.00  0.00     0.031 C 
ATOM     46  C   UNL A   1      38.303  30.783  29.487  1.00  0.00     0.029 A 
ATOM     47  C   UNL A   1      38.604  31.278  30.829  1.00  0.00     0.049 A 
ATOM     48  H   UNL A   1      40.096  30.601  32.116  1.00  0.00     0.167 HD
ATOM     49  C   UNL A   1      43.210  29.019  34.762  1.00  0.00     0.037 A 
ATOM     50  C   UNL A   1      37.959  32.277  31.463  1.00  0.00     0.037 A 
ATOM     51  C   UNL A   1      42.630  30.124  35.481  1.00  0.00     0.049 A 
ATOM     52  C   UNL A   1      38.395  32.677  32.850  1.00  0.00     0.074 A 
ATOM     53  C   UNL A   1      42.993  30.632  36.716  1.00  0.00     0.029 A 
ATOM     54  N   UNL A   1      41.561  30.886  35.035  1.00  0.00    -0.354 N 
ATOM     55  N   UNL A   1      39.369  32.190  33.581  1.00  0.00    -0.248 NA
ATOM     56  C   UNL A   1      37.645  33.764  33.496  1.00  0.00     0.031 C 
ATOM     57  C   UNL A   1      42.114  31.671  37.037  1.00  0.00     0.029 A 
ATOM     58  C   UNL A   1      41.234  31.843  35.980  1.00  0.00     0.049 A 
ATOM     59  H   UNL A   1      41.102  30.763  34.172  1.00  0.00     0.167 HD
ATOM     60  C   UNL A   1      39.365  32.925  34.762  1.00  0.00     0.074 A 
ATOM     61  C   UNL A   1      38.298  33.898  34.643  1.00  0.00     0.031 C 
ATOM     62  C   UNL A   1      40.171  32.807  35.846  1.00  0.00     0.037 A 
BRANCH  49  63
ATOM     63  C   UNL A   1      44.334  28.259  35.409  1.00  0.00     0.058 A 
ATOM     64  C   UNL A   1      45.676  28.630  35.228  1.00  0.00     0.135 A 
ATOM     65  C   UNL A   1      44.064  27.167  36.249  1.00  0.00     0.135 A 
ATOM     66  F   UNL A   1      45.992  29.655  34.421  1.00  0.00    -0.206 F 
ATOM     67  C   UNL A   1      46.712  27.929  35.840  1.00  0.00     0.059 A 
ATOM     68  C   UNL A   1      45.082  26.468  36.891  1.00  0.00     0.059 A 
ATOM     69  F   UNL A   1      42.798  26.769  36.453  1.00  0.00    -0.206 F 
ATOM     70  C   UNL A   1      46.404  26.849  36.669  1.00  0.00     0.060 A 
BRANCH  70  71
ATOM     71  S   UNL A   1      47.758  25.956  37.461  1.00  0.00     0.124 S 
ATOM     72  O   UNL A   1      48.811  26.072  36.457  1.00  0.00    -0.237 OA
ATOM     73  O   UNL A   1      47.965  26.722  38.685  1.00  0.00    -0.237 OA
ATOM     74  O   UNL A   1      47.217  24.614  37.650  1.00  0.00    -0.744 OA
ENDBRANCH  70  71
ENDBRANCH  49  63
BRANCH  50  75
ATOM     75  C   UNL A   1      36.816  32.960  30.800  1.00  0.00     0.058 A 
ATOM     76  C   UNL A   1      35.491  32.680  31.163  1.00  0.00     0.135 A 
ATOM     77  C   UNL A   1      37.030  33.907  29.786  1.00  0.00     0.135 A 
ATOM     78  F   UNL A   1      35.235  31.772  32.118  1.00  0.00    -0.206 F 
ATOM     79  C   UNL A   1      34.417  33.304  30.538  1.00  0.00     0.059 A 
ATOM     80  C   UNL A   1      35.974  34.563  29.163  1.00  0.00     0.059 A 
ATOM     81  F   UNL A   1      38.280  34.218  29.409  1.00  0.00    -0.206 F 
ATOM     82  C   UNL A   1      34.669  34.247  29.540  1.00  0.00     0.060 A 
BRANCH  82  83
ATOM     83  S   UNL A   1      33.271  35.094  28.769  1.00  0.00     0.124 S 
ATOM     84  O   UNL A   1      32.695  34.029  27.957  1.00  0.00    -0.237 OA
ATOM     85  O   UNL A   1      32.488  35.509  29.930  1.00  0.00    -0.237 OA
ATOM     86  O   UNL A   1      33.906  36.181  28.031  1.00  0.00    -0.744 OA
ENDBRANCH  82  83
ENDBRANCH  50  75
BRANCH  62  87
ATOM     87  C   UNL A   1      39.953  33.770  36.981  1.00  0.00     0.058 A 
ATOM     88  C   UNL A   1      40.590  35.019  37.022  1.00  0.00     0.135 A 
ATOM     89  C   UNL A   1      39.055  33.458  38.016  1.00  0.00     0.135 A 
ATOM     90  F   UNL A   1      41.462  35.364  36.063  1.00  0.00    -0.206 F 
ATOM     91  C   UNL A   1      40.363  35.918  38.060  1.00  0.00     0.059 A 
ATOM     92  C   UNL A   1      38.792  34.352  39.049  1.00  0.00     0.059 A 
ATOM     93  F   UNL A   1      38.410  32.280  38.020  1.00  0.00    -0.206 F 
ATOM     94  C   UNL A   1      39.460  35.575  39.070  1.00  0.00     0.060 A 
BRANCH  94  95
ATOM     95  S   UNL A   1      39.149  36.763  40.394  1.00  0.00     0.124 S 
ATOM     96  O   UNL A   1      38.244  36.011  41.257  1.00  0.00    -0.237 OA
ATOM     97  O   UNL A   1      40.488  36.995  40.927  1.00  0.00    -0.237 OA
ATOM     98  O   UNL A   1      38.554  37.899  39.698  1.00  0.00    -0.744 OA
ENDBRANCH  94  95
ENDBRANCH  62  87
ENDBRANCH  36  37
ENDBRANCH  29  31
ENDBRANCH  28  29
ENDBRANCH  27  28
ENDBRANCH  26  27
ENDBRANCH  25  26
ENDBRANCH   1  25
TORSDOF 21
ENDMDL
MODEL 2
REMARK VINA RESULT:     -10.5      6.045     11.904
REMARK SMILES CCc1ccsc1CNC(=O)N1[C@H]2CC[C@@H]1[C@H](C(=O)OCCOCCOC(=O)c1ccc(-c3c4nc(c(-c5c(F)cc(S(=O)(=O)[O-])cc5F)c5ccc([nH]5)c(-c5c(F)cc(S(=O)(=O)[O-])cc5F)c5nc(c(-c6c(F)cc(S(=O)(=O)[O-])cc6F)c6ccc3[nH]6)C=C5)C=C4)cc1)C2
REMARK SMILES IDX 22 1 21 2 20 3 18 4 19 5 17 6 12 7 13 8 16 9 14 10 95 11
REMARK SMILES IDX 15 12 10 13 9 14 11 16 8 17 7 18 3 19 4 20 5 21 6 22 2 23
REMARK SMILES IDX 1 24 23 25 24 26 25 27 26 28 27 29 28 30 29 31 30 32 94 33
REMARK SMILES IDX 31 34 93 35 32 36 33 37 34 38 87 39 35 40 92 41 86 42 88 43
REMARK SMILES IDX 36 44 91 45 85 46 84 47 37 49 71 50 50 51 70 52 51 53 54 54
REMARK SMILES IDX 69 55 89 56 52 57 53 58 68 60 90 61 55 62 38 63 39 64 48 65
REMARK SMILES IDX 40 66 41 67 47 68 49 69 42 70 43 71 44 72 45 73 46 74 72 75
REMARK SMILES IDX 73 76 82 77 74 78 75 79 81 80 83 81 76 82 77 83 78 84 79 85
REMARK SMILES IDX 80 86 56 87 57 88 66 89 58 90 59 91 65 92 67 93 60 94 61 95
REMARK SMILES IDX 62 96 63 97 64 98
REMARK H PARENT 9 15 88 48 54 59
REMARK Flexibility Score: inf
ROOT
ATOM      1  C   UNL A   1      34.073  31.810  28.070  1.00  0.00     0.202 C 
ENDROOT
BRANCH   1   2
ATOM      2  C   UNL A   1      33.909  30.505  27.289  1.00  0.00     0.261 C 
BRANCH   2   3
ATOM      3  O   UNL A   1      32.564  30.007  27.401  1.00  0.00    -0.463 OA
BRANCH   3   4
ATOM      4  C   UNL A   1      32.076  29.376  26.310  1.00  0.00     0.311 C 
ATOM      5  O   UNL A   1      31.511  29.929  25.374  1.00  0.00    -0.252 OA
BRANCH   4   6
ATOM      6  C   UNL A   1      32.259  27.885  26.355  1.00  0.00     0.124 C 
ATOM      7  N   UNL A   1      32.308  25.747  25.691  1.00  0.00    -0.318 N 
ATOM      8  C   UNL A   1      33.674  26.175  25.459  1.00  0.00     0.088 C 
ATOM      9  C   UNL A   1      31.600  26.957  25.314  1.00  0.00     0.101 C 
ATOM     10  C   UNL A   1      33.581  26.628  23.988  1.00  0.00     0.027 C 
ATOM     11  C   UNL A   1      33.740  27.442  26.333  1.00  0.00     0.042 C 
ATOM     12  C   UNL A   1      32.125  27.124  23.881  1.00  0.00     0.028 C 
BRANCH   7  13
ATOM     13  C   UNL A   1      31.720  24.609  26.101  1.00  0.00     0.318 C 
ATOM     14  N   UNL A   1      31.632  23.552  25.263  1.00  0.00    -0.333 N 
ATOM     15  H   UNL A   1      30.879  22.940  25.429  1.00  0.00     0.165 HD
ATOM     16  O   UNL A   1      31.305  24.468  27.253  1.00  0.00    -0.249 OA
BRANCH  14  17
ATOM     17  C   UNL A   1      32.494  23.196  24.158  1.00  0.00     0.165 C 
BRANCH  17  18
ATOM     18  C   UNL A   1      33.569  22.206  24.555  1.00  0.00     0.027 A 
ATOM     19  C   UNL A   1      33.545  20.822  24.403  1.00  0.00    -0.033 A 
ATOM     20  C   UNL A   1      34.775  20.225  24.849  1.00  0.00     0.016 A 
ATOM     21  C   UNL A   1      35.683  21.150  25.301  1.00  0.00     0.065 A 
ATOM     22  S   UNL A   1      35.082  22.737  25.183  1.00  0.00    -0.147 S 
BRANCH  19  23
ATOM     23  C   UNL A   1      32.414  20.017  23.824  1.00  0.00     0.033 C 
ATOM     24  C   UNL A   1      32.566  18.526  24.084  1.00  0.00     0.009 C 
ENDBRANCH  19  23
ENDBRANCH  17  18
ENDBRANCH  14  17
ENDBRANCH   7  13
ENDBRANCH   4   6
ENDBRANCH   3   4
ENDBRANCH   2   3
ENDBRANCH   1   2
BRANCH   1  25
ATOM     25  O   UNL A   1      34.823  32.836  27.420  1.00  0.00    -0.374 OA
BRANCH  25  26
ATOM     26  C   UNL A   1      35.878  33.446  28.164  1.00  0.00     0.202 C 
BRANCH  26  27
ATOM     27  C   UNL A   1      35.745  33.416  29.691  1.00  0.00     0.261 C 
BRANCH  27  28
ATOM     28  O   UNL A   1      36.925  32.886  30.324  1.00  0.00    -0.460 OA
BRANCH  28  29
ATOM     29  C   UNL A   1      36.824  31.596  30.721  1.00  0.00     0.338 C 
ATOM     30  O   UNL A   1      35.862  31.066  31.264  1.00  0.00    -0.246 OA
BRANCH  29  31
ATOM     31  C   UNL A   1      37.980  30.820  30.235  1.00  0.00     0.060 A 
ATOM     32  C   UNL A   1      38.902  30.373  31.190  1.00  0.00     0.016 A 
ATOM     33  C   UNL A   1      38.200  30.588  28.875  1.00  0.00     0.016 A 
ATOM     34  C   UNL A   1      40.076  29.741  30.787  1.00  0.00     0.010 A 
ATOM     35  C   UNL A   1      39.385  29.962  28.472  1.00  0.00     0.010 A 
ATOM     36  C   UNL A   1      40.344  29.569  29.424  1.00  0.00    -0.014 A 
BRANCH  36  37
ATOM     37  C   UNL A   1      41.692  29.117  28.997  1.00  0.00     0.031 A 
ATOM     38  C   UNL A   1      42.823  30.111  28.984  1.00  0.00     0.074 A 
ATOM     39  C   UNL A   1      41.916  27.833  28.668  1.00  0.00     0.049 A 
ATOM     40  N   UNL A   1      44.069  29.943  28.624  1.00  0.00    -0.248 NA
ATOM     41  C   UNL A   1      42.506  31.475  29.436  1.00  0.00     0.031 C 
ATOM     42  C   UNL A   1      40.913  26.770  28.685  1.00  0.00     0.029 A 
ATOM     43  N   UNL A   1      43.063  27.207  28.248  1.00  0.00    -0.354 N 
ATOM     44  C   UNL A   1      44.684  31.177  28.801  1.00  0.00     0.074 A 
ATOM     45  C   UNL A   1      43.667  32.093  29.273  1.00  0.00     0.031 C 
ATOM     46  C   UNL A   1      41.486  25.622  28.281  1.00  0.00     0.029 A 
ATOM     47  C   UNL A   1      42.886  25.876  27.949  1.00  0.00     0.049 A 
ATOM     48  H   UNL A   1      43.930  27.666  28.170  1.00  0.00     0.167 HD
ATOM     49  C   UNL A   1      45.979  31.515  28.597  1.00  0.00     0.037 A 
ATOM     50  C   UNL A   1      43.751  24.975  27.442  1.00  0.00     0.037 A 
ATOM     51  C   UNL A   1      46.989  30.601  28.131  1.00  0.00     0.049 A 
ATOM     52  C   UNL A   1      45.172  25.391  27.158  1.00  0.00     0.074 A 
ATOM     53  C   UNL A   1      48.333  30.843  27.909  1.00  0.00     0.029 A 
ATOM     54  N   UNL A   1      46.764  29.271  27.806  1.00  0.00    -0.354 N 
ATOM     55  N   UNL A   1      45.744  26.557  27.347  1.00  0.00    -0.248 NA
ATOM     56  C   UNL A   1      46.065  24.369  26.594  1.00  0.00     0.031 C 
ATOM     57  C   UNL A   1      48.911  29.672  27.406  1.00  0.00     0.029 A 
ATOM     58  C   UNL A   1      47.938  28.687  27.362  1.00  0.00     0.049 A 
ATOM     59  H   UNL A   1      45.897  28.810  27.881  1.00  0.00     0.167 HD
ATOM     60  C   UNL A   1      47.067  26.402  26.948  1.00  0.00     0.074 A 
ATOM     61  C   UNL A   1      47.215  25.027  26.518  1.00  0.00     0.031 C 
ATOM     62  C   UNL A   1      48.070  27.315  26.940  1.00  0.00     0.037 A 
BRANCH  49  63
ATOM     63  C   UNL A   1      46.375  32.942  28.856  1.00  0.00     0.058 A 
ATOM     64  C   UNL A   1      46.271  33.929  27.864  1.00  0.00     0.135 A 
ATOM     65  C   UNL A   1      46.833  33.334  30.125  1.00  0.00     0.135 A 
ATOM     66  F   UNL A   1      45.857  33.606  26.628  1.00  0.00    -0.206 F 
ATOM     67  C   UNL A   1      46.627  35.251  28.114  1.00  0.00     0.059 A 
ATOM     68  C   UNL A   1      47.171  34.655  30.404  1.00  0.00     0.059 A 
ATOM     69  F   UNL A   1      46.955  32.429  31.109  1.00  0.00    -0.206 F 
ATOM     70  C   UNL A   1      47.077  35.604  29.387  1.00  0.00     0.060 A 
BRANCH  70  71
ATOM     71  S   UNL A   1      47.528  37.324  29.698  1.00  0.00     0.124 S 
ATOM     72  O   UNL A   1      48.219  37.216  30.980  1.00  0.00    -0.237 OA
ATOM     73  O   UNL A   1      48.371  37.639  28.551  1.00  0.00    -0.237 OA
ATOM     74  O   UNL A   1      46.242  38.012  29.735  1.00  0.00    -0.744 OA
ENDBRANCH  70  71
ENDBRANCH  49  63
BRANCH  50  75
ATOM     75  C   UNL A   1      43.294  23.590  27.153  1.00  0.00     0.058 A 
ATOM     76  C   UNL A   1      43.090  23.151  25.836  1.00  0.00     0.135 A 
ATOM     77  C   UNL A   1      43.050  22.677  28.191  1.00  0.00     0.135 A 
ATOM     78  F   UNL A   1      43.298  23.991  24.810  1.00  0.00    -0.206 F 
ATOM     79  C   UNL A   1      42.649  21.862  25.558  1.00  0.00     0.059 A 
ATOM     80  C   UNL A   1      42.632  21.375  27.937  1.00  0.00     0.059 A 
ATOM     81  F   UNL A   1      43.239  23.045  29.468  1.00  0.00    -0.206 F 
ATOM     82  C   UNL A   1      42.425  20.980  26.617  1.00  0.00     0.060 A 
BRANCH  82  83
ATOM     83  S   UNL A   1      41.904  19.290  26.246  1.00  0.00     0.124 S 
ATOM     84  O   UNL A   1      40.452  19.420  26.261  1.00  0.00    -0.237 OA
ATOM     85  O   UNL A   1      42.512  19.062  24.938  1.00  0.00    -0.237 OA
ATOM     86  O   UNL A   1      42.482  18.515  27.339  1.00  0.00    -0.744 OA
ENDBRANCH  82  83
ENDBRANCH  50  75
BRANCH  62  87
ATOM     87  C   UNL A   1      49.425  26.853  26.477  1.00  0.00     0.058 A 
ATOM     88  C   UNL A   1      50.340  26.254  27.356  1.00  0.00     0.135 A 
ATOM     89  C   UNL A   1      49.792  26.966  25.126  1.00  0.00     0.135 A 
ATOM     90  F   UNL A   1      50.042  26.128  28.658  1.00  0.00    -0.206 F 
ATOM     91  C   UNL A   1      51.582  25.802  26.917  1.00  0.00     0.059 A 
ATOM     92  C   UNL A   1      51.017  26.497  24.659  1.00  0.00     0.059 A 
ATOM     93  F   UNL A   1      48.950  27.521  24.240  1.00  0.00    -0.206 F 
ATOM     94  C   UNL A   1      51.910  25.927  25.565  1.00  0.00     0.060 A 
BRANCH  94  95
ATOM     95  S   UNL A   1      53.510  25.309  25.002  1.00  0.00     0.124 S 
ATOM     96  O   UNL A   1      53.426  23.899  25.366  1.00  0.00    -0.237 OA
ATOM     97  O   UNL A   1      53.472  25.598  23.572  1.00  0.00    -0.237 OA
ATOM     98  O   UNL A   1      54.468  26.100  25.768  1.00  0.00    -0.744 OA
ENDBRANCH  94  95
ENDBRANCH  62  87
ENDBRANCH  36  37
ENDBRANCH  29  31
ENDBRANCH  28  29
ENDBRANCH  27  28
ENDBRANCH  26  27
ENDBRANCH  25  26
ENDBRANCH   1  25
TORSDOF 21
ENDMDL
MODEL 3
REMARK VINA RESULT:     -10.4      6.472     12.003
REMARK SMILES CCc1ccsc1CNC(=O)N1[C@H]2CC[C@@H]1[C@H](C(=O)OCCOCCOC(=O)c1ccc(-c3c4nc(c(-c5c(F)cc(S(=O)(=O)[O-])cc5F)c5ccc([nH]5)c(-c5c(F)cc(S(=O)(=O)[O-])cc5F)c5nc(c(-c6c(F)cc(S(=O)(=O)[O-])cc6F)c6ccc3[nH]6)C=C5)C=C4)cc1)C2
REMARK SMILES IDX 22 1 21 2 20 3 18 4 19 5 17 6 12 7 13 8 16 9 14 10 95 11
REMARK SMILES IDX 15 12 10 13 9 14 11 16 8 17 7 18 3 19 4 20 5 21 6 22 2 23
REMARK SMILES IDX 1 24 23 25 24 26 25 27 26 28 27 29 28 30 29 31 30 32 94 33
REMARK SMILES IDX 31 34 93 35 32 36 33 37 34 38 87 39 35 40 92 41 86 42 88 43
REMARK SMILES IDX 36 44 91 45 85 46 84 47 37 49 71 50 50 51 70 52 51 53 54 54
REMARK SMILES IDX 69 55 89 56 52 57 53 58 68 60 90 61 55 62 38 63 39 64 48 65
REMARK SMILES IDX 40 66 41 67 47 68 49 69 42 70 43 71 44 72 45 73 46 74 72 75
REMARK SMILES IDX 73 76 82 77 74 78 75 79 81 80 83 81 76 82 77 83 78 84 79 85
REMARK SMILES IDX 80 86 56 87 57 88 66 89 58 90 59 91 65 92 67 93 60 94 61 95
REMARK SMILES IDX 62 96 63 97 64 98
REMARK H PARENT 9 15 88 48 54 59
REMARK Flexibility Score: inf
ROOT
ATOM      1  C   UNL A   1      31.855  30.871  26.586  1.00  0.00     0.202 C 
ENDROOT
BRANCH   1   2
ATOM      2  C   UNL A   1      31.795  29.374  26.894  1.00  0.00     0.261 C 
BRANCH   2   3
ATOM      3  O   UNL A   1      31.322  28.635  25.755  1.00  0.00    -0.463 OA
BRANCH   3   4
ATOM      4  C   UNL A   1      31.381  27.289  25.859  1.00  0.00     0.311 C 
ATOM      5  O   UNL A   1      30.927  26.637  26.793  1.00  0.00    -0.252 OA
BRANCH   4   6
ATOM      6  C   UNL A   1      32.101  26.635  24.714  1.00  0.00     0.124 C 
ATOM      7  N   UNL A   1      33.003  26.337  22.686  1.00  0.00    -0.318 N 
ATOM      8  C   UNL A   1      34.127  26.836  23.455  1.00  0.00     0.088 C 
ATOM      9  C   UNL A   1      31.933  27.130  23.262  1.00  0.00     0.101 C 
ATOM     10  C   UNL A   1      34.008  28.348  23.178  1.00  0.00     0.027 C 
ATOM     11  C   UNL A   1      33.636  26.587  24.894  1.00  0.00     0.042 C 
ATOM     12  C   UNL A   1      32.488  28.537  22.997  1.00  0.00     0.028 C 
BRANCH   7  13
ATOM     13  C   UNL A   1      32.847  25.438  21.697  1.00  0.00     0.318 C 
ATOM     14  N   UNL A   1      32.362  24.207  21.970  1.00  0.00    -0.333 N 
ATOM     15  H   UNL A   1      32.644  23.492  21.354  1.00  0.00     0.165 HD
ATOM     16  O   UNL A   1      33.079  25.719  20.520  1.00  0.00    -0.249 OA
BRANCH  14  17
ATOM     17  C   UNL A   1      31.483  23.796  23.043  1.00  0.00     0.165 C 
BRANCH  17  18
ATOM     18  C   UNL A   1      31.859  22.445  23.615  1.00  0.00     0.027 A 
ATOM     19  C   UNL A   1      31.944  22.088  24.959  1.00  0.00    -0.033 A 
ATOM     20  C   UNL A   1      32.276  20.697  25.110  1.00  0.00     0.016 A 
ATOM     21  C   UNL A   1      32.415  20.048  23.908  1.00  0.00     0.065 A 
ATOM     22  S   UNL A   1      32.135  21.088  22.592  1.00  0.00    -0.147 S 
BRANCH  19  23
ATOM     23  C   UNL A   1      31.699  22.997  26.132  1.00  0.00     0.033 C 
ATOM     24  C   UNL A   1      32.748  22.840  27.221  1.00  0.00     0.009 C 
ENDBRANCH  19  23
ENDBRANCH  17  18
ENDBRANCH  14  17
ENDBRANCH   7  13
ENDBRANCH   4   6
ENDBRANCH   3   4
ENDBRANCH   2   3
ENDBRANCH   1   2
BRANCH   1  25
ATOM     25  O   UNL A   1      32.859  31.612  27.280  1.00  0.00    -0.374 OA
BRANCH  25  26
ATOM     26  C   UNL A   1      34.177  31.065  27.300  1.00  0.00     0.202 C 
BRANCH  26  27
ATOM     27  C   UNL A   1      34.927  31.134  28.636  1.00  0.00     0.261 C 
BRANCH  27  28
ATOM     28  O   UNL A   1      35.624  29.908  28.926  1.00  0.00    -0.460 OA
BRANCH  28  29
ATOM     29  C   UNL A   1      36.370  29.934  30.055  1.00  0.00     0.338 C 
ATOM     30  O   UNL A   1      35.962  29.870  31.209  1.00  0.00    -0.246 OA
BRANCH  29  31
ATOM     31  C   UNL A   1      37.805  29.853  29.721  1.00  0.00     0.060 A 
ATOM     32  C   UNL A   1      38.147  29.794  28.365  1.00  0.00     0.016 A 
ATOM     33  C   UNL A   1      38.793  29.768  30.706  1.00  0.00     0.016 A 
ATOM     34  C   UNL A   1      39.472  29.594  27.985  1.00  0.00     0.010 A 
ATOM     35  C   UNL A   1      40.122  29.557  30.322  1.00  0.00     0.010 A 
ATOM     36  C   UNL A   1      40.462  29.433  28.963  1.00  0.00    -0.014 A 
BRANCH  36  37
ATOM     37  C   UNL A   1      41.818  28.985  28.559  1.00  0.00     0.031 A 
ATOM     38  C   UNL A   1      42.934  29.994  28.514  1.00  0.00     0.074 A 
ATOM     39  C   UNL A   1      42.062  27.693  28.279  1.00  0.00     0.049 A 
ATOM     40  N   UNL A   1      44.184  29.831  28.167  1.00  0.00    -0.248 NA
ATOM     41  C   UNL A   1      42.595  31.369  28.914  1.00  0.00     0.031 C 
ATOM     42  C   UNL A   1      41.074  26.616  28.331  1.00  0.00     0.029 A 
ATOM     43  N   UNL A   1      43.220  27.068  27.888  1.00  0.00    -0.354 N 
ATOM     44  C   UNL A   1      44.780  31.080  28.300  1.00  0.00     0.074 A 
ATOM     45  C   UNL A   1      43.747  31.997  28.733  1.00  0.00     0.031 C 
ATOM     46  C   UNL A   1      41.666  25.463  27.973  1.00  0.00     0.029 A 
ATOM     47  C   UNL A   1      43.064  25.725  27.637  1.00  0.00     0.049 A 
ATOM     48  H   UNL A   1      44.080  27.537  27.797  1.00  0.00     0.167 HD
ATOM     49  C   UNL A   1      46.072  31.429  28.090  1.00  0.00     0.037 A 
ATOM     50  C   UNL A   1      43.945  24.819  27.169  1.00  0.00     0.037 A 
ATOM     51  C   UNL A   1      47.097  30.513  27.662  1.00  0.00     0.049 A 
ATOM     52  C   UNL A   1      45.361  25.245  26.876  1.00  0.00     0.074 A 
ATOM     53  C   UNL A   1      48.438  30.767  27.438  1.00  0.00     0.029 A 
ATOM     54  N   UNL A   1      46.893  29.169  27.386  1.00  0.00    -0.354 N 
ATOM     55  N   UNL A   1      45.915  26.426  27.024  1.00  0.00    -0.248 NA
ATOM     56  C   UNL A   1      46.272  24.216  26.354  1.00  0.00     0.031 C 
ATOM     57  C   UNL A   1      49.036  29.587  26.982  1.00  0.00     0.029 A 
ATOM     58  C   UNL A   1      48.078  28.586  26.969  1.00  0.00     0.049 A 
ATOM     59  H   UNL A   1      46.032  28.699  27.474  1.00  0.00     0.167 HD
ATOM     60  C   UNL A   1      47.242  26.275  26.637  1.00  0.00     0.074 A 
ATOM     61  C   UNL A   1      47.412  24.887  26.259  1.00  0.00     0.031 C 
ATOM     62  C   UNL A   1      48.232  27.202  26.599  1.00  0.00     0.037 A 
BRANCH  49  63
ATOM     63  C   UNL A   1      46.445  32.870  28.298  1.00  0.00     0.058 A 
ATOM     64  C   UNL A   1      46.326  33.820  27.270  1.00  0.00     0.135 A 
ATOM     65  C   UNL A   1      46.897  33.314  29.551  1.00  0.00     0.135 A 
ATOM     66  F   UNL A   1      45.918  33.446  26.047  1.00  0.00    -0.206 F 
ATOM     67  C   UNL A   1      46.662  35.155  27.473  1.00  0.00     0.059 A 
ATOM     68  C   UNL A   1      47.214  34.650  29.782  1.00  0.00     0.059 A 
ATOM     69  F   UNL A   1      47.032  32.447  30.567  1.00  0.00    -0.206 F 
ATOM     70  C   UNL A   1      47.106  35.560  28.732  1.00  0.00     0.060 A 
BRANCH  70  71
ATOM     71  S   UNL A   1      47.531  37.297  28.981  1.00  0.00     0.124 S 
ATOM     72  O   UNL A   1      47.005  37.902  27.762  1.00  0.00    -0.237 OA
ATOM     73  O   UNL A   1      46.813  37.622  30.209  1.00  0.00    -0.237 OA
ATOM     74  O   UNL A   1      48.985  37.279  29.095  1.00  0.00    -0.744 OA
ENDBRANCH  70  71
ENDBRANCH  49  63
BRANCH  50  75
ATOM     75  C   UNL A   1      43.510  23.417  26.929  1.00  0.00     0.058 A 
ATOM     76  C   UNL A   1      43.267  22.942  25.632  1.00  0.00     0.135 A 
ATOM     77  C   UNL A   1      43.325  22.525  27.997  1.00  0.00     0.135 A 
ATOM     78  F   UNL A   1      43.417  23.762  24.579  1.00  0.00    -0.206 F 
ATOM     79  C   UNL A   1      42.846  21.637  25.400  1.00  0.00     0.059 A 
ATOM     80  C   UNL A   1      42.928  21.208  27.789  1.00  0.00     0.059 A 
ATOM     81  F   UNL A   1      43.553  22.927  29.257  1.00  0.00    -0.206 F 
ATOM     82  C   UNL A   1      42.682  20.776  26.487  1.00  0.00     0.060 A 
BRANCH  82  83
ATOM     83  S   UNL A   1      42.186  19.067  26.175  1.00  0.00     0.124 S 
ATOM     84  O   UNL A   1      42.380  18.461  27.487  1.00  0.00    -0.237 OA
ATOM     85  O   UNL A   1      40.801  19.224  25.741  1.00  0.00    -0.237 OA
ATOM     86  O   UNL A   1      43.114  18.634  25.135  1.00  0.00    -0.744 OA
ENDBRANCH  82  83
ENDBRANCH  50  75
BRANCH  62  87
ATOM     87  C   UNL A   1      49.596  26.743  26.160  1.00  0.00     0.058 A 
ATOM     88  C   UNL A   1      50.044  26.916  24.842  1.00  0.00     0.135 A 
ATOM     89  C   UNL A   1      50.485  26.170  27.085  1.00  0.00     0.135 A 
ATOM     90  F   UNL A   1      49.232  27.452  23.918  1.00  0.00    -0.206 F 
ATOM     91  C   UNL A   1      51.318  26.517  24.448  1.00  0.00     0.059 A 
ATOM     92  C   UNL A   1      51.773  25.788  26.720  1.00  0.00     0.059 A 
ATOM     93  F   UNL A   1      50.111  25.992  28.362  1.00  0.00    -0.206 F 
ATOM     94  C   UNL A   1      52.176  25.954  25.397  1.00  0.00     0.060 A 
BRANCH  94  95
ATOM     95  S   UNL A   1      53.837  25.469  24.881  1.00  0.00     0.124 S 
ATOM     96  O   UNL A   1      53.775  24.017  25.015  1.00  0.00    -0.237 OA
ATOM     97  O   UNL A   1      53.903  25.977  23.515  1.00  0.00    -0.237 OA
ATOM     98  O   UNL A   1      54.702  26.152  25.838  1.00  0.00    -0.744 OA
ENDBRANCH  94  95
ENDBRANCH  62  87
ENDBRANCH  36  37
ENDBRANCH  29  31
ENDBRANCH  28  29
ENDBRANCH  27  28
ENDBRANCH  26  27
ENDBRANCH  25  26
ENDBRANCH   1  25
TORSDOF 21
ENDMDL
