MODEL 1
REMARK VINA RESULT:     -10.8      0.000      0.000
REMARK SMILES CCS(=O)(=O)Nc1ccc(N2CC[NH+](C)CC2)cc1C(=O)OCCOCCOC(=O)c1ccc(-c2c3nc(c(-c4c(F)cc(S(=O)(=O)[O-])cc4F)c4ccc([nH]4)c(-c4c(F)cc(S(=O)(=O)[O-])cc4F)c4nc(c(-c5c(F)cc(S(=O)(=O)[O-])cc5F)c5ccc2[nH]5)C=C4)C=C3)cc1
REMARK SMILES IDX 25 1 24 2 23 3 22 4 20 5 21 6 19 7 7 8 8 9 9 10 18 11 10 12
REMARK SMILES IDX 6 13 3 15 4 16 5 17 2 18 1 19 11 20 12 21 17 22 13 23 16 24
REMARK SMILES IDX 14 25 15 26 26 28 27 29 28 30 29 31 30 32 31 33 32 34 96 35
REMARK SMILES IDX 33 36 95 37 34 38 35 39 36 40 89 41 37 42 94 43 88 44 90 45
REMARK SMILES IDX 38 46 93 47 87 48 86 49 39 51 73 52 52 53 72 54 53 55 56 56
REMARK SMILES IDX 71 57 91 58 54 59 55 60 70 62 92 63 57 64 40 65 41 66 50 67
REMARK SMILES IDX 42 68 43 69 49 70 51 71 44 72 45 73 46 74 47 75 48 76 74 77
REMARK SMILES IDX 75 78 84 79 76 80 77 81 83 82 85 83 78 84 79 85 80 86 81 87
REMARK SMILES IDX 82 88 58 89 59 90 68 91 60 92 61 93 67 94 69 95 62 96 63 97
REMARK SMILES IDX 64 98 65 99 66 100
REMARK H PARENT 6 14 14 27 90 50 56 61
REMARK Flexibility Score: inf
ROOT
ATOM      1  O   UNL A   1      34.874  31.097  27.230  1.00  0.00    -0.374 OA
ENDROOT
BRANCH   1   2
ATOM      2  C   UNL A   1      34.673  29.708  27.452  1.00  0.00     0.202 C 
BRANCH   2   3
ATOM      3  C   UNL A   1      33.493  29.000  26.779  1.00  0.00     0.261 C 
BRANCH   3   4
ATOM      4  O   UNL A   1      33.105  29.533  25.506  1.00  0.00    -0.460 OA
BRANCH   4   5
ATOM      5  C   UNL A   1      31.839  30.019  25.470  1.00  0.00     0.340 C 
ATOM      6  O   UNL A   1      31.441  31.052  25.986  1.00  0.00    -0.246 OA
BRANCH   5   7
ATOM      7  C   UNL A   1      30.937  29.129  24.707  1.00  0.00     0.086 A 
ATOM      8  C   UNL A   1      30.055  29.590  23.719  1.00  0.00     0.063 A 
ATOM      9  C   UNL A   1      29.403  28.661  22.912  1.00  0.00     0.030 A 
ATOM     10  C   UNL A   1      29.601  27.284  23.129  1.00  0.00     0.028 A 
ATOM     11  C   UNL A   1      31.106  27.753  24.921  1.00  0.00     0.043 A 
ATOM     12  C   UNL A   1      30.434  26.804  24.153  1.00  0.00     0.038 A 
BRANCH   8  13
ATOM     13  N   UNL A   1      29.787  30.980  23.578  1.00  0.00    -0.283 N 
ATOM     14  H   UNL A   1      30.495  31.609  23.849  1.00  0.00     0.180 HD
BRANCH  13  15
ATOM     15  S   UNL A   1      28.374  31.624  22.990  1.00  0.00     0.232 S 
ATOM     16  O   UNL A   1      28.578  33.053  23.087  1.00  0.00    -0.207 OA
ATOM     17  O   UNL A   1      27.288  30.981  23.704  1.00  0.00    -0.207 OA
BRANCH  15  18
ATOM     18  C   UNL A   1      28.176  31.219  21.256  1.00  0.00     0.156 C 
ATOM     19  C   UNL A   1      27.782  32.344  20.329  1.00  0.00     0.023 C 
ENDBRANCH  15  18
ENDBRANCH  13  15
ENDBRANCH   8  13
BRANCH  12  20
ATOM     20  N   UNL A   1      30.596  25.459  24.389  1.00  0.00    -0.360 N 
ATOM     21  C   UNL A   1      31.086  24.932  25.672  1.00  0.00     0.178 C 
ATOM     22  C   UNL A   1      30.509  24.479  23.301  1.00  0.00     0.178 C 
ATOM     23  C   UNL A   1      32.395  24.129  25.485  1.00  0.00     0.283 C 
ATOM     24  C   UNL A   1      31.847  23.702  23.174  1.00  0.00     0.283 C 
ATOM     25  N   UNL A   1      32.275  23.077  24.448  1.00  0.00    -0.334 N 
ATOM     26  C   UNL A   1      33.543  22.372  24.284  1.00  0.00     0.332 C 
ATOM     27  H   UNL A   1      31.576  22.392  24.738  1.00  0.00     0.347 HD
ENDBRANCH  12  20
ENDBRANCH   5   7
ENDBRANCH   4   5
ENDBRANCH   3   4
ENDBRANCH   2   3
ENDBRANCH   1   2
BRANCH   1  28
ATOM     28  C   UNL A   1      34.327  32.038  28.146  1.00  0.00     0.202 C 
BRANCH  28  29
ATOM     29  C   UNL A   1      33.297  33.072  27.673  1.00  0.00     0.261 C 
BRANCH  29  30
ATOM     30  O   UNL A   1      32.645  33.804  28.723  1.00  0.00    -0.460 OA
BRANCH  30  31
ATOM     31  C   UNL A   1      33.297  34.940  29.082  1.00  0.00     0.338 C 
ATOM     32  O   UNL A   1      32.965  36.087  28.825  1.00  0.00    -0.246 OA
BRANCH  31  33
ATOM     33  C   UNL A   1      34.427  34.648  29.979  1.00  0.00     0.060 A 
ATOM     34  C   UNL A   1      35.718  34.842  29.472  1.00  0.00     0.016 A 
ATOM     35  C   UNL A   1      34.232  34.031  31.216  1.00  0.00     0.016 A 
ATOM     36  C   UNL A   1      36.819  34.361  30.175  1.00  0.00     0.010 A 
ATOM     37  C   UNL A   1      35.342  33.542  31.917  1.00  0.00     0.010 A 
ATOM     38  C   UNL A   1      36.634  33.664  31.376  1.00  0.00    -0.014 A 
BRANCH  38  39
ATOM     39  C   UNL A   1      37.794  32.948  31.963  1.00  0.00     0.031 A 
ATOM     40  C   UNL A   1      38.355  33.410  33.282  1.00  0.00     0.074 A 
ATOM     41  C   UNL A   1      38.288  31.851  31.363  1.00  0.00     0.049 A 
ATOM     42  N   UNL A   1      39.292  32.870  34.018  1.00  0.00    -0.248 NA
ATOM     43  C   UNL A   1      37.782  34.641  33.849  1.00  0.00     0.031 C 
ATOM     44  C   UNL A   1      37.825  31.306  30.088  1.00  0.00     0.029 A 
ATOM     45  N   UNL A   1      39.286  30.996  31.754  1.00  0.00    -0.354 N 
ATOM     46  C   UNL A   1      39.422  33.692  35.132  1.00  0.00     0.074 A 
ATOM     47  C   UNL A   1      38.487  34.782  34.964  1.00  0.00     0.031 C 
ATOM     48  C   UNL A   1      38.540  30.204  29.801  1.00  0.00     0.029 A 
ATOM     49  C   UNL A   1      39.514  29.974  30.865  1.00  0.00     0.049 A 
ATOM     50  H   UNL A   1      39.792  31.104  32.592  1.00  0.00     0.167 HD
ATOM     51  C   UNL A   1      40.237  33.542  36.204  1.00  0.00     0.037 A 
ATOM     52  C   UNL A   1      40.410  28.967  30.906  1.00  0.00     0.037 A 
ATOM     53  C   UNL A   1      41.161  32.451  36.374  1.00  0.00     0.049 A 
ATOM     54  C   UNL A   1      41.314  28.831  32.103  1.00  0.00     0.074 A 
ATOM     55  C   UNL A   1      41.998  32.189  37.445  1.00  0.00     0.029 A 
ATOM     56  N   UNL A   1      41.378  31.445  35.443  1.00  0.00    -0.354 N 
ATOM     57  N   UNL A   1      41.382  29.582  33.175  1.00  0.00    -0.248 NA
ATOM     58  C   UNL A   1      42.253  27.700  32.099  1.00  0.00     0.031 C 
ATOM     59  C   UNL A   1      42.749  31.046  37.144  1.00  0.00     0.029 A 
ATOM     60  C   UNL A   1      42.353  30.576  35.903  1.00  0.00     0.049 A 
ATOM     61  H   UNL A   1      40.907  31.362  34.582  1.00  0.00     0.167 HD
ATOM     62  C   UNL A   1      42.363  29.010  33.979  1.00  0.00     0.074 A 
ATOM     63  C   UNL A   1      42.843  27.835  33.278  1.00  0.00     0.031 C 
ATOM     64  C   UNL A   1      42.827  29.418  35.187  1.00  0.00     0.037 A 
BRANCH  51  65
ATOM     65  C   UNL A   1      40.177  34.595  37.276  1.00  0.00     0.058 A 
ATOM     66  C   UNL A   1      41.036  35.705  37.268  1.00  0.00     0.135 A 
ATOM     67  C   UNL A   1      39.220  34.513  38.300  1.00  0.00     0.135 A 
ATOM     68  F   UNL A   1      41.979  35.824  36.320  1.00  0.00    -0.206 F 
ATOM     69  C   UNL A   1      40.960  36.688  38.251  1.00  0.00     0.059 A 
ATOM     70  C   UNL A   1      39.114  35.494  39.280  1.00  0.00     0.059 A 
ATOM     71  F   UNL A   1      38.377  33.470  38.354  1.00  0.00    -0.206 F 
ATOM     72  C   UNL A   1      39.997  36.573  39.254  1.00  0.00     0.060 A 
BRANCH  72  73
ATOM     73  S   UNL A   1      39.901  37.862  40.516  1.00  0.00     0.124 S 
ATOM     74  O   UNL A   1      40.897  38.814  40.035  1.00  0.00    -0.237 OA
ATOM     75  O   UNL A   1      38.512  38.296  40.416  1.00  0.00    -0.237 OA
ATOM     76  O   UNL A   1      40.248  37.159  41.747  1.00  0.00    -0.744 OA
ENDBRANCH  72  73
ENDBRANCH  51  65
BRANCH  52  77
ATOM     77  C   UNL A   1      40.492  28.005  29.777  1.00  0.00     0.058 A 
ATOM     78  C   UNL A   1      39.599  26.930  29.668  1.00  0.00     0.135 A 
ATOM     79  C   UNL A   1      41.472  28.148  28.782  1.00  0.00     0.135 A 
ATOM     80  F   UNL A   1      38.653  26.747  30.600  1.00  0.00    -0.206 F 
ATOM     81  C   UNL A   1      39.682  26.020  28.618  1.00  0.00     0.059 A 
ATOM     82  C   UNL A   1      41.560  27.265  27.711  1.00  0.00     0.059 A 
ATOM     83  F   UNL A   1      42.344  29.167  28.838  1.00  0.00    -0.206 F 
ATOM     84  C   UNL A   1      40.665  26.197  27.643  1.00  0.00     0.060 A 
BRANCH  84  85
ATOM     85  S   UNL A   1      40.737  25.041  26.257  1.00  0.00     0.124 S 
ATOM     86  O   UNL A   1      39.346  24.613  26.161  1.00  0.00    -0.237 OA
ATOM     87  O   UNL A   1      41.220  25.887  25.171  1.00  0.00    -0.237 OA
ATOM     88  O   UNL A   1      41.680  24.025  26.717  1.00  0.00    -0.744 OA
ENDBRANCH  84  85
ENDBRANCH  52  77
BRANCH  64  89
ATOM     89  C   UNL A   1      43.901  28.582  35.826  1.00  0.00     0.058 A 
ATOM     90  C   UNL A   1      45.262  28.849  35.611  1.00  0.00     0.135 A 
ATOM     91  C   UNL A   1      43.567  27.513  36.673  1.00  0.00     0.135 A 
ATOM     92  F   UNL A   1      45.634  29.857  34.807  1.00  0.00    -0.206 F 
ATOM     93  C   UNL A   1      46.256  28.063  36.185  1.00  0.00     0.059 A 
ATOM     94  C   UNL A   1      44.545  26.730  37.278  1.00  0.00     0.059 A 
ATOM     95  F   UNL A   1      42.280  27.224  36.924  1.00  0.00    -0.206 F 
ATOM     96  C   UNL A   1      45.888  27.000  37.012  1.00  0.00     0.060 A 
BRANCH  96  97
ATOM     97  S   UNL A   1      47.183  25.984  37.752  1.00  0.00     0.124 S 
ATOM     98  O   UNL A   1      46.949  26.205  39.176  1.00  0.00    -0.237 OA
ATOM     99  O   UNL A   1      46.863  24.650  37.257  1.00  0.00    -0.237 OA
ATOM    100  O   UNL A   1      48.413  26.564  37.220  1.00  0.00    -0.744 OA
ENDBRANCH  96  97
ENDBRANCH  64  89
ENDBRANCH  38  39
ENDBRANCH  31  33
ENDBRANCH  30  31
ENDBRANCH  29  30
ENDBRANCH  28  29
ENDBRANCH   1  28
TORSDOF 21
ENDMDL
MODEL 2
REMARK VINA RESULT:     -10.8      2.641      8.949
REMARK SMILES CCS(=O)(=O)Nc1ccc(N2CC[NH+](C)CC2)cc1C(=O)OCCOCCOC(=O)c1ccc(-c2c3nc(c(-c4c(F)cc(S(=O)(=O)[O-])cc4F)c4ccc([nH]4)c(-c4c(F)cc(S(=O)(=O)[O-])cc4F)c4nc(c(-c5c(F)cc(S(=O)(=O)[O-])cc5F)c5ccc2[nH]5)C=C4)C=C3)cc1
REMARK SMILES IDX 25 1 24 2 23 3 22 4 20 5 21 6 19 7 7 8 8 9 9 10 18 11 10 12
REMARK SMILES IDX 6 13 3 15 4 16 5 17 2 18 1 19 11 20 12 21 17 22 13 23 16 24
REMARK SMILES IDX 14 25 15 26 26 28 27 29 28 30 29 31 30 32 31 33 32 34 96 35
REMARK SMILES IDX 33 36 95 37 34 38 35 39 36 40 89 41 37 42 94 43 88 44 90 45
REMARK SMILES IDX 38 46 93 47 87 48 86 49 39 51 73 52 52 53 72 54 53 55 56 56
REMARK SMILES IDX 71 57 91 58 54 59 55 60 70 62 92 63 57 64 40 65 41 66 50 67
REMARK SMILES IDX 42 68 43 69 49 70 51 71 44 72 45 73 46 74 47 75 48 76 74 77
REMARK SMILES IDX 75 78 84 79 76 80 77 81 83 82 85 83 78 84 79 85 80 86 81 87
REMARK SMILES IDX 82 88 58 89 59 90 68 91 60 92 61 93 67 94 69 95 62 96 63 97
REMARK SMILES IDX 64 98 65 99 66 100
REMARK H PARENT 6 14 14 27 90 50 56 61
REMARK Flexibility Score: inf
ROOT
ATOM      1  O   UNL A   1      39.590  21.753  26.917  1.00  0.00    -0.374 OA
ENDROOT
BRANCH   1   2
ATOM      2  C   UNL A   1      38.757  21.742  25.765  1.00  0.00     0.202 C 
BRANCH   2   3
ATOM      3  C   UNL A   1      37.631  22.772  25.640  1.00  0.00     0.261 C 
BRANCH   3   4
ATOM      4  O   UNL A   1      36.494  22.345  24.877  1.00  0.00    -0.460 OA
BRANCH   4   5
ATOM      5  C   UNL A   1      35.431  23.184  24.950  1.00  0.00     0.340 C 
ATOM      6  O   UNL A   1      35.393  24.263  25.522  1.00  0.00    -0.246 OA
BRANCH   5   7
ATOM      7  C   UNL A   1      34.257  22.638  24.234  1.00  0.00     0.086 A 
ATOM      8  C   UNL A   1      33.580  23.332  23.221  1.00  0.00     0.063 A 
ATOM      9  C   UNL A   1      32.626  22.657  22.465  1.00  0.00     0.030 A 
ATOM     10  C   UNL A   1      32.323  21.313  22.756  1.00  0.00     0.028 A 
ATOM     11  C   UNL A   1      33.928  21.305  24.523  1.00  0.00     0.043 A 
ATOM     12  C   UNL A   1      32.948  20.621  23.806  1.00  0.00     0.038 A 
BRANCH   8  13
ATOM     13  N   UNL A   1      33.824  24.716  23.004  1.00  0.00    -0.283 N 
ATOM     14  H   UNL A   1      34.642  24.962  22.513  1.00  0.00     0.180 HD
BRANCH  13  15
ATOM     15  S   UNL A   1      32.837  25.950  23.513  1.00  0.00     0.232 S 
ATOM     16  O   UNL A   1      33.759  26.966  23.970  1.00  0.00    -0.207 OA
ATOM     17  O   UNL A   1      31.867  25.368  24.421  1.00  0.00    -0.207 OA
BRANCH  15  18
ATOM     18  C   UNL A   1      31.920  26.629  22.131  1.00  0.00     0.156 C 
ATOM     19  C   UNL A   1      30.751  27.527  22.457  1.00  0.00     0.023 C 
ENDBRANCH  15  18
ENDBRANCH  13  15
ENDBRANCH   8  13
BRANCH  12  20
ATOM     20  N   UNL A   1      32.623  19.321  24.115  1.00  0.00    -0.360 N 
ATOM     21  C   UNL A   1      32.535  18.832  25.500  1.00  0.00     0.178 C 
ATOM     22  C   UNL A   1      32.569  18.283  23.081  1.00  0.00     0.178 C 
ATOM     23  C   UNL A   1      33.538  17.683  25.754  1.00  0.00     0.283 C 
ATOM     24  C   UNL A   1      33.589  17.157  23.400  1.00  0.00     0.283 C 
ATOM     25  N   UNL A   1      33.417  16.591  24.760  1.00  0.00    -0.334 N 
ATOM     26  C   UNL A   1      34.406  15.548  25.019  1.00  0.00     0.332 C 
ATOM     27  H   UNL A   1      32.492  16.165  24.832  1.00  0.00     0.347 HD
ENDBRANCH  12  20
ENDBRANCH   5   7
ENDBRANCH   4   5
ENDBRANCH   3   4
ENDBRANCH   2   3
ENDBRANCH   1   2
BRANCH   1  28
ATOM     28  C   UNL A   1      40.984  21.511  26.773  1.00  0.00     0.202 C 
BRANCH  28  29
ATOM     29  C   UNL A   1      41.879  22.533  26.058  1.00  0.00     0.261 C 
BRANCH  29  30
ATOM     30  O   UNL A   1      42.466  23.527  26.912  1.00  0.00    -0.460 OA
BRANCH  30  31
ATOM     31  C   UNL A   1      42.562  24.753  26.335  1.00  0.00     0.338 C 
ATOM     32  O   UNL A   1      43.000  25.007  25.223  1.00  0.00    -0.246 OA
BRANCH  31  33
ATOM     33  C   UNL A   1      41.926  25.788  27.167  1.00  0.00     0.060 A 
ATOM     34  C   UNL A   1      42.620  26.991  27.339  1.00  0.00     0.016 A 
ATOM     35  C   UNL A   1      40.770  25.519  27.902  1.00  0.00     0.016 A 
ATOM     36  C   UNL A   1      42.193  27.907  28.298  1.00  0.00     0.010 A 
ATOM     37  C   UNL A   1      40.349  26.439  28.871  1.00  0.00     0.010 A 
ATOM     38  C   UNL A   1      41.085  27.613  29.103  1.00  0.00    -0.014 A 
BRANCH  38  39
ATOM     39  C   UNL A   1      40.814  28.482  30.275  1.00  0.00     0.031 A 
ATOM     40  C   UNL A   1      41.664  28.340  31.510  1.00  0.00     0.074 A 
ATOM     41  C   UNL A   1      39.871  29.438  30.207  1.00  0.00     0.049 A 
ATOM     42  N   UNL A   1      41.665  29.062  32.602  1.00  0.00    -0.248 NA
ATOM     43  C   UNL A   1      42.645  27.244  31.515  1.00  0.00     0.031 C 
ATOM     44  C   UNL A   1      38.990  29.674  29.065  1.00  0.00     0.029 A 
ATOM     45  N   UNL A   1      39.505  30.394  31.120  1.00  0.00    -0.354 N 
ATOM     46  C   UNL A   1      42.643  28.510  33.422  1.00  0.00     0.074 A 
ATOM     47  C   UNL A   1      43.196  27.376  32.714  1.00  0.00     0.031 C 
ATOM     48  C   UNL A   1      38.182  30.711  29.346  1.00  0.00     0.029 A 
ATOM     49  C   UNL A   1      38.483  31.204  30.688  1.00  0.00     0.049 A 
ATOM     50  H   UNL A   1      39.933  30.491  32.001  1.00  0.00     0.167 HD
ATOM     51  C   UNL A   1      43.051  28.919  34.647  1.00  0.00     0.037 A 
ATOM     52  C   UNL A   1      37.861  32.228  31.307  1.00  0.00     0.037 A 
ATOM     53  C   UNL A   1      42.506  30.054  35.346  1.00  0.00     0.049 A 
ATOM     54  C   UNL A   1      38.325  32.655  32.675  1.00  0.00     0.074 A 
ATOM     55  C   UNL A   1      42.882  30.575  36.572  1.00  0.00     0.029 A 
ATOM     56  N   UNL A   1      41.459  30.839  34.884  1.00  0.00    -0.354 N 
ATOM     57  N   UNL A   1      39.290  32.159  33.411  1.00  0.00    -0.248 NA
ATOM     58  C   UNL A   1      37.622  33.790  33.288  1.00  0.00     0.031 C 
ATOM     59  C   UNL A   1      42.037  31.650  36.870  1.00  0.00     0.029 A 
ATOM     60  C   UNL A   1      41.159  31.823  35.812  1.00  0.00     0.049 A 
ATOM     61  H   UNL A   1      40.996  30.714  34.024  1.00  0.00     0.167 HD
ATOM     62  C   UNL A   1      39.319  32.929  34.570  1.00  0.00     0.074 A 
ATOM     63  C   UNL A   1      38.288  33.938  34.425  1.00  0.00     0.031 C 
ATOM     64  C   UNL A   1      40.122  32.812  35.657  1.00  0.00     0.037 A 
BRANCH  51  65
ATOM     65  C   UNL A   1      44.136  28.126  35.320  1.00  0.00     0.058 A 
ATOM     66  C   UNL A   1      45.493  28.446  35.158  1.00  0.00     0.135 A 
ATOM     67  C   UNL A   1      43.812  27.058  36.172  1.00  0.00     0.135 A 
ATOM     68  F   UNL A   1      45.859  29.448  34.342  1.00  0.00    -0.206 F 
ATOM     69  C   UNL A   1      46.492  27.722  35.802  1.00  0.00     0.059 A 
ATOM     70  C   UNL A   1      44.792  26.334  36.841  1.00  0.00     0.059 A 
ATOM     71  F   UNL A   1      42.529  26.710  36.359  1.00  0.00    -0.206 F 
ATOM     72  C   UNL A   1      46.132  26.666  36.641  1.00  0.00     0.060 A 
BRANCH  72  73
ATOM     73  S   UNL A   1      47.437  25.742  37.481  1.00  0.00     0.124 S 
ATOM     74  O   UNL A   1      48.405  26.798  37.764  1.00  0.00    -0.237 OA
ATOM     75  O   UNL A   1      46.739  25.197  38.641  1.00  0.00    -0.237 OA
ATOM     76  O   UNL A   1      47.854  24.760  36.485  1.00  0.00    -0.744 OA
ENDBRANCH  72  73
ENDBRANCH  51  65
BRANCH  52  77
ATOM     77  C   UNL A   1      36.732  32.920  30.635  1.00  0.00     0.058 A 
ATOM     78  C   UNL A   1      35.400  32.591  30.922  1.00  0.00     0.135 A 
ATOM     79  C   UNL A   1      36.969  33.930  29.690  1.00  0.00     0.135 A 
ATOM     80  F   UNL A   1      35.124  31.626  31.811  1.00  0.00    -0.206 F 
ATOM     81  C   UNL A   1      34.340  33.229  30.285  1.00  0.00     0.059 A 
ATOM     82  C   UNL A   1      35.926  34.598  29.057  1.00  0.00     0.059 A 
ATOM     83  F   UNL A   1      38.227  34.287  29.388  1.00  0.00    -0.206 F 
ATOM     84  C   UNL A   1      34.613  34.233  29.354  1.00  0.00     0.060 A 
BRANCH  84  85
ATOM     85  S   UNL A   1      33.232  35.090  28.567  1.00  0.00     0.124 S 
ATOM     86  O   UNL A   1      32.600  34.007  27.822  1.00  0.00    -0.237 OA
ATOM     87  O   UNL A   1      32.486  35.596  29.714  1.00  0.00    -0.237 OA
ATOM     88  O   UNL A   1      33.891  36.113  27.759  1.00  0.00    -0.744 OA
ENDBRANCH  84  85
ENDBRANCH  52  77
BRANCH  64  89
ATOM     89  C   UNL A   1      39.920  33.806  36.767  1.00  0.00     0.058 A 
ATOM     90  C   UNL A   1      40.608  35.030  36.789  1.00  0.00     0.135 A 
ATOM     91  C   UNL A   1      39.020  33.539  37.810  1.00  0.00     0.135 A 
ATOM     92  F   UNL A   1      41.482  35.330  35.816  1.00  0.00    -0.206 F 
ATOM     93  C   UNL A   1      40.437  35.940  37.827  1.00  0.00     0.059 A 
ATOM     94  C   UNL A   1      38.815  34.447  38.846  1.00  0.00     0.059 A 
ATOM     95  F   UNL A   1      38.326  32.390  37.830  1.00  0.00    -0.206 F 
ATOM     96  C   UNL A   1      39.543  35.637  38.855  1.00  0.00     0.060 A 
BRANCH  96  97
ATOM     97  S   UNL A   1      39.327  36.822  40.199  1.00  0.00     0.124 S 
ATOM     98  O   UNL A   1      40.704  37.015  40.643  1.00  0.00    -0.237 OA
ATOM     99  O   UNL A   1      38.714  37.961  39.523  1.00  0.00    -0.237 OA
ATOM    100  O   UNL A   1      38.458  36.116  41.136  1.00  0.00    -0.744 OA
ENDBRANCH  96  97
ENDBRANCH  64  89
ENDBRANCH  38  39
ENDBRANCH  31  33
ENDBRANCH  30  31
ENDBRANCH  29  30
ENDBRANCH  28  29
ENDBRANCH   1  28
TORSDOF 21
ENDMDL
MODEL 3
REMARK VINA RESULT:     -10.7      6.573     12.271
REMARK SMILES CCS(=O)(=O)Nc1ccc(N2CC[NH+](C)CC2)cc1C(=O)OCCOCCOC(=O)c1ccc(-c2c3nc(c(-c4c(F)cc(S(=O)(=O)[O-])cc4F)c4ccc([nH]4)c(-c4c(F)cc(S(=O)(=O)[O-])cc4F)c4nc(c(-c5c(F)cc(S(=O)(=O)[O-])cc5F)c5ccc2[nH]5)C=C4)C=C3)cc1
REMARK SMILES IDX 25 1 24 2 23 3 22 4 20 5 21 6 19 7 7 8 8 9 9 10 18 11 10 12
REMARK SMILES IDX 6 13 3 15 4 16 5 17 2 18 1 19 11 20 12 21 17 22 13 23 16 24
REMARK SMILES IDX 14 25 15 26 26 28 27 29 28 30 29 31 30 32 31 33 32 34 96 35
REMARK SMILES IDX 33 36 95 37 34 38 35 39 36 40 89 41 37 42 94 43 88 44 90 45
REMARK SMILES IDX 38 46 93 47 87 48 86 49 39 51 73 52 52 53 72 54 53 55 56 56
REMARK SMILES IDX 71 57 91 58 54 59 55 60 70 62 92 63 57 64 40 65 41 66 50 67
REMARK SMILES IDX 42 68 43 69 49 70 51 71 44 72 45 73 46 74 47 75 48 76 74 77
REMARK SMILES IDX 75 78 84 79 76 80 77 81 83 82 85 83 78 84 79 85 80 86 81 87
REMARK SMILES IDX 82 88 58 89 59 90 68 91 60 92 61 93 67 94 69 95 62 96 63 97
REMARK SMILES IDX 64 98 65 99 66 100
REMARK H PARENT 6 14 14 27 90 50 56 61
REMARK Flexibility Score: inf
ROOT
ATOM      1  O   UNL A   1      38.026  21.666  24.926  1.00  0.00    -0.374 OA
ENDROOT
BRANCH   1   2
ATOM      2  C   UNL A   1      36.829  22.430  24.864  1.00  0.00     0.202 C 
BRANCH   2   3
ATOM      3  C   UNL A   1      35.987  22.615  26.129  1.00  0.00     0.261 C 
BRANCH   3   4
ATOM      4  O   UNL A   1      35.094  21.535  26.434  1.00  0.00    -0.460 OA
BRANCH   4   5
ATOM      5  C   UNL A   1      33.837  21.928  26.755  1.00  0.00     0.340 C 
ATOM      6  O   UNL A   1      33.338  21.931  27.870  1.00  0.00    -0.246 OA
BRANCH   5   7
ATOM      7  C   UNL A   1      33.085  22.374  25.562  1.00  0.00     0.086 A 
ATOM      8  C   UNL A   1      32.974  21.611  24.391  1.00  0.00     0.063 A 
ATOM      9  C   UNL A   1      32.076  22.016  23.406  1.00  0.00     0.030 A 
ATOM     10  C   UNL A   1      31.335  23.200  23.578  1.00  0.00     0.028 A 
ATOM     11  C   UNL A   1      32.353  23.562  25.707  1.00  0.00     0.043 A 
ATOM     12  C   UNL A   1      31.479  24.008  24.717  1.00  0.00     0.038 A 
BRANCH   8  13
ATOM     13  N   UNL A   1      33.802  20.473  24.186  1.00  0.00    -0.283 N 
ATOM     14  H   UNL A   1      34.687  20.622  23.780  1.00  0.00     0.180 HD
BRANCH  13  15
ATOM     15  S   UNL A   1      33.394  18.912  24.579  1.00  0.00     0.232 S 
ATOM     16  O   UNL A   1      32.182  19.055  25.355  1.00  0.00    -0.207 OA
ATOM     17  O   UNL A   1      34.575  18.300  25.156  1.00  0.00    -0.207 OA
BRANCH  15  18
ATOM     18  C   UNL A   1      32.989  17.981  23.102  1.00  0.00     0.156 C 
ATOM     19  C   UNL A   1      33.863  16.794  22.778  1.00  0.00     0.023 C 
ENDBRANCH  15  18
ENDBRANCH  13  15
ENDBRANCH   8  13
BRANCH  12  20
ATOM     20  N   UNL A   1      30.783  25.185  24.866  1.00  0.00    -0.360 N 
ATOM     21  C   UNL A   1      29.863  25.699  23.839  1.00  0.00     0.178 C 
ATOM     22  C   UNL A   1      31.089  26.118  25.956  1.00  0.00     0.178 C 
ATOM     23  C   UNL A   1      30.311  27.089  23.329  1.00  0.00     0.283 C 
ATOM     24  C   UNL A   1      31.520  27.493  25.378  1.00  0.00     0.283 C 
ATOM     25  N   UNL A   1      30.529  28.056  24.430  1.00  0.00    -0.334 N 
ATOM     26  C   UNL A   1      30.984  29.340  23.902  1.00  0.00     0.332 C 
ATOM     27  H   UNL A   1      29.649  28.219  24.921  1.00  0.00     0.347 HD
ENDBRANCH  12  20
ENDBRANCH   5   7
ENDBRANCH   4   5
ENDBRANCH   3   4
ENDBRANCH   2   3
ENDBRANCH   1   2
BRANCH   1  28
ATOM     28  C   UNL A   1      37.947  20.251  25.053  1.00  0.00     0.202 C 
BRANCH  28  29
ATOM     29  C   UNL A   1      39.134  19.456  25.612  1.00  0.00     0.261 C 
BRANCH  29  30
ATOM     30  O   UNL A   1      40.078  20.227  26.372  1.00  0.00    -0.460 OA
BRANCH  30  31
ATOM     31  C   UNL A   1      41.371  19.865  26.165  1.00  0.00     0.338 C 
ATOM     32  O   UNL A   1      41.770  18.798  25.722  1.00  0.00    -0.246 OA
BRANCH  31  33
ATOM     33  C   UNL A   1      42.287  20.991  26.405  1.00  0.00     0.060 A 
ATOM     34  C   UNL A   1      42.489  21.384  27.734  1.00  0.00     0.016 A 
ATOM     35  C   UNL A   1      42.792  21.754  25.350  1.00  0.00     0.016 A 
ATOM     36  C   UNL A   1      43.146  22.580  28.011  1.00  0.00     0.010 A 
ATOM     37  C   UNL A   1      43.445  22.961  25.633  1.00  0.00     0.010 A 
ATOM     38  C   UNL A   1      43.583  23.399  26.962  1.00  0.00    -0.014 A 
BRANCH  38  39
ATOM     39  C   UNL A   1      44.043  24.773  27.283  1.00  0.00     0.031 A 
ATOM     40  C   UNL A   1      45.484  25.141  27.050  1.00  0.00     0.074 A 
ATOM     41  C   UNL A   1      43.166  25.701  27.704  1.00  0.00     0.049 A 
ATOM     42  N   UNL A   1      46.070  26.306  27.165  1.00  0.00    -0.248 NA
ATOM     43  C   UNL A   1      46.384  24.056  26.627  1.00  0.00     0.031 C 
ATOM     44  C   UNL A   1      41.746  25.465  27.962  1.00  0.00     0.029 A 
ATOM     45  N   UNL A   1      43.342  27.033  27.982  1.00  0.00    -0.354 N 
ATOM     46  C   UNL A   1      47.403  26.095  26.829  1.00  0.00     0.074 A 
ATOM     47  C   UNL A   1      47.547  24.687  26.533  1.00  0.00     0.031 C 
ATOM     48  C   UNL A   1      41.179  26.616  28.361  1.00  0.00     0.029 A 
ATOM     49  C   UNL A   1      42.196  27.665  28.396  1.00  0.00     0.049 A 
ATOM     50  H   UNL A   1      44.209  27.492  27.893  1.00  0.00     0.167 HD
ATOM     51  C   UNL A   1      48.412  26.997  26.762  1.00  0.00     0.037 A 
ATOM     52  C   UNL A   1      41.991  28.946  28.761  1.00  0.00     0.037 A 
ATOM     53  C   UNL A   1      48.265  28.400  27.049  1.00  0.00     0.049 A 
ATOM     54  C   UNL A   1      43.132  29.926  28.691  1.00  0.00     0.074 A 
ATOM     55  C   UNL A   1      49.218  29.402  26.967  1.00  0.00     0.029 A 
ATOM     56  N   UNL A   1      47.093  29.001  27.484  1.00  0.00    -0.354 N 
ATOM     57  N   UNL A   1      44.372  29.724  28.314  1.00  0.00    -0.248 NA
ATOM     58  C   UNL A   1      42.840  31.313  29.082  1.00  0.00     0.031 C 
ATOM     59  C   UNL A   1      48.631  30.601  27.390  1.00  0.00     0.029 A 
ATOM     60  C   UNL A   1      47.304  30.353  27.699  1.00  0.00     0.049 A 
ATOM     61  H   UNL A   1      46.236  28.534  27.619  1.00  0.00     0.167 HD
ATOM     62  C   UNL A   1      45.006  30.958  28.412  1.00  0.00     0.074 A 
ATOM     63  C   UNL A   1      44.005  31.906  28.861  1.00  0.00     0.031 C 
ATOM     64  C   UNL A   1      46.299  31.280  28.156  1.00  0.00     0.037 A 
BRANCH  51  65
ATOM     65  C   UNL A   1      49.773  26.491  26.374  1.00  0.00     0.058 A 
ATOM     66  C   UNL A   1      50.255  26.602  25.060  1.00  0.00     0.135 A 
ATOM     67  C   UNL A   1      50.623  25.924  27.337  1.00  0.00     0.135 A 
ATOM     68  F   UNL A   1      49.477  27.121  24.096  1.00  0.00    -0.206 F 
ATOM     69  C   UNL A   1      51.525  26.152  24.711  1.00  0.00     0.059 A 
ATOM     70  C   UNL A   1      51.904  25.487  27.016  1.00  0.00     0.059 A 
ATOM     71  F   UNL A   1      50.209  25.793  28.608  1.00  0.00    -0.206 F 
ATOM     72  C   UNL A   1      52.342  25.595  25.696  1.00  0.00     0.060 A 
BRANCH  72  73
ATOM     73  S   UNL A   1      53.993  25.026  25.233  1.00  0.00     0.124 S 
ATOM     74  O   UNL A   1      54.749  25.310  26.449  1.00  0.00    -0.237 OA
ATOM     75  O   UNL A   1      53.768  23.614  24.943  1.00  0.00    -0.237 OA
ATOM     76  O   UNL A   1      54.327  25.855  24.079  1.00  0.00    -0.744 OA
ENDBRANCH  72  73
ENDBRANCH  51  65
BRANCH  52  77
ATOM     77  C   UNL A   1      40.647  29.376  29.226  1.00  0.00     0.058 A 
ATOM     78  C   UNL A   1      39.584  29.545  28.328  1.00  0.00     0.135 A 
ATOM     79  C   UNL A   1      40.402  29.625  30.585  1.00  0.00     0.135 A 
ATOM     80  F   UNL A   1      39.772  29.328  27.017  1.00  0.00    -0.206 F 
ATOM     81  C   UNL A   1      38.327  29.960  28.758  1.00  0.00     0.059 A 
ATOM     82  C   UNL A   1      39.149  30.018  31.043  1.00  0.00     0.059 A 
ATOM     83  F   UNL A   1      41.385  29.469  31.485  1.00  0.00    -0.206 F 
ATOM     84  C   UNL A   1      38.119  30.193  30.118  1.00  0.00     0.060 A 
BRANCH  84  85
ATOM     85  S   UNL A   1      36.473  30.684  30.676  1.00  0.00     0.124 S 
ATOM     86  O   UNL A   1      35.980  29.443  31.263  1.00  0.00    -0.237 OA
ATOM     87  O   UNL A   1      36.772  31.759  31.616  1.00  0.00    -0.237 OA
ATOM     88  O   UNL A   1      35.814  31.106  29.443  1.00  0.00    -0.744 OA
ENDBRANCH  84  85
ENDBRANCH  52  77
BRANCH  64  89
ATOM     89  C   UNL A   1      46.698  32.717  28.349  1.00  0.00     0.058 A 
ATOM     90  C   UNL A   1      46.500  33.673  27.341  1.00  0.00     0.135 A 
ATOM     91  C   UNL A   1      47.268  33.145  29.558  1.00  0.00     0.135 A 
ATOM     92  F   UNL A   1      45.962  33.314  26.165  1.00  0.00    -0.206 F 
ATOM     93  C   UNL A   1      46.888  34.999  27.511  1.00  0.00     0.059 A 
ATOM     94  C   UNL A   1      47.640  34.471  29.759  1.00  0.00     0.059 A 
ATOM     95  F   UNL A   1      47.465  32.274  30.560  1.00  0.00    -0.206 F 
ATOM     96  C   UNL A   1      47.464  35.387  28.722  1.00  0.00     0.060 A 
BRANCH  96  97
ATOM     97  S   UNL A   1      47.966  37.107  28.935  1.00  0.00     0.124 S 
ATOM     98  O   UNL A   1      47.570  37.688  27.656  1.00  0.00    -0.237 OA
ATOM     99  O   UNL A   1      47.181  37.526  30.092  1.00  0.00    -0.237 OA
ATOM    100  O   UNL A   1      49.405  37.014  29.164  1.00  0.00    -0.744 OA
ENDBRANCH  96  97
ENDBRANCH  64  89
ENDBRANCH  38  39
ENDBRANCH  31  33
ENDBRANCH  30  31
ENDBRANCH  29  30
ENDBRANCH  28  29
ENDBRANCH   1  28
TORSDOF 21
ENDMDL
