MODEL 1
REMARK VINA RESULT:     -11.4      0.000      0.000
REMARK SMILES O=C(OCCOCCOC(=O)c1ccc(-c2ccc(Cl)c3ccccc23)o1)c1ccc(-c2c3nc(c(-c4c(F)cc(S(=O)(=O)[O-])cc4F)c4ccc([nH]4)c(-c4c(F)cc(S(=O)(=O)[O-])cc4F)c4nc(c(-c5c(F)cc(S(=O)(=O)[O-])cc5F)c5ccc2[nH]5)C=C4)C=C3)cc1
REMARK SMILES IDX 5 1 4 2 3 3 2 4 1 5 28 6 29 7 93 8 30 9 92 10 31 11 32 12
REMARK SMILES IDX 33 13 86 14 34 15 91 16 85 17 87 18 35 19 90 20 84 21 83 22
REMARK SMILES IDX 36 24 70 25 49 26 69 27 50 28 53 29 68 30 88 31 51 32 52 33
REMARK SMILES IDX 67 35 89 36 54 37 37 38 38 39 47 40 39 41 40 42 46 43 48 44
REMARK SMILES IDX 41 45 42 46 43 47 44 48 45 49 71 50 72 51 81 52 73 53 74 54
REMARK SMILES IDX 80 55 82 56 75 57 76 58 77 59 78 60 79 61 55 62 56 63 65 64
REMARK SMILES IDX 57 65 58 66 64 67 66 68 59 69 60 70 61 71 62 72 63 73 6 74
REMARK SMILES IDX 7 75 8 76 9 77 10 78 11 79 12 80 13 81 27 82 14 83 15 84
REMARK SMILES IDX 16 85 17 86 26 87 18 88 21 89 25 90 19 91 22 92 24 93 20 94
REMARK SMILES IDX 23 95
REMARK H PARENT 87 23 53 34
REMARK Flexibility Score: inf
ROOT
ATOM      1  C   UNL A   1      31.758  28.920  25.946  1.00  0.00     0.202 C 
ENDROOT
BRANCH   1   2
ATOM      2  C   UNL A   1      32.039  29.825  27.146  1.00  0.00     0.261 C 
BRANCH   2   3
ATOM      3  O   UNL A   1      33.366  29.570  27.641  1.00  0.00    -0.460 OA
BRANCH   3   4
ATOM      4  C   UNL A   1      34.308  30.448  28.050  1.00  0.00     0.338 C 
ATOM      5  O   UNL A   1      33.985  31.627  28.181  1.00  0.00    -0.246 OA
BRANCH   4   6
ATOM      6  C   UNL A   1      35.724  30.074  28.362  1.00  0.00     0.060 A 
ATOM      7  C   UNL A   1      36.189  29.626  29.601  1.00  0.00     0.016 A 
ATOM      8  C   UNL A   1      36.625  30.079  27.284  1.00  0.00     0.016 A 
ATOM      9  C   UNL A   1      37.519  29.256  29.788  1.00  0.00     0.010 A 
ATOM     10  C   UNL A   1      37.952  29.673  27.454  1.00  0.00     0.010 A 
ATOM     11  C   UNL A   1      38.405  29.277  28.716  1.00  0.00    -0.014 A 
BRANCH  11  12
ATOM     12  C   UNL A   1      39.823  28.944  28.943  1.00  0.00     0.031 A 
ATOM     13  C   UNL A   1      40.728  29.995  29.503  1.00  0.00     0.074 A 
ATOM     14  C   UNL A   1      40.268  27.702  28.683  1.00  0.00     0.049 A 
ATOM     15  N   UNL A   1      42.016  29.952  29.710  1.00  0.00    -0.248 NA
ATOM     16  C   UNL A   1      40.094  31.267  29.885  1.00  0.00     0.031 C 
ATOM     17  C   UNL A   1      39.438  26.597  28.199  1.00  0.00     0.029 A 
ATOM     18  N   UNL A   1      41.521  27.161  28.786  1.00  0.00    -0.354 N 
ATOM     19  C   UNL A   1      42.353  31.199  30.222  1.00  0.00     0.074 A 
ATOM     20  C   UNL A   1      41.136  31.976  30.291  1.00  0.00     0.031 C 
ATOM     21  C   UNL A   1      40.211  25.510  28.037  1.00  0.00     0.029 A 
ATOM     22  C   UNL A   1      41.592  25.857  28.359  1.00  0.00     0.049 A 
ATOM     23  H   UNL A   1      42.297  27.659  29.131  1.00  0.00     0.167 HD
ATOM     24  C   UNL A   1      43.575  31.651  30.585  1.00  0.00     0.037 A 
ATOM     25  C   UNL A   1      42.660  25.051  28.211  1.00  0.00     0.037 A 
ATOM     26  C   UNL A   1      44.772  30.862  30.489  1.00  0.00     0.049 A 
ATOM     27  C   UNL A   1      44.017  25.585  28.578  1.00  0.00     0.074 A 
ATOM     28  C   UNL A   1      46.072  31.221  30.788  1.00  0.00     0.029 A 
ATOM     29  N   UNL A   1      44.809  29.544  30.049  1.00  0.00    -0.354 N 
ATOM     30  N   UNL A   1      44.332  26.773  29.041  1.00  0.00    -0.248 NA
ATOM     31  C   UNL A   1      45.162  24.684  28.399  1.00  0.00     0.031 C 
ATOM     32  C   UNL A   1      46.900  30.130  30.497  1.00  0.00     0.029 A 
ATOM     33  C   UNL A   1      46.111  29.079  30.051  1.00  0.00     0.049 A 
ATOM     34  H   UNL A   1      44.022  29.020  29.775  1.00  0.00     0.167 HD
ATOM     35  C   UNL A   1      45.710  26.764  29.213  1.00  0.00     0.074 A 
ATOM     36  C   UNL A   1      46.168  25.445  28.817  1.00  0.00     0.031 C 
ATOM     37  C   UNL A   1      46.524  27.754  29.653  1.00  0.00     0.037 A 
BRANCH  24  38
ATOM     38  C   UNL A   1      43.655  33.079  31.043  1.00  0.00     0.058 A 
ATOM     39  C   UNL A   1      43.901  34.132  30.148  1.00  0.00     0.135 A 
ATOM     40  C   UNL A   1      43.567  33.385  32.410  1.00  0.00     0.135 A 
ATOM     41  F   UNL A   1      44.019  33.887  28.833  1.00  0.00    -0.206 F 
ATOM     42  C   UNL A   1      44.109  35.432  30.597  1.00  0.00     0.059 A 
ATOM     43  C   UNL A   1      43.752  34.683  32.880  1.00  0.00     0.059 A 
ATOM     44  F   UNL A   1      43.341  32.414  33.308  1.00  0.00    -0.206 F 
ATOM     45  C   UNL A   1      44.052  35.693  31.967  1.00  0.00     0.060 A 
BRANCH  45  46
ATOM     46  S   UNL A   1      44.410  37.364  32.551  1.00  0.00     0.124 S 
ATOM     47  O   UNL A   1      45.867  37.328  32.652  1.00  0.00    -0.237 OA
ATOM     48  O   UNL A   1      43.871  38.197  31.482  1.00  0.00    -0.237 OA
ATOM     49  O   UNL A   1      43.695  37.440  33.821  1.00  0.00    -0.744 OA
ENDBRANCH  45  46
ENDBRANCH  24  38
BRANCH  25  50
ATOM     50  C   UNL A   1      42.471  23.683  27.659  1.00  0.00     0.058 A 
ATOM     51  C   UNL A   1      42.431  23.452  26.278  1.00  0.00     0.135 A 
ATOM     52  C   UNL A   1      42.404  22.568  28.510  1.00  0.00     0.135 A 
ATOM     53  F   UNL A   1      42.482  24.485  25.423  1.00  0.00    -0.206 F 
ATOM     54  C   UNL A   1      42.345  22.163  25.758  1.00  0.00     0.059 A 
ATOM     55  C   UNL A   1      42.339  21.270  28.016  1.00  0.00     0.059 A 
ATOM     56  F   UNL A   1      42.450  22.736  29.842  1.00  0.00    -0.206 F 
ATOM     57  C   UNL A   1      42.310  21.076  26.635  1.00  0.00     0.060 A 
BRANCH  57  58
ATOM     58  S   UNL A   1      42.302  19.402  25.955  1.00  0.00     0.124 S 
ATOM     59  O   UNL A   1      43.293  19.513  24.891  1.00  0.00    -0.237 OA
ATOM     60  O   UNL A   1      42.694  18.598  27.109  1.00  0.00    -0.237 OA
ATOM     61  O   UNL A   1      40.922  19.225  25.519  1.00  0.00    -0.744 OA
ENDBRANCH  57  58
ENDBRANCH  25  50
BRANCH  37  62
ATOM     62  C   UNL A   1      47.990  27.453  29.743  1.00  0.00     0.058 A 
ATOM     63  C   UNL A   1      48.867  27.792  28.702  1.00  0.00     0.135 A 
ATOM     64  C   UNL A   1      48.535  26.929  30.926  1.00  0.00     0.135 A 
ATOM     65  F   UNL A   1      48.388  28.288  27.551  1.00  0.00    -0.206 F 
ATOM     66  C   UNL A   1      50.241  27.630  28.834  1.00  0.00     0.059 A 
ATOM     67  C   UNL A   1      49.908  26.774  31.085  1.00  0.00     0.059 A 
ATOM     68  F   UNL A   1      47.733  26.598  31.950  1.00  0.00    -0.206 F 
ATOM     69  C   UNL A   1      50.753  27.129  30.033  1.00  0.00     0.060 A 
BRANCH  69  70
ATOM     70  S   UNL A   1      52.543  27.010  30.230  1.00  0.00     0.124 S 
ATOM     71  O   UNL A   1      52.926  28.416  30.289  1.00  0.00    -0.237 OA
ATOM     72  O   UNL A   1      52.674  26.264  31.479  1.00  0.00    -0.237 OA
ATOM     73  O   UNL A   1      52.968  26.291  29.033  1.00  0.00    -0.744 OA
ENDBRANCH  69  70
ENDBRANCH  37  62
ENDBRANCH  11  12
ENDBRANCH   4   6
ENDBRANCH   3   4
ENDBRANCH   2   3
ENDBRANCH   1   2
BRANCH   1  74
ATOM     74  O   UNL A   1      32.264  29.429  24.713  1.00  0.00    -0.374 OA
BRANCH  74  75
ATOM     75  C   UNL A   1      31.647  28.927  23.523  1.00  0.00     0.202 C 
BRANCH  75  76
ATOM     76  C   UNL A   1      32.717  28.766  22.437  1.00  0.00     0.261 C 
BRANCH  76  77
ATOM     77  O   UNL A   1      33.711  27.847  22.920  1.00  0.00    -0.457 OA
BRANCH  77  78
ATOM     78  C   UNL A   1      33.571  26.569  22.454  1.00  0.00     0.374 C 
ATOM     79  O   UNL A   1      33.541  26.249  21.273  1.00  0.00    -0.242 OA
BRANCH  78  80
ATOM     80  C   UNL A   1      33.604  25.673  23.585  1.00  0.00     0.212 A 
ATOM     81  C   UNL A   1      33.764  25.907  24.941  1.00  0.00     0.059 A 
ATOM     82  O   UNL A   1      33.587  24.321  23.358  1.00  0.00    -0.449 OA
ATOM     83  C   UNL A   1      33.878  24.643  25.563  1.00  0.00     0.052 A 
ATOM     84  C   UNL A   1      33.785  23.708  24.555  1.00  0.00     0.135 A 
BRANCH  84  85
ATOM     85  C   UNL A   1      33.843  22.255  24.539  1.00  0.00     0.025 A 
ATOM     86  C   UNL A   1      32.621  21.571  24.508  1.00  0.00     0.014 A 
ATOM     87  C   UNL A   1      35.072  21.541  24.630  1.00  0.00    -0.006 A 
ATOM     88  C   UNL A   1      32.589  20.187  24.621  1.00  0.00     0.022 A 
ATOM     89  C   UNL A   1      35.040  20.125  24.759  1.00  0.00     0.001 A 
ATOM     90  C   UNL A   1      36.337  22.180  24.597  1.00  0.00     0.009 A 
ATOM     91  C   UNL A   1      33.780  19.473  24.763  1.00  0.00     0.048 A 
ATOM     92  C   UNL A   1      36.269  19.430  24.878  1.00  0.00     0.010 A 
ATOM     93  C   UNL A   1      37.532  21.466  24.698  1.00  0.00     0.001 A 
ATOM     94  Cl  UNL A   1      33.628  17.755  24.954  1.00  0.00    -0.084 Cl
ATOM     95  C   UNL A   1      37.497  20.090  24.848  1.00  0.00     0.001 A 
ENDBRANCH  84  85
ENDBRANCH  78  80
ENDBRANCH  77  78
ENDBRANCH  76  77
ENDBRANCH  75  76
ENDBRANCH  74  75
ENDBRANCH   1  74
TORSDOF 18
ENDMDL
MODEL 2
REMARK VINA RESULT:     -11.2      2.577      3.734
REMARK SMILES O=C(OCCOCCOC(=O)c1ccc(-c2ccc(Cl)c3ccccc23)o1)c1ccc(-c2c3nc(c(-c4c(F)cc(S(=O)(=O)[O-])cc4F)c4ccc([nH]4)c(-c4c(F)cc(S(=O)(=O)[O-])cc4F)c4nc(c(-c5c(F)cc(S(=O)(=O)[O-])cc5F)c5ccc2[nH]5)C=C4)C=C3)cc1
REMARK SMILES IDX 5 1 4 2 3 3 2 4 1 5 28 6 29 7 93 8 30 9 92 10 31 11 32 12
REMARK SMILES IDX 33 13 86 14 34 15 91 16 85 17 87 18 35 19 90 20 84 21 83 22
REMARK SMILES IDX 36 24 70 25 49 26 69 27 50 28 53 29 68 30 88 31 51 32 52 33
REMARK SMILES IDX 67 35 89 36 54 37 37 38 38 39 47 40 39 41 40 42 46 43 48 44
REMARK SMILES IDX 41 45 42 46 43 47 44 48 45 49 71 50 72 51 81 52 73 53 74 54
REMARK SMILES IDX 80 55 82 56 75 57 76 58 77 59 78 60 79 61 55 62 56 63 65 64
REMARK SMILES IDX 57 65 58 66 64 67 66 68 59 69 60 70 61 71 62 72 63 73 6 74
REMARK SMILES IDX 7 75 8 76 9 77 10 78 11 79 12 80 13 81 27 82 14 83 15 84
REMARK SMILES IDX 16 85 17 86 26 87 18 88 21 89 25 90 19 91 22 92 24 93 20 94
REMARK SMILES IDX 23 95
REMARK H PARENT 87 23 53 34
REMARK Flexibility Score: inf
ROOT
ATOM      1  C   UNL A   1      34.970  32.338  28.003  1.00  0.00     0.202 C 
ENDROOT
BRANCH   1   2
ATOM      2  C   UNL A   1      34.787  32.207  29.516  1.00  0.00     0.261 C 
BRANCH   2   3
ATOM      3  O   UNL A   1      36.048  31.881  30.126  1.00  0.00    -0.460 OA
BRANCH   3   4
ATOM      4  C   UNL A   1      36.587  30.668  30.381  1.00  0.00     0.338 C 
ATOM      5  O   UNL A   1      35.936  29.876  31.059  1.00  0.00    -0.246 OA
BRANCH   4   6
ATOM      6  C   UNL A   1      37.927  30.225  29.882  1.00  0.00     0.060 A 
ATOM      7  C   UNL A   1      38.297  30.118  28.540  1.00  0.00     0.016 A 
ATOM      8  C   UNL A   1      38.914  29.999  30.857  1.00  0.00     0.016 A 
ATOM      9  C   UNL A   1      39.584  29.739  28.168  1.00  0.00     0.010 A 
ATOM     10  C   UNL A   1      40.219  29.655  30.493  1.00  0.00     0.010 A 
ATOM     11  C   UNL A   1      40.551  29.507  29.143  1.00  0.00    -0.014 A 
BRANCH  11  12
ATOM     12  C   UNL A   1      41.890  29.044  28.737  1.00  0.00     0.031 A 
ATOM     13  C   UNL A   1      43.016  30.030  28.715  1.00  0.00     0.074 A 
ATOM     14  C   UNL A   1      42.087  27.749  28.433  1.00  0.00     0.049 A 
ATOM     15  N   UNL A   1      44.249  29.867  28.320  1.00  0.00    -0.248 NA
ATOM     16  C   UNL A   1      42.710  31.382  29.210  1.00  0.00     0.031 C 
ATOM     17  C   UNL A   1      41.060  26.707  28.494  1.00  0.00     0.029 A 
ATOM     18  N   UNL A   1      43.211  27.090  28.013  1.00  0.00    -0.354 N 
ATOM     19  C   UNL A   1      44.861  31.102  28.493  1.00  0.00     0.074 A 
ATOM     20  C   UNL A   1      43.864  32.004  29.025  1.00  0.00     0.031 C 
ATOM     21  C   UNL A   1      41.601  25.539  28.113  1.00  0.00     0.029 A 
ATOM     22  C   UNL A   1      42.995  25.761  27.737  1.00  0.00     0.049 A 
ATOM     23  H   UNL A   1      44.088  27.526  27.917  1.00  0.00     0.167 HD
ATOM     24  C   UNL A   1      46.140  31.448  28.216  1.00  0.00     0.037 A 
ATOM     25  C   UNL A   1      43.822  24.841  27.207  1.00  0.00     0.037 A 
ATOM     26  C   UNL A   1      47.106  30.535  27.671  1.00  0.00     0.049 A 
ATOM     27  C   UNL A   1      45.227  25.254  26.863  1.00  0.00     0.074 A 
ATOM     28  C   UNL A   1      48.418  30.776  27.310  1.00  0.00     0.029 A 
ATOM     29  N   UNL A   1      46.853  29.195  27.399  1.00  0.00    -0.354 N 
ATOM     30  N   UNL A   1      45.793  26.430  27.008  1.00  0.00    -0.248 NA
ATOM     31  C   UNL A   1      46.102  24.231  26.279  1.00  0.00     0.031 C 
ATOM     32  C   UNL A   1      48.949  29.589  26.790  1.00  0.00     0.029 A 
ATOM     33  C   UNL A   1      47.978  28.600  26.860  1.00  0.00     0.049 A 
ATOM     34  H   UNL A   1      45.997  28.739  27.567  1.00  0.00     0.167 HD
ATOM     35  C   UNL A   1      47.092  26.290  26.538  1.00  0.00     0.074 A 
ATOM     36  C   UNL A   1      47.233  24.909  26.115  1.00  0.00     0.031 C 
ATOM     37  C   UNL A   1      48.079  27.217  26.457  1.00  0.00     0.037 A 
BRANCH  24  38
ATOM     38  C   UNL A   1      46.511  32.886  28.438  1.00  0.00     0.058 A 
ATOM     39  C   UNL A   1      46.951  33.354  29.685  1.00  0.00     0.135 A 
ATOM     40  C   UNL A   1      46.343  33.823  27.406  1.00  0.00     0.135 A 
ATOM     41  F   UNL A   1      47.103  32.501  30.712  1.00  0.00    -0.206 F 
ATOM     42  C   UNL A   1      47.161  34.709  29.920  1.00  0.00     0.059 A 
ATOM     43  C   UNL A   1      46.567  35.182  27.612  1.00  0.00     0.059 A 
ATOM     44  F   UNL A   1      45.917  33.429  26.197  1.00  0.00    -0.206 F 
ATOM     45  C   UNL A   1      46.947  35.617  28.881  1.00  0.00     0.060 A 
BRANCH  45  46
ATOM     46  S   UNL A   1      47.136  37.382  29.215  1.00  0.00     0.124 S 
ATOM     47  O   UNL A   1      45.903  37.916  28.643  1.00  0.00    -0.237 OA
ATOM     48  O   UNL A   1      47.226  37.422  30.670  1.00  0.00    -0.237 OA
ATOM     49  O   UNL A   1      48.361  37.732  28.503  1.00  0.00    -0.744 OA
ENDBRANCH  45  46
ENDBRANCH  24  38
BRANCH  25  50
ATOM     50  C   UNL A   1      43.315  23.469  26.944  1.00  0.00     0.058 A 
ATOM     51  C   UNL A   1      43.033  23.030  25.644  1.00  0.00     0.135 A 
ATOM     52  C   UNL A   1      43.177  22.541  27.990  1.00  0.00     0.135 A 
ATOM     53  F   UNL A   1      43.141  23.880  24.611  1.00  0.00    -0.206 F 
ATOM     54  C   UNL A   1      42.645  21.717  25.386  1.00  0.00     0.059 A 
ATOM     55  C   UNL A   1      42.811  21.220  27.757  1.00  0.00     0.059 A 
ATOM     56  F   UNL A   1      43.446  22.909  29.254  1.00  0.00    -0.206 F 
ATOM     57  C   UNL A   1      42.547  20.816  26.448  1.00  0.00     0.060 A 
BRANCH  57  58
ATOM     58  S   UNL A   1      42.143  19.090  26.098  1.00  0.00     0.124 S 
ATOM     59  O   UNL A   1      40.717  19.177  25.805  1.00  0.00    -0.237 OA
ATOM     60  O   UNL A   1      43.011  18.793  24.962  1.00  0.00    -0.237 OA
ATOM     61  O   UNL A   1      42.494  18.406  27.339  1.00  0.00    -0.744 OA
ENDBRANCH  57  58
ENDBRANCH  25  50
BRANCH  37  62
ATOM     62  C   UNL A   1      49.400  26.773  25.905  1.00  0.00     0.058 A 
ATOM     63  C   UNL A   1      49.740  27.001  24.564  1.00  0.00     0.135 A 
ATOM     64  C   UNL A   1      50.373  26.221  26.752  1.00  0.00     0.135 A 
ATOM     65  F   UNL A   1      48.838  27.520  23.717  1.00  0.00    -0.206 F 
ATOM     66  C   UNL A   1      51.010  26.705  24.081  1.00  0.00     0.059 A 
ATOM     67  C   UNL A   1      51.654  25.933  26.294  1.00  0.00     0.059 A 
ATOM     68  F   UNL A   1      50.092  25.992  28.045  1.00  0.00    -0.206 F 
ATOM     69  C   UNL A   1      51.963  26.180  24.957  1.00  0.00     0.060 A 
BRANCH  69  70
ATOM     70  S   UNL A   1      53.636  25.886  24.344  1.00  0.00     0.124 S 
ATOM     71  O   UNL A   1      53.437  25.965  22.901  1.00  0.00    -0.237 OA
ATOM     72  O   UNL A   1      54.387  26.985  24.942  1.00  0.00    -0.237 OA
ATOM     73  O   UNL A   1      53.958  24.561  24.865  1.00  0.00    -0.744 OA
ENDBRANCH  69  70
ENDBRANCH  37  62
ENDBRANCH  11  12
ENDBRANCH   4   6
ENDBRANCH   3   4
ENDBRANCH   2   3
ENDBRANCH   1   2
BRANCH   1  74
ATOM     74  O   UNL A   1      34.717  31.128  27.288  1.00  0.00    -0.374 OA
BRANCH  74  75
ATOM     75  C   UNL A   1      33.375  30.632  27.345  1.00  0.00     0.202 C 
BRANCH  75  76
ATOM     76  C   UNL A   1      33.412  29.099  27.365  1.00  0.00     0.261 C 
BRANCH  76  77
ATOM     77  O   UNL A   1      32.497  28.615  26.369  1.00  0.00    -0.457 OA
BRANCH  77  78
ATOM     78  C   UNL A   1      32.217  27.280  26.462  1.00  0.00     0.374 C 
ATOM     79  O   UNL A   1      31.364  26.787  27.189  1.00  0.00    -0.242 OA
BRANCH  78  80
ATOM     80  C   UNL A   1      33.000  26.588  25.466  1.00  0.00     0.212 A 
ATOM     81  C   UNL A   1      33.150  26.795  24.105  1.00  0.00     0.059 A 
ATOM     82  O   UNL A   1      33.664  25.443  25.826  1.00  0.00    -0.449 OA
ATOM     83  C   UNL A   1      33.914  25.714  23.608  1.00  0.00     0.052 A 
ATOM     84  C   UNL A   1      34.185  24.906  24.691  1.00  0.00     0.135 A 
BRANCH  84  85
ATOM     85  C   UNL A   1      34.906  23.652  24.838  1.00  0.00     0.025 A 
ATOM     86  C   UNL A   1      36.304  23.721  24.871  1.00  0.00     0.014 A 
ATOM     87  C   UNL A   1      34.242  22.392  24.869  1.00  0.00    -0.006 A 
ATOM     88  C   UNL A   1      37.064  22.559  24.880  1.00  0.00     0.022 A 
ATOM     89  C   UNL A   1      35.020  21.201  24.865  1.00  0.00     0.001 A 
ATOM     90  C   UNL A   1      32.830  22.267  24.906  1.00  0.00     0.009 A 
ATOM     91  C   UNL A   1      36.434  21.315  24.858  1.00  0.00     0.048 A 
ATOM     92  C   UNL A   1      34.346  19.954  24.866  1.00  0.00     0.010 A 
ATOM     93  C   UNL A   1      32.195  21.024  24.926  1.00  0.00     0.001 A 
ATOM     94  Cl  UNL A   1      37.473  19.926  24.814  1.00  0.00    -0.084 Cl
ATOM     95  C   UNL A   1      32.954  19.867  24.896  1.00  0.00     0.001 A 
ENDBRANCH  84  85
ENDBRANCH  78  80
ENDBRANCH  77  78
ENDBRANCH  76  77
ENDBRANCH  75  76
ENDBRANCH  74  75
ENDBRANCH   1  74
TORSDOF 18
ENDMDL
MODEL 3
REMARK VINA RESULT:     -11.2      5.108     10.222
REMARK SMILES O=C(OCCOCCOC(=O)c1ccc(-c2ccc(Cl)c3ccccc23)o1)c1ccc(-c2c3nc(c(-c4c(F)cc(S(=O)(=O)[O-])cc4F)c4ccc([nH]4)c(-c4c(F)cc(S(=O)(=O)[O-])cc4F)c4nc(c(-c5c(F)cc(S(=O)(=O)[O-])cc5F)c5ccc2[nH]5)C=C4)C=C3)cc1
REMARK SMILES IDX 5 1 4 2 3 3 2 4 1 5 28 6 29 7 93 8 30 9 92 10 31 11 32 12
REMARK SMILES IDX 33 13 86 14 34 15 91 16 85 17 87 18 35 19 90 20 84 21 83 22
REMARK SMILES IDX 36 24 70 25 49 26 69 27 50 28 53 29 68 30 88 31 51 32 52 33
REMARK SMILES IDX 67 35 89 36 54 37 37 38 38 39 47 40 39 41 40 42 46 43 48 44
REMARK SMILES IDX 41 45 42 46 43 47 44 48 45 49 71 50 72 51 81 52 73 53 74 54
REMARK SMILES IDX 80 55 82 56 75 57 76 58 77 59 78 60 79 61 55 62 56 63 65 64
REMARK SMILES IDX 57 65 58 66 64 67 66 68 59 69 60 70 61 71 62 72 63 73 6 74
REMARK SMILES IDX 7 75 8 76 9 77 10 78 11 79 12 80 13 81 27 82 14 83 15 84
REMARK SMILES IDX 16 85 17 86 26 87 18 88 21 89 25 90 19 91 22 92 24 93 20 94
REMARK SMILES IDX 23 95
REMARK H PARENT 87 23 53 34
REMARK Flexibility Score: inf
ROOT
ATOM      1  C   UNL A   1      43.946  22.529  25.427  1.00  0.00     0.202 C 
ENDROOT
BRANCH   1   2
ATOM      2  C   UNL A   1      43.452  23.927  25.054  1.00  0.00     0.261 C 
BRANCH   2   3
ATOM      3  O   UNL A   1      42.599  24.430  26.097  1.00  0.00    -0.460 OA
BRANCH   3   4
ATOM      4  C   UNL A   1      41.875  25.571  26.133  1.00  0.00     0.338 C 
ATOM      5  O   UNL A   1      41.404  25.992  25.079  1.00  0.00    -0.246 OA
BRANCH   4   6
ATOM      6  C   UNL A   1      41.605  26.353  27.381  1.00  0.00     0.060 A 
ATOM      7  C   UNL A   1      40.725  25.976  28.398  1.00  0.00     0.016 A 
ATOM      8  C   UNL A   1      42.384  27.506  27.578  1.00  0.00     0.016 A 
ATOM      9  C   UNL A   1      40.570  26.747  29.548  1.00  0.00     0.010 A 
ATOM     10  C   UNL A   1      42.263  28.265  28.746  1.00  0.00     0.010 A 
ATOM     11  C   UNL A   1      41.339  27.894  29.727  1.00  0.00    -0.014 A 
BRANCH  11  12
ATOM     12  C   UNL A   1      41.119  28.733  30.919  1.00  0.00     0.031 A 
ATOM     13  C   UNL A   1      39.995  29.721  30.905  1.00  0.00     0.074 A 
ATOM     14  C   UNL A   1      41.898  28.572  32.003  1.00  0.00     0.049 A 
ATOM     15  N   UNL A   1      39.666  30.611  31.801  1.00  0.00    -0.248 NA
ATOM     16  C   UNL A   1      39.123  29.701  29.720  1.00  0.00     0.031 C 
ATOM     17  C   UNL A   1      42.972  27.585  32.127  1.00  0.00     0.029 A 
ATOM     18  N   UNL A   1      41.909  29.233  33.202  1.00  0.00    -0.354 N 
ATOM     19  C   UNL A   1      38.564  31.276  31.279  1.00  0.00     0.074 A 
ATOM     20  C   UNL A   1      38.283  30.689  29.988  1.00  0.00     0.031 C 
ATOM     21  C   UNL A   1      43.546  27.714  33.334  1.00  0.00     0.029 A 
ATOM     22  C   UNL A   1      42.912  28.820  34.045  1.00  0.00     0.049 A 
ATOM     23  H   UNL A   1      41.261  29.937  33.436  1.00  0.00     0.167 HD
ATOM     24  C   UNL A   1      37.864  32.294  31.829  1.00  0.00     0.037 A 
ATOM     25  C   UNL A   1      43.295  29.309  35.240  1.00  0.00     0.037 A 
ATOM     26  C   UNL A   1      38.176  32.870  33.108  1.00  0.00     0.049 A 
ATOM     27  C   UNL A   1      42.532  30.471  35.817  1.00  0.00     0.074 A 
ATOM     28  C   UNL A   1      37.567  33.929  33.753  1.00  0.00     0.029 A 
ATOM     29  N   UNL A   1      39.203  32.430  33.936  1.00  0.00    -0.354 N 
ATOM     30  N   UNL A   1      41.504  31.109  35.307  1.00  0.00    -0.248 NA
ATOM     31  C   UNL A   1      42.979  30.985  37.116  1.00  0.00     0.031 C 
ATOM     32  C   UNL A   1      38.247  34.151  34.957  1.00  0.00     0.029 A 
ATOM     33  C   UNL A   1      39.256  33.206  35.078  1.00  0.00     0.049 A 
ATOM     34  H   UNL A   1      39.803  31.676  33.736  1.00  0.00     0.167 HD
ATOM     35  C   UNL A   1      41.177  32.099  36.224  1.00  0.00     0.074 A 
ATOM     36  C   UNL A   1      42.108  31.966  37.329  1.00  0.00     0.031 C 
ATOM     37  C   UNL A   1      40.198  33.036  36.159  1.00  0.00     0.037 A 
BRANCH  24  38
ATOM     38  C   UNL A   1      36.753  32.871  31.000  1.00  0.00     0.058 A 
ATOM     39  C   UNL A   1      36.996  33.803  29.980  1.00  0.00     0.135 A 
ATOM     40  C   UNL A   1      35.418  32.547  31.290  1.00  0.00     0.135 A 
ATOM     41  F   UNL A   1      38.255  34.166  29.681  1.00  0.00    -0.206 F 
ATOM     42  C   UNL A   1      35.953  34.435  29.309  1.00  0.00     0.059 A 
ATOM     43  C   UNL A   1      34.359  33.152  30.618  1.00  0.00     0.059 A 
ATOM     44  F   UNL A   1      35.130  31.668  32.261  1.00  0.00    -0.206 F 
ATOM     45  C   UNL A   1      34.638  34.116  29.650  1.00  0.00     0.060 A 
BRANCH  45  46
ATOM     46  S   UNL A   1      33.289  35.003  28.840  1.00  0.00     0.124 S 
ATOM     47  O   UNL A   1      32.432  35.325  29.977  1.00  0.00    -0.237 OA
ATOM     48  O   UNL A   1      33.976  36.134  28.226  1.00  0.00    -0.237 OA
ATOM     49  O   UNL A   1      32.750  34.019  27.906  1.00  0.00    -0.744 OA
ENDBRANCH  45  46
ENDBRANCH  24  38
BRANCH  25  50
ATOM     50  C   UNL A   1      44.471  28.715  35.928  1.00  0.00     0.058 A 
ATOM     51  C   UNL A   1      45.763  29.223  35.736  1.00  0.00     0.135 A 
ATOM     52  C   UNL A   1      44.310  27.672  36.855  1.00  0.00     0.135 A 
ATOM     53  F   UNL A   1      45.970  30.213  34.855  1.00  0.00    -0.206 F 
ATOM     54  C   UNL A   1      46.853  28.728  36.448  1.00  0.00     0.059 A 
ATOM     55  C   UNL A   1      45.379  27.175  37.593  1.00  0.00     0.059 A 
ATOM     56  F   UNL A   1      43.091  27.159  37.083  1.00  0.00    -0.206 F 
ATOM     57  C   UNL A   1      46.650  27.710  37.383  1.00  0.00     0.060 A 
BRANCH  57  58
ATOM     58  S   UNL A   1      48.048  27.142  38.377  1.00  0.00     0.124 S 
ATOM     59  O   UNL A   1      49.113  28.025  37.916  1.00  0.00    -0.237 OA
ATOM     60  O   UNL A   1      47.573  27.372  39.738  1.00  0.00    -0.237 OA
ATOM     61  O   UNL A   1      48.180  25.740  37.997  1.00  0.00    -0.744 OA
ENDBRANCH  57  58
ENDBRANCH  25  50
BRANCH  37  62
ATOM     62  C   UNL A   1      40.074  33.984  37.314  1.00  0.00     0.058 A 
ATOM     63  C   UNL A   1      40.788  35.190  37.345  1.00  0.00     0.135 A 
ATOM     64  C   UNL A   1      39.146  33.736  38.338  1.00  0.00     0.135 A 
ATOM     65  F   UNL A   1      41.691  35.465  36.391  1.00  0.00    -0.206 F 
ATOM     66  C   UNL A   1      40.579  36.127  38.350  1.00  0.00     0.059 A 
ATOM     67  C   UNL A   1      38.910  34.666  39.343  1.00  0.00     0.059 A 
ATOM     68  F   UNL A   1      38.435  32.597  38.344  1.00  0.00    -0.206 F 
ATOM     69  C   UNL A   1      39.631  35.860  39.340  1.00  0.00     0.060 A 
BRANCH  69  70
ATOM     70  S   UNL A   1      39.300  37.122  40.588  1.00  0.00     0.124 S 
ATOM     71  O   UNL A   1      38.910  36.306  41.733  1.00  0.00    -0.237 OA
ATOM     72  O   UNL A   1      40.589  37.799  40.701  1.00  0.00    -0.237 OA
ATOM     73  O   UNL A   1      38.233  37.919  39.989  1.00  0.00    -0.744 OA
ENDBRANCH  69  70
ENDBRANCH  37  62
ENDBRANCH  11  12
ENDBRANCH   4   6
ENDBRANCH   3   4
ENDBRANCH   2   3
ENDBRANCH   1   2
BRANCH   1  74
ATOM     74  O   UNL A   1      43.000  21.495  25.155  1.00  0.00    -0.374 OA
BRANCH  74  75
ATOM     75  C   UNL A   1      42.777  20.551  26.208  1.00  0.00     0.202 C 
BRANCH  75  76
ATOM     76  C   UNL A   1      41.280  20.229  26.278  1.00  0.00     0.261 C 
BRANCH  76  77
ATOM     77  O   UNL A   1      40.552  21.386  25.834  1.00  0.00    -0.457 OA
BRANCH  77  78
ATOM     78  C   UNL A   1      40.025  22.143  26.843  1.00  0.00     0.374 C 
ATOM     79  O   UNL A   1      40.557  22.338  27.929  1.00  0.00    -0.242 OA
BRANCH  78  80
ATOM     80  C   UNL A   1      38.820  22.768  26.353  1.00  0.00     0.212 A 
ATOM     81  C   UNL A   1      38.389  24.084  26.376  1.00  0.00     0.059 A 
ATOM     82  O   UNL A   1      37.821  21.973  25.852  1.00  0.00    -0.449 OA
ATOM     83  C   UNL A   1      37.059  24.087  25.897  1.00  0.00     0.052 A 
ATOM     84  C   UNL A   1      36.750  22.776  25.610  1.00  0.00     0.135 A 
BRANCH  84  85
ATOM     85  C   UNL A   1      35.552  22.125  25.105  1.00  0.00     0.025 A 
ATOM     86  C   UNL A   1      35.349  20.790  25.477  1.00  0.00     0.014 A 
ATOM     87  C   UNL A   1      34.654  22.772  24.208  1.00  0.00    -0.006 A 
ATOM     88  C   UNL A   1      34.299  20.062  24.933  1.00  0.00     0.022 A 
ATOM     89  C   UNL A   1      33.586  22.024  23.640  1.00  0.00     0.001 A 
ATOM     90  C   UNL A   1      34.775  24.139  23.852  1.00  0.00     0.009 A 
ATOM     91  C   UNL A   1      33.439  20.662  24.013  1.00  0.00     0.048 A 
ATOM     92  C   UNL A   1      32.719  22.672  22.727  1.00  0.00     0.010 A 
ATOM     93  C   UNL A   1      33.892  24.755  22.964  1.00  0.00     0.001 A 
ATOM     94  Cl  UNL A   1      32.195  19.651  23.349  1.00  0.00    -0.084 Cl
ATOM     95  C   UNL A   1      32.869  24.018  22.393  1.00  0.00     0.001 A 
ENDBRANCH  84  85
ENDBRANCH  78  80
ENDBRANCH  77  78
ENDBRANCH  76  77
ENDBRANCH  75  76
ENDBRANCH  74  75
ENDBRANCH   1  74
TORSDOF 18
ENDMDL
