MODEL 1
REMARK VINA RESULT:     -12.2      0.000      0.000
REMARK SMILES O=C1C[C@@H](C(=O)OCCOCCOC(=O)c2ccc(-c3c4nc(c(-c5c(F)cc(S(=O)(=O)[O-])cc5F)c5ccc([nH]5)c(-c5c(F)cc(S(=O)(=O)[O-])cc5F)c5nc(c(-c6c(F)cc(S(=O)(=O)[O-])cc6F)c6ccc3[nH]6)C=C5)C=C4)cc2)C2(CC[NH+](Cc3c[nH]nc3-c3ccc(Cl)cc3)CC2)N1
REMARK SMILES IDX 10 1 9 2 8 3 7 4 5 5 6 6 4 7 1 8 2 9 3 10 101 11 82 12 83 14
REMARK SMILES IDX 100 15 84 16 99 17 85 18 86 20 87 21 88 22 91 23 89 24 90 25
REMARK SMILES IDX 92 27 93 28 98 29 94 30 97 31 95 32 96 33 11 34 12 35 13 36
REMARK SMILES IDX 14 37 15 38 16 39 17 40 81 41 18 42 80 43 19 44 20 45 21 46
REMARK SMILES IDX 74 47 22 48 79 49 73 50 75 51 23 52 78 53 72 54 71 55 24 57
REMARK SMILES IDX 58 58 37 59 57 60 38 61 41 62 56 63 76 64 39 65 40 66 55 68
REMARK SMILES IDX 77 69 42 70 25 71 26 72 35 73 27 74 28 75 34 76 36 77 29 78
REMARK SMILES IDX 30 79 31 80 32 81 33 82 59 83 60 84 69 85 61 86 62 87 68 88
REMARK SMILES IDX 70 89 63 90 64 91 65 92 66 93 67 94 43 95 44 96 53 97 45 98
REMARK SMILES IDX 46 99 52 100 54 101 47 102 48 103 49 104 50 105 51 106
REMARK H PARENT 101 13 85 19 89 26 75 56 41 67
REMARK Flexibility Score: inf
ROOT
ATOM      1  O   UNL A   1      38.432  22.018  25.754  1.00  0.00    -0.374 OA
ENDROOT
BRANCH   1   2
ATOM      2  C   UNL A   1      37.703  21.467  24.659  1.00  0.00     0.202 C 
BRANCH   2   3
ATOM      3  C   UNL A   1      36.516  20.558  25.006  1.00  0.00     0.261 C 
BRANCH   3   4
ATOM      4  O   UNL A   1      35.213  21.137  24.791  1.00  0.00    -0.463 OA
BRANCH   4   5
ATOM      5  C   UNL A   1      34.525  21.458  25.913  1.00  0.00     0.311 C 
ATOM      6  O   UNL A   1      35.041  21.677  27.005  1.00  0.00    -0.252 OA
BRANCH   5   7
ATOM      7  C   UNL A   1      33.016  21.420  25.766  1.00  0.00     0.134 C 
ATOM      8  O   UNL A   1      32.173  20.052  22.572  1.00  0.00    -0.275 OA
ATOM      9  C   UNL A   1      32.343  20.699  23.588  1.00  0.00     0.221 C 
ATOM     10  C   UNL A   1      32.687  20.154  24.948  1.00  0.00     0.117 C 
ATOM     11  N   UNL A   1      32.175  22.057  23.697  1.00  0.00    -0.349 N 
ATOM     12  C   UNL A   1      32.212  22.539  25.066  1.00  0.00     0.064 C 
ATOM     13  H   UNL A   1      32.041  22.648  22.921  1.00  0.00     0.164 HD
ATOM     14  C   UNL A   1      32.779  23.964  25.089  1.00  0.00     0.091 C 
ATOM     15  C   UNL A   1      30.749  22.527  25.605  1.00  0.00     0.091 C 
ATOM     16  C   UNL A   1      32.485  24.716  26.379  1.00  0.00     0.264 C 
ATOM     17  C   UNL A   1      30.468  23.465  26.785  1.00  0.00     0.264 C 
ATOM     18  N   UNL A   1      31.070  24.785  26.688  1.00  0.00    -0.331 N 
ATOM     19  H   UNL A   1      31.012  25.146  27.640  1.00  0.00     0.348 HD
BRANCH  18  20
ATOM     20  C   UNL A   1      30.294  25.873  26.072  1.00  0.00     0.303 C 
BRANCH  20  21
ATOM     21  C   UNL A   1      30.806  26.386  24.764  1.00  0.00     0.052 A 
ATOM     22  C   UNL A   1      30.388  25.983  23.506  1.00  0.00     0.115 A 
ATOM     23  C   UNL A   1      31.690  27.488  24.485  1.00  0.00     0.101 A 
ATOM     24  N   UNL A   1      31.130  26.673  22.604  1.00  0.00    -0.285 N 
ATOM     25  N   UNL A   1      31.901  27.605  23.162  1.00  0.00    -0.175 NA
ATOM     26  H   UNL A   1      31.103  26.503  21.635  1.00  0.00     0.189 HD
BRANCH  23  27
ATOM     27  C   UNL A   1      32.309  28.473  25.376  1.00  0.00     0.003 A 
ATOM     28  C   UNL A   1      33.497  28.127  26.043  1.00  0.00     0.012 A 
ATOM     29  C   UNL A   1      31.737  29.720  25.636  1.00  0.00     0.012 A 
ATOM     30  C   UNL A   1      34.101  29.009  26.943  1.00  0.00     0.021 A 
ATOM     31  C   UNL A   1      32.345  30.611  26.529  1.00  0.00     0.021 A 
ATOM     32  C   UNL A   1      33.520  30.249  27.183  1.00  0.00     0.041 A 
ATOM     33  Cl  UNL A   1      34.246  31.334  28.301  1.00  0.00    -0.084 Cl
ENDBRANCH  23  27
ENDBRANCH  20  21
ENDBRANCH  18  20
ENDBRANCH   5   7
ENDBRANCH   4   5
ENDBRANCH   3   4
ENDBRANCH   2   3
ENDBRANCH   1   2
BRANCH   1  34
ATOM     34  C   UNL A   1      39.620  21.340  26.161  1.00  0.00     0.202 C 
BRANCH  34  35
ATOM     35  C   UNL A   1      40.574  22.150  27.042  1.00  0.00     0.261 C 
BRANCH  35  36
ATOM     36  O   UNL A   1      40.202  23.540  27.035  1.00  0.00    -0.460 OA
BRANCH  36  37
ATOM     37  C   UNL A   1      41.262  24.375  27.136  1.00  0.00     0.338 C 
ATOM     38  O   UNL A   1      42.334  24.259  26.570  1.00  0.00    -0.246 OA
BRANCH  37  39
ATOM     39  C   UNL A   1      40.880  25.566  27.909  1.00  0.00     0.060 A 
ATOM     40  C   UNL A   1      41.847  26.563  28.082  1.00  0.00     0.016 A 
ATOM     41  C   UNL A   1      39.650  25.643  28.564  1.00  0.00     0.016 A 
ATOM     42  C   UNL A   1      41.609  27.610  28.970  1.00  0.00     0.010 A 
ATOM     43  C   UNL A   1      39.414  26.697  29.453  1.00  0.00     0.010 A 
ATOM     44  C   UNL A   1      40.410  27.659  29.696  1.00  0.00    -0.014 A 
BRANCH  44  45
ATOM     45  C   UNL A   1      40.272  28.640  30.801  1.00  0.00     0.031 A 
ATOM     46  C   UNL A   1      41.139  28.498  32.024  1.00  0.00     0.074 A 
ATOM     47  C   UNL A   1      39.415  29.671  30.696  1.00  0.00     0.049 A 
ATOM     48  N   UNL A   1      41.228  29.278  33.071  1.00  0.00    -0.248 NA
ATOM     49  C   UNL A   1      42.021  27.321  32.076  1.00  0.00     0.031 C 
ATOM     50  C   UNL A   1      38.524  29.911  29.561  1.00  0.00     0.029 A 
ATOM     51  N   UNL A   1      39.152  30.706  31.556  1.00  0.00    -0.354 N 
ATOM     52  C   UNL A   1      42.174  28.691  33.903  1.00  0.00     0.074 A 
ATOM     53  C   UNL A   1      42.606  27.471  33.256  1.00  0.00     0.031 C 
ATOM     54  C   UNL A   1      37.805  31.021  29.799  1.00  0.00     0.029 A 
ATOM     55  C   UNL A   1      38.176  31.561  31.107  1.00  0.00     0.049 A 
ATOM     56  H   UNL A   1      39.619  30.825  32.414  1.00  0.00     0.167 HD
ATOM     57  C   UNL A   1      42.646  29.133  35.093  1.00  0.00     0.037 A 
ATOM     58  C   UNL A   1      37.635  32.652  31.687  1.00  0.00     0.037 A 
ATOM     59  C   UNL A   1      42.209  30.347  35.734  1.00  0.00     0.049 A 
ATOM     60  C   UNL A   1      38.157  33.113  33.021  1.00  0.00     0.074 A 
ATOM     61  C   UNL A   1      42.659  30.905  36.919  1.00  0.00     0.029 A 
ATOM     62  N   UNL A   1      41.211  31.181  35.253  1.00  0.00    -0.354 N 
ATOM     63  N   UNL A   1      39.102  32.586  33.763  1.00  0.00    -0.248 NA
ATOM     64  C   UNL A   1      37.552  34.325  33.591  1.00  0.00     0.031 C 
ATOM     65  C   UNL A   1      41.900  32.052  37.177  1.00  0.00     0.029 A 
ATOM     66  C   UNL A   1      41.010  32.235  36.131  1.00  0.00     0.049 A 
ATOM     67  H   UNL A   1      40.719  31.045  34.413  1.00  0.00     0.167 HD
ATOM     68  C   UNL A   1      39.216  33.408  34.879  1.00  0.00     0.074 A 
ATOM     69  C   UNL A   1      38.253  34.477  34.707  1.00  0.00     0.031 C 
ATOM     70  C   UNL A   1      40.043  33.290  35.947  1.00  0.00     0.037 A 
BRANCH  57  71
ATOM     71  C   UNL A   1      43.675  28.287  35.791  1.00  0.00     0.058 A 
ATOM     72  C   UNL A   1      45.051  28.460  35.567  1.00  0.00     0.135 A 
ATOM     73  C   UNL A   1      43.283  27.305  36.715  1.00  0.00     0.135 A 
ATOM     74  F   UNL A   1      45.481  29.376  34.683  1.00  0.00    -0.206 F 
ATOM     75  C   UNL A   1      45.999  27.672  36.212  1.00  0.00     0.059 A 
ATOM     76  C   UNL A   1      44.215  26.521  37.389  1.00  0.00     0.059 A 
ATOM     77  F   UNL A   1      41.981  27.097  36.968  1.00  0.00    -0.206 F 
ATOM     78  C   UNL A   1      45.570  26.702  37.119  1.00  0.00     0.060 A 
BRANCH  78  79
ATOM     79  S   UNL A   1      46.812  25.683  37.947  1.00  0.00     0.124 S 
ATOM     80  O   UNL A   1      46.235  25.547  39.280  1.00  0.00    -0.237 OA
ATOM     81  O   UNL A   1      46.819  24.472  37.134  1.00  0.00    -0.237 OA
ATOM     82  O   UNL A   1      48.024  26.494  37.869  1.00  0.00    -0.744 OA
ENDBRANCH  78  79
ENDBRANCH  57  71
BRANCH  58  83
ATOM     83  C   UNL A   1      36.536  33.379  30.999  1.00  0.00     0.058 A 
ATOM     84  C   UNL A   1      36.777  34.155  29.857  1.00  0.00     0.135 A 
ATOM     85  C   UNL A   1      35.212  33.280  31.456  1.00  0.00     0.135 A 
ATOM     86  F   UNL A   1      38.027  34.287  29.388  1.00  0.00    -0.206 F 
ATOM     87  C   UNL A   1      35.747  34.811  29.192  1.00  0.00     0.059 A 
ATOM     88  C   UNL A   1      34.162  33.908  30.795  1.00  0.00     0.059 A 
ATOM     89  F   UNL A   1      34.928  32.541  32.540  1.00  0.00    -0.206 F 
ATOM     90  C   UNL A   1      34.439  34.676  29.666  1.00  0.00     0.060 A 
BRANCH  90  91
ATOM     91  S   UNL A   1      33.099  35.470  28.752  1.00  0.00     0.124 S 
ATOM     92  O   UNL A   1      33.825  36.454  27.959  1.00  0.00    -0.237 OA
ATOM     93  O   UNL A   1      32.527  34.349  28.011  1.00  0.00    -0.237 OA
ATOM     94  O   UNL A   1      32.248  36.011  29.808  1.00  0.00    -0.744 OA
ENDBRANCH  90  91
ENDBRANCH  58  83
BRANCH  70  95
ATOM     95  C   UNL A   1      39.958  34.350  37.011  1.00  0.00     0.058 A 
ATOM     96  C   UNL A   1      40.704  35.535  36.928  1.00  0.00     0.135 A 
ATOM     97  C   UNL A   1      39.081  34.201  38.097  1.00  0.00     0.135 A 
ATOM     98  F   UNL A   1      41.561  35.725  35.912  1.00  0.00    -0.206 F 
ATOM     99  C   UNL A   1      40.600  36.529  37.897  1.00  0.00     0.059 A 
ATOM    100  C   UNL A   1      38.943  35.192  39.066  1.00  0.00     0.059 A 
ATOM    101  F   UNL A   1      38.336  33.091  38.219  1.00  0.00    -0.206 F 
ATOM    102  C   UNL A   1      39.715  36.348  38.962  1.00  0.00     0.060 A 
BRANCH 102 103
ATOM    103  S   UNL A   1      39.564  37.657  40.197  1.00  0.00     0.124 S 
ATOM    104  O   UNL A   1      40.911  38.217  40.199  1.00  0.00    -0.237 OA
ATOM    105  O   UNL A   1      38.524  38.508  39.627  1.00  0.00    -0.237 OA
ATOM    106  O   UNL A   1      39.179  36.937  41.408  1.00  0.00    -0.744 OA
ENDBRANCH 102 103
ENDBRANCH  70  95
ENDBRANCH  44  45
ENDBRANCH  37  39
ENDBRANCH  36  37
ENDBRANCH  35  36
ENDBRANCH  34  35
ENDBRANCH   1  34
TORSDOF 20
ENDMDL
MODEL 2
REMARK VINA RESULT:     -11.2      1.100      7.933
REMARK SMILES O=C1C[C@@H](C(=O)OCCOCCOC(=O)c2ccc(-c3c4nc(c(-c5c(F)cc(S(=O)(=O)[O-])cc5F)c5ccc([nH]5)c(-c5c(F)cc(S(=O)(=O)[O-])cc5F)c5nc(c(-c6c(F)cc(S(=O)(=O)[O-])cc6F)c6ccc3[nH]6)C=C5)C=C4)cc2)C2(CC[NH+](Cc3c[nH]nc3-c3ccc(Cl)cc3)CC2)N1
REMARK SMILES IDX 10 1 9 2 8 3 7 4 5 5 6 6 4 7 1 8 2 9 3 10 101 11 82 12 83 14
REMARK SMILES IDX 100 15 84 16 99 17 85 18 86 20 87 21 88 22 91 23 89 24 90 25
REMARK SMILES IDX 92 27 93 28 98 29 94 30 97 31 95 32 96 33 11 34 12 35 13 36
REMARK SMILES IDX 14 37 15 38 16 39 17 40 81 41 18 42 80 43 19 44 20 45 21 46
REMARK SMILES IDX 74 47 22 48 79 49 73 50 75 51 23 52 78 53 72 54 71 55 24 57
REMARK SMILES IDX 58 58 37 59 57 60 38 61 41 62 56 63 76 64 39 65 40 66 55 68
REMARK SMILES IDX 77 69 42 70 25 71 26 72 35 73 27 74 28 75 34 76 36 77 29 78
REMARK SMILES IDX 30 79 31 80 32 81 33 82 59 83 60 84 69 85 61 86 62 87 68 88
REMARK SMILES IDX 70 89 63 90 64 91 65 92 66 93 67 94 43 95 44 96 53 97 45 98
REMARK SMILES IDX 46 99 52 100 54 101 47 102 48 103 49 104 50 105 51 106
REMARK H PARENT 101 13 85 19 89 26 75 56 41 67
REMARK Flexibility Score: inf
ROOT
ATOM      1  O   UNL A   1      38.703  21.904  25.344  1.00  0.00    -0.374 OA
ENDROOT
BRANCH   1   2
ATOM      2  C   UNL A   1      37.361  21.428  25.427  1.00  0.00     0.202 C 
BRANCH   2   3
ATOM      3  C   UNL A   1      36.414  21.823  24.286  1.00  0.00     0.261 C 
BRANCH   3   4
ATOM      4  O   UNL A   1      35.221  22.525  24.690  1.00  0.00    -0.463 OA
BRANCH   4   5
ATOM      5  C   UNL A   1      34.130  21.748  24.897  1.00  0.00     0.311 C 
ATOM      6  O   UNL A   1      34.148  20.663  25.470  1.00  0.00    -0.252 OA
BRANCH   5   7
ATOM      7  C   UNL A   1      32.854  22.261  24.256  1.00  0.00     0.134 C 
ATOM      8  O   UNL A   1      33.540  23.252  20.889  1.00  0.00    -0.275 OA
ATOM      9  C   UNL A   1      33.238  23.130  22.061  1.00  0.00     0.221 C 
ATOM     10  C   UNL A   1      32.911  21.844  22.771  1.00  0.00     0.117 C 
ATOM     11  N   UNL A   1      33.067  24.167  22.944  1.00  0.00    -0.349 N 
ATOM     12  C   UNL A   1      32.482  23.761  24.211  1.00  0.00     0.064 C 
ATOM     13  H   UNL A   1      33.314  25.097  22.738  1.00  0.00     0.164 HD
ATOM     14  C   UNL A   1      33.004  24.673  25.327  1.00  0.00     0.091 C 
ATOM     15  C   UNL A   1      30.935  23.896  24.075  1.00  0.00     0.091 C 
ATOM     16  C   UNL A   1      32.168  24.621  26.598  1.00  0.00     0.264 C 
ATOM     17  C   UNL A   1      30.164  24.045  25.393  1.00  0.00     0.264 C 
ATOM     18  N   UNL A   1      30.769  24.932  26.372  1.00  0.00    -0.331 N 
ATOM     19  H   UNL A   1      30.290  24.696  27.240  1.00  0.00     0.348 HD
BRANCH  18  20
ATOM     20  C   UNL A   1      30.383  26.352  26.374  1.00  0.00     0.303 C 
BRANCH  20  21
ATOM     21  C   UNL A   1      30.662  27.111  25.116  1.00  0.00     0.052 A 
ATOM     22  C   UNL A   1      29.916  27.067  23.950  1.00  0.00     0.115 A 
ATOM     23  C   UNL A   1      31.622  28.154  24.859  1.00  0.00     0.101 A 
ATOM     24  N   UNL A   1      30.536  27.876  23.054  1.00  0.00    -0.285 N 
ATOM     25  N   UNL A   1      31.547  28.564  23.581  1.00  0.00    -0.175 NA
ATOM     26  H   UNL A   1      30.266  27.947  22.110  1.00  0.00     0.189 HD
BRANCH  23  27
ATOM     27  C   UNL A   1      32.570  28.828  25.749  1.00  0.00     0.003 A 
ATOM     28  C   UNL A   1      32.212  30.070  26.301  1.00  0.00     0.012 A 
ATOM     29  C   UNL A   1      33.840  28.316  26.026  1.00  0.00     0.012 A 
ATOM     30  C   UNL A   1      33.099  30.780  27.115  1.00  0.00     0.021 A 
ATOM     31  C   UNL A   1      34.728  29.020  26.849  1.00  0.00     0.021 A 
ATOM     32  C   UNL A   1      34.357  30.251  27.385  1.00  0.00     0.041 A 
ATOM     33  Cl  UNL A   1      35.461  31.123  28.370  1.00  0.00    -0.084 Cl
ENDBRANCH  23  27
ENDBRANCH  20  21
ENDBRANCH  18  20
ENDBRANCH   5   7
ENDBRANCH   4   5
ENDBRANCH   3   4
ENDBRANCH   2   3
ENDBRANCH   1   2
BRANCH   1  34
ATOM     34  C   UNL A   1      39.367  22.218  26.567  1.00  0.00     0.202 C 
BRANCH  34  35
ATOM     35  C   UNL A   1      40.424  23.321  26.480  1.00  0.00     0.261 C 
BRANCH  35  36
ATOM     36  O   UNL A   1      39.796  24.616  26.465  1.00  0.00    -0.460 OA
BRANCH  36  37
ATOM     37  C   UNL A   1      40.678  25.633  26.332  1.00  0.00     0.338 C 
ATOM     38  O   UNL A   1      41.131  26.071  25.290  1.00  0.00    -0.246 OA
BRANCH  37  39
ATOM     39  C   UNL A   1      40.893  26.272  27.640  1.00  0.00     0.060 A 
ATOM     40  C   UNL A   1      39.887  26.129  28.602  1.00  0.00     0.016 A 
ATOM     41  C   UNL A   1      41.988  27.107  27.868  1.00  0.00     0.016 A 
ATOM     42  C   UNL A   1      39.944  26.878  29.777  1.00  0.00     0.010 A 
ATOM     43  C   UNL A   1      42.042  27.854  29.050  1.00  0.00     0.010 A 
ATOM     44  C   UNL A   1      40.997  27.779  29.987  1.00  0.00    -0.014 A 
BRANCH  44  45
ATOM     45  C   UNL A   1      40.918  28.733  31.122  1.00  0.00     0.031 A 
ATOM     46  C   UNL A   1      39.872  29.816  31.103  1.00  0.00     0.074 A 
ATOM     47  C   UNL A   1      41.741  28.606  32.178  1.00  0.00     0.049 A 
ATOM     48  N   UNL A   1      39.586  30.707  32.017  1.00  0.00    -0.248 NA
ATOM     49  C   UNL A   1      39.038  29.909  29.893  1.00  0.00     0.031 C 
ATOM     50  C   UNL A   1      42.792  27.598  32.308  1.00  0.00     0.029 A 
ATOM     51  N   UNL A   1      41.823  29.332  33.339  1.00  0.00    -0.354 N 
ATOM     52  C   UNL A   1      38.543  31.464  31.497  1.00  0.00     0.074 A 
ATOM     53  C   UNL A   1      38.267  30.949  30.174  1.00  0.00     0.031 C 
ATOM     54  C   UNL A   1      43.421  27.774  33.483  1.00  0.00     0.029 A 
ATOM     55  C   UNL A   1      42.826  28.914  34.180  1.00  0.00     0.049 A 
ATOM     56  H   UNL A   1      41.220  30.080  33.550  1.00  0.00     0.167 HD
ATOM     57  C   UNL A   1      37.869  32.488  32.074  1.00  0.00     0.037 A 
ATOM     58  C   UNL A   1      43.224  29.399  35.373  1.00  0.00     0.037 A 
ATOM     59  C   UNL A   1      38.151  32.998  33.392  1.00  0.00     0.049 A 
ATOM     60  C   UNL A   1      42.477  30.553  35.987  1.00  0.00     0.074 A 
ATOM     61  C   UNL A   1      37.495  34.002  34.084  1.00  0.00     0.029 A 
ATOM     62  N   UNL A   1      39.181  32.556  34.208  1.00  0.00    -0.354 N 
ATOM     63  N   UNL A   1      41.446  31.212  35.513  1.00  0.00    -0.248 NA
ATOM     64  C   UNL A   1      42.936  31.020  37.302  1.00  0.00     0.031 C 
ATOM     65  C   UNL A   1      38.159  34.198  35.301  1.00  0.00     0.029 A 
ATOM     66  C   UNL A   1      39.199  33.285  35.387  1.00  0.00     0.049 A 
ATOM     67  H   UNL A   1      39.807  31.831  33.984  1.00  0.00     0.167 HD
ATOM     68  C   UNL A   1      41.124  32.161  36.477  1.00  0.00     0.074 A 
ATOM     69  C   UNL A   1      42.060  31.980  37.569  1.00  0.00     0.031 C 
ATOM     70  C   UNL A   1      40.141  33.096  36.462  1.00  0.00     0.037 A 
BRANCH  57  71
ATOM     71  C   UNL A   1      36.774  33.138  31.275  1.00  0.00     0.058 A 
ATOM     72  C   UNL A   1      35.418  32.925  31.568  1.00  0.00     0.135 A 
ATOM     73  C   UNL A   1      37.085  34.006  30.215  1.00  0.00     0.135 A 
ATOM     74  F   UNL A   1      35.063  32.094  32.562  1.00  0.00    -0.206 F 
ATOM     75  C   UNL A   1      34.408  33.527  30.822  1.00  0.00     0.059 A 
ATOM     76  C   UNL A   1      36.092  34.637  29.471  1.00  0.00     0.059 A 
ATOM     77  F   UNL A   1      38.366  34.247  29.892  1.00  0.00    -0.206 F 
ATOM     78  C   UNL A   1      34.756  34.379  29.773  1.00  0.00     0.060 A 
BRANCH  78  79
ATOM     79  S   UNL A   1      33.436  35.151  28.811  1.00  0.00     0.124 S 
ATOM     80  O   UNL A   1      32.987  34.037  27.984  1.00  0.00    -0.237 OA
ATOM     81  O   UNL A   1      32.505  35.586  29.848  1.00  0.00    -0.237 OA
ATOM     82  O   UNL A   1      34.120  36.226  28.097  1.00  0.00    -0.744 OA
ENDBRANCH  78  79
ENDBRANCH  57  71
BRANCH  58  83
ATOM     83  C   UNL A   1      44.391  28.786  36.061  1.00  0.00     0.058 A 
ATOM     84  C   UNL A   1      45.684  29.302  35.904  1.00  0.00     0.135 A 
ATOM     85  C   UNL A   1      44.223  27.688  36.921  1.00  0.00     0.135 A 
ATOM     86  F   UNL A   1      45.896  30.344  35.086  1.00  0.00    -0.206 F 
ATOM     87  C   UNL A   1      46.773  28.751  36.572  1.00  0.00     0.059 A 
ATOM     88  C   UNL A   1      45.292  27.135  37.617  1.00  0.00     0.059 A 
ATOM     89  F   UNL A   1      43.002  27.165  37.112  1.00  0.00    -0.206 F 
ATOM     90  C   UNL A   1      46.566  27.670  37.432  1.00  0.00     0.060 A 
BRANCH  90  91
ATOM     91  S   UNL A   1      47.973  27.010  38.352  1.00  0.00     0.124 S 
ATOM     92  O   UNL A   1      47.408  25.793  38.922  1.00  0.00    -0.237 OA
ATOM     93  O   UNL A   1      48.966  26.820  37.298  1.00  0.00    -0.237 OA
ATOM     94  O   UNL A   1      48.278  28.073  39.305  1.00  0.00    -0.744 OA
ENDBRANCH  90  91
ENDBRANCH  58  83
BRANCH  70  95
ATOM     95  C   UNL A   1      40.014  33.988  37.666  1.00  0.00     0.058 A 
ATOM     96  C   UNL A   1      40.663  35.231  37.731  1.00  0.00     0.135 A 
ATOM     97  C   UNL A   1      39.193  33.620  38.743  1.00  0.00     0.135 A 
ATOM     98  F   UNL A   1      41.464  35.628  36.730  1.00  0.00    -0.206 F 
ATOM     99  C   UNL A   1      40.519  36.070  38.832  1.00  0.00     0.059 A 
ATOM    100  C   UNL A   1      39.015  34.453  39.845  1.00  0.00     0.059 A 
ATOM    101  F   UNL A   1      38.541  32.446  38.727  1.00  0.00    -0.206 F 
ATOM    102  C   UNL A   1      39.691  35.672  39.884  1.00  0.00     0.060 A 
BRANCH 102 103
ATOM    103  S   UNL A   1      39.486  36.781  41.295  1.00  0.00     0.124 S 
ATOM    104  O   UNL A   1      40.864  36.939  41.747  1.00  0.00    -0.237 OA
ATOM    105  O   UNL A   1      38.880  37.959  40.682  1.00  0.00    -0.237 OA
ATOM    106  O   UNL A   1      38.611  36.031  42.190  1.00  0.00    -0.744 OA
ENDBRANCH 102 103
ENDBRANCH  70  95
ENDBRANCH  44  45
ENDBRANCH  37  39
ENDBRANCH  36  37
ENDBRANCH  35  36
ENDBRANCH  34  35
ENDBRANCH   1  34
TORSDOF 20
ENDMDL
MODEL 3
REMARK VINA RESULT:     -10.3      6.347     12.134
REMARK SMILES O=C1C[C@@H](C(=O)OCCOCCOC(=O)c2ccc(-c3c4nc(c(-c5c(F)cc(S(=O)(=O)[O-])cc5F)c5ccc([nH]5)c(-c5c(F)cc(S(=O)(=O)[O-])cc5F)c5nc(c(-c6c(F)cc(S(=O)(=O)[O-])cc6F)c6ccc3[nH]6)C=C5)C=C4)cc2)C2(CC[NH+](Cc3c[nH]nc3-c3ccc(Cl)cc3)CC2)N1
REMARK SMILES IDX 10 1 9 2 8 3 7 4 5 5 6 6 4 7 1 8 2 9 3 10 101 11 82 12 83 14
REMARK SMILES IDX 100 15 84 16 99 17 85 18 86 20 87 21 88 22 91 23 89 24 90 25
REMARK SMILES IDX 92 27 93 28 98 29 94 30 97 31 95 32 96 33 11 34 12 35 13 36
REMARK SMILES IDX 14 37 15 38 16 39 17 40 81 41 18 42 80 43 19 44 20 45 21 46
REMARK SMILES IDX 74 47 22 48 79 49 73 50 75 51 23 52 78 53 72 54 71 55 24 57
REMARK SMILES IDX 58 58 37 59 57 60 38 61 41 62 56 63 76 64 39 65 40 66 55 68
REMARK SMILES IDX 77 69 42 70 25 71 26 72 35 73 27 74 28 75 34 76 36 77 29 78
REMARK SMILES IDX 30 79 31 80 32 81 33 82 59 83 60 84 69 85 61 86 62 87 68 88
REMARK SMILES IDX 70 89 63 90 64 91 65 92 66 93 67 94 43 95 44 96 53 97 45 98
REMARK SMILES IDX 46 99 52 100 54 101 47 102 48 103 49 104 50 105 51 106
REMARK H PARENT 101 13 85 19 89 26 75 56 41 67
REMARK Flexibility Score: inf
ROOT
ATOM      1  O   UNL A   1      34.248  32.980  31.378  1.00  0.00    -0.374 OA
ENDROOT
BRANCH   1   2
ATOM      2  C   UNL A   1      34.516  33.580  30.112  1.00  0.00     0.202 C 
BRANCH   2   3
ATOM      3  C   UNL A   1      34.972  32.644  28.985  1.00  0.00     0.261 C 
BRANCH   3   4
ATOM      4  O   UNL A   1      34.226  31.415  28.865  1.00  0.00    -0.463 OA
BRANCH   4   5
ATOM      5  C   UNL A   1      34.690  30.539  27.942  1.00  0.00     0.311 C 
ATOM      6  O   UNL A   1      35.714  29.874  28.067  1.00  0.00    -0.252 OA
BRANCH   5   7
ATOM      7  C   UNL A   1      33.903  30.507  26.644  1.00  0.00     0.134 C 
ATOM      8  O   UNL A   1      30.807  32.236  27.096  1.00  0.00    -0.275 OA
ATOM      9  C   UNL A   1      31.729  31.470  26.888  1.00  0.00     0.221 C 
ATOM     10  C   UNL A   1      33.147  31.849  26.557  1.00  0.00     0.117 C 
ATOM     11  N   UNL A   1      31.625  30.103  26.843  1.00  0.00    -0.349 N 
ATOM     12  C   UNL A   1      32.821  29.445  26.346  1.00  0.00     0.064 C 
ATOM     13  H   UNL A   1      30.816  29.614  27.119  1.00  0.00     0.164 HD
ATOM     14  C   UNL A   1      32.954  28.067  27.005  1.00  0.00     0.091 C 
ATOM     15  C   UNL A   1      32.666  29.298  24.802  1.00  0.00     0.091 C 
ATOM     16  C   UNL A   1      33.908  27.132  26.276  1.00  0.00     0.264 C 
ATOM     17  C   UNL A   1      33.510  28.195  24.152  1.00  0.00     0.264 C 
ATOM     18  N   UNL A   1      33.561  26.939  24.880  1.00  0.00    -0.331 N 
ATOM     19  H   UNL A   1      34.353  26.451  24.463  1.00  0.00     0.348 HD
BRANCH  18  20
ATOM     20  C   UNL A   1      32.569  25.899  24.567  1.00  0.00     0.303 C 
BRANCH  20  21
ATOM     21  C   UNL A   1      32.806  25.120  23.312  1.00  0.00     0.052 A 
ATOM     22  C   UNL A   1      32.150  25.293  22.105  1.00  0.00     0.115 A 
ATOM     23  C   UNL A   1      33.834  24.161  22.999  1.00  0.00     0.101 A 
ATOM     24  N   UNL A   1      32.645  24.364  21.249  1.00  0.00    -0.285 N 
ATOM     25  N   UNL A   1      33.677  23.688  21.750  1.00  0.00    -0.175 NA
ATOM     26  H   UNL A   1      32.278  24.204  20.350  1.00  0.00     0.189 HD
BRANCH  23  27
ATOM     27  C   UNL A   1      34.985  23.697  23.777  1.00  0.00     0.003 A 
ATOM     28  C   UNL A   1      35.980  22.945  23.128  1.00  0.00     0.012 A 
ATOM     29  C   UNL A   1      35.107  23.920  25.150  1.00  0.00     0.012 A 
ATOM     30  C   UNL A   1      37.073  22.435  23.833  1.00  0.00     0.021 A 
ATOM     31  C   UNL A   1      36.206  23.419  25.859  1.00  0.00     0.021 A 
ATOM     32  C   UNL A   1      37.181  22.674  25.199  1.00  0.00     0.041 A 
ATOM     33  Cl  UNL A   1      38.512  22.037  26.079  1.00  0.00    -0.084 Cl
ENDBRANCH  23  27
ENDBRANCH  20  21
ENDBRANCH  18  20
ENDBRANCH   5   7
ENDBRANCH   4   5
ENDBRANCH   3   4
ENDBRANCH   2   3
ENDBRANCH   1   2
BRANCH   1  34
ATOM     34  C   UNL A   1      34.967  33.476  32.506  1.00  0.00     0.202 C 
BRANCH  34  35
ATOM     35  C   UNL A   1      36.485  33.566  32.333  1.00  0.00     0.261 C 
BRANCH  35  36
ATOM     36  O   UNL A   1      36.956  32.500  31.488  1.00  0.00    -0.460 OA
BRANCH  36  37
ATOM     37  C   UNL A   1      37.366  31.413  32.182  1.00  0.00     0.338 C 
ATOM     38  O   UNL A   1      36.895  30.998  33.226  1.00  0.00    -0.246 OA
BRANCH  37  39
ATOM     39  C   UNL A   1      38.372  30.679  31.399  1.00  0.00     0.060 A 
ATOM     40  C   UNL A   1      39.306  29.911  32.104  1.00  0.00     0.016 A 
ATOM     41  C   UNL A   1      38.485  30.851  30.019  1.00  0.00     0.016 A 
ATOM     42  C   UNL A   1      40.398  29.364  31.434  1.00  0.00     0.010 A 
ATOM     43  C   UNL A   1      39.582  30.298  29.349  1.00  0.00     0.010 A 
ATOM     44  C   UNL A   1      40.568  29.593  30.061  1.00  0.00    -0.014 A 
BRANCH  44  45
ATOM     45  C   UNL A   1      41.848  29.207  29.416  1.00  0.00     0.031 A 
ATOM     46  C   UNL A   1      42.948  30.228  29.294  1.00  0.00     0.074 A 
ATOM     47  C   UNL A   1      42.042  27.949  28.983  1.00  0.00     0.049 A 
ATOM     48  N   UNL A   1      44.163  30.085  28.829  1.00  0.00    -0.248 NA
ATOM     49  C   UNL A   1      42.640  31.591  29.756  1.00  0.00     0.031 C 
ATOM     50  C   UNL A   1      41.051  26.876  29.047  1.00  0.00     0.029 A 
ATOM     51  N   UNL A   1      43.138  27.362  28.403  1.00  0.00    -0.354 N 
ATOM     52  C   UNL A   1      44.763  31.333  28.943  1.00  0.00     0.074 A 
ATOM     53  C   UNL A   1      43.770  32.230  29.491  1.00  0.00     0.031 C 
ATOM     54  C   UNL A   1      41.582  25.760  28.518  1.00  0.00     0.029 A 
ATOM     55  C   UNL A   1      42.944  26.045  28.068  1.00  0.00     0.049 A 
ATOM     56  H   UNL A   1      43.983  27.840  28.244  1.00  0.00     0.167 HD
ATOM     57  C   UNL A   1      46.031  31.696  28.629  1.00  0.00     0.037 A 
ATOM     58  C   UNL A   1      43.769  25.168  27.459  1.00  0.00     0.037 A 
ATOM     59  C   UNL A   1      47.015  30.798  28.081  1.00  0.00     0.049 A 
ATOM     60  C   UNL A   1      45.165  25.597  27.097  1.00  0.00     0.074 A 
ATOM     61  C   UNL A   1      48.339  31.057  27.772  1.00  0.00     0.029 A 
ATOM     62  N   UNL A   1      46.777  29.473  27.745  1.00  0.00    -0.354 N 
ATOM     63  N   UNL A   1      45.741  26.763  27.276  1.00  0.00    -0.248 NA
ATOM     64  C   UNL A   1      46.029  24.592  26.464  1.00  0.00     0.031 C 
ATOM     65  C   UNL A   1      48.889  29.901  27.205  1.00  0.00     0.029 A 
ATOM     66  C   UNL A   1      47.922  28.909  27.204  1.00  0.00     0.049 A 
ATOM     67  H   UNL A   1      45.923  29.003  27.872  1.00  0.00     0.167 HD
ATOM     68  C   UNL A   1      47.038  26.626  26.792  1.00  0.00     0.074 A 
ATOM     69  C   UNL A   1      47.167  25.260  26.327  1.00  0.00     0.031 C 
ATOM     70  C   UNL A   1      48.032  27.547  26.741  1.00  0.00     0.037 A 
BRANCH  57  71
ATOM     71  C   UNL A   1      46.419  33.131  28.852  1.00  0.00     0.058 A 
ATOM     72  C   UNL A   1      46.827  33.600  30.111  1.00  0.00     0.135 A 
ATOM     73  C   UNL A   1      46.405  34.047  27.787  1.00  0.00     0.135 A 
ATOM     74  F   UNL A   1      46.845  32.771  31.168  1.00  0.00    -0.206 F 
ATOM     75  C   UNL A   1      47.181  34.931  30.313  1.00  0.00     0.059 A 
ATOM     76  C   UNL A   1      46.778  35.376  27.960  1.00  0.00     0.059 A 
ATOM     77  F   UNL A   1      46.024  33.652  26.561  1.00  0.00    -0.206 F 
ATOM     78  C   UNL A   1      47.149  35.813  29.231  1.00  0.00     0.060 A 
BRANCH  78  79
ATOM     79  S   UNL A   1      47.609  37.538  29.507  1.00  0.00     0.124 S 
ATOM     80  O   UNL A   1      46.387  38.075  30.095  1.00  0.00    -0.237 OA
ATOM     81  O   UNL A   1      48.748  37.419  30.412  1.00  0.00    -0.237 OA
ATOM     82  O   UNL A   1      47.926  38.024  28.167  1.00  0.00    -0.744 OA
ENDBRANCH  78  79
ENDBRANCH  57  71
BRANCH  58  83
ATOM     83  C   UNL A   1      43.285  23.795  27.159  1.00  0.00     0.058 A 
ATOM     84  C   UNL A   1      42.952  23.407  25.854  1.00  0.00     0.135 A 
ATOM     85  C   UNL A   1      43.182  22.831  28.175  1.00  0.00     0.135 A 
ATOM     86  F   UNL A   1      43.026  24.295  24.851  1.00  0.00    -0.206 F 
ATOM     87  C   UNL A   1      42.531  22.114  25.564  1.00  0.00     0.059 A 
ATOM     88  C   UNL A   1      42.785  21.525  27.906  1.00  0.00     0.059 A 
ATOM     89  F   UNL A   1      43.499  23.150  29.439  1.00  0.00    -0.206 F 
ATOM     90  C   UNL A   1      42.456  21.176  26.597  1.00  0.00     0.060 A 
BRANCH  90  91
ATOM     91  S   UNL A   1      41.980  19.481  26.199  1.00  0.00     0.124 S 
ATOM     92  O   UNL A   1      42.767  19.228  24.998  1.00  0.00    -0.237 OA
ATOM     93  O   UNL A   1      42.393  18.756  27.397  1.00  0.00    -0.237 OA
ATOM     94  O   UNL A   1      40.536  19.576  26.000  1.00  0.00    -0.744 OA
ENDBRANCH  90  91
ENDBRANCH  58  83
BRANCH  70  95
ATOM     95  C   UNL A   1      49.355  27.109  26.174  1.00  0.00     0.058 A 
ATOM     96  C   UNL A   1      50.365  26.579  26.992  1.00  0.00     0.135 A 
ATOM     97  C   UNL A   1      49.594  27.170  24.792  1.00  0.00     0.135 A 
ATOM     98  F   UNL A   1      50.189  26.504  28.320  1.00  0.00    -0.206 F 
ATOM     99  C   UNL A   1      51.576  26.144  26.461  1.00  0.00     0.059 A 
ATOM    100  C   UNL A   1      50.788  26.719  24.236  1.00  0.00     0.059 A 
ATOM    101  F   UNL A   1      48.657  27.658  23.964  1.00  0.00    -0.206 F 
ATOM    102  C   UNL A   1      51.778  26.218  25.082  1.00  0.00     0.060 A 
BRANCH 102 103
ATOM    103  S   UNL A   1      53.340  25.622  24.399  1.00  0.00     0.124 S 
ATOM    104  O   UNL A   1      54.292  26.564  24.978  1.00  0.00    -0.237 OA
ATOM    105  O   UNL A   1      53.407  24.257  24.913  1.00  0.00    -0.237 OA
ATOM    106  O   UNL A   1      53.144  25.732  22.957  1.00  0.00    -0.744 OA
ENDBRANCH 102 103
ENDBRANCH  70  95
ENDBRANCH  44  45
ENDBRANCH  37  39
ENDBRANCH  36  37
ENDBRANCH  35  36
ENDBRANCH  34  35
ENDBRANCH   1  34
TORSDOF 20
ENDMDL
