MODEL 1
REMARK VINA RESULT:     -10.7      0.000      0.000
REMARK SMILES Nc1ccc(O)c(C(=O)OCCOCCOC(=O)c2ccc(-c3c4nc(c(-c5c(F)cc(S(=O)(=O)[O-])cc5F)c5ccc([nH]5)c(-c5c(F)cc(S(=O)(=O)[O-])cc5F)c5nc(c(-c6c(F)cc(S(=O)(=O)[O-])cc6F)c6ccc3[nH]6)C=C5)C=C4)cc2)c1
REMARK SMILES IDX 14 1 13 2 12 3 11 4 10 5 8 6 9 7 7 8 2 9 3 10 85 11 4 12
REMARK SMILES IDX 5 13 1 14 6 17 15 19 16 20 17 21 18 22 19 23 20 24 84 25
REMARK SMILES IDX 21 26 83 27 22 28 23 29 24 30 77 31 25 32 82 33 76 34 78 35
REMARK SMILES IDX 26 36 81 37 75 38 74 39 27 41 61 42 40 43 60 44 41 45 44 46
REMARK SMILES IDX 59 47 79 48 42 49 43 50 58 52 80 53 45 54 28 55 29 56 38 57
REMARK SMILES IDX 30 58 31 59 37 60 39 61 32 62 33 63 34 64 35 65 36 66 62 67
REMARK SMILES IDX 63 68 72 69 64 70 65 71 71 72 73 73 66 74 67 75 68 76 69 77
REMARK SMILES IDX 70 78 46 79 47 80 56 81 48 82 49 83 55 84 57 85 50 86 51 87
REMARK SMILES IDX 52 88 53 89 54 90
REMARK H PARENT 1 15 1 16 6 18 78 40 44 51
REMARK Flexibility Score: inf
ROOT
ATOM      1  C   UNL A   1      41.486  22.292  27.975  1.00  0.00     0.202 C 
ENDROOT
BRANCH   1   2
ATOM      2  O   UNL A   1      40.771  21.061  27.839  1.00  0.00    -0.374 OA
BRANCH   2   3
ATOM      3  C   UNL A   1      40.367  20.701  26.516  1.00  0.00     0.202 C 
BRANCH   3   4
ATOM      4  C   UNL A   1      40.714  19.272  26.086  1.00  0.00     0.261 C 
BRANCH   4   5
ATOM      5  O   UNL A   1      41.876  19.248  25.239  1.00  0.00    -0.460 OA
BRANCH   5   6
ATOM      6  C   UNL A   1      43.008  18.797  25.829  1.00  0.00     0.342 C 
ATOM      7  O   UNL A   1      43.133  17.776  26.492  1.00  0.00    -0.246 OA
BRANCH   6   8
ATOM      8  C   UNL A   1      44.186  19.588  25.412  1.00  0.00     0.103 A 
ATOM      9  C   UNL A   1      45.219  21.644  24.621  1.00  0.00     0.032 A 
ATOM     10  C   UNL A   1      46.447  20.979  24.558  1.00  0.00     0.029 A 
ATOM     11  C   UNL A   1      44.081  20.930  25.017  1.00  0.00     0.045 A 
ATOM     12  C   UNL A   1      46.558  19.639  24.932  1.00  0.00     0.049 A 
ATOM     13  C   UNL A   1      45.433  18.951  25.367  1.00  0.00     0.130 A 
BRANCH   9  14
ATOM     14  N   UNL A   1      45.114  22.952  24.180  1.00  0.00    -0.399 N 
ATOM     15  H   UNL A   1      45.233  23.696  24.814  1.00  0.00     0.156 HD
ATOM     16  H   UNL A   1      44.921  23.140  23.233  1.00  0.00     0.156 HD
ENDBRANCH   9  14
BRANCH  13  17
ATOM     17  O   UNL A   1      45.621  17.636  25.703  1.00  0.00    -0.507 OA
ATOM     18  H   UNL A   1      44.927  17.018  25.580  1.00  0.00     0.293 HD
ENDBRANCH  13  17
ENDBRANCH   6   8
ENDBRANCH   5   6
ENDBRANCH   4   5
ENDBRANCH   3   4
ENDBRANCH   2   3
ENDBRANCH   1   2
BRANCH   1  19
ATOM     19  C   UNL A   1      41.714  23.084  26.683  1.00  0.00     0.261 C 
BRANCH  19  20
ATOM     20  O   UNL A   1      40.712  24.102  26.503  1.00  0.00    -0.460 OA
BRANCH  20  21
ATOM     21  C   UNL A   1      41.194  25.340  26.250  1.00  0.00     0.338 C 
ATOM     22  O   UNL A   1      41.438  25.825  25.152  1.00  0.00    -0.246 OA
BRANCH  21  23
ATOM     23  C   UNL A   1      41.226  26.135  27.492  1.00  0.00     0.060 A 
ATOM     24  C   UNL A   1      40.162  25.971  28.390  1.00  0.00     0.016 A 
ATOM     25  C   UNL A   1      42.239  27.060  27.757  1.00  0.00     0.016 A 
ATOM     26  C   UNL A   1      40.080  26.769  29.528  1.00  0.00     0.010 A 
ATOM     27  C   UNL A   1      42.150  27.867  28.898  1.00  0.00     0.010 A 
ATOM     28  C   UNL A   1      41.052  27.748  29.770  1.00  0.00    -0.014 A 
BRANCH  28  29
ATOM     29  C   UNL A   1      40.842  28.737  30.856  1.00  0.00     0.031 A 
ATOM     30  C   UNL A   1      41.714  28.669  32.082  1.00  0.00     0.074 A 
ATOM     31  C   UNL A   1      39.910  29.701  30.739  1.00  0.00     0.049 A 
ATOM     32  N   UNL A   1      41.685  29.406  33.161  1.00  0.00    -0.248 NA
ATOM     33  C   UNL A   1      42.759  27.632  32.089  1.00  0.00     0.031 C 
ATOM     34  C   UNL A   1      39.030  29.890  29.587  1.00  0.00     0.029 A 
ATOM     35  N   UNL A   1      39.546  30.700  31.608  1.00  0.00    -0.354 N 
ATOM     36  C   UNL A   1      42.701  28.923  33.977  1.00  0.00     0.074 A 
ATOM     37  C   UNL A   1      43.310  27.810  33.283  1.00  0.00     0.031 C 
ATOM     38  C   UNL A   1      38.218  30.934  29.825  1.00  0.00     0.029 A 
ATOM     39  C   UNL A   1      38.500  31.468  31.156  1.00  0.00     0.049 A 
ATOM     40  H   UNL A   1      39.992  30.851  32.472  1.00  0.00     0.167 HD
ATOM     41  C   UNL A   1      43.098  29.375  35.191  1.00  0.00     0.037 A 
ATOM     42  C   UNL A   1      37.833  32.472  31.759  1.00  0.00     0.037 A 
ATOM     43  C   UNL A   1      42.492  30.485  35.878  1.00  0.00     0.049 A 
ATOM     44  C   UNL A   1      38.253  32.916  33.137  1.00  0.00     0.074 A 
ATOM     45  C   UNL A   1      42.831  31.025  37.106  1.00  0.00     0.029 A 
ATOM     46  N   UNL A   1      41.421  31.225  35.398  1.00  0.00    -0.354 N 
ATOM     47  N   UNL A   1      39.227  32.461  33.889  1.00  0.00    -0.248 NA
ATOM     48  C   UNL A   1      37.486  34.011  33.748  1.00  0.00     0.031 C 
ATOM     49  C   UNL A   1      41.938  32.064  37.388  1.00  0.00     0.029 A 
ATOM     50  C   UNL A   1      41.074  32.203  36.314  1.00  0.00     0.049 A 
ATOM     51  H   UNL A   1      40.975  31.076  34.533  1.00  0.00     0.167 HD
ATOM     52  C   UNL A   1      39.208  33.232  35.047  1.00  0.00     0.074 A 
ATOM     53  C   UNL A   1      38.131  34.189  34.892  1.00  0.00     0.031 C 
ATOM     54  C   UNL A   1      40.007  33.155  36.140  1.00  0.00     0.037 A 
BRANCH  41  55
ATOM     55  C   UNL A   1      44.234  28.657  35.866  1.00  0.00     0.058 A 
ATOM     56  C   UNL A   1      45.570  29.038  35.662  1.00  0.00     0.135 A 
ATOM     57  C   UNL A   1      43.981  27.609  36.765  1.00  0.00     0.135 A 
ATOM     58  F   UNL A   1      45.868  30.021  34.798  1.00  0.00    -0.206 F 
ATOM     59  C   UNL A   1      46.616  28.394  36.314  1.00  0.00     0.059 A 
ATOM     60  C   UNL A   1      45.010  26.967  37.447  1.00  0.00     0.059 A 
ATOM     61  F   UNL A   1      42.721  27.203  36.992  1.00  0.00    -0.206 F 
ATOM     62  C   UNL A   1      46.326  27.361  37.206  1.00  0.00     0.060 A 
BRANCH  62  63
ATOM     63  S   UNL A   1      47.693  26.549  38.061  1.00  0.00     0.124 S 
ATOM     64  O   UNL A   1      48.554  26.176  36.944  1.00  0.00    -0.237 OA
ATOM     65  O   UNL A   1      48.199  27.614  38.923  1.00  0.00    -0.237 OA
ATOM     66  O   UNL A   1      47.050  25.438  38.756  1.00  0.00    -0.744 OA
ENDBRANCH  62  63
ENDBRANCH  41  55
BRANCH  42  67
ATOM     67  C   UNL A   1      36.681  33.120  31.074  1.00  0.00     0.058 A 
ATOM     68  C   UNL A   1      36.875  34.002  30.002  1.00  0.00     0.135 A 
ATOM     69  C   UNL A   1      35.364  32.882  31.497  1.00  0.00     0.135 A 
ATOM     70  F   UNL A   1      38.116  34.270  29.570  1.00  0.00    -0.206 F 
ATOM     71  C   UNL A   1      35.806  34.643  29.384  1.00  0.00     0.059 A 
ATOM     72  C   UNL A   1      34.276  33.490  30.878  1.00  0.00     0.059 A 
ATOM     73  F   UNL A   1      35.123  32.037  32.511  1.00  0.00    -0.206 F 
ATOM     74  C   UNL A   1      34.509  34.380  29.831  1.00  0.00     0.060 A 
BRANCH  74  75
ATOM     75  S   UNL A   1      33.123  35.190  29.002  1.00  0.00     0.124 S 
ATOM     76  O   UNL A   1      32.233  35.468  30.123  1.00  0.00    -0.237 OA
ATOM     77  O   UNL A   1      33.765  36.350  28.392  1.00  0.00    -0.237 OA
ATOM     78  O   UNL A   1      32.658  34.176  28.061  1.00  0.00    -0.744 OA
ENDBRANCH  74  75
ENDBRANCH  42  67
BRANCH  54  79
ATOM     79  C   UNL A   1      39.777  34.155  37.240  1.00  0.00     0.058 A 
ATOM     80  C   UNL A   1      39.092  33.813  38.416  1.00  0.00     0.135 A 
ATOM     81  C   UNL A   1      40.297  35.456  37.138  1.00  0.00     0.135 A 
ATOM     82  F   UNL A   1      38.570  32.585  38.562  1.00  0.00    -0.206 F 
ATOM     83  C   UNL A   1      38.911  34.732  39.445  1.00  0.00     0.059 A 
ATOM     84  C   UNL A   1      40.150  36.383  38.165  1.00  0.00     0.059 A 
ATOM     85  F   UNL A   1      40.970  35.831  36.039  1.00  0.00    -0.206 F 
ATOM     86  C   UNL A   1      39.445  36.016  39.310  1.00  0.00     0.060 A 
BRANCH  86  87
ATOM     87  S   UNL A   1      39.233  37.190  40.665  1.00  0.00     0.124 S 
ATOM     88  O   UNL A   1      40.613  37.583  40.932  1.00  0.00    -0.237 OA
ATOM     89  O   UNL A   1      38.387  38.216  40.061  1.00  0.00    -0.237 OA
ATOM     90  O   UNL A   1      38.593  36.394  41.707  1.00  0.00    -0.744 OA
ENDBRANCH  86  87
ENDBRANCH  54  79
ENDBRANCH  28  29
ENDBRANCH  21  23
ENDBRANCH  20  21
ENDBRANCH  19  20
ENDBRANCH   1  19
TORSDOF 19
ENDMDL
MODEL 2
REMARK VINA RESULT:     -10.5      0.440      8.652
REMARK SMILES Nc1ccc(O)c(C(=O)OCCOCCOC(=O)c2ccc(-c3c4nc(c(-c5c(F)cc(S(=O)(=O)[O-])cc5F)c5ccc([nH]5)c(-c5c(F)cc(S(=O)(=O)[O-])cc5F)c5nc(c(-c6c(F)cc(S(=O)(=O)[O-])cc6F)c6ccc3[nH]6)C=C5)C=C4)cc2)c1
REMARK SMILES IDX 14 1 13 2 12 3 11 4 10 5 8 6 9 7 7 8 2 9 3 10 85 11 4 12
REMARK SMILES IDX 5 13 1 14 6 17 15 19 16 20 17 21 18 22 19 23 20 24 84 25
REMARK SMILES IDX 21 26 83 27 22 28 23 29 24 30 77 31 25 32 82 33 76 34 78 35
REMARK SMILES IDX 26 36 81 37 75 38 74 39 27 41 61 42 40 43 60 44 41 45 44 46
REMARK SMILES IDX 59 47 79 48 42 49 43 50 58 52 80 53 45 54 28 55 29 56 38 57
REMARK SMILES IDX 30 58 31 59 37 60 39 61 32 62 33 63 34 64 35 65 36 66 62 67
REMARK SMILES IDX 63 68 72 69 64 70 65 71 71 72 73 73 66 74 67 75 68 76 69 77
REMARK SMILES IDX 70 78 46 79 47 80 56 81 48 82 49 83 55 84 57 85 50 86 51 87
REMARK SMILES IDX 52 88 53 89 54 90
REMARK H PARENT 1 15 1 16 6 18 78 40 44 51
REMARK Flexibility Score: inf
ROOT
ATOM      1  C   UNL A   1      41.813  22.496  27.697  1.00  0.00     0.202 C 
ENDROOT
BRANCH   1   2
ATOM      2  O   UNL A   1      40.761  21.528  27.735  1.00  0.00    -0.374 OA
BRANCH   2   3
ATOM      3  C   UNL A   1      40.372  20.961  26.482  1.00  0.00     0.202 C 
BRANCH   3   4
ATOM      4  C   UNL A   1      40.841  19.524  26.234  1.00  0.00     0.261 C 
BRANCH   4   5
ATOM      5  O   UNL A   1      41.937  19.485  25.304  1.00  0.00    -0.460 OA
BRANCH   5   6
ATOM      6  C   UNL A   1      43.050  18.859  25.753  1.00  0.00     0.342 C 
ATOM      7  O   UNL A   1      43.104  17.777  26.323  1.00  0.00    -0.246 OA
BRANCH   6   8
ATOM      8  C   UNL A   1      44.277  19.543  25.290  1.00  0.00     0.103 A 
ATOM      9  C   UNL A   1      45.431  21.439  24.296  1.00  0.00     0.032 A 
ATOM     10  C   UNL A   1      46.630  20.722  24.366  1.00  0.00     0.029 A 
ATOM     11  C   UNL A   1      44.248  20.828  24.729  1.00  0.00     0.045 A 
ATOM     12  C   UNL A   1      46.666  19.436  24.907  1.00  0.00     0.049 A 
ATOM     13  C   UNL A   1      45.495  18.855  25.376  1.00  0.00     0.130 A 
BRANCH   9  14
ATOM     14  N   UNL A   1      45.403  22.685  23.693  1.00  0.00    -0.399 N 
ATOM     15  H   UNL A   1      44.567  23.020  23.295  1.00  0.00     0.156 HD
ATOM     16  H   UNL A   1      46.218  23.236  23.661  1.00  0.00     0.156 HD
ENDBRANCH   9  14
BRANCH  13  17
ATOM     17  O   UNL A   1      45.610  17.585  25.879  1.00  0.00    -0.507 OA
ATOM     18  H   UNL A   1      46.198  17.413  26.588  1.00  0.00     0.293 HD
ENDBRANCH  13  17
ENDBRANCH   6   8
ENDBRANCH   5   6
ENDBRANCH   4   5
ENDBRANCH   3   4
ENDBRANCH   2   3
ENDBRANCH   1   2
BRANCH   1  19
ATOM     19  C   UNL A   1      41.930  23.313  26.406  1.00  0.00     0.261 C 
BRANCH  19  20
ATOM     20  O   UNL A   1      40.942  24.360  26.352  1.00  0.00    -0.460 OA
BRANCH  20  21
ATOM     21  C   UNL A   1      41.439  25.605  26.178  1.00  0.00     0.338 C 
ATOM     22  O   UNL A   1      41.669  26.165  25.113  1.00  0.00    -0.246 OA
BRANCH  21  23
ATOM     23  C   UNL A   1      41.508  26.308  27.474  1.00  0.00     0.060 A 
ATOM     24  C   UNL A   1      40.495  26.043  28.405  1.00  0.00     0.016 A 
ATOM     25  C   UNL A   1      42.505  27.245  27.759  1.00  0.00     0.016 A 
ATOM     26  C   UNL A   1      40.445  26.752  29.603  1.00  0.00     0.010 A 
ATOM     27  C   UNL A   1      42.447  27.962  28.961  1.00  0.00     0.010 A 
ATOM     28  C   UNL A   1      41.398  27.743  29.872  1.00  0.00    -0.014 A 
BRANCH  28  29
ATOM     29  C   UNL A   1      41.211  28.641  31.038  1.00  0.00     0.031 A 
ATOM     30  C   UNL A   1      40.121  29.679  30.990  1.00  0.00     0.074 A 
ATOM     31  C   UNL A   1      41.979  28.514  32.136  1.00  0.00     0.049 A 
ATOM     32  N   UNL A   1      39.801  30.585  31.876  1.00  0.00    -0.248 NA
ATOM     33  C   UNL A   1      39.278  29.693  29.783  1.00  0.00     0.031 C 
ATOM     34  C   UNL A   1      43.042  27.526  32.313  1.00  0.00     0.029 A 
ATOM     35  N   UNL A   1      41.985  29.229  33.307  1.00  0.00    -0.354 N 
ATOM     36  C   UNL A   1      38.725  31.281  31.335  1.00  0.00     0.074 A 
ATOM     37  C   UNL A   1      38.465  30.711  30.031  1.00  0.00     0.031 C 
ATOM     38  C   UNL A   1      43.606  27.705  33.519  1.00  0.00     0.029 A 
ATOM     39  C   UNL A   1      42.966  28.837  34.186  1.00  0.00     0.049 A 
ATOM     40  H   UNL A   1      41.347  29.954  33.500  1.00  0.00     0.167 HD
ATOM     41  C   UNL A   1      38.012  32.294  31.881  1.00  0.00     0.037 A 
ATOM     42  C   UNL A   1      43.320  29.350  35.382  1.00  0.00     0.037 A 
ATOM     43  C   UNL A   1      38.272  32.857  33.181  1.00  0.00     0.049 A 
ATOM     44  C   UNL A   1      42.550  30.519  35.941  1.00  0.00     0.074 A 
ATOM     45  C   UNL A   1      37.598  33.878  33.826  1.00  0.00     0.029 A 
ATOM     46  N   UNL A   1      39.288  32.447  34.032  1.00  0.00    -0.354 N 
ATOM     47  N   UNL A   1      41.524  31.155  35.426  1.00  0.00    -0.248 NA
ATOM     48  C   UNL A   1      42.984  31.040  37.246  1.00  0.00     0.031 C 
ATOM     49  C   UNL A   1      38.232  34.115  35.050  1.00  0.00     0.029 A 
ATOM     50  C   UNL A   1      39.271  33.209  35.189  1.00  0.00     0.049 A 
ATOM     51  H   UNL A   1      39.926  31.722  33.842  1.00  0.00     0.167 HD
ATOM     52  C   UNL A   1      41.174  32.129  36.355  1.00  0.00     0.074 A 
ATOM     53  C   UNL A   1      42.091  31.994  37.468  1.00  0.00     0.031 C 
ATOM     54  C   UNL A   1      40.184  33.053  36.293  1.00  0.00     0.037 A 
BRANCH  41  55
ATOM     55  C   UNL A   1      36.890  32.876  31.068  1.00  0.00     0.058 A 
ATOM     56  C   UNL A   1      35.550  32.531  31.310  1.00  0.00     0.135 A 
ATOM     57  C   UNL A   1      37.151  33.827  30.069  1.00  0.00     0.135 A 
ATOM     58  F   UNL A   1      35.247  31.613  32.241  1.00  0.00    -0.206 F 
ATOM     59  C   UNL A   1      34.511  33.096  30.579  1.00  0.00     0.059 A 
ATOM     60  C   UNL A   1      36.125  34.424  29.342  1.00  0.00     0.059 A 
ATOM     61  F   UNL A   1      38.415  34.189  29.795  1.00  0.00    -0.206 F 
ATOM     62  C   UNL A   1      34.809  34.043  29.598  1.00  0.00     0.060 A 
BRANCH  62  63
ATOM     63  S   UNL A   1      33.447  34.784  28.672  1.00  0.00     0.124 S 
ATOM     64  O   UNL A   1      34.103  35.938  28.064  1.00  0.00    -0.237 OA
ATOM     65  O   UNL A   1      33.074  33.711  27.755  1.00  0.00    -0.237 OA
ATOM     66  O   UNL A   1      32.462  35.094  29.703  1.00  0.00    -0.744 OA
ENDBRANCH  62  63
ENDBRANCH  41  55
BRANCH  42  67
ATOM     67  C   UNL A   1      44.471  28.775  36.129  1.00  0.00     0.058 A 
ATOM     68  C   UNL A   1      44.301  27.700  37.013  1.00  0.00     0.135 A 
ATOM     69  C   UNL A   1      45.762  29.308  35.987  1.00  0.00     0.135 A 
ATOM     70  F   UNL A   1      43.085  27.163  37.191  1.00  0.00    -0.206 F 
ATOM     71  C   UNL A   1      45.366  27.183  37.745  1.00  0.00     0.059 A 
ATOM     72  C   UNL A   1      46.847  28.793  36.689  1.00  0.00     0.059 A 
ATOM     73  F   UNL A   1      45.980  30.330  35.146  1.00  0.00    -0.206 F 
ATOM     74  C   UNL A   1      46.636  27.739  37.576  1.00  0.00     0.060 A 
BRANCH  74  75
ATOM     75  S   UNL A   1      48.020  27.043  38.505  1.00  0.00     0.124 S 
ATOM     76  O   UNL A   1      48.759  28.244  38.875  1.00  0.00    -0.237 OA
ATOM     77  O   UNL A   1      47.340  26.349  39.595  1.00  0.00    -0.237 OA
ATOM     78  O   UNL A   1      48.672  26.173  37.531  1.00  0.00    -0.744 OA
ENDBRANCH  74  75
ENDBRANCH  42  67
BRANCH  54  79
ATOM     79  C   UNL A   1      40.011  33.967  37.475  1.00  0.00     0.058 A 
ATOM     80  C   UNL A   1      40.585  35.248  37.508  1.00  0.00     0.135 A 
ATOM     81  C   UNL A   1      39.214  33.577  38.564  1.00  0.00     0.135 A 
ATOM     82  F   UNL A   1      41.359  35.667  36.494  1.00  0.00    -0.206 F 
ATOM     83  C   UNL A   1      40.395  36.102  38.590  1.00  0.00     0.059 A 
ATOM     84  C   UNL A   1      38.990  34.425  39.645  1.00  0.00     0.059 A 
ATOM     85  F   UNL A   1      38.633  32.367  38.577  1.00  0.00    -0.206 F 
ATOM     86  C   UNL A   1      39.594  35.681  39.654  1.00  0.00     0.060 A 
BRANCH  86  87
ATOM     87  S   UNL A   1      39.327  36.810  41.037  1.00  0.00     0.124 S 
ATOM     88  O   UNL A   1      38.452  36.019  41.897  1.00  0.00    -0.237 OA
ATOM     89  O   UNL A   1      40.683  37.021  41.536  1.00  0.00    -0.237 OA
ATOM     90  O   UNL A   1      38.708  37.974  40.411  1.00  0.00    -0.744 OA
ENDBRANCH  86  87
ENDBRANCH  54  79
ENDBRANCH  28  29
ENDBRANCH  21  23
ENDBRANCH  20  21
ENDBRANCH  19  20
ENDBRANCH   1  19
TORSDOF 19
ENDMDL
MODEL 3
REMARK VINA RESULT:     -10.4      1.258      2.484
REMARK SMILES Nc1ccc(O)c(C(=O)OCCOCCOC(=O)c2ccc(-c3c4nc(c(-c5c(F)cc(S(=O)(=O)[O-])cc5F)c5ccc([nH]5)c(-c5c(F)cc(S(=O)(=O)[O-])cc5F)c5nc(c(-c6c(F)cc(S(=O)(=O)[O-])cc6F)c6ccc3[nH]6)C=C5)C=C4)cc2)c1
REMARK SMILES IDX 14 1 13 2 12 3 11 4 10 5 8 6 9 7 7 8 2 9 3 10 85 11 4 12
REMARK SMILES IDX 5 13 1 14 6 17 15 19 16 20 17 21 18 22 19 23 20 24 84 25
REMARK SMILES IDX 21 26 83 27 22 28 23 29 24 30 77 31 25 32 82 33 76 34 78 35
REMARK SMILES IDX 26 36 81 37 75 38 74 39 27 41 61 42 40 43 60 44 41 45 44 46
REMARK SMILES IDX 59 47 79 48 42 49 43 50 58 52 80 53 45 54 28 55 29 56 38 57
REMARK SMILES IDX 30 58 31 59 37 60 39 61 32 62 33 63 34 64 35 65 36 66 62 67
REMARK SMILES IDX 63 68 72 69 64 70 65 71 71 72 73 73 66 74 67 75 68 76 69 77
REMARK SMILES IDX 70 78 46 79 47 80 56 81 48 82 49 83 55 84 57 85 50 86 51 87
REMARK SMILES IDX 52 88 53 89 54 90
REMARK H PARENT 1 15 1 16 6 18 78 40 44 51
REMARK Flexibility Score: inf
ROOT
ATOM      1  C   UNL A   1      44.404  24.767  24.998  1.00  0.00     0.202 C 
ENDROOT
BRANCH   1   2
ATOM      2  O   UNL A   1      45.436  23.917  24.490  1.00  0.00    -0.374 OA
BRANCH   2   3
ATOM      3  C   UNL A   1      45.961  22.942  25.393  1.00  0.00     0.202 C 
BRANCH   3   4
ATOM      4  C   UNL A   1      46.020  21.508  24.855  1.00  0.00     0.261 C 
BRANCH   4   5
ATOM      5  O   UNL A   1      44.835  21.179  24.110  1.00  0.00    -0.460 OA
BRANCH   5   6
ATOM      6  C   UNL A   1      44.501  19.868  24.111  1.00  0.00     0.342 C 
ATOM      7  O   UNL A   1      44.929  19.001  23.361  1.00  0.00    -0.246 OA
BRANCH   6   8
ATOM      8  C   UNL A   1      43.679  19.522  25.291  1.00  0.00     0.103 A 
ATOM      9  C   UNL A   1      41.823  19.933  26.808  1.00  0.00     0.032 A 
ATOM     10  C   UNL A   1      42.238  18.844  27.581  1.00  0.00     0.029 A 
ATOM     11  C   UNL A   1      42.571  20.289  25.679  1.00  0.00     0.045 A 
ATOM     12  C   UNL A   1      43.349  18.085  27.212  1.00  0.00     0.049 A 
ATOM     13  C   UNL A   1      44.060  18.418  26.066  1.00  0.00     0.130 A 
BRANCH   9  14
ATOM     14  N   UNL A   1      40.760  20.715  27.227  1.00  0.00    -0.399 N 
ATOM     15  H   UNL A   1      40.882  21.685  27.350  1.00  0.00     0.156 HD
ATOM     16  H   UNL A   1      39.883  20.304  27.402  1.00  0.00     0.156 HD
ENDBRANCH   9  14
BRANCH  13  17
ATOM     17  O   UNL A   1      45.147  17.634  25.779  1.00  0.00    -0.507 OA
ATOM     18  H   UNL A   1      45.581  17.165  26.465  1.00  0.00     0.293 HD
ENDBRANCH  13  17
ENDBRANCH   6   8
ENDBRANCH   5   6
ENDBRANCH   4   5
ENDBRANCH   3   4
ENDBRANCH   2   3
ENDBRANCH   1   2
BRANCH   1  19
ATOM     19  C   UNL A   1      43.066  24.089  25.312  1.00  0.00     0.261 C 
BRANCH  19  20
ATOM     20  O   UNL A   1      42.646  24.349  26.664  1.00  0.00    -0.460 OA
BRANCH  20  21
ATOM     21  C   UNL A   1      41.307  24.385  26.849  1.00  0.00     0.338 C 
ATOM     22  O   UNL A   1      40.492  23.541  26.496  1.00  0.00    -0.246 OA
BRANCH  21  23
ATOM     23  C   UNL A   1      40.946  25.519  27.721  1.00  0.00     0.060 A 
ATOM     24  C   UNL A   1      41.803  26.628  27.724  1.00  0.00     0.016 A 
ATOM     25  C   UNL A   1      39.829  25.486  28.560  1.00  0.00     0.016 A 
ATOM     26  C   UNL A   1      41.576  27.684  28.602  1.00  0.00     0.010 A 
ATOM     27  C   UNL A   1      39.607  26.546  29.448  1.00  0.00     0.010 A 
ATOM     28  C   UNL A   1      40.499  27.633  29.497  1.00  0.00    -0.014 A 
BRANCH  28  29
ATOM     29  C   UNL A   1      40.392  28.648  30.573  1.00  0.00     0.031 A 
ATOM     30  C   UNL A   1      41.302  28.541  31.768  1.00  0.00     0.074 A 
ATOM     31  C   UNL A   1      39.521  29.669  30.474  1.00  0.00     0.049 A 
ATOM     32  N   UNL A   1      41.360  29.292  32.836  1.00  0.00    -0.248 NA
ATOM     33  C   UNL A   1      42.278  27.439  31.755  1.00  0.00     0.031 C 
ATOM     34  C   UNL A   1      38.613  29.898  29.351  1.00  0.00     0.029 A 
ATOM     35  N   UNL A   1      39.253  30.700  31.339  1.00  0.00    -0.354 N 
ATOM     36  C   UNL A   1      42.372  28.756  33.623  1.00  0.00     0.074 A 
ATOM     37  C   UNL A   1      42.883  27.597  32.925  1.00  0.00     0.031 C 
ATOM     38  C   UNL A   1      37.878  30.995  29.602  1.00  0.00     0.029 A 
ATOM     39  C   UNL A   1      38.242  31.528  30.913  1.00  0.00     0.049 A 
ATOM     40  H   UNL A   1      39.739  30.834  32.185  1.00  0.00     0.167 HD
ATOM     41  C   UNL A   1      42.841  29.198  34.814  1.00  0.00     0.037 A 
ATOM     42  C   UNL A   1      37.664  32.581  31.523  1.00  0.00     0.037 A 
ATOM     43  C   UNL A   1      42.333  30.354  35.505  1.00  0.00     0.049 A 
ATOM     44  C   UNL A   1      38.162  33.016  32.879  1.00  0.00     0.074 A 
ATOM     45  C   UNL A   1      42.751  30.887  36.711  1.00  0.00     0.029 A 
ATOM     46  N   UNL A   1      41.295  31.155  35.052  1.00  0.00    -0.354 N 
ATOM     47  N   UNL A   1      39.132  32.509  33.602  1.00  0.00    -0.248 NA
ATOM     48  C   UNL A   1      37.489  34.167  33.499  1.00  0.00     0.031 C 
ATOM     49  C   UNL A   1      41.937  31.986  37.009  1.00  0.00     0.029 A 
ATOM     50  C   UNL A   1      41.045  32.166  35.964  1.00  0.00     0.049 A 
ATOM     51  H   UNL A   1      40.809  31.023  34.205  1.00  0.00     0.167 HD
ATOM     52  C   UNL A   1      39.204  33.296  34.748  1.00  0.00     0.074 A 
ATOM     53  C   UNL A   1      38.185  34.318  34.616  1.00  0.00     0.031 C 
ATOM     54  C   UNL A   1      40.036  33.182  35.812  1.00  0.00     0.037 A 
BRANCH  41  55
ATOM     55  C   UNL A   1      43.952  28.417  35.460  1.00  0.00     0.058 A 
ATOM     56  C   UNL A   1      43.691  27.391  36.382  1.00  0.00     0.135 A 
ATOM     57  C   UNL A   1      45.291  28.663  35.115  1.00  0.00     0.135 A 
ATOM     58  F   UNL A   1      42.431  27.128  36.761  1.00  0.00    -0.206 F 
ATOM     59  C   UNL A   1      44.719  26.648  36.952  1.00  0.00     0.059 A 
ATOM     60  C   UNL A   1      46.334  27.916  35.654  1.00  0.00     0.059 A 
ATOM     61  F   UNL A   1      45.595  29.636  34.240  1.00  0.00    -0.206 F 
ATOM     62  C   UNL A   1      46.038  26.917  36.580  1.00  0.00     0.060 A 
BRANCH  62  63
ATOM     63  S   UNL A   1      47.360  25.929  37.313  1.00  0.00     0.124 S 
ATOM     64  O   UNL A   1      46.790  24.587  37.250  1.00  0.00    -0.237 OA
ATOM     65  O   UNL A   1      48.478  26.186  36.410  1.00  0.00    -0.237 OA
ATOM     66  O   UNL A   1      47.501  26.489  38.653  1.00  0.00    -0.744 OA
ENDBRANCH  62  63
ENDBRANCH  41  55
BRANCH  42  67
ATOM     67  C   UNL A   1      36.532  33.293  30.870  1.00  0.00     0.058 A 
ATOM     68  C   UNL A   1      36.742  34.148  29.779  1.00  0.00     0.135 A 
ATOM     69  C   UNL A   1      35.218  33.146  31.342  1.00  0.00     0.135 A 
ATOM     70  F   UNL A   1      37.981  34.330  29.298  1.00  0.00    -0.206 F 
ATOM     71  C   UNL A   1      35.694  34.848  29.189  1.00  0.00     0.059 A 
ATOM     72  C   UNL A   1      34.150  33.815  30.753  1.00  0.00     0.059 A 
ATOM     73  F   UNL A   1      34.961  32.331  32.377  1.00  0.00    -0.206 F 
ATOM     74  C   UNL A   1      34.401  34.675  29.685  1.00  0.00     0.060 A 
BRANCH  74  75
ATOM     75  S   UNL A   1      33.040  35.561  28.894  1.00  0.00     0.124 S 
ATOM     76  O   UNL A   1      32.476  34.526  28.035  1.00  0.00    -0.237 OA
ATOM     77  O   UNL A   1      32.225  35.957  30.038  1.00  0.00    -0.237 OA
ATOM     78  O   UNL A   1      33.712  36.658  28.204  1.00  0.00    -0.744 OA
ENDBRANCH  74  75
ENDBRANCH  42  67
BRANCH  54  79
ATOM     79  C   UNL A   1      39.910  34.210  36.904  1.00  0.00     0.058 A 
ATOM     80  C   UNL A   1      40.611  35.425  36.857  1.00  0.00     0.135 A 
ATOM     81  C   UNL A   1      39.035  33.998  37.982  1.00  0.00     0.135 A 
ATOM     82  F   UNL A   1      41.464  35.675  35.851  1.00  0.00    -0.206 F 
ATOM     83  C   UNL A   1      40.466  36.386  37.853  1.00  0.00     0.059 A 
ATOM     84  C   UNL A   1      38.856  34.956  38.976  1.00  0.00     0.059 A 
ATOM     85  F   UNL A   1      38.333  32.857  38.069  1.00  0.00    -0.206 F 
ATOM     86  C   UNL A   1      39.584  36.142  38.909  1.00  0.00     0.060 A 
BRANCH  86  87
ATOM     87  S   UNL A   1      39.379  37.410  40.178  1.00  0.00     0.124 S 
ATOM     88  O   UNL A   1      38.473  38.343  39.516  1.00  0.00    -0.237 OA
ATOM     89  O   UNL A   1      38.810  36.653  41.288  1.00  0.00    -0.237 OA
ATOM     90  O   UNL A   1      40.738  37.898  40.392  1.00  0.00    -0.744 OA
ENDBRANCH  86  87
ENDBRANCH  54  79
ENDBRANCH  28  29
ENDBRANCH  21  23
ENDBRANCH  20  21
ENDBRANCH  19  20
ENDBRANCH   1  19
TORSDOF 19
ENDMDL
