MODEL 1
REMARK VINA RESULT:     -11.4      0.000      0.000
REMARK SMILES CCCCc1cc(S(F)(F)(F)(F)F)cc2c1O[C@@H](C(F)(F)F)C(C(=O)OCCOCCOC(=O)c1ccc(-c3c4nc(c(-c5c(F)cc(S(=O)(=O)[O-])cc5F)c5ccc([nH]5)c(-c5c(F)cc(S(=O)(=O)[O-])cc5F)c5nc(c(-c6c(F)cc(S(=O)(=O)[O-])cc6F)c6ccc3[nH]6)C=C5)C=C4)cc1)=C2
REMARK SMILES IDX 29 1 28 2 27 3 26 4 24 5 25 6 23 7 5 8 6 9 16 10 7 11 15 12
REMARK SMILES IDX 17 13 14 14 101 15 18 16 4 17 3 18 2 19 1 20 8 21 9 22 10 23
REMARK SMILES IDX 11 24 12 25 13 26 19 27 20 28 21 29 22 30 30 31 31 32 32 33
REMARK SMILES IDX 33 34 34 35 35 36 36 37 100 38 37 39 99 40 38 41 39 42 40 43
REMARK SMILES IDX 93 44 41 45 98 46 92 47 94 48 42 49 97 50 91 51 90 52 43 54
REMARK SMILES IDX 77 55 56 56 76 57 57 58 60 59 75 60 95 61 58 62 59 63 74 65
REMARK SMILES IDX 96 66 61 67 44 68 45 69 54 70 46 71 47 72 53 73 55 74 48 75
REMARK SMILES IDX 49 76 50 77 51 78 52 79 78 80 79 81 88 82 80 83 81 84 87 85
REMARK SMILES IDX 89 86 82 87 83 88 84 89 85 90 86 91 62 92 63 93 72 94 64 95
REMARK SMILES IDX 65 96 71 97 73 98 66 99 67 100 68 101 69 102 70 103
REMARK H PARENT 94 53 60 64
REMARK Flexibility Score: inf
ROOT
ATOM      1  O   UNL A   1      37.655  22.281  25.527  1.00  0.00    -0.374 OA
ENDROOT
BRANCH   1   2
ATOM      2  C   UNL A   1      37.321  21.178  24.696  1.00  0.00     0.202 C 
BRANCH   2   3
ATOM      3  C   UNL A   1      35.813  20.980  24.699  1.00  0.00     0.261 C 
BRANCH   3   4
ATOM      4  O   UNL A   1      35.198  22.026  23.963  1.00  0.00    -0.460 OA
BRANCH   4   5
ATOM      5  C   UNL A   1      33.805  22.269  24.101  1.00  0.00     0.338 C 
ATOM      6  O   UNL A   1      32.974  21.328  23.902  1.00  0.00    -0.246 OA
BRANCH   5   7
ATOM      7  C   UNL A   1      33.309  23.654  24.486  1.00  0.00     0.087 C 
ATOM      8  C   UNL A   1      31.591  27.219  25.820  1.00  0.00    -0.004 A 
ATOM      9  C   UNL A   1      30.943  28.051  24.924  1.00  0.00     0.032 A 
ATOM     10  C   UNL A   1      32.101  26.027  25.364  1.00  0.00     0.131 A 
ATOM     11  C   UNL A   1      30.806  27.696  23.607  1.00  0.00     0.108 A 
ATOM     12  C   UNL A   1      31.997  25.646  24.039  1.00  0.00     0.019 A 
ATOM     13  O   UNL A   1      32.639  25.163  26.286  1.00  0.00    -0.475 OA
ATOM     14  C   UNL A   1      31.336  26.502  23.166  1.00  0.00     0.036 A 
ATOM     15  C   UNL A   1      32.533  24.348  23.664  1.00  0.00     0.027 C 
ATOM     16  C   UNL A   1      33.694  24.273  25.823  1.00  0.00     0.316 C 
BRANCH   8  17
ATOM     17  C   UNL A   1      31.735  27.616  27.280  1.00  0.00     0.039 C 
BRANCH  17  18
ATOM     18  C   UNL A   1      32.338  29.008  27.369  1.00  0.00     0.005 C 
BRANCH  18  19
ATOM     19  C   UNL A   1      33.855  28.905  27.359  1.00  0.00    -0.003 C 
ATOM     20  C   UNL A   1      34.457  30.287  27.554  1.00  0.00     0.004 C 
ENDBRANCH  18  19
ENDBRANCH  17  18
ENDBRANCH   8  17
BRANCH  11  21
ATOM     21  S   UNL A   1      29.934  28.789  22.457  1.00  0.00     0.310 S 
ATOM     22  F   UNL A   1      29.732  29.902  23.569  1.00  0.00    -0.094 F 
ATOM     23  F   UNL A   1      28.568  28.164  22.932  1.00  0.00    -0.094 F 
ATOM     24  F   UNL A   1      29.191  29.730  21.466  1.00  0.00    -0.094 F 
ATOM     25  F   UNL A   1      31.298  29.500  22.098  1.00  0.00    -0.094 F 
ATOM     26  F   UNL A   1      30.690  27.919  23.539  1.00  0.00    -0.094 F 
ENDBRANCH  11  21
BRANCH  16  27
ATOM     27  C   UNL A   1      33.892  23.165  26.845  1.00  0.00     0.430 C 
ATOM     28  F   UNL A   1      33.263  22.067  26.435  1.00  0.00    -0.167 F 
ATOM     29  F   UNL A   1      35.190  22.910  26.976  1.00  0.00    -0.167 F 
ATOM     30  F   UNL A   1      33.395  23.549  28.017  1.00  0.00    -0.167 F 
ENDBRANCH  16  27
ENDBRANCH   5   7
ENDBRANCH   4   5
ENDBRANCH   3   4
ENDBRANCH   2   3
ENDBRANCH   1   2
BRANCH   1  31
ATOM     31  C   UNL A   1      38.986  22.131  26.000  1.00  0.00     0.202 C 
BRANCH  31  32
ATOM     32  C   UNL A   1      39.439  23.425  26.656  1.00  0.00     0.261 C 
BRANCH  32  33
ATOM     33  O   UNL A   1      40.850  23.541  26.550  1.00  0.00    -0.460 OA
BRANCH  33  34
ATOM     34  C   UNL A   1      41.453  24.825  26.475  1.00  0.00     0.338 C 
ATOM     35  O   UNL A   1      42.131  25.149  25.450  1.00  0.00    -0.246 OA
BRANCH  34  36
ATOM     36  C   UNL A   1      41.289  25.811  27.620  1.00  0.00     0.060 A 
ATOM     37  C   UNL A   1      40.357  25.550  28.611  1.00  0.00     0.016 A 
ATOM     38  C   UNL A   1      42.041  26.904  27.652  1.00  0.00     0.016 A 
ATOM     39  C   UNL A   1      40.087  26.658  29.449  1.00  0.00     0.010 A 
ATOM     40  C   UNL A   1      41.810  27.886  28.585  1.00  0.00     0.010 A 
ATOM     41  C   UNL A   1      40.862  27.722  29.557  1.00  0.00    -0.014 A 
BRANCH  41  42
ATOM     42  C   UNL A   1      40.711  28.710  30.703  1.00  0.00     0.031 A 
ATOM     43  C   UNL A   1      39.726  29.694  30.595  1.00  0.00     0.074 A 
ATOM     44  C   UNL A   1      41.558  28.578  31.789  1.00  0.00     0.049 A 
ATOM     45  N   UNL A   1      39.407  30.627  31.493  1.00  0.00    -0.248 NA
ATOM     46  C   UNL A   1      38.848  29.858  29.427  1.00  0.00     0.031 C 
ATOM     47  C   UNL A   1      42.548  27.583  31.909  1.00  0.00     0.029 A 
ATOM     48  N   UNL A   1      41.603  29.356  32.925  1.00  0.00    -0.354 N 
ATOM     49  C   UNL A   1      38.398  31.376  31.042  1.00  0.00     0.074 A 
ATOM     50  C   UNL A   1      38.029  30.896  29.703  1.00  0.00     0.031 C 
ATOM     51  C   UNL A   1      43.189  27.767  33.093  1.00  0.00     0.029 A 
ATOM     52  C   UNL A   1      42.610  28.878  33.734  1.00  0.00     0.049 A 
ATOM     53  H   UNL A   1      41.018  30.123  33.123  1.00  0.00     0.167 HD
ATOM     54  C   UNL A   1      37.772  32.439  31.694  1.00  0.00     0.037 A 
ATOM     55  C   UNL A   1      43.016  29.371  34.964  1.00  0.00     0.037 A 
ATOM     56  C   UNL A   1      38.150  32.904  32.944  1.00  0.00     0.049 A 
ATOM     57  C   UNL A   1      42.428  30.471  35.592  1.00  0.00     0.074 A 
ATOM     58  C   UNL A   1      37.524  33.970  33.619  1.00  0.00     0.029 A 
ATOM     59  N   UNL A   1      39.173  32.440  33.743  1.00  0.00    -0.354 N 
ATOM     60  N   UNL A   1      41.394  31.194  35.158  1.00  0.00    -0.248 NA
ATOM     61  C   UNL A   1      42.871  31.021  36.880  1.00  0.00     0.031 C 
ATOM     62  C   UNL A   1      38.166  34.153  34.804  1.00  0.00     0.029 A 
ATOM     63  C   UNL A   1      39.203  33.205  34.888  1.00  0.00     0.049 A 
ATOM     64  H   UNL A   1      39.777  31.693  33.531  1.00  0.00     0.167 HD
ATOM     65  C   UNL A   1      41.103  32.154  36.038  1.00  0.00     0.074 A 
ATOM     66  C   UNL A   1      42.053  32.061  37.155  1.00  0.00     0.031 C 
ATOM     67  C   UNL A   1      40.080  33.100  35.957  1.00  0.00     0.037 A 
BRANCH  54  68
ATOM     68  C   UNL A   1      36.609  33.124  30.996  1.00  0.00     0.058 A 
ATOM     69  C   UNL A   1      35.304  32.865  31.378  1.00  0.00     0.135 A 
ATOM     70  C   UNL A   1      36.889  34.046  30.082  1.00  0.00     0.135 A 
ATOM     71  F   UNL A   1      34.992  32.146  32.454  1.00  0.00    -0.206 F 
ATOM     72  C   UNL A   1      34.332  33.434  30.522  1.00  0.00     0.059 A 
ATOM     73  C   UNL A   1      35.882  34.661  29.378  1.00  0.00     0.059 A 
ATOM     74  F   UNL A   1      38.155  34.377  29.845  1.00  0.00    -0.206 F 
ATOM     75  C   UNL A   1      34.568  34.408  29.663  1.00  0.00     0.060 A 
BRANCH  75  76
ATOM     76  S   UNL A   1      33.228  35.356  28.901  1.00  0.00     0.124 S 
ATOM     77  O   UNL A   1      32.330  35.939  29.995  1.00  0.00    -0.237 OA
ATOM     78  O   UNL A   1      33.820  36.495  28.066  1.00  0.00    -0.237 OA
ATOM     79  O   UNL A   1      32.304  34.330  27.892  1.00  0.00    -0.744 OA
ENDBRANCH  75  76
ENDBRANCH  54  68
BRANCH  55  80
ATOM     80  C   UNL A   1      44.168  28.673  35.670  1.00  0.00     0.058 A 
ATOM     81  C   UNL A   1      45.473  29.038  35.384  1.00  0.00     0.135 A 
ATOM     82  C   UNL A   1      43.899  27.655  36.479  1.00  0.00     0.135 A 
ATOM     83  F   UNL A   1      45.793  30.187  34.795  1.00  0.00    -0.206 F 
ATOM     84  C   UNL A   1      46.435  28.078  35.776  1.00  0.00     0.059 A 
ATOM     85  C   UNL A   1      44.906  26.838  36.934  1.00  0.00     0.059 A 
ATOM     86  F   UNL A   1      42.643  27.424  36.852  1.00  0.00    -0.206 F 
ATOM     87  C   UNL A   1      46.214  27.105  36.640  1.00  0.00     0.060 A 
BRANCH  87  88
ATOM     88  S   UNL A   1      47.570  26.175  37.398  1.00  0.00     0.124 S 
ATOM     89  O   UNL A   1      47.009  24.932  38.094  1.00  0.00    -0.237 OA
ATOM     90  O   UNL A   1      48.564  25.749  36.315  1.00  0.00    -0.237 OA
ATOM     91  O   UNL A   1      48.365  27.161  38.546  1.00  0.00    -0.744 OA
ENDBRANCH  87  88
ENDBRANCH  55  80
BRANCH  67  92
ATOM     92  C   UNL A   1      39.917  34.075  37.112  1.00  0.00     0.058 A 
ATOM     93  C   UNL A   1      39.089  33.742  38.170  1.00  0.00     0.135 A 
ATOM     94  C   UNL A   1      40.571  35.231  37.086  1.00  0.00     0.135 A 
ATOM     95  F   UNL A   1      38.620  32.512  38.365  1.00  0.00    -0.206 F 
ATOM     96  C   UNL A   1      38.787  34.827  39.026  1.00  0.00     0.059 A 
ATOM     97  C   UNL A   1      40.324  36.194  38.034  1.00  0.00     0.059 A 
ATOM     98  F   UNL A   1      41.471  35.458  36.135  1.00  0.00    -0.206 F 
ATOM     99  C   UNL A   1      39.472  35.954  39.076  1.00  0.00     0.060 A 
BRANCH  99 100
ATOM    100  S   UNL A   1      39.293  37.120  40.449  1.00  0.00     0.124 S 
ATOM    101  O   UNL A   1      40.641  37.788  40.729  1.00  0.00    -0.237 OA
ATOM    102  O   UNL A   1      38.261  38.188  40.080  1.00  0.00    -0.237 OA
ATOM    103  O   UNL A   1      38.771  36.282  41.845  1.00  0.00    -0.744 OA
ENDBRANCH  99 100
ENDBRANCH  67  92
ENDBRANCH  41  42
ENDBRANCH  34  36
ENDBRANCH  33  34
ENDBRANCH  32  33
ENDBRANCH  31  32
ENDBRANCH   1  31
TORSDOF 22
ENDMDL
MODEL 2
REMARK VINA RESULT:     -11.3      1.590      2.372
REMARK SMILES CCCCc1cc(S(F)(F)(F)(F)F)cc2c1O[C@@H](C(F)(F)F)C(C(=O)OCCOCCOC(=O)c1ccc(-c3c4nc(c(-c5c(F)cc(S(=O)(=O)[O-])cc5F)c5ccc([nH]5)c(-c5c(F)cc(S(=O)(=O)[O-])cc5F)c5nc(c(-c6c(F)cc(S(=O)(=O)[O-])cc6F)c6ccc3[nH]6)C=C5)C=C4)cc1)=C2
REMARK SMILES IDX 29 1 28 2 27 3 26 4 24 5 25 6 23 7 5 8 6 9 16 10 7 11 15 12
REMARK SMILES IDX 17 13 14 14 101 15 18 16 4 17 3 18 2 19 1 20 8 21 9 22 10 23
REMARK SMILES IDX 11 24 12 25 13 26 19 27 20 28 21 29 22 30 30 31 31 32 32 33
REMARK SMILES IDX 33 34 34 35 35 36 36 37 100 38 37 39 99 40 38 41 39 42 40 43
REMARK SMILES IDX 93 44 41 45 98 46 92 47 94 48 42 49 97 50 91 51 90 52 43 54
REMARK SMILES IDX 77 55 56 56 76 57 57 58 60 59 75 60 95 61 58 62 59 63 74 65
REMARK SMILES IDX 96 66 61 67 44 68 45 69 54 70 46 71 47 72 53 73 55 74 48 75
REMARK SMILES IDX 49 76 50 77 51 78 52 79 78 80 79 81 88 82 80 83 81 84 87 85
REMARK SMILES IDX 89 86 82 87 83 88 84 89 85 90 86 91 62 92 63 93 72 94 64 95
REMARK SMILES IDX 65 96 71 97 73 98 66 99 67 100 68 101 69 102 70 103
REMARK H PARENT 94 53 60 64
REMARK Flexibility Score: inf
ROOT
ATOM      1  O   UNL A   1      40.455  21.332  26.135  1.00  0.00    -0.374 OA
ENDROOT
BRANCH   1   2
ATOM      2  C   UNL A   1      39.128  20.991  25.758  1.00  0.00     0.202 C 
BRANCH   2   3
ATOM      3  C   UNL A   1      38.259  22.238  25.781  1.00  0.00     0.261 C 
BRANCH   3   4
ATOM      4  O   UNL A   1      36.961  21.918  25.300  1.00  0.00    -0.460 OA
BRANCH   4   5
ATOM      5  C   UNL A   1      36.294  22.805  24.414  1.00  0.00     0.338 C 
ATOM      6  O   UNL A   1      36.709  22.941  23.219  1.00  0.00    -0.246 OA
BRANCH   5   7
ATOM      7  C   UNL A   1      35.085  23.592  24.893  1.00  0.00     0.087 C 
ATOM      8  C   UNL A   1      31.632  25.793  25.717  1.00  0.00    -0.004 A 
ATOM      9  C   UNL A   1      31.736  27.073  26.232  1.00  0.00     0.032 A 
ATOM     10  C   UNL A   1      32.784  25.112  25.406  1.00  0.00     0.131 A 
ATOM     11  C   UNL A   1      32.961  27.657  26.426  1.00  0.00     0.108 A 
ATOM     12  C   UNL A   1      34.037  25.662  25.605  1.00  0.00     0.019 A 
ATOM     13  O   UNL A   1      32.663  23.890  24.790  1.00  0.00    -0.475 OA
ATOM     14  C   UNL A   1      34.106  26.951  26.120  1.00  0.00     0.036 A 
ATOM     15  C   UNL A   1      35.193  24.876  25.206  1.00  0.00     0.027 C 
ATOM     16  C   UNL A   1      33.723  22.921  25.024  1.00  0.00     0.316 C 
BRANCH   8  17
ATOM     17  C   UNL A   1      30.270  25.154  25.500  1.00  0.00     0.039 C 
BRANCH  17  18
ATOM     18  C   UNL A   1      29.224  26.241  25.319  1.00  0.00     0.005 C 
BRANCH  18  19
ATOM     19  C   UNL A   1      28.867  26.362  23.846  1.00  0.00    -0.003 C 
ATOM     20  C   UNL A   1      29.877  27.261  23.152  1.00  0.00     0.004 C 
ENDBRANCH  18  19
ENDBRANCH  17  18
ENDBRANCH   8  17
BRANCH  11  21
ATOM     21  S   UNL A   1      33.074  29.341  27.080  1.00  0.00     0.310 S 
ATOM     22  F   UNL A   1      33.294  29.955  25.634  1.00  0.00    -0.094 F 
ATOM     23  F   UNL A   1      34.638  29.177  27.174  1.00  0.00    -0.094 F 
ATOM     24  F   UNL A   1      33.164  30.788  27.641  1.00  0.00    -0.094 F 
ATOM     25  F   UNL A   1      31.524  29.536  26.846  1.00  0.00    -0.094 F 
ATOM     26  F   UNL A   1      32.981  27.915  26.403  1.00  0.00    -0.094 F 
ENDBRANCH  11  21
BRANCH  16  27
ATOM     27  C   UNL A   1      33.616  21.809  23.993  1.00  0.00     0.430 C 
ATOM     28  F   UNL A   1      34.425  20.810  24.332  1.00  0.00    -0.167 F 
ATOM     29  F   UNL A   1      32.363  21.368  23.945  1.00  0.00    -0.167 F 
ATOM     30  F   UNL A   1      33.967  22.278  22.798  1.00  0.00    -0.167 F 
ENDBRANCH  16  27
ENDBRANCH   5   7
ENDBRANCH   4   5
ENDBRANCH   3   4
ENDBRANCH   2   3
ENDBRANCH   1   2
BRANCH   1  31
ATOM     31  C   UNL A   1      40.452  22.597  26.781  1.00  0.00     0.202 C 
BRANCH  31  32
ATOM     32  C   UNL A   1      41.855  22.921  27.268  1.00  0.00     0.261 C 
BRANCH  32  33
ATOM     33  O   UNL A   1      42.446  23.882  26.406  1.00  0.00    -0.460 OA
BRANCH  33  34
ATOM     34  C   UNL A   1      41.807  25.131  26.191  1.00  0.00     0.338 C 
ATOM     35  O   UNL A   1      41.413  25.451  25.025  1.00  0.00    -0.246 OA
BRANCH  34  36
ATOM     36  C   UNL A   1      41.593  26.087  27.353  1.00  0.00     0.060 A 
ATOM     37  C   UNL A   1      42.531  27.077  27.598  1.00  0.00     0.016 A 
ATOM     38  C   UNL A   1      40.513  25.959  28.114  1.00  0.00     0.016 A 
ATOM     39  C   UNL A   1      42.385  27.706  28.857  1.00  0.00     0.010 A 
ATOM     40  C   UNL A   1      40.371  26.703  29.259  1.00  0.00     0.010 A 
ATOM     41  C   UNL A   1      41.291  27.658  29.596  1.00  0.00    -0.014 A 
BRANCH  41  42
ATOM     42  C   UNL A   1      41.065  28.614  30.756  1.00  0.00     0.031 A 
ATOM     43  C   UNL A   1      40.052  29.567  30.634  1.00  0.00     0.074 A 
ATOM     44  C   UNL A   1      41.877  28.485  31.869  1.00  0.00     0.049 A 
ATOM     45  N   UNL A   1      39.670  30.468  31.541  1.00  0.00    -0.248 NA
ATOM     46  C   UNL A   1      39.211  29.729  29.439  1.00  0.00     0.031 C 
ATOM     47  C   UNL A   1      42.895  27.520  32.003  1.00  0.00     0.029 A 
ATOM     48  N   UNL A   1      41.856  29.238  33.023  1.00  0.00    -0.354 N 
ATOM     49  C   UNL A   1      38.653  31.193  31.070  1.00  0.00     0.074 A 
ATOM     50  C   UNL A   1      38.348  30.732  29.708  1.00  0.00     0.031 C 
ATOM     51  C   UNL A   1      43.487  27.698  33.213  1.00  0.00     0.029 A 
ATOM     52  C   UNL A   1      42.849  28.774  33.858  1.00  0.00     0.049 A 
ATOM     53  H   UNL A   1      41.238  29.979  33.217  1.00  0.00     0.167 HD
ATOM     54  C   UNL A   1      37.969  32.220  31.722  1.00  0.00     0.037 A 
ATOM     55  C   UNL A   1      43.194  29.251  35.112  1.00  0.00     0.037 A 
ATOM     56  C   UNL A   1      38.287  32.668  32.994  1.00  0.00     0.049 A 
ATOM     57  C   UNL A   1      42.547  30.317  35.742  1.00  0.00     0.074 A 
ATOM     58  C   UNL A   1      37.602  33.697  33.670  1.00  0.00     0.029 A 
ATOM     59  N   UNL A   1      39.295  32.220  33.819  1.00  0.00    -0.354 N 
ATOM     60  N   UNL A   1      41.506  31.016  35.287  1.00  0.00    -0.248 NA
ATOM     61  C   UNL A   1      42.925  30.852  37.056  1.00  0.00     0.031 C 
ATOM     62  C   UNL A   1      38.194  33.873  34.880  1.00  0.00     0.029 A 
ATOM     63  C   UNL A   1      39.259  32.959  34.981  1.00  0.00     0.049 A 
ATOM     64  H   UNL A   1      39.931  31.498  33.614  1.00  0.00     0.167 HD
ATOM     65  C   UNL A   1      41.151  31.944  36.176  1.00  0.00     0.074 A 
ATOM     66  C   UNL A   1      42.063  31.857  37.325  1.00  0.00     0.031 C 
ATOM     67  C   UNL A   1      40.100  32.858  36.079  1.00  0.00     0.037 A 
BRANCH  54  68
ATOM     68  C   UNL A   1      36.809  32.883  30.997  1.00  0.00     0.058 A 
ATOM     69  C   UNL A   1      35.503  32.501  31.257  1.00  0.00     0.135 A 
ATOM     70  C   UNL A   1      37.082  33.898  30.186  1.00  0.00     0.135 A 
ATOM     71  F   UNL A   1      35.173  31.670  32.242  1.00  0.00    -0.206 F 
ATOM     72  C   UNL A   1      34.553  33.075  30.380  1.00  0.00     0.059 A 
ATOM     73  C   UNL A   1      36.082  34.503  29.462  1.00  0.00     0.059 A 
ATOM     74  F   UNL A   1      38.332  34.336  30.075  1.00  0.00    -0.206 F 
ATOM     75  C   UNL A   1      34.775  34.135  29.625  1.00  0.00     0.060 A 
BRANCH  75  76
ATOM     76  S   UNL A   1      33.423  35.053  28.846  1.00  0.00     0.124 S 
ATOM     77  O   UNL A   1      32.476  35.580  29.925  1.00  0.00    -0.237 OA
ATOM     78  O   UNL A   1      33.997  36.229  28.051  1.00  0.00    -0.237 OA
ATOM     79  O   UNL A   1      32.564  34.017  27.790  1.00  0.00    -0.744 OA
ENDBRANCH  75  76
ENDBRANCH  54  68
BRANCH  55  80
ATOM     80  C   UNL A   1      44.343  28.576  35.844  1.00  0.00     0.058 A 
ATOM     81  C   UNL A   1      45.644  28.999  35.622  1.00  0.00     0.135 A 
ATOM     82  C   UNL A   1      44.082  27.524  36.611  1.00  0.00     0.135 A 
ATOM     83  F   UNL A   1      45.942  30.176  35.080  1.00  0.00    -0.206 F 
ATOM     84  C   UNL A   1      46.626  28.063  36.024  1.00  0.00     0.059 A 
ATOM     85  C   UNL A   1      45.100  26.732  37.082  1.00  0.00     0.059 A 
ATOM     86  F   UNL A   1      42.822  27.235  36.925  1.00  0.00    -0.206 F 
ATOM     87  C   UNL A   1      46.408  27.056  36.851  1.00  0.00     0.060 A 
BRANCH  87  88
ATOM     88  S   UNL A   1      47.768  26.155  37.635  1.00  0.00     0.124 S 
ATOM     89  O   UNL A   1      47.229  25.350  38.821  1.00  0.00    -0.237 OA
ATOM     90  O   UNL A   1      48.403  25.203  36.619  1.00  0.00    -0.237 OA
ATOM     91  O   UNL A   1      48.943  27.266  38.189  1.00  0.00    -0.744 OA
ENDBRANCH  87  88
ENDBRANCH  55  80
BRANCH  67  92
ATOM     92  C   UNL A   1      39.864  33.800  37.248  1.00  0.00     0.058 A 
ATOM     93  C   UNL A   1      38.990  33.426  38.255  1.00  0.00     0.135 A 
ATOM     94  C   UNL A   1      40.498  34.967  37.284  1.00  0.00     0.135 A 
ATOM     95  F   UNL A   1      38.533  32.185  38.395  1.00  0.00    -0.206 F 
ATOM     96  C   UNL A   1      38.627  34.485  39.122  1.00  0.00     0.059 A 
ATOM     97  C   UNL A   1      40.188  35.901  38.243  1.00  0.00     0.059 A 
ATOM     98  F   UNL A   1      41.441  35.232  36.385  1.00  0.00    -0.206 F 
ATOM     99  C   UNL A   1      39.290  35.621  39.234  1.00  0.00     0.060 A 
BRANCH  99 100
ATOM    100  S   UNL A   1      39.022  36.748  40.626  1.00  0.00     0.124 S 
ATOM    101  O   UNL A   1      38.080  36.093  41.638  1.00  0.00    -0.237 OA
ATOM    102  O   UNL A   1      40.362  37.052  41.299  1.00  0.00    -0.237 OA
ATOM    103  O   UNL A   1      38.326  38.201  40.056  1.00  0.00    -0.744 OA
ENDBRANCH  99 100
ENDBRANCH  67  92
ENDBRANCH  41  42
ENDBRANCH  34  36
ENDBRANCH  33  34
ENDBRANCH  32  33
ENDBRANCH  31  32
ENDBRANCH   1  31
TORSDOF 22
ENDMDL
MODEL 3
REMARK VINA RESULT:     -11.3      1.760      8.293
REMARK SMILES CCCCc1cc(S(F)(F)(F)(F)F)cc2c1O[C@@H](C(F)(F)F)C(C(=O)OCCOCCOC(=O)c1ccc(-c3c4nc(c(-c5c(F)cc(S(=O)(=O)[O-])cc5F)c5ccc([nH]5)c(-c5c(F)cc(S(=O)(=O)[O-])cc5F)c5nc(c(-c6c(F)cc(S(=O)(=O)[O-])cc6F)c6ccc3[nH]6)C=C5)C=C4)cc1)=C2
REMARK SMILES IDX 29 1 28 2 27 3 26 4 24 5 25 6 23 7 5 8 6 9 16 10 7 11 15 12
REMARK SMILES IDX 17 13 14 14 101 15 18 16 4 17 3 18 2 19 1 20 8 21 9 22 10 23
REMARK SMILES IDX 11 24 12 25 13 26 19 27 20 28 21 29 22 30 30 31 31 32 32 33
REMARK SMILES IDX 33 34 34 35 35 36 36 37 100 38 37 39 99 40 38 41 39 42 40 43
REMARK SMILES IDX 93 44 41 45 98 46 92 47 94 48 42 49 97 50 91 51 90 52 43 54
REMARK SMILES IDX 77 55 56 56 76 57 57 58 60 59 75 60 95 61 58 62 59 63 74 65
REMARK SMILES IDX 96 66 61 67 44 68 45 69 54 70 46 71 47 72 53 73 55 74 48 75
REMARK SMILES IDX 49 76 50 77 51 78 52 79 78 80 79 81 88 82 80 83 81 84 87 85
REMARK SMILES IDX 89 86 82 87 83 88 84 89 85 90 86 91 62 92 63 93 72 94 64 95
REMARK SMILES IDX 65 96 71 97 73 98 66 99 67 100 68 101 69 102 70 103
REMARK H PARENT 94 53 60 64
REMARK Flexibility Score: inf
ROOT
ATOM      1  O   UNL A   1      37.152  23.367  25.563  1.00  0.00    -0.374 OA
ENDROOT
BRANCH   1   2
ATOM      2  C   UNL A   1      35.868  23.139  26.128  1.00  0.00     0.202 C 
BRANCH   2   3
ATOM      3  C   UNL A   1      34.842  23.000  25.015  1.00  0.00     0.261 C 
BRANCH   3   4
ATOM      4  O   UNL A   1      33.676  22.370  25.523  1.00  0.00    -0.460 OA
BRANCH   4   5
ATOM      5  C   UNL A   1      32.605  23.156  26.026  1.00  0.00     0.338 C 
ATOM      6  O   UNL A   1      31.710  22.620  26.753  1.00  0.00    -0.246 OA
BRANCH   5   7
ATOM      7  C   UNL A   1      32.529  24.638  25.695  1.00  0.00     0.087 C 
ATOM      8  C   UNL A   1      32.626  28.605  24.392  1.00  0.00    -0.004 A 
ATOM      9  C   UNL A   1      33.246  29.570  25.165  1.00  0.00     0.032 A 
ATOM     10  C   UNL A   1      32.655  27.299  24.819  1.00  0.00     0.131 A 
ATOM     11  C   UNL A   1      33.883  29.236  26.333  1.00  0.00     0.108 A 
ATOM     12  C   UNL A   1      33.272  26.928  26.000  1.00  0.00     0.019 A 
ATOM     13  O   UNL A   1      32.136  26.338  23.987  1.00  0.00    -0.475 OA
ATOM     14  C   UNL A   1      33.889  27.922  26.751  1.00  0.00     0.036 A 
ATOM     15  C   UNL A   1      33.282  25.516  26.344  1.00  0.00     0.027 C 
ATOM     16  C   UNL A   1      31.585  25.145  24.613  1.00  0.00     0.316 C 
BRANCH   8  17
ATOM     17  C   UNL A   1      31.927  28.982  23.096  1.00  0.00     0.039 C 
BRANCH  17  18
ATOM     18  C   UNL A   1      30.441  29.163  23.357  1.00  0.00     0.005 C 
BRANCH  18  19
ATOM     19  C   UNL A   1      29.660  28.091  22.615  1.00  0.00    -0.003 C 
ATOM     20  C   UNL A   1      28.701  27.406  23.574  1.00  0.00     0.004 C 
ENDBRANCH  18  19
ENDBRANCH  17  18
ENDBRANCH   8  17
BRANCH  11  21
ATOM     21  S   UNL A   1      34.708  30.512  27.317  1.00  0.00     0.310 S 
ATOM     22  F   UNL A   1      34.863  29.540  28.561  1.00  0.00    -0.094 F 
ATOM     23  F   UNL A   1      33.308  30.932  27.907  1.00  0.00    -0.094 F 
ATOM     24  F   UNL A   1      35.422  31.606  28.160  1.00  0.00    -0.094 F 
ATOM     25  F   UNL A   1      36.112  29.985  26.824  1.00  0.00    -0.094 F 
ATOM     26  F   UNL A   1      34.008  29.324  26.543  1.00  0.00    -0.094 F 
ENDBRANCH  11  21
BRANCH  16  27
ATOM     27  C   UNL A   1      31.414  24.065  23.557  1.00  0.00     0.430 C 
ATOM     28  F   UNL A   1      30.915  22.969  24.122  1.00  0.00    -0.167 F 
ATOM     29  F   UNL A   1      30.582  24.495  22.614  1.00  0.00    -0.167 F 
ATOM     30  F   UNL A   1      32.595  23.785  23.013  1.00  0.00    -0.167 F 
ENDBRANCH  16  27
ENDBRANCH   5   7
ENDBRANCH   4   5
ENDBRANCH   3   4
ENDBRANCH   2   3
ENDBRANCH   1   2
BRANCH   1  31
ATOM     31  C   UNL A   1      38.110  23.499  26.603  1.00  0.00     0.202 C 
BRANCH  31  32
ATOM     32  C   UNL A   1      39.423  22.869  26.166  1.00  0.00     0.261 C 
BRANCH  32  33
ATOM     33  O   UNL A   1      40.483  23.385  26.958  1.00  0.00    -0.460 OA
BRANCH  33  34
ATOM     34  C   UNL A   1      40.978  24.694  26.717  1.00  0.00     0.338 C 
ATOM     35  O   UNL A   1      41.510  24.975  25.597  1.00  0.00    -0.246 OA
BRANCH  34  36
ATOM     36  C   UNL A   1      40.873  25.758  27.797  1.00  0.00     0.060 A 
ATOM     37  C   UNL A   1      41.884  26.697  27.924  1.00  0.00     0.016 A 
ATOM     38  C   UNL A   1      39.816  25.771  28.600  1.00  0.00     0.016 A 
ATOM     39  C   UNL A   1      41.827  27.439  29.127  1.00  0.00     0.010 A 
ATOM     40  C   UNL A   1      39.767  26.618  29.679  1.00  0.00     0.010 A 
ATOM     41  C   UNL A   1      40.761  27.532  29.901  1.00  0.00    -0.014 A 
BRANCH  41  42
ATOM     42  C   UNL A   1      40.643  28.597  30.980  1.00  0.00     0.031 A 
ATOM     43  C   UNL A   1      41.505  28.519  32.075  1.00  0.00     0.074 A 
ATOM     44  C   UNL A   1      39.689  29.585  30.814  1.00  0.00     0.049 A 
ATOM     45  N   UNL A   1      41.590  29.363  33.104  1.00  0.00    -0.248 NA
ATOM     46  C   UNL A   1      42.496  27.451  32.271  1.00  0.00     0.031 C 
ATOM     47  C   UNL A   1      38.822  29.675  29.707  1.00  0.00     0.029 A 
ATOM     48  N   UNL A   1      39.405  30.636  31.658  1.00  0.00    -0.354 N 
ATOM     49  C   UNL A   1      42.547  28.969  33.947  1.00  0.00     0.074 A 
ATOM     50  C   UNL A   1      43.139  27.729  33.426  1.00  0.00     0.031 C 
ATOM     51  C   UNL A   1      38.019  30.756  29.887  1.00  0.00     0.029 A 
ATOM     52  C   UNL A   1      38.371  31.362  31.108  1.00  0.00     0.049 A 
ATOM     53  H   UNL A   1      39.862  30.834  32.508  1.00  0.00     0.167 HD
ATOM     54  C   UNL A   1      42.950  29.594  35.127  1.00  0.00     0.037 A 
ATOM     55  C   UNL A   1      37.755  32.489  31.629  1.00  0.00     0.037 A 
ATOM     56  C   UNL A   1      42.363  30.747  35.626  1.00  0.00     0.049 A 
ATOM     57  C   UNL A   1      38.119  33.083  32.840  1.00  0.00     0.074 A 
ATOM     58  C   UNL A   1      42.762  31.395  36.811  1.00  0.00     0.029 A 
ATOM     59  N   UNL A   1      41.313  31.459  35.088  1.00  0.00    -0.354 N 
ATOM     60  N   UNL A   1      39.102  32.710  33.662  1.00  0.00    -0.248 NA
ATOM     61  C   UNL A   1      37.453  34.257  33.417  1.00  0.00     0.031 C 
ATOM     62  C   UNL A   1      41.959  32.476  36.991  1.00  0.00     0.029 A 
ATOM     63  C   UNL A   1      41.044  32.522  35.922  1.00  0.00     0.049 A 
ATOM     64  H   UNL A   1      40.837  31.245  34.254  1.00  0.00     0.167 HD
ATOM     65  C   UNL A   1      39.160  33.531  34.712  1.00  0.00     0.074 A 
ATOM     66  C   UNL A   1      38.095  34.534  34.573  1.00  0.00     0.031 C 
ATOM     67  C   UNL A   1      40.060  33.487  35.778  1.00  0.00     0.037 A 
BRANCH  54  68
ATOM     68  C   UNL A   1      44.098  28.978  35.910  1.00  0.00     0.058 A 
ATOM     69  C   UNL A   1      45.384  29.478  35.788  1.00  0.00     0.135 A 
ATOM     70  C   UNL A   1      43.812  28.018  36.781  1.00  0.00     0.135 A 
ATOM     71  F   UNL A   1      45.668  30.596  35.125  1.00  0.00    -0.206 F 
ATOM     72  C   UNL A   1      46.368  28.692  36.433  1.00  0.00     0.059 A 
ATOM     73  C   UNL A   1      44.813  27.386  37.479  1.00  0.00     0.059 A 
ATOM     74  F   UNL A   1      42.546  27.665  36.982  1.00  0.00    -0.206 F 
ATOM     75  C   UNL A   1      46.115  27.788  37.362  1.00  0.00     0.060 A 
BRANCH  75  76
ATOM     76  S   UNL A   1      47.419  27.117  38.422  1.00  0.00     0.124 S 
ATOM     77  O   UNL A   1      48.377  28.240  38.826  1.00  0.00    -0.237 OA
ATOM     78  O   UNL A   1      46.791  26.506  39.678  1.00  0.00    -0.237 OA
ATOM     79  O   UNL A   1      48.282  25.911  37.572  1.00  0.00    -0.744 OA
ENDBRANCH  75  76
ENDBRANCH  54  68
BRANCH  55  80
ATOM     80  C   UNL A   1      36.618  33.115  30.837  1.00  0.00     0.058 A 
ATOM     81  C   UNL A   1      36.902  33.981  29.794  1.00  0.00     0.135 A 
ATOM     82  C   UNL A   1      35.369  32.892  31.227  1.00  0.00     0.135 A 
ATOM     83  F   UNL A   1      38.094  34.044  29.207  1.00  0.00    -0.206 F 
ATOM     84  C   UNL A   1      35.808  34.793  29.411  1.00  0.00     0.059 A 
ATOM     85  C   UNL A   1      34.333  33.631  30.710  1.00  0.00     0.059 A 
ATOM     86  F   UNL A   1      35.118  31.945  32.127  1.00  0.00    -0.206 F 
ATOM     87  C   UNL A   1      34.548  34.547  29.718  1.00  0.00     0.060 A 
BRANCH  87  88
ATOM     88  S   UNL A   1      33.180  35.378  28.873  1.00  0.00     0.124 S 
ATOM     89  O   UNL A   1      33.735  36.478  27.964  1.00  0.00    -0.237 OA
ATOM     90  O   UNL A   1      32.408  34.360  28.030  1.00  0.00    -0.237 OA
ATOM     91  O   UNL A   1      32.132  36.071  30.032  1.00  0.00    -0.744 OA
ENDBRANCH  87  88
ENDBRANCH  55  80
BRANCH  67  92
ATOM     92  C   UNL A   1      39.954  34.564  36.845  1.00  0.00     0.058 A 
ATOM     93  C   UNL A   1      40.695  35.726  36.713  1.00  0.00     0.135 A 
ATOM     94  C   UNL A   1      39.153  34.372  37.887  1.00  0.00     0.135 A 
ATOM     95  F   UNL A   1      41.305  36.073  35.584  1.00  0.00    -0.206 F 
ATOM     96  C   UNL A   1      40.745  36.511  37.890  1.00  0.00     0.059 A 
ATOM     97  C   UNL A   1      39.154  35.254  38.941  1.00  0.00     0.059 A 
ATOM     98  F   UNL A   1      38.343  33.318  37.911  1.00  0.00    -0.206 F 
ATOM     99  C   UNL A   1      39.909  36.394  38.904  1.00  0.00     0.060 A 
BRANCH  99 100
ATOM    100  S   UNL A   1      39.768  37.672  40.178  1.00  0.00     0.124 S 
ATOM    101  O   UNL A   1      41.154  38.246  40.479  1.00  0.00    -0.237 OA
ATOM    102  O   UNL A   1      38.851  38.791  39.679  1.00  0.00    -0.237 OA
ATOM    103  O   UNL A   1      39.113  36.989  41.601  1.00  0.00    -0.744 OA
ENDBRANCH  99 100
ENDBRANCH  67  92
ENDBRANCH  41  42
ENDBRANCH  34  36
ENDBRANCH  33  34
ENDBRANCH  32  33
ENDBRANCH  31  32
ENDBRANCH   1  31
TORSDOF 22
ENDMDL
