MODEL 1
REMARK VINA RESULT:     -12.5      0.000      0.000
REMARK SMILES O=C(OCCOCCOC(=O)c1ccc([C@@H]2CC(O)=Nc3c2ncn3-c2cccc(Cl)c2)cc1)c1ccc(-c2c3nc(c(-c4c(F)cc(S(=O)(=O)[O-])cc4F)c4ccc([nH]4)c(-c4c(F)cc(S(=O)(=O)[O-])cc4F)c4nc(c(-c5c(F)cc(S(=O)(=O)[O-])cc5F)c5ccc2[nH]5)C=C4)C=C3)cc1
REMARK SMILES IDX 5 1 4 2 3 3 2 4 1 5 35 6 36 7 100 8 37 9 99 10 38 11 39 12
REMARK SMILES IDX 40 13 93 14 41 15 98 16 92 17 94 18 42 19 97 20 91 21 90 22
REMARK SMILES IDX 43 24 77 25 56 26 76 27 57 28 60 29 75 30 95 31 58 32 59 33
REMARK SMILES IDX 74 35 96 36 61 37 44 38 45 39 54 40 46 41 47 42 53 43 55 44
REMARK SMILES IDX 48 45 49 46 50 47 51 48 52 49 78 50 79 51 88 52 80 53 81 54
REMARK SMILES IDX 87 55 89 56 82 57 83 58 84 59 85 60 86 61 62 62 63 63 72 64
REMARK SMILES IDX 64 65 65 66 71 67 73 68 66 69 67 70 68 71 69 72 70 73 6 74
REMARK SMILES IDX 7 75 8 76 9 77 10 78 11 79 12 80 13 81 34 82 14 83 33 84
REMARK SMILES IDX 15 85 16 86 17 87 22 88 18 89 21 90 23 91 20 92 25 93 24 94
REMARK SMILES IDX 19 95 26 97 27 98 32 99 28 100 30 101 29 102 31 103
REMARK H PARENT 94 23 60 34 19 96
REMARK Flexibility Score: inf
ROOT
ATOM      1  C   UNL A   1      33.927  29.006  26.124  1.00  0.00     0.202 C 
ENDROOT
BRANCH   1   2
ATOM      2  C   UNL A   1      33.265  30.245  26.726  1.00  0.00     0.261 C 
BRANCH   2   3
ATOM      3  O   UNL A   1      33.929  30.725  27.906  1.00  0.00    -0.460 OA
BRANCH   3   4
ATOM      4  C   UNL A   1      35.061  31.459  27.925  1.00  0.00     0.338 C 
ATOM      5  O   UNL A   1      35.054  32.607  27.486  1.00  0.00    -0.246 OA
BRANCH   4   6
ATOM      6  C   UNL A   1      36.244  30.974  28.680  1.00  0.00     0.060 A 
ATOM      7  C   UNL A   1      37.153  31.775  29.369  1.00  0.00     0.016 A 
ATOM      8  C   UNL A   1      36.499  29.599  28.560  1.00  0.00     0.016 A 
ATOM      9  C   UNL A   1      38.423  31.303  29.629  1.00  0.00     0.010 A 
ATOM     10  C   UNL A   1      37.739  29.097  28.894  1.00  0.00     0.010 A 
ATOM     11  C   UNL A   1      38.724  29.985  29.308  1.00  0.00    -0.014 A 
BRANCH  11  12
ATOM     12  C   UNL A   1      40.081  29.527  29.526  1.00  0.00     0.031 A 
ATOM     13  C   UNL A   1      40.421  29.382  30.963  1.00  0.00     0.074 A 
ATOM     14  C   UNL A   1      40.870  29.181  28.490  1.00  0.00     0.049 A 
ATOM     15  N   UNL A   1      41.274  30.067  31.651  1.00  0.00    -0.248 NA
ATOM     16  C   UNL A   1      39.558  28.513  31.783  1.00  0.00     0.031 C 
ATOM     17  C   UNL A   1      40.512  29.084  27.072  1.00  0.00     0.029 A 
ATOM     18  N   UNL A   1      42.149  28.722  28.507  1.00  0.00    -0.354 N 
ATOM     19  C   UNL A   1      41.234  29.528  32.934  1.00  0.00     0.074 A 
ATOM     20  C   UNL A   1      40.029  28.747  33.008  1.00  0.00     0.031 C 
ATOM     21  C   UNL A   1      41.452  28.363  26.420  1.00  0.00     0.029 A 
ATOM     22  C   UNL A   1      42.537  28.072  27.337  1.00  0.00     0.049 A 
ATOM     23  H   UNL A   1      42.750  28.839  29.278  1.00  0.00     0.167 HD
ATOM     24  C   UNL A   1      42.331  29.547  33.739  1.00  0.00     0.037 A 
ATOM     25  C   UNL A   1      43.628  27.273  27.202  1.00  0.00     0.037 A 
ATOM     26  C   UNL A   1      43.298  30.508  33.276  1.00  0.00     0.049 A 
ATOM     27  C   UNL A   1      44.555  27.628  28.315  1.00  0.00     0.074 A 
ATOM     28  C   UNL A   1      43.291  31.877  33.095  1.00  0.00     0.029 A 
ATOM     29  N   UNL A   1      44.361  30.033  32.547  1.00  0.00    -0.354 N 
ATOM     30  N   UNL A   1      45.140  28.793  28.419  1.00  0.00    -0.248 NA
ATOM     31  C   UNL A   1      44.421  26.888  29.562  1.00  0.00     0.031 C 
ATOM     32  C   UNL A   1      44.036  32.092  31.900  1.00  0.00     0.029 A 
ATOM     33  C   UNL A   1      44.523  30.859  31.463  1.00  0.00     0.049 A 
ATOM     34  H   UNL A   1      44.907  29.242  32.761  1.00  0.00     0.167 HD
ATOM     35  C   UNL A   1      45.059  29.117  29.767  1.00  0.00     0.074 A 
ATOM     36  C   UNL A   1      44.656  27.877  30.431  1.00  0.00     0.031 C 
ATOM     37  C   UNL A   1      45.033  30.418  30.184  1.00  0.00     0.037 A 
BRANCH  24  38
ATOM     38  C   UNL A   1      42.696  28.432  34.690  1.00  0.00     0.058 A 
ATOM     39  C   UNL A   1      42.933  28.736  36.045  1.00  0.00     0.135 A 
ATOM     40  C   UNL A   1      43.106  27.145  34.274  1.00  0.00     0.135 A 
ATOM     41  F   UNL A   1      42.591  29.935  36.548  1.00  0.00    -0.206 F 
ATOM     42  C   UNL A   1      43.594  27.856  36.903  1.00  0.00     0.059 A 
ATOM     43  C   UNL A   1      43.717  26.234  35.125  1.00  0.00     0.059 A 
ATOM     44  F   UNL A   1      43.027  26.741  33.001  1.00  0.00    -0.206 F 
ATOM     45  C   UNL A   1      43.994  26.612  36.427  1.00  0.00     0.060 A 
BRANCH  45  46
ATOM     46  S   UNL A   1      44.927  25.511  37.502  1.00  0.00     0.124 S 
ATOM     47  O   UNL A   1      44.370  25.838  38.809  1.00  0.00    -0.237 OA
ATOM     48  O   UNL A   1      44.577  24.200  36.965  1.00  0.00    -0.237 OA
ATOM     49  O   UNL A   1      46.312  25.923  37.284  1.00  0.00    -0.744 OA
ENDBRANCH  45  46
ENDBRANCH  24  38
BRANCH  25  50
ATOM     50  C   UNL A   1      43.713  25.982  26.460  1.00  0.00     0.058 A 
ATOM     51  C   UNL A   1      44.574  25.822  25.359  1.00  0.00     0.135 A 
ATOM     52  C   UNL A   1      43.158  24.795  26.984  1.00  0.00     0.135 A 
ATOM     53  F   UNL A   1      45.167  26.893  24.808  1.00  0.00    -0.206 F 
ATOM     54  C   UNL A   1      44.901  24.562  24.839  1.00  0.00     0.059 A 
ATOM     55  C   UNL A   1      43.460  23.532  26.477  1.00  0.00     0.059 A 
ATOM     56  F   UNL A   1      42.373  24.816  28.071  1.00  0.00    -0.206 F 
ATOM     57  C   UNL A   1      44.353  23.419  25.420  1.00  0.00     0.060 A 
BRANCH  57  58
ATOM     58  S   UNL A   1      44.902  21.783  24.874  1.00  0.00     0.124 S 
ATOM     59  O   UNL A   1      44.663  21.847  23.436  1.00  0.00    -0.237 OA
ATOM     60  O   UNL A   1      46.301  21.772  25.288  1.00  0.00    -0.237 OA
ATOM     61  O   UNL A   1      44.032  20.869  25.610  1.00  0.00    -0.744 OA
ENDBRANCH  57  58
ENDBRANCH  25  50
BRANCH  37  62
ATOM     62  C   UNL A   1      45.363  31.499  29.187  1.00  0.00     0.058 A 
ATOM     63  C   UNL A   1      46.667  31.884  28.825  1.00  0.00     0.135 A 
ATOM     64  C   UNL A   1      44.307  32.041  28.441  1.00  0.00     0.135 A 
ATOM     65  F   UNL A   1      47.737  31.330  29.415  1.00  0.00    -0.206 F 
ATOM     66  C   UNL A   1      46.906  32.798  27.795  1.00  0.00     0.059 A 
ATOM     67  C   UNL A   1      44.521  32.929  27.391  1.00  0.00     0.059 A 
ATOM     68  F   UNL A   1      43.044  31.663  28.693  1.00  0.00    -0.206 F 
ATOM     69  C   UNL A   1      45.823  33.314  27.082  1.00  0.00     0.060 A 
BRANCH  69  70
ATOM     70  S   UNL A   1      46.128  34.443  25.705  1.00  0.00     0.124 S 
ATOM     71  O   UNL A   1      45.772  35.734  26.284  1.00  0.00    -0.237 OA
ATOM     72  O   UNL A   1      47.548  34.239  25.435  1.00  0.00    -0.237 OA
ATOM     73  O   UNL A   1      45.228  33.959  24.661  1.00  0.00    -0.744 OA
ENDBRANCH  69  70
ENDBRANCH  37  62
ENDBRANCH  11  12
ENDBRANCH   4   6
ENDBRANCH   3   4
ENDBRANCH   2   3
ENDBRANCH   1   2
BRANCH   1  74
ATOM     74  O   UNL A   1      33.173  28.164  25.259  1.00  0.00    -0.374 OA
BRANCH  74  75
ATOM     75  C   UNL A   1      32.980  28.585  23.903  1.00  0.00     0.202 C 
BRANCH  75  76
ATOM     76  C   UNL A   1      31.568  28.880  23.369  1.00  0.00     0.261 C 
BRANCH  76  77
ATOM     77  O   UNL A   1      31.075  27.880  22.463  1.00  0.00    -0.460 OA
BRANCH  77  78
ATOM     78  C   UNL A   1      30.339  26.908  23.056  1.00  0.00     0.338 C 
ATOM     79  O   UNL A   1      29.198  26.990  23.463  1.00  0.00    -0.246 OA
BRANCH  78  80
ATOM     80  C   UNL A   1      31.044  25.615  22.953  1.00  0.00     0.060 A 
ATOM     81  C   UNL A   1      30.487  24.532  23.641  1.00  0.00     0.016 A 
ATOM     82  C   UNL A   1      32.255  25.483  22.278  1.00  0.00     0.016 A 
ATOM     83  C   UNL A   1      31.176  23.331  23.722  1.00  0.00     0.005 A 
ATOM     84  C   UNL A   1      32.971  24.288  22.401  1.00  0.00     0.005 A 
ATOM     85  C   UNL A   1      32.459  23.219  23.165  1.00  0.00    -0.038 A 
BRANCH  85  86
ATOM     86  C   UNL A   1      33.311  22.053  23.627  1.00  0.00     0.081 C 
ATOM     87  C   UNL A   1      32.755  21.511  24.964  1.00  0.00     0.111 C 
ATOM     88  C   UNL A   1      34.714  22.493  23.752  1.00  0.00     0.093 A 
ATOM     89  C   UNL A   1      33.645  21.747  26.171  1.00  0.00     0.188 C 
ATOM     90  C   UNL A   1      35.377  22.422  24.956  1.00  0.00     0.164 A 
ATOM     91  N   UNL A   1      35.513  22.985  22.759  1.00  0.00    -0.238 NA
ATOM     92  N   UNL A   1      34.886  22.108  26.179  1.00  0.00    -0.198 NA
ATOM     93  N   UNL A   1      36.655  22.869  24.688  1.00  0.00    -0.283 N 
ATOM     94  C   UNL A   1      36.655  23.253  23.362  1.00  0.00     0.206 A 
BRANCH  89  95
ATOM     95  O   UNL A   1      33.044  21.497  27.352  1.00  0.00    -0.496 OA
ATOM     96  H   UNL A   1      33.292  20.745  27.853  1.00  0.00     0.294 HD
ENDBRANCH  89  95
BRANCH  93  97
ATOM     97  C   UNL A   1      37.746  22.901  25.582  1.00  0.00     0.050 A 
ATOM     98  C   UNL A   1      38.568  21.780  25.732  1.00  0.00     0.027 A 
ATOM     99  C   UNL A   1      37.996  24.072  26.311  1.00  0.00     0.047 A 
ATOM    100  C   UNL A   1      39.672  21.852  26.585  1.00  0.00     0.004 A 
ATOM    101  C   UNL A   1      39.069  24.112  27.195  1.00  0.00     0.043 A 
ATOM    102  C   UNL A   1      39.917  23.014  27.323  1.00  0.00     0.020 A 
ATOM    103  Cl  UNL A   1      39.337  25.520  28.148  1.00  0.00    -0.084 Cl
ENDBRANCH  93  97
ENDBRANCH  85  86
ENDBRANCH  78  80
ENDBRANCH  77  78
ENDBRANCH  76  77
ENDBRANCH  75  76
ENDBRANCH  74  75
ENDBRANCH   1  74
TORSDOF 20
ENDMDL
MODEL 2
REMARK VINA RESULT:     -12.0      2.282      3.710
REMARK SMILES O=C(OCCOCCOC(=O)c1ccc([C@@H]2CC(O)=Nc3c2ncn3-c2cccc(Cl)c2)cc1)c1ccc(-c2c3nc(c(-c4c(F)cc(S(=O)(=O)[O-])cc4F)c4ccc([nH]4)c(-c4c(F)cc(S(=O)(=O)[O-])cc4F)c4nc(c(-c5c(F)cc(S(=O)(=O)[O-])cc5F)c5ccc2[nH]5)C=C4)C=C3)cc1
REMARK SMILES IDX 5 1 4 2 3 3 2 4 1 5 35 6 36 7 100 8 37 9 99 10 38 11 39 12
REMARK SMILES IDX 40 13 93 14 41 15 98 16 92 17 94 18 42 19 97 20 91 21 90 22
REMARK SMILES IDX 43 24 77 25 56 26 76 27 57 28 60 29 75 30 95 31 58 32 59 33
REMARK SMILES IDX 74 35 96 36 61 37 44 38 45 39 54 40 46 41 47 42 53 43 55 44
REMARK SMILES IDX 48 45 49 46 50 47 51 48 52 49 78 50 79 51 88 52 80 53 81 54
REMARK SMILES IDX 87 55 89 56 82 57 83 58 84 59 85 60 86 61 62 62 63 63 72 64
REMARK SMILES IDX 64 65 65 66 71 67 73 68 66 69 67 70 68 71 69 72 70 73 6 74
REMARK SMILES IDX 7 75 8 76 9 77 10 78 11 79 12 80 13 81 34 82 14 83 33 84
REMARK SMILES IDX 15 85 16 86 17 87 22 88 18 89 21 90 23 91 20 92 25 93 24 94
REMARK SMILES IDX 19 95 26 97 27 98 32 99 28 100 30 101 29 102 31 103
REMARK H PARENT 94 23 60 34 19 96
REMARK Flexibility Score: inf
ROOT
ATOM      1  C   UNL A   1      35.865  34.126  28.618  1.00  0.00     0.202 C 
ENDROOT
BRANCH   1   2
ATOM      2  C   UNL A   1      34.592  34.325  29.441  1.00  0.00     0.261 C 
BRANCH   2   3
ATOM      3  O   UNL A   1      34.309  33.226  30.321  1.00  0.00    -0.460 OA
BRANCH   3   4
ATOM      4  C   UNL A   1      34.720  33.122  31.602  1.00  0.00     0.338 C 
ATOM      5  O   UNL A   1      33.934  33.353  32.518  1.00  0.00    -0.246 OA
BRANCH   4   6
ATOM      6  C   UNL A   1      36.038  32.509  31.909  1.00  0.00     0.060 A 
ATOM      7  C   UNL A   1      37.258  33.184  31.954  1.00  0.00     0.016 A 
ATOM      8  C   UNL A   1      36.025  31.112  32.035  1.00  0.00     0.016 A 
ATOM      9  C   UNL A   1      38.434  32.484  31.785  1.00  0.00     0.010 A 
ATOM     10  C   UNL A   1      37.204  30.402  31.951  1.00  0.00     0.010 A 
ATOM     11  C   UNL A   1      38.380  31.098  31.702  1.00  0.00    -0.014 A 
BRANCH  11  12
ATOM     12  C   UNL A   1      39.618  30.385  31.458  1.00  0.00     0.031 A 
ATOM     13  C   UNL A   1      40.429  30.193  32.685  1.00  0.00     0.074 A 
ATOM     14  C   UNL A   1      39.896  29.877  30.241  1.00  0.00     0.049 A 
ATOM     15  N   UNL A   1      41.582  30.705  32.963  1.00  0.00    -0.248 NA
ATOM     16  C   UNL A   1      39.787  29.521  33.829  1.00  0.00     0.031 C 
ATOM     17  C   UNL A   1      39.032  29.836  29.058  1.00  0.00     0.029 A 
ATOM     18  N   UNL A   1      40.988  29.177  29.837  1.00  0.00    -0.354 N 
ATOM     19  C   UNL A   1      41.920  30.201  34.216  1.00  0.00     0.074 A 
ATOM     20  C   UNL A   1      40.708  29.672  34.780  1.00  0.00     0.031 C 
ATOM     21  C   UNL A   1      39.522  28.936  28.176  1.00  0.00     0.029 A 
ATOM     22  C   UNL A   1      40.796  28.449  28.664  1.00  0.00     0.049 A 
ATOM     23  H   UNL A   1      41.840  29.182  30.330  1.00  0.00     0.167 HD
ATOM     24  C   UNL A   1      43.221  30.014  34.571  1.00  0.00     0.037 A 
ATOM     25  C   UNL A   1      41.602  27.450  28.215  1.00  0.00     0.037 A 
ATOM     26  C   UNL A   1      44.105  30.760  33.715  1.00  0.00     0.049 A 
ATOM     27  C   UNL A   1      42.920  27.629  28.890  1.00  0.00     0.074 A 
ATOM     28  C   UNL A   1      44.277  32.101  33.434  1.00  0.00     0.029 A 
ATOM     29  N   UNL A   1      44.724  30.076  32.695  1.00  0.00    -0.354 N 
ATOM     30  N   UNL A   1      43.699  28.657  28.680  1.00  0.00    -0.248 NA
ATOM     31  C   UNL A   1      43.122  26.945  30.160  1.00  0.00     0.031 C 
ATOM     32  C   UNL A   1      44.557  32.151  32.038  1.00  0.00     0.029 A 
ATOM     33  C   UNL A   1      44.621  30.842  31.561  1.00  0.00     0.049 A 
ATOM     34  H   UNL A   1      45.160  29.197  32.766  1.00  0.00     0.167 HD
ATOM     35  C   UNL A   1      44.177  29.007  29.936  1.00  0.00     0.074 A 
ATOM     36  C   UNL A   1      43.832  27.879  30.801  1.00  0.00     0.031 C 
ATOM     37  C   UNL A   1      44.539  30.293  30.225  1.00  0.00     0.037 A 
BRANCH  24  38
ATOM     38  C   UNL A   1      43.704  28.860  35.417  1.00  0.00     0.058 A 
ATOM     39  C   UNL A   1      44.526  29.124  36.531  1.00  0.00     0.135 A 
ATOM     40  C   UNL A   1      43.639  27.507  35.016  1.00  0.00     0.135 A 
ATOM     41  F   UNL A   1      44.669  30.377  36.995  1.00  0.00    -0.206 F 
ATOM     42  C   UNL A   1      45.283  28.130  37.152  1.00  0.00     0.059 A 
ATOM     43  C   UNL A   1      44.342  26.494  35.654  1.00  0.00     0.059 A 
ATOM     44  F   UNL A   1      42.970  27.111  33.927  1.00  0.00    -0.206 F 
ATOM     45  C   UNL A   1      45.193  26.819  36.694  1.00  0.00     0.060 A 
BRANCH  45  46
ATOM     46  S   UNL A   1      46.236  25.551  37.431  1.00  0.00     0.124 S 
ATOM     47  O   UNL A   1      45.316  24.931  38.377  1.00  0.00    -0.237 OA
ATOM     48  O   UNL A   1      46.598  24.748  36.268  1.00  0.00    -0.237 OA
ATOM     49  O   UNL A   1      47.330  26.317  38.023  1.00  0.00    -0.744 OA
ENDBRANCH  45  46
ENDBRANCH  24  38
BRANCH  25  50
ATOM     50  C   UNL A   1      41.176  26.158  27.603  1.00  0.00     0.058 A 
ATOM     51  C   UNL A   1      41.947  25.527  26.609  1.00  0.00     0.135 A 
ATOM     52  C   UNL A   1      40.150  25.376  28.173  1.00  0.00     0.135 A 
ATOM     53  F   UNL A   1      42.961  26.185  26.025  1.00  0.00    -0.206 F 
ATOM     54  C   UNL A   1      41.742  24.191  26.237  1.00  0.00     0.059 A 
ATOM     55  C   UNL A   1      39.922  24.048  27.812  1.00  0.00     0.059 A 
ATOM     56  F   UNL A   1      39.391  25.848  29.173  1.00  0.00    -0.206 F 
ATOM     57  C   UNL A   1      40.738  23.453  26.861  1.00  0.00     0.060 A 
BRANCH  57  58
ATOM     58  S   UNL A   1      40.580  21.682  26.518  1.00  0.00     0.124 S 
ATOM     59  O   UNL A   1      40.669  21.106  27.856  1.00  0.00    -0.237 OA
ATOM     60  O   UNL A   1      39.272  21.606  25.877  1.00  0.00    -0.237 OA
ATOM     61  O   UNL A   1      41.716  21.402  25.643  1.00  0.00    -0.744 OA
ENDBRANCH  57  58
ENDBRANCH  25  50
BRANCH  37  62
ATOM     62  C   UNL A   1      44.668  31.275  29.089  1.00  0.00     0.058 A 
ATOM     63  C   UNL A   1      45.775  31.362  28.226  1.00  0.00     0.135 A 
ATOM     64  C   UNL A   1      43.540  32.041  28.760  1.00  0.00     0.135 A 
ATOM     65  F   UNL A   1      46.852  30.583  28.408  1.00  0.00    -0.206 F 
ATOM     66  C   UNL A   1      45.775  32.202  27.110  1.00  0.00     0.059 A 
ATOM     67  C   UNL A   1      43.504  32.861  27.637  1.00  0.00     0.059 A 
ATOM     68  F   UNL A   1      42.427  31.953  29.506  1.00  0.00    -0.206 F 
ATOM     69  C   UNL A   1      44.631  32.948  26.822  1.00  0.00     0.060 A 
BRANCH  69  70
ATOM     70  S   UNL A   1      44.598  33.984  25.343  1.00  0.00     0.124 S 
ATOM     71  O   UNL A   1      43.582  34.974  25.686  1.00  0.00    -0.237 OA
ATOM     72  O   UNL A   1      45.969  34.480  25.272  1.00  0.00    -0.237 OA
ATOM     73  O   UNL A   1      44.226  33.052  24.282  1.00  0.00    -0.744 OA
ENDBRANCH  69  70
ENDBRANCH  37  62
ENDBRANCH  11  12
ENDBRANCH   4   6
ENDBRANCH   3   4
ENDBRANCH   2   3
ENDBRANCH   1   2
BRANCH   1  74
ATOM     74  O   UNL A   1      35.910  33.091  27.642  1.00  0.00    -0.374 OA
BRANCH  74  75
ATOM     75  C   UNL A   1      36.395  31.803  28.042  1.00  0.00     0.202 C 
BRANCH  75  76
ATOM     76  C   UNL A   1      35.421  30.633  28.262  1.00  0.00     0.261 C 
BRANCH  76  77
ATOM     77  O   UNL A   1      34.606  30.342  27.116  1.00  0.00    -0.460 OA
BRANCH  77  78
ATOM     78  C   UNL A   1      33.319  30.754  27.230  1.00  0.00     0.338 C 
ATOM     79  O   UNL A   1      32.921  31.844  27.586  1.00  0.00    -0.246 OA
BRANCH  78  80
ATOM     80  C   UNL A   1      32.417  29.744  26.641  1.00  0.00     0.060 A 
ATOM     81  C   UNL A   1      32.216  28.569  27.373  1.00  0.00     0.016 A 
ATOM     82  C   UNL A   1      31.853  29.901  25.377  1.00  0.00     0.016 A 
ATOM     83  C   UNL A   1      31.512  27.513  26.812  1.00  0.00     0.005 A 
ATOM     84  C   UNL A   1      31.186  28.820  24.795  1.00  0.00     0.005 A 
ATOM     85  C   UNL A   1      31.054  27.599  25.489  1.00  0.00    -0.038 A 
BRANCH  85  86
ATOM     86  C   UNL A   1      30.666  26.301  24.808  1.00  0.00     0.081 C 
ATOM     87  C   UNL A   1      29.710  25.507  25.729  1.00  0.00     0.111 C 
ATOM     88  C   UNL A   1      31.885  25.534  24.489  1.00  0.00     0.093 A 
ATOM     89  C   UNL A   1      30.291  24.230  26.306  1.00  0.00     0.188 C 
ATOM     90  C   UNL A   1      32.091  24.275  25.005  1.00  0.00     0.164 A 
ATOM     91  N   UNL A   1      32.912  25.925  23.676  1.00  0.00    -0.238 NA
ATOM     92  N   UNL A   1      31.364  23.610  25.935  1.00  0.00    -0.198 NA
ATOM     93  N   UNL A   1      33.290  23.858  24.465  1.00  0.00    -0.283 N 
ATOM     94  C   UNL A   1      33.766  24.921  23.724  1.00  0.00     0.206 A 
BRANCH  89  95
ATOM     95  O   UNL A   1      29.547  23.685  27.290  1.00  0.00    -0.496 OA
ATOM     96  H   UNL A   1      29.097  24.237  27.898  1.00  0.00     0.294 HD
ENDBRANCH  89  95
BRANCH  93  97
ATOM     97  C   UNL A   1      33.893  22.592  24.620  1.00  0.00     0.050 A 
ATOM     98  C   UNL A   1      35.191  22.487  25.132  1.00  0.00     0.027 A 
ATOM     99  C   UNL A   1      33.173  21.445  24.260  1.00  0.00     0.047 A 
ATOM    100  C   UNL A   1      35.748  21.220  25.323  1.00  0.00     0.004 A 
ATOM    101  C   UNL A   1      33.761  20.193  24.408  1.00  0.00     0.043 A 
ATOM    102  C   UNL A   1      35.038  20.075  24.953  1.00  0.00     0.020 A 
ATOM    103  Cl  UNL A   1      32.911  18.785  23.899  1.00  0.00    -0.084 Cl
ENDBRANCH  93  97
ENDBRANCH  85  86
ENDBRANCH  78  80
ENDBRANCH  77  78
ENDBRANCH  76  77
ENDBRANCH  75  76
ENDBRANCH  74  75
ENDBRANCH   1  74
TORSDOF 20
ENDMDL
MODEL 3
REMARK VINA RESULT:     -11.6      2.966      9.250
REMARK SMILES O=C(OCCOCCOC(=O)c1ccc([C@@H]2CC(O)=Nc3c2ncn3-c2cccc(Cl)c2)cc1)c1ccc(-c2c3nc(c(-c4c(F)cc(S(=O)(=O)[O-])cc4F)c4ccc([nH]4)c(-c4c(F)cc(S(=O)(=O)[O-])cc4F)c4nc(c(-c5c(F)cc(S(=O)(=O)[O-])cc5F)c5ccc2[nH]5)C=C4)C=C3)cc1
REMARK SMILES IDX 5 1 4 2 3 3 2 4 1 5 35 6 36 7 100 8 37 9 99 10 38 11 39 12
REMARK SMILES IDX 40 13 93 14 41 15 98 16 92 17 94 18 42 19 97 20 91 21 90 22
REMARK SMILES IDX 43 24 77 25 56 26 76 27 57 28 60 29 75 30 95 31 58 32 59 33
REMARK SMILES IDX 74 35 96 36 61 37 44 38 45 39 54 40 46 41 47 42 53 43 55 44
REMARK SMILES IDX 48 45 49 46 50 47 51 48 52 49 78 50 79 51 88 52 80 53 81 54
REMARK SMILES IDX 87 55 89 56 82 57 83 58 84 59 85 60 86 61 62 62 63 63 72 64
REMARK SMILES IDX 64 65 65 66 71 67 73 68 66 69 67 70 68 71 69 72 70 73 6 74
REMARK SMILES IDX 7 75 8 76 9 77 10 78 11 79 12 80 13 81 34 82 14 83 33 84
REMARK SMILES IDX 15 85 16 86 17 87 22 88 18 89 21 90 23 91 20 92 25 93 24 94
REMARK SMILES IDX 19 95 26 97 27 98 32 99 28 100 30 101 29 102 31 103
REMARK H PARENT 94 23 60 34 19 96
REMARK Flexibility Score: inf
ROOT
ATOM      1  C   UNL A   1      36.099  21.965  25.766  1.00  0.00     0.202 C 
ENDROOT
BRANCH   1   2
ATOM      2  C   UNL A   1      37.463  21.389  25.384  1.00  0.00     0.261 C 
BRANCH   2   3
ATOM      3  O   UNL A   1      38.492  22.386  25.286  1.00  0.00    -0.460 OA
BRANCH   3   4
ATOM      4  C   UNL A   1      39.601  22.445  26.052  1.00  0.00     0.338 C 
ATOM      5  O   UNL A   1      40.591  21.782  25.748  1.00  0.00    -0.246 OA
BRANCH   4   6
ATOM      6  C   UNL A   1      39.711  23.476  27.116  1.00  0.00     0.060 A 
ATOM      7  C   UNL A   1      38.764  24.460  27.396  1.00  0.00     0.016 A 
ATOM      8  C   UNL A   1      40.942  23.500  27.789  1.00  0.00     0.016 A 
ATOM      9  C   UNL A   1      39.146  25.610  28.054  1.00  0.00     0.010 A 
ATOM     10  C   UNL A   1      41.305  24.612  28.520  1.00  0.00     0.010 A 
ATOM     11  C   UNL A   1      40.446  25.704  28.537  1.00  0.00    -0.014 A 
BRANCH  11  12
ATOM     12  C   UNL A   1      40.848  26.946  29.164  1.00  0.00     0.031 A 
ATOM     13  C   UNL A   1      41.974  27.612  28.464  1.00  0.00     0.074 A 
ATOM     14  C   UNL A   1      40.163  27.447  30.211  1.00  0.00     0.049 A 
ATOM     15  N   UNL A   1      43.176  27.805  28.895  1.00  0.00    -0.248 NA
ATOM     16  C   UNL A   1      41.802  27.914  27.031  1.00  0.00     0.031 C 
ATOM     17  C   UNL A   1      38.912  26.953  30.794  1.00  0.00     0.029 A 
ATOM     18  N   UNL A   1      40.385  28.592  30.907  1.00  0.00    -0.354 N 
ATOM     19  C   UNL A   1      43.832  28.488  27.874  1.00  0.00     0.074 A 
ATOM     20  C   UNL A   1      43.023  28.330  26.697  1.00  0.00     0.031 C 
ATOM     21  C   UNL A   1      38.364  27.919  31.565  1.00  0.00     0.029 A 
ATOM     22  C   UNL A   1      39.286  29.035  31.641  1.00  0.00     0.049 A 
ATOM     23  H   UNL A   1      41.247  29.068  30.895  1.00  0.00     0.167 HD
ATOM     24  C   UNL A   1      44.845  29.355  28.147  1.00  0.00     0.037 A 
ATOM     25  C   UNL A   1      39.140  30.279  32.170  1.00  0.00     0.037 A 
ATOM     26  C   UNL A   1      45.374  29.137  29.468  1.00  0.00     0.049 A 
ATOM     27  C   UNL A   1      40.508  30.864  32.266  1.00  0.00     0.074 A 
ATOM     28  C   UNL A   1      45.987  28.074  30.101  1.00  0.00     0.029 A 
ATOM     29  N   UNL A   1      44.947  29.980  30.466  1.00  0.00    -0.354 N 
ATOM     30  N   UNL A   1      41.438  30.392  33.055  1.00  0.00    -0.248 NA
ATOM     31  C   UNL A   1      40.992  31.629  31.125  1.00  0.00     0.031 C 
ATOM     32  C   UNL A   1      45.475  28.093  31.430  1.00  0.00     0.029 A 
ATOM     33  C   UNL A   1      44.644  29.207  31.559  1.00  0.00     0.049 A 
ATOM     34  H   UNL A   1      44.871  30.959  30.408  1.00  0.00     0.167 HD
ATOM     35  C   UNL A   1      42.602  30.426  32.298  1.00  0.00     0.074 A 
ATOM     36  C   UNL A   1      42.275  31.253  31.136  1.00  0.00     0.031 C 
ATOM     37  C   UNL A   1      43.622  29.546  32.525  1.00  0.00     0.037 A 
BRANCH  24  38
ATOM     38  C   UNL A   1      45.079  30.639  27.388  1.00  0.00     0.058 A 
ATOM     39  C   UNL A   1      46.355  30.892  26.845  1.00  0.00     0.135 A 
ATOM     40  C   UNL A   1      44.204  31.748  27.426  1.00  0.00     0.135 A 
ATOM     41  F   UNL A   1      47.272  29.913  26.767  1.00  0.00    -0.206 F 
ATOM     42  C   UNL A   1      46.754  32.166  26.438  1.00  0.00     0.059 A 
ATOM     43  C   UNL A   1      44.562  33.012  26.976  1.00  0.00     0.059 A 
ATOM     44  F   UNL A   1      42.991  31.688  27.989  1.00  0.00    -0.206 F 
ATOM     45  C   UNL A   1      45.852  33.222  26.522  1.00  0.00     0.060 A 
BRANCH  45  46
ATOM     46  S   UNL A   1      46.391  34.883  26.086  1.00  0.00     0.124 S 
ATOM     47  O   UNL A   1      47.426  34.603  25.098  1.00  0.00    -0.237 OA
ATOM     48  O   UNL A   1      45.158  35.473  25.576  1.00  0.00    -0.237 OA
ATOM     49  O   UNL A   1      46.862  35.427  27.357  1.00  0.00    -0.744 OA
ENDBRANCH  45  46
ENDBRANCH  24  38
BRANCH  25  50
ATOM     50  C   UNL A   1      37.902  31.110  32.186  1.00  0.00     0.058 A 
ATOM     51  C   UNL A   1      37.316  31.533  33.393  1.00  0.00     0.135 A 
ATOM     52  C   UNL A   1      37.423  31.739  31.017  1.00  0.00     0.135 A 
ATOM     53  F   UNL A   1      37.725  31.009  34.559  1.00  0.00    -0.206 F 
ATOM     54  C   UNL A   1      36.350  32.548  33.443  1.00  0.00     0.059 A 
ATOM     55  C   UNL A   1      36.455  32.743  31.041  1.00  0.00     0.059 A 
ATOM     56  F   UNL A   1      37.949  31.463  29.815  1.00  0.00    -0.206 F 
ATOM     57  C   UNL A   1      35.940  33.162  32.260  1.00  0.00     0.060 A 
BRANCH  57  58
ATOM     58  S   UNL A   1      34.829  34.589  32.326  1.00  0.00     0.124 S 
ATOM     59  O   UNL A   1      34.695  34.934  30.915  1.00  0.00    -0.237 OA
ATOM     60  O   UNL A   1      33.641  34.028  32.961  1.00  0.00    -0.237 OA
ATOM     61  O   UNL A   1      35.566  35.556  33.137  1.00  0.00    -0.744 OA
ENDBRANCH  57  58
ENDBRANCH  25  50
BRANCH  37  62
ATOM     62  C   UNL A   1      43.584  28.711  33.780  1.00  0.00     0.058 A 
ATOM     63  C   UNL A   1      43.983  29.159  35.052  1.00  0.00     0.135 A 
ATOM     64  C   UNL A   1      42.951  27.462  33.712  1.00  0.00     0.135 A 
ATOM     65  F   UNL A   1      44.498  30.386  35.220  1.00  0.00    -0.206 F 
ATOM     66  C   UNL A   1      43.797  28.382  36.198  1.00  0.00     0.059 A 
ATOM     67  C   UNL A   1      42.726  26.684  34.843  1.00  0.00     0.059 A 
ATOM     68  F   UNL A   1      42.487  27.008  32.537  1.00  0.00    -0.206 F 
ATOM     69  C   UNL A   1      43.164  27.144  36.083  1.00  0.00     0.060 A 
BRANCH  69  70
ATOM     70  S   UNL A   1      42.858  26.163  37.569  1.00  0.00     0.124 S 
ATOM     71  O   UNL A   1      43.326  24.842  37.165  1.00  0.00    -0.237 OA
ATOM     72  O   UNL A   1      43.670  26.846  38.572  1.00  0.00    -0.237 OA
ATOM     73  O   UNL A   1      41.415  26.281  37.763  1.00  0.00    -0.744 OA
ENDBRANCH  69  70
ENDBRANCH  37  62
ENDBRANCH  11  12
ENDBRANCH   4   6
ENDBRANCH   3   4
ENDBRANCH   2   3
ENDBRANCH   1   2
BRANCH   1  74
ATOM     74  O   UNL A   1      34.935  21.159  25.617  1.00  0.00    -0.374 OA
BRANCH  74  75
ATOM     75  C   UNL A   1      35.044  19.944  24.865  1.00  0.00     0.202 C 
BRANCH  75  76
ATOM     76  C   UNL A   1      33.791  19.119  24.526  1.00  0.00     0.261 C 
BRANCH  76  77
ATOM     77  O   UNL A   1      32.584  19.895  24.492  1.00  0.00    -0.460 OA
BRANCH  77  78
ATOM     78  C   UNL A   1      32.381  20.557  23.326  1.00  0.00     0.338 C 
ATOM     79  O   UNL A   1      32.014  20.092  22.266  1.00  0.00    -0.246 OA
BRANCH  78  80
ATOM     80  C   UNL A   1      32.460  22.013  23.558  1.00  0.00     0.060 A 
ATOM     81  C   UNL A   1      31.607  22.547  24.530  1.00  0.00     0.016 A 
ATOM     82  C   UNL A   1      33.277  22.842  22.794  1.00  0.00     0.016 A 
ATOM     83  C   UNL A   1      31.512  23.922  24.690  1.00  0.00     0.005 A 
ATOM     84  C   UNL A   1      33.145  24.228  22.923  1.00  0.00     0.005 A 
ATOM     85  C   UNL A   1      32.224  24.779  23.838  1.00  0.00    -0.038 A 
BRANCH  85  86
ATOM     86  C   UNL A   1      31.777  26.228  23.788  1.00  0.00     0.081 C 
ATOM     87  C   UNL A   1      32.406  26.914  22.553  1.00  0.00     0.111 C 
ATOM     88  C   UNL A   1      32.159  26.899  25.045  1.00  0.00     0.093 A 
ATOM     89  C   UNL A   1      33.453  27.966  22.869  1.00  0.00     0.188 C 
ATOM     90  C   UNL A   1      32.999  27.989  25.043  1.00  0.00     0.164 A 
ATOM     91  N   UNL A   1      31.750  26.574  26.307  1.00  0.00    -0.238 NA
ATOM     92  N   UNL A   1      33.696  28.522  24.011  1.00  0.00    -0.198 NA
ATOM     93  N   UNL A   1      33.094  28.371  26.365  1.00  0.00    -0.283 N 
ATOM     94  C   UNL A   1      32.371  27.441  27.084  1.00  0.00     0.206 A 
BRANCH  89  95
ATOM     95  O   UNL A   1      34.162  28.373  21.797  1.00  0.00    -0.496 OA
ATOM     96  H   UNL A   1      33.789  28.318  20.940  1.00  0.00     0.294 HD
ENDBRANCH  89  95
BRANCH  93  97
ATOM     97  C   UNL A   1      33.773  29.498  26.875  1.00  0.00     0.050 A 
ATOM     98  C   UNL A   1      35.122  29.408  27.232  1.00  0.00     0.027 A 
ATOM     99  C   UNL A   1      33.077  30.707  27.012  1.00  0.00     0.047 A 
ATOM    100  C   UNL A   1      35.785  30.550  27.686  1.00  0.00     0.004 A 
ATOM    101  C   UNL A   1      33.738  31.824  27.515  1.00  0.00     0.043 A 
ATOM    102  C   UNL A   1      35.092  31.754  27.837  1.00  0.00     0.020 A 
ATOM    103  Cl  UNL A   1      32.872  33.291  27.756  1.00  0.00    -0.084 Cl
ENDBRANCH  93  97
ENDBRANCH  85  86
ENDBRANCH  78  80
ENDBRANCH  77  78
ENDBRANCH  76  77
ENDBRANCH  75  76
ENDBRANCH  74  75
ENDBRANCH   1  74
TORSDOF 20
ENDMDL
