MODEL 1
REMARK VINA RESULT:     -10.3      0.000      0.000
REMARK SMILES COCCCN1C(=O)CC[C@@H](C(=O)OCCOCCOC(=O)c2ccc(-c3c4nc(c(-c5c(F)cc(S(=O)(=O)[O-])cc5F)c5ccc([nH]5)c(-c5c(F)cc(S(=O)(=O)[O-])cc5F)c5nc(c(-c6c(F)cc(S(=O)(=O)[O-])cc6F)c6ccc3[nH]6)C=C5)C=C4)cc2)[C@@H]1c1ccc(F)cc1
REMARK SMILES IDX 16 1 15 2 14 3 12 4 13 5 11 6 6 7 7 8 89 9 8 10 9 11 10 12
REMARK SMILES IDX 5 13 4 14 3 15 2 16 1 17 90 18 91 19 96 20 92 21 95 22 93 23
REMARK SMILES IDX 94 24 17 25 18 26 19 27 20 28 21 29 22 30 23 31 24 32 88 33
REMARK SMILES IDX 25 34 87 35 26 36 27 37 28 38 81 39 29 40 86 41 80 42 82 43
REMARK SMILES IDX 30 44 85 45 79 46 78 47 31 49 65 50 44 51 64 52 45 53 48 54
REMARK SMILES IDX 63 55 83 56 46 57 47 58 62 60 84 61 49 62 32 63 33 64 42 65
REMARK SMILES IDX 34 66 35 67 41 68 43 69 36 70 37 71 38 72 39 73 40 74 66 75
REMARK SMILES IDX 67 76 76 77 68 78 69 79 75 80 77 81 70 82 71 83 72 84 73 85
REMARK SMILES IDX 74 86 50 87 51 88 60 89 52 90 53 91 59 92 61 93 54 94 55 95
REMARK SMILES IDX 56 96 57 97 58 98
REMARK H PARENT 82 48 48 59
REMARK Flexibility Score: inf
ROOT
ATOM      1  C   UNL A   1      33.469  27.497  23.403  1.00  0.00     0.202 C 
ENDROOT
BRANCH   1   2
ATOM      2  C   UNL A   1      33.870  26.179  24.082  1.00  0.00     0.261 C 
BRANCH   2   3
ATOM      3  O   UNL A   1      33.108  25.033  23.666  1.00  0.00    -0.463 OA
BRANCH   3   4
ATOM      4  C   UNL A   1      32.153  24.658  24.560  1.00  0.00     0.311 C 
ATOM      5  O   UNL A   1      31.595  25.434  25.326  1.00  0.00    -0.252 OA
BRANCH   4   6
ATOM      6  C   UNL A   1      31.805  23.178  24.439  1.00  0.00     0.127 C 
ATOM      7  N   UNL A   1      33.480  22.630  26.152  1.00  0.00    -0.335 N 
ATOM      8  C   UNL A   1      32.564  22.679  27.195  1.00  0.00     0.223 C 
ATOM      9  C   UNL A   1      33.054  22.352  24.772  1.00  0.00     0.129 C 
ATOM     10  O   UNL A   1      32.900  22.580  28.376  1.00  0.00    -0.275 OA
ATOM     11  C   UNL A   1      31.098  22.930  26.859  1.00  0.00     0.101 C 
ATOM     12  C   UNL A   1      30.687  22.779  25.402  1.00  0.00     0.028 C 
BRANCH   7  13
ATOM     13  C   UNL A   1      34.920  22.642  26.422  1.00  0.00     0.122 C 
BRANCH  13  14
ATOM     14  C   UNL A   1      35.689  23.736  25.674  1.00  0.00     0.050 C 
BRANCH  14  15
ATOM     15  C   UNL A   1      37.212  23.596  25.669  1.00  0.00     0.161 C 
BRANCH  15  16
ATOM     16  O   UNL A   1      37.671  22.411  25.010  1.00  0.00    -0.385 OA
ATOM     17  C   UNL A   1      38.609  21.648  25.751  1.00  0.00     0.194 C 
ENDBRANCH  15  16
ENDBRANCH  14  15
ENDBRANCH  13  14
ENDBRANCH   7  13
BRANCH   9  18
ATOM     18  C   UNL A   1      32.882  20.833  24.548  1.00  0.00    -0.024 A 
ATOM     19  C   UNL A   1      33.093  19.902  25.591  1.00  0.00     0.009 A 
ATOM     20  C   UNL A   1      32.528  20.324  23.286  1.00  0.00     0.009 A 
ATOM     21  C   UNL A   1      32.945  18.529  25.390  1.00  0.00     0.039 A 
ATOM     22  C   UNL A   1      32.371  18.947  23.088  1.00  0.00     0.039 A 
ATOM     23  C   UNL A   1      32.582  18.064  24.138  1.00  0.00     0.123 A 
ATOM     24  F   UNL A   1      32.437  16.747  23.943  1.00  0.00    -0.207 F 
ENDBRANCH   9  18
ENDBRANCH   4   6
ENDBRANCH   3   4
ENDBRANCH   2   3
ENDBRANCH   1   2
BRANCH   1  25
ATOM     25  O   UNL A   1      32.885  28.544  24.169  1.00  0.00    -0.374 OA
BRANCH  25  26
ATOM     26  C   UNL A   1      33.536  28.984  25.354  1.00  0.00     0.202 C 
BRANCH  26  27
ATOM     27  C   UNL A   1      32.901  30.079  26.222  1.00  0.00     0.261 C 
BRANCH  27  28
ATOM     28  O   UNL A   1      33.467  30.177  27.537  1.00  0.00    -0.460 OA
BRANCH  28  29
ATOM     29  C   UNL A   1      34.497  31.053  27.630  1.00  0.00     0.338 C 
ATOM     30  O   UNL A   1      34.438  32.274  27.549  1.00  0.00    -0.246 OA
BRANCH  29  31
ATOM     31  C   UNL A   1      35.721  30.354  28.048  1.00  0.00     0.060 A 
ATOM     32  C   UNL A   1      35.711  29.717  29.295  1.00  0.00     0.016 A 
ATOM     33  C   UNL A   1      36.886  30.408  27.280  1.00  0.00     0.016 A 
ATOM     34  C   UNL A   1      36.880  29.161  29.802  1.00  0.00     0.010 A 
ATOM     35  C   UNL A   1      38.065  29.867  27.800  1.00  0.00     0.010 A 
ATOM     36  C   UNL A   1      38.072  29.275  29.077  1.00  0.00    -0.014 A 
BRANCH  36  37
ATOM     37  C   UNL A   1      39.350  28.929  29.738  1.00  0.00     0.031 A 
ATOM     38  C   UNL A   1      39.760  29.700  30.961  1.00  0.00     0.074 A 
ATOM     39  C   UNL A   1      40.105  27.917  29.279  1.00  0.00     0.049 A 
ATOM     40  N   UNL A   1      40.842  29.589  31.686  1.00  0.00    -0.248 NA
ATOM     41  C   UNL A   1      38.824  30.735  31.432  1.00  0.00     0.031 C 
ATOM     42  C   UNL A   1      39.778  27.073  28.130  1.00  0.00     0.029 A 
ATOM     43  N   UNL A   1      41.307  27.430  29.723  1.00  0.00    -0.354 N 
ATOM     44  C   UNL A   1      40.722  30.541  32.692  1.00  0.00     0.074 A 
ATOM     45  C   UNL A   1      39.475  31.239  32.469  1.00  0.00     0.031 C 
ATOM     46  C   UNL A   1      40.766  26.180  27.951  1.00  0.00     0.029 A 
ATOM     47  C   UNL A   1      41.805  26.407  28.953  1.00  0.00     0.049 A 
ATOM     48  H   UNL A   1      41.769  27.780  30.519  1.00  0.00     0.167 HD
ATOM     49  C   UNL A   1      41.573  30.802  33.713  1.00  0.00     0.037 A 
ATOM     50  C   UNL A   1      42.977  25.748  29.037  1.00  0.00     0.037 A 
ATOM     51  C   UNL A   1      42.810  30.099  33.924  1.00  0.00     0.049 A 
ATOM     52  C   UNL A   1      43.938  26.100  30.143  1.00  0.00     0.074 A 
ATOM     53  C   UNL A   1      43.739  30.275  34.935  1.00  0.00     0.029 A 
ATOM     54  N   UNL A   1      43.296  29.088  33.107  1.00  0.00    -0.354 N 
ATOM     55  N   UNL A   1      43.806  26.991  31.097  1.00  0.00    -0.248 NA
ATOM     56  C   UNL A   1      45.203  25.354  30.187  1.00  0.00     0.031 C 
ATOM     57  C   UNL A   1      44.809  29.403  34.701  1.00  0.00     0.029 A 
ATOM     58  C   UNL A   1      44.523  28.648  33.574  1.00  0.00     0.049 A 
ATOM     59  H   UNL A   1      42.836  28.736  32.310  1.00  0.00     0.167 HD
ATOM     60  C   UNL A   1      44.959  26.896  31.870  1.00  0.00     0.074 A 
ATOM     61  C   UNL A   1      45.771  25.853  31.277  1.00  0.00     0.031 C 
ATOM     62  C   UNL A   1      45.313  27.604  32.971  1.00  0.00     0.037 A 
BRANCH  49  63
ATOM     63  C   UNL A   1      41.206  31.911  34.657  1.00  0.00     0.058 A 
ATOM     64  C   UNL A   1      40.406  31.686  35.789  1.00  0.00     0.135 A 
ATOM     65  C   UNL A   1      41.682  33.215  34.441  1.00  0.00     0.135 A 
ATOM     66  F   UNL A   1      39.907  30.464  36.032  1.00  0.00    -0.206 F 
ATOM     67  C   UNL A   1      40.072  32.719  36.659  1.00  0.00     0.059 A 
ATOM     68  C   UNL A   1      41.381  34.257  35.312  1.00  0.00     0.059 A 
ATOM     69  F   UNL A   1      42.447  33.486  33.371  1.00  0.00    -0.206 F 
ATOM     70  C   UNL A   1      40.563  34.002  36.412  1.00  0.00     0.060 A 
BRANCH  70  71
ATOM     71  S   UNL A   1      40.122  35.331  37.551  1.00  0.00     0.124 S 
ATOM     72  O   UNL A   1      39.948  36.453  36.634  1.00  0.00    -0.237 OA
ATOM     73  O   UNL A   1      38.902  34.821  38.168  1.00  0.00    -0.237 OA
ATOM     74  O   UNL A   1      41.280  35.419  38.435  1.00  0.00    -0.744 OA
ENDBRANCH  70  71
ENDBRANCH  49  63
BRANCH  50  75
ATOM     75  C   UNL A   1      43.312  24.702  28.036  1.00  0.00     0.058 A 
ATOM     76  C   UNL A   1      43.990  25.020  26.850  1.00  0.00     0.135 A 
ATOM     77  C   UNL A   1      42.965  23.359  28.251  1.00  0.00     0.135 A 
ATOM     78  F   UNL A   1      44.333  26.292  26.595  1.00  0.00    -0.206 F 
ATOM     79  C   UNL A   1      44.303  24.047  25.907  1.00  0.00     0.059 A 
ATOM     80  C   UNL A   1      43.290  22.364  27.334  1.00  0.00     0.059 A 
ATOM     81  F   UNL A   1      42.327  23.000  29.376  1.00  0.00    -0.206 F 
ATOM     82  C   UNL A   1      43.951  22.720  26.161  1.00  0.00     0.060 A 
BRANCH  82  83
ATOM     83  S   UNL A   1      44.410  21.455  24.957  1.00  0.00     0.124 S 
ATOM     84  O   UNL A   1      45.768  21.130  25.375  1.00  0.00    -0.237 OA
ATOM     85  O   UNL A   1      43.403  20.426  25.196  1.00  0.00    -0.237 OA
ATOM     86  O   UNL A   1      44.291  22.151  23.679  1.00  0.00    -0.744 OA
ENDBRANCH  82  83
ENDBRANCH  50  75
BRANCH  62  87
ATOM     87  C   UNL A   1      46.621  27.255  33.628  1.00  0.00     0.058 A 
ATOM     88  C   UNL A   1      47.816  27.903  33.282  1.00  0.00     0.135 A 
ATOM     89  C   UNL A   1      46.665  26.298  34.655  1.00  0.00     0.135 A 
ATOM     90  F   UNL A   1      47.828  28.822  32.303  1.00  0.00    -0.206 F 
ATOM     91  C   UNL A   1      49.016  27.598  33.917  1.00  0.00     0.059 A 
ATOM     92  C   UNL A   1      47.848  25.998  35.321  1.00  0.00     0.059 A 
ATOM     93  F   UNL A   1      45.548  25.657  35.032  1.00  0.00    -0.206 F 
ATOM     94  C   UNL A   1      49.022  26.645  34.937  1.00  0.00     0.060 A 
BRANCH  94  95
ATOM     95  S   UNL A   1      50.579  26.283  35.776  1.00  0.00     0.124 S 
ATOM     96  O   UNL A   1      51.366  25.701  34.694  1.00  0.00    -0.237 OA
ATOM     97  O   UNL A   1      51.004  27.604  36.230  1.00  0.00    -0.237 OA
ATOM     98  O   UNL A   1      50.187  25.360  36.836  1.00  0.00    -0.744 OA
ENDBRANCH  94  95
ENDBRANCH  62  87
ENDBRANCH  36  37
ENDBRANCH  29  31
ENDBRANCH  28  29
ENDBRANCH  27  28
ENDBRANCH  26  27
ENDBRANCH  25  26
ENDBRANCH   1  25
TORSDOF 22
ENDMDL
MODEL 2
REMARK VINA RESULT:     -10.2      4.557      5.668
REMARK SMILES COCCCN1C(=O)CC[C@@H](C(=O)OCCOCCOC(=O)c2ccc(-c3c4nc(c(-c5c(F)cc(S(=O)(=O)[O-])cc5F)c5ccc([nH]5)c(-c5c(F)cc(S(=O)(=O)[O-])cc5F)c5nc(c(-c6c(F)cc(S(=O)(=O)[O-])cc6F)c6ccc3[nH]6)C=C5)C=C4)cc2)[C@@H]1c1ccc(F)cc1
REMARK SMILES IDX 16 1 15 2 14 3 12 4 13 5 11 6 6 7 7 8 89 9 8 10 9 11 10 12
REMARK SMILES IDX 5 13 4 14 3 15 2 16 1 17 90 18 91 19 96 20 92 21 95 22 93 23
REMARK SMILES IDX 94 24 17 25 18 26 19 27 20 28 21 29 22 30 23 31 24 32 88 33
REMARK SMILES IDX 25 34 87 35 26 36 27 37 28 38 81 39 29 40 86 41 80 42 82 43
REMARK SMILES IDX 30 44 85 45 79 46 78 47 31 49 65 50 44 51 64 52 45 53 48 54
REMARK SMILES IDX 63 55 83 56 46 57 47 58 62 60 84 61 49 62 32 63 33 64 42 65
REMARK SMILES IDX 34 66 35 67 41 68 43 69 36 70 37 71 38 72 39 73 40 74 66 75
REMARK SMILES IDX 67 76 76 77 68 78 69 79 75 80 77 81 70 82 71 83 72 84 73 85
REMARK SMILES IDX 74 86 50 87 51 88 60 89 52 90 53 91 59 92 61 93 54 94 55 95
REMARK SMILES IDX 56 96 57 97 58 98
REMARK H PARENT 82 48 48 59
REMARK Flexibility Score: inf
ROOT
ATOM      1  C   UNL A   1      32.040  28.965  26.656  1.00  0.00     0.202 C 
ENDROOT
BRANCH   1   2
ATOM      2  C   UNL A   1      31.625  27.936  25.595  1.00  0.00     0.261 C 
BRANCH   2   3
ATOM      3  O   UNL A   1      31.696  26.566  26.025  1.00  0.00    -0.463 OA
BRANCH   3   4
ATOM      4  C   UNL A   1      32.686  25.854  25.420  1.00  0.00     0.311 C 
ATOM      5  O   UNL A   1      33.870  26.169  25.454  1.00  0.00    -0.252 OA
BRANCH   4   6
ATOM      6  C   UNL A   1      32.158  24.582  24.766  1.00  0.00     0.127 C 
ATOM      7  N   UNL A   1      33.425  23.216  26.368  1.00  0.00    -0.335 N 
ATOM      8  C   UNL A   1      32.362  23.106  27.257  1.00  0.00     0.223 C 
ATOM      9  C   UNL A   1      33.203  23.473  24.937  1.00  0.00     0.129 C 
ATOM     10  O   UNL A   1      32.477  22.579  28.364  1.00  0.00    -0.275 OA
ATOM     11  C   UNL A   1      31.024  23.723  26.863  1.00  0.00     0.101 C 
ATOM     12  C   UNL A   1      30.848  24.120  25.405  1.00  0.00     0.028 C 
BRANCH   7  13
ATOM     13  C   UNL A   1      34.786  22.870  26.786  1.00  0.00     0.122 C 
BRANCH  13  14
ATOM     14  C   UNL A   1      35.876  23.307  25.801  1.00  0.00     0.050 C 
BRANCH  14  15
ATOM     15  C   UNL A   1      37.101  22.397  25.716  1.00  0.00     0.161 C 
BRANCH  15  16
ATOM     16  O   UNL A   1      37.482  22.083  24.373  1.00  0.00    -0.385 OA
ATOM     17  C   UNL A   1      36.645  22.642  23.374  1.00  0.00     0.194 C 
ENDBRANCH  15  16
ENDBRANCH  14  15
ENDBRANCH  13  14
ENDBRANCH   7  13
BRANCH   9  18
ATOM     18  C   UNL A   1      32.857  22.163  24.194  1.00  0.00    -0.024 A 
ATOM     19  C   UNL A   1      32.942  20.904  24.832  1.00  0.00     0.009 A 
ATOM     20  C   UNL A   1      32.467  22.181  22.843  1.00  0.00     0.009 A 
ATOM     21  C   UNL A   1      32.638  19.719  24.160  1.00  0.00     0.039 A 
ATOM     22  C   UNL A   1      32.153  20.992  22.174  1.00  0.00     0.039 A 
ATOM     23  C   UNL A   1      32.242  19.775  22.836  1.00  0.00     0.123 A 
ATOM     24  F   UNL A   1      31.948  18.640  22.190  1.00  0.00    -0.207 F 
ENDBRANCH   9  18
ENDBRANCH   4   6
ENDBRANCH   3   4
ENDBRANCH   2   3
ENDBRANCH   1   2
BRANCH   1  25
ATOM     25  O   UNL A   1      32.743  30.141  26.272  1.00  0.00    -0.374 OA
BRANCH  25  26
ATOM     26  C   UNL A   1      33.390  30.920  27.270  1.00  0.00     0.202 C 
BRANCH  26  27
ATOM     27  C   UNL A   1      34.623  30.372  28.000  1.00  0.00     0.261 C 
BRANCH  27  28
ATOM     28  O   UNL A   1      35.706  31.309  28.095  1.00  0.00    -0.460 OA
BRANCH  28  29
ATOM     29  C   UNL A   1      36.442  31.188  29.226  1.00  0.00     0.338 C 
ATOM     30  O   UNL A   1      36.125  31.541  30.355  1.00  0.00    -0.246 OA
BRANCH  29  31
ATOM     31  C   UNL A   1      37.641  30.377  28.967  1.00  0.00     0.060 A 
ATOM     32  C   UNL A   1      38.498  30.122  30.045  1.00  0.00     0.016 A 
ATOM     33  C   UNL A   1      37.971  29.962  27.676  1.00  0.00     0.016 A 
ATOM     34  C   UNL A   1      39.713  29.482  29.831  1.00  0.00     0.010 A 
ATOM     35  C   UNL A   1      39.202  29.337  27.459  1.00  0.00     0.010 A 
ATOM     36  C   UNL A   1      40.090  29.129  28.531  1.00  0.00    -0.014 A 
BRANCH  36  37
ATOM     37  C   UNL A   1      41.485  28.703  28.279  1.00  0.00     0.031 A 
ATOM     38  C   UNL A   1      42.575  29.736  28.335  1.00  0.00     0.074 A 
ATOM     39  C   UNL A   1      41.774  27.411  28.048  1.00  0.00     0.049 A 
ATOM     40  N   UNL A   1      43.858  29.599  28.124  1.00  0.00    -0.248 NA
ATOM     41  C   UNL A   1      42.164  31.109  28.675  1.00  0.00     0.031 C 
ATOM     42  C   UNL A   1      40.801  26.320  28.019  1.00  0.00     0.029 A 
ATOM     43  N   UNL A   1      42.974  26.800  27.790  1.00  0.00    -0.354 N 
ATOM     44  C   UNL A   1      44.407  30.865  28.299  1.00  0.00     0.074 A 
ATOM     45  C   UNL A   1      43.314  31.762  28.607  1.00  0.00     0.031 C 
ATOM     46  C   UNL A   1      41.443  25.171  27.743  1.00  0.00     0.029 A 
ATOM     47  C   UNL A   1      42.863  25.452  27.548  1.00  0.00     0.049 A 
ATOM     48  H   UNL A   1      43.833  27.281  27.780  1.00  0.00     0.167 HD
ATOM     49  C   UNL A   1      45.705  31.240  28.218  1.00  0.00     0.037 A 
ATOM     50  C   UNL A   1      43.802  24.554  27.188  1.00  0.00     0.037 A 
ATOM     51  C   UNL A   1      46.782  30.337  27.913  1.00  0.00     0.049 A 
ATOM     52  C   UNL A   1      45.231  25.008  27.041  1.00  0.00     0.074 A 
ATOM     53  C   UNL A   1      48.136  30.611  27.820  1.00  0.00     0.029 A 
ATOM     54  N   UNL A   1      46.630  28.983  27.646  1.00  0.00    -0.354 N 
ATOM     55  N   UNL A   1      45.740  26.204  27.224  1.00  0.00    -0.248 NA
ATOM     56  C   UNL A   1      46.214  23.991  26.643  1.00  0.00     0.031 C 
ATOM     57  C   UNL A   1      48.795  29.433  27.449  1.00  0.00     0.029 A 
ATOM     58  C   UNL A   1      47.859  28.414  27.362  1.00  0.00     0.049 A 
ATOM     59  H   UNL A   1      45.772  28.499  27.655  1.00  0.00     0.167 HD
ATOM     60  C   UNL A   1      47.106  26.078  26.989  1.00  0.00     0.074 A 
ATOM     61  C   UNL A   1      47.343  24.687  26.660  1.00  0.00     0.031 C 
ATOM     62  C   UNL A   1      48.075  27.025  27.041  1.00  0.00     0.037 A 
BRANCH  49  63
ATOM     63  C   UNL A   1      46.023  32.692  28.434  1.00  0.00     0.058 A 
ATOM     64  C   UNL A   1      46.022  33.615  27.377  1.00  0.00     0.135 A 
ATOM     65  C   UNL A   1      46.309  33.173  29.722  1.00  0.00     0.135 A 
ATOM     66  F   UNL A   1      45.776  33.206  26.122  1.00  0.00    -0.206 F 
ATOM     67  C   UNL A   1      46.316  34.959  27.585  1.00  0.00     0.059 A 
ATOM     68  C   UNL A   1      46.581  34.517  29.958  1.00  0.00     0.059 A 
ATOM     69  F   UNL A   1      46.328  32.331  30.768  1.00  0.00    -0.206 F 
ATOM     70  C   UNL A   1      46.596  35.400  28.880  1.00  0.00     0.060 A 
BRANCH  70  71
ATOM     71  S   UNL A   1      46.974  37.147  29.136  1.00  0.00     0.124 S 
ATOM     72  O   UNL A   1      47.263  37.175  30.566  1.00  0.00    -0.237 OA
ATOM     73  O   UNL A   1      48.119  37.351  28.254  1.00  0.00    -0.237 OA
ATOM     74  O   UNL A   1      45.746  37.824  28.730  1.00  0.00    -0.744 OA
ENDBRANCH  70  71
ENDBRANCH  49  63
BRANCH  50  75
ATOM     75  C   UNL A   1      43.416  23.143  26.928  1.00  0.00     0.058 A 
ATOM     76  C   UNL A   1      43.409  22.619  25.627  1.00  0.00     0.135 A 
ATOM     77  C   UNL A   1      43.054  22.287  27.980  1.00  0.00     0.135 A 
ATOM     78  F   UNL A   1      43.739  23.401  24.588  1.00  0.00    -0.206 F 
ATOM     79  C   UNL A   1      43.046  21.301  25.375  1.00  0.00     0.059 A 
ATOM     80  C   UNL A   1      42.710  20.958  27.756  1.00  0.00     0.059 A 
ATOM     81  F   UNL A   1      43.057  22.736  29.245  1.00  0.00    -0.206 F 
ATOM     82  C   UNL A   1      42.701  20.477  26.448  1.00  0.00     0.060 A 
BRANCH  82  83
ATOM     83  S   UNL A   1      42.282  18.751  26.118  1.00  0.00     0.124 S 
ATOM     84  O   UNL A   1      43.202  18.428  25.035  1.00  0.00    -0.237 OA
ATOM     85  O   UNL A   1      42.560  18.118  27.404  1.00  0.00    -0.237 OA
ATOM     86  O   UNL A   1      40.870  18.814  25.752  1.00  0.00    -0.744 OA
ENDBRANCH  82  83
ENDBRANCH  50  75
BRANCH  62  87
ATOM     87  C   UNL A   1      49.488  26.585  26.770  1.00  0.00     0.058 A 
ATOM     88  C   UNL A   1      50.005  26.530  25.467  1.00  0.00     0.135 A 
ATOM     89  C   UNL A   1      50.349  26.269  27.833  1.00  0.00     0.135 A 
ATOM     90  F   UNL A   1      49.221  26.818  24.415  1.00  0.00    -0.206 F 
ATOM     91  C   UNL A   1      51.323  26.155  25.226  1.00  0.00     0.059 A 
ATOM     92  C   UNL A   1      51.677  25.918  27.616  1.00  0.00     0.059 A 
ATOM     93  F   UNL A   1      49.906  26.318  29.099  1.00  0.00    -0.206 F 
ATOM     94  C   UNL A   1      52.152  25.852  26.308  1.00  0.00     0.060 A 
BRANCH  94  95
ATOM     95  S   UNL A   1      53.869  25.398  25.983  1.00  0.00     0.124 S 
ATOM     96  O   UNL A   1      54.441  25.439  27.325  1.00  0.00    -0.237 OA
ATOM     97  O   UNL A   1      53.735  24.071  25.390  1.00  0.00    -0.237 OA
ATOM     98  O   UNL A   1      54.329  26.441  25.072  1.00  0.00    -0.744 OA
ENDBRANCH  94  95
ENDBRANCH  62  87
ENDBRANCH  36  37
ENDBRANCH  29  31
ENDBRANCH  28  29
ENDBRANCH  27  28
ENDBRANCH  26  27
ENDBRANCH  25  26
ENDBRANCH   1  25
TORSDOF 22
ENDMDL
MODEL 3
REMARK VINA RESULT:      -9.9      1.154      8.219
REMARK SMILES COCCCN1C(=O)CC[C@@H](C(=O)OCCOCCOC(=O)c2ccc(-c3c4nc(c(-c5c(F)cc(S(=O)(=O)[O-])cc5F)c5ccc([nH]5)c(-c5c(F)cc(S(=O)(=O)[O-])cc5F)c5nc(c(-c6c(F)cc(S(=O)(=O)[O-])cc6F)c6ccc3[nH]6)C=C5)C=C4)cc2)[C@@H]1c1ccc(F)cc1
REMARK SMILES IDX 16 1 15 2 14 3 12 4 13 5 11 6 6 7 7 8 89 9 8 10 9 11 10 12
REMARK SMILES IDX 5 13 4 14 3 15 2 16 1 17 90 18 91 19 96 20 92 21 95 22 93 23
REMARK SMILES IDX 94 24 17 25 18 26 19 27 20 28 21 29 22 30 23 31 24 32 88 33
REMARK SMILES IDX 25 34 87 35 26 36 27 37 28 38 81 39 29 40 86 41 80 42 82 43
REMARK SMILES IDX 30 44 85 45 79 46 78 47 31 49 65 50 44 51 64 52 45 53 48 54
REMARK SMILES IDX 63 55 83 56 46 57 47 58 62 60 84 61 49 62 32 63 33 64 42 65
REMARK SMILES IDX 34 66 35 67 41 68 43 69 36 70 37 71 38 72 39 73 40 74 66 75
REMARK SMILES IDX 67 76 76 77 68 78 69 79 75 80 77 81 70 82 71 83 72 84 73 85
REMARK SMILES IDX 74 86 50 87 51 88 60 89 52 90 53 91 59 92 61 93 54 94 55 95
REMARK SMILES IDX 56 96 57 97 58 98
REMARK H PARENT 82 48 48 59
REMARK Flexibility Score: inf
ROOT
ATOM      1  C   UNL A   1      31.338  26.640  26.220  1.00  0.00     0.202 C 
ENDROOT
BRANCH   1   2
ATOM      2  C   UNL A   1      30.198  25.620  26.087  1.00  0.00     0.261 C 
BRANCH   2   3
ATOM      3  O   UNL A   1      30.591  24.250  26.279  1.00  0.00    -0.463 OA
BRANCH   3   4
ATOM      4  C   UNL A   1      30.893  23.602  25.121  1.00  0.00     0.311 C 
ATOM      5  O   UNL A   1      30.699  24.073  24.006  1.00  0.00    -0.252 OA
BRANCH   4   6
ATOM      6  C   UNL A   1      31.571  22.260  25.377  1.00  0.00     0.127 C 
ATOM      7  N   UNL A   1      33.647  23.101  24.364  1.00  0.00    -0.335 N 
ATOM      8  C   UNL A   1      34.181  23.513  25.578  1.00  0.00     0.223 C 
ATOM      9  C   UNL A   1      32.635  22.035  24.295  1.00  0.00     0.129 C 
ATOM     10  O   UNL A   1      35.235  24.146  25.656  1.00  0.00    -0.275 OA
ATOM     11  C   UNL A   1      33.392  23.224  26.851  1.00  0.00     0.101 C 
ATOM     12  C   UNL A   1      32.252  22.223  26.745  1.00  0.00     0.028 C 
BRANCH   7  13
ATOM     13  C   UNL A   1      34.224  23.563  23.099  1.00  0.00     0.122 C 
BRANCH  13  14
ATOM     14  C   UNL A   1      33.255  23.517  21.913  1.00  0.00     0.050 C 
BRANCH  14  15
ATOM     15  C   UNL A   1      33.008  24.848  21.203  1.00  0.00     0.161 C 
BRANCH  15  16
ATOM     16  O   UNL A   1      33.764  25.933  21.750  1.00  0.00    -0.385 OA
ATOM     17  C   UNL A   1      33.011  26.839  22.540  1.00  0.00     0.194 C 
ENDBRANCH  15  16
ENDBRANCH  14  15
ENDBRANCH  13  14
ENDBRANCH   7  13
BRANCH   9  18
ATOM     18  C   UNL A   1      33.304  20.643  24.351  1.00  0.00    -0.024 A 
ATOM     19  C   UNL A   1      32.587  19.464  24.043  1.00  0.00     0.009 A 
ATOM     20  C   UNL A   1      34.649  20.503  24.734  1.00  0.00     0.009 A 
ATOM     21  C   UNL A   1      33.186  18.205  24.101  1.00  0.00     0.039 A 
ATOM     22  C   UNL A   1      35.252  19.240  24.781  1.00  0.00     0.039 A 
ATOM     23  C   UNL A   1      34.517  18.105  24.466  1.00  0.00     0.123 A 
ATOM     24  F   UNL A   1      35.095  16.899  24.520  1.00  0.00    -0.207 F 
ENDBRANCH   9  18
ENDBRANCH   4   6
ENDBRANCH   3   4
ENDBRANCH   2   3
ENDBRANCH   1   2
BRANCH   1  25
ATOM     25  O   UNL A   1      31.060  28.033  26.146  1.00  0.00    -0.374 OA
BRANCH  25  26
ATOM     26  C   UNL A   1      31.784  28.931  26.977  1.00  0.00     0.202 C 
BRANCH  26  27
ATOM     27  C   UNL A   1      33.307  28.799  27.113  1.00  0.00     0.261 C 
BRANCH  27  28
ATOM     28  O   UNL A   1      34.036  29.909  26.569  1.00  0.00    -0.460 OA
BRANCH  28  29
ATOM     29  C   UNL A   1      34.566  30.733  27.505  1.00  0.00     0.338 C 
ATOM     30  O   UNL A   1      34.048  31.734  27.986  1.00  0.00    -0.246 OA
BRANCH  29  31
ATOM     31  C   UNL A   1      35.809  30.160  28.041  1.00  0.00     0.060 A 
ATOM     32  C   UNL A   1      35.794  29.699  29.364  1.00  0.00     0.016 A 
ATOM     33  C   UNL A   1      36.991  30.167  27.298  1.00  0.00     0.016 A 
ATOM     34  C   UNL A   1      36.973  29.277  29.967  1.00  0.00     0.010 A 
ATOM     35  C   UNL A   1      38.179  29.761  27.913  1.00  0.00     0.010 A 
ATOM     36  C   UNL A   1      38.178  29.351  29.259  1.00  0.00    -0.014 A 
BRANCH  36  37
ATOM     37  C   UNL A   1      39.452  29.163  29.988  1.00  0.00     0.031 A 
ATOM     38  C   UNL A   1      40.407  28.105  29.510  1.00  0.00     0.074 A 
ATOM     39  C   UNL A   1      39.766  29.952  31.029  1.00  0.00     0.049 A 
ATOM     40  N   UNL A   1      41.562  27.748  30.005  1.00  0.00    -0.248 NA
ATOM     41  C   UNL A   1      40.006  27.349  28.312  1.00  0.00     0.031 C 
ATOM     42  C   UNL A   1      38.935  31.040  31.546  1.00  0.00     0.029 A 
ATOM     43  N   UNL A   1      40.871  29.957  31.842  1.00  0.00    -0.354 N 
ATOM     44  C   UNL A   1      42.024  26.724  29.186  1.00  0.00     0.074 A 
ATOM     45  C   UNL A   1      41.011  26.498  28.178  1.00  0.00     0.031 C 
ATOM     46  C   UNL A   1      39.555  31.597  32.601  1.00  0.00     0.029 A 
ATOM     47  C   UNL A   1      40.809  30.890  32.849  1.00  0.00     0.049 A 
ATOM     48  H   UNL A   1      41.635  29.350  31.715  1.00  0.00     0.167 HD
ATOM     49  C   UNL A   1      43.190  26.041  29.266  1.00  0.00     0.037 A 
ATOM     50  C   UNL A   1      41.660  31.126  33.866  1.00  0.00     0.037 A 
ATOM     51  C   UNL A   1      44.190  26.276  30.273  1.00  0.00     0.049 A 
ATOM     52  C   UNL A   1      42.921  30.309  33.972  1.00  0.00     0.074 A 
ATOM     53  C   UNL A   1      45.413  25.649  30.435  1.00  0.00     0.029 A 
ATOM     54  N   UNL A   1      44.081  27.210  31.294  1.00  0.00    -0.354 N 
ATOM     55  N   UNL A   1      43.354  29.354  33.182  1.00  0.00    -0.248 NA
ATOM     56  C   UNL A   1      43.812  30.605  35.102  1.00  0.00     0.031 C 
ATOM     57  C   UNL A   1      46.021  26.171  31.583  1.00  0.00     0.029 A 
ATOM     58  C   UNL A   1      45.201  27.158  32.105  1.00  0.00     0.049 A 
ATOM     59  H   UNL A   1      43.317  27.818  31.423  1.00  0.00     0.167 HD
ATOM     60  C   UNL A   1      44.579  28.952  33.706  1.00  0.00     0.074 A 
ATOM     61  C   UNL A   1      44.822  29.775  34.873  1.00  0.00     0.031 C 
ATOM     62  C   UNL A   1      45.426  27.991  33.261  1.00  0.00     0.037 A 
BRANCH  49  63
ATOM     63  C   UNL A   1      43.431  24.956  28.253  1.00  0.00     0.058 A 
ATOM     64  C   UNL A   1      43.083  23.620  28.504  1.00  0.00     0.135 A 
ATOM     65  C   UNL A   1      43.994  25.263  27.004  1.00  0.00     0.135 A 
ATOM     66  F   UNL A   1      42.561  23.267  29.689  1.00  0.00    -0.206 F 
ATOM     67  C   UNL A   1      43.307  22.622  27.560  1.00  0.00     0.059 A 
ATOM     68  C   UNL A   1      44.204  24.286  26.036  1.00  0.00     0.059 A 
ATOM     69  F   UNL A   1      44.349  26.526  26.715  1.00  0.00    -0.206 F 
ATOM     70  C   UNL A   1      43.869  22.965  26.329  1.00  0.00     0.060 A 
BRANCH  70  71
ATOM     71  S   UNL A   1      44.153  21.660  25.114  1.00  0.00     0.124 S 
ATOM     72  O   UNL A   1      43.062  20.739  25.418  1.00  0.00    -0.237 OA
ATOM     73  O   UNL A   1      44.041  22.380  23.850  1.00  0.00    -0.237 OA
ATOM     74  O   UNL A   1      45.491  21.176  25.441  1.00  0.00    -0.744 OA
ENDBRANCH  70  71
ENDBRANCH  49  63
BRANCH  50  75
ATOM     75  C   UNL A   1      41.338  32.171  34.873  1.00  0.00     0.058 A 
ATOM     76  C   UNL A   1      41.838  33.475  34.753  1.00  0.00     0.135 A 
ATOM     77  C   UNL A   1      40.515  31.885  35.974  1.00  0.00     0.135 A 
ATOM     78  F   UNL A   1      42.637  33.795  33.723  1.00  0.00    -0.206 F 
ATOM     79  C   UNL A   1      41.544  34.457  35.692  1.00  0.00     0.059 A 
ATOM     80  C   UNL A   1      40.186  32.857  36.914  1.00  0.00     0.059 A 
ATOM     81  F   UNL A   1      40.000  30.655  36.128  1.00  0.00    -0.206 F 
ATOM     82  C   UNL A   1      40.714  34.138  36.769  1.00  0.00     0.060 A 
BRANCH  82  83
ATOM     83  S   UNL A   1      40.294  35.433  37.955  1.00  0.00     0.124 S 
ATOM     84  O   UNL A   1      39.974  36.548  37.072  1.00  0.00    -0.237 OA
ATOM     85  O   UNL A   1      39.168  34.839  38.669  1.00  0.00    -0.237 OA
ATOM     86  O   UNL A   1      41.517  35.578  38.739  1.00  0.00    -0.744 OA
ENDBRANCH  82  83
ENDBRANCH  50  75
BRANCH  62  87
ATOM     87  C   UNL A   1      46.712  27.798  34.017  1.00  0.00     0.058 A 
ATOM     88  C   UNL A   1      47.868  28.527  33.703  1.00  0.00     0.135 A 
ATOM     89  C   UNL A   1      46.768  26.911  35.105  1.00  0.00     0.135 A 
ATOM     90  F   UNL A   1      47.868  29.383  32.669  1.00  0.00    -0.206 F 
ATOM     91  C   UNL A   1      49.045  28.367  34.428  1.00  0.00     0.059 A 
ATOM     92  C   UNL A   1      47.926  26.757  35.860  1.00  0.00     0.059 A 
ATOM     93  F   UNL A   1      45.686  26.199  35.454  1.00  0.00    -0.206 F 
ATOM     94  C   UNL A   1      49.063  27.480  35.507  1.00  0.00     0.060 A 
BRANCH  94  95
ATOM     95  S   UNL A   1      50.586  27.307  36.460  1.00  0.00     0.124 S 
ATOM     96  O   UNL A   1      51.585  27.199  35.401  1.00  0.00    -0.237 OA
ATOM     97  O   UNL A   1      50.614  28.545  37.234  1.00  0.00    -0.237 OA
ATOM     98  O   UNL A   1      50.363  26.094  37.239  1.00  0.00    -0.744 OA
ENDBRANCH  94  95
ENDBRANCH  62  87
ENDBRANCH  36  37
ENDBRANCH  29  31
ENDBRANCH  28  29
ENDBRANCH  27  28
ENDBRANCH  26  27
ENDBRANCH  25  26
ENDBRANCH   1  25
TORSDOF 22
ENDMDL
