MODEL 1
REMARK VINA RESULT:     -10.2      0.000      0.000
REMARK SMILES Cc1n[nH]c(CCC(=O)OCCOCCOC(=O)c2ccc(-c3c4nc(c(-c5c(F)cc(S(=O)(=O)[O-])cc5F)c5ccc([nH]5)c(-c5c(F)cc(S(=O)(=O)[O-])cc5F)c5nc(c(-c6c(F)cc(S(=O)(=O)[O-])cc6F)c6ccc3[nH]6)C=C5)C=C4)cc2)c1C
REMARK SMILES IDX 14 1 13 2 12 3 11 4 10 5 8 6 9 7 7 8 6 9 5 10 1 11 2 12 3 13
REMARK SMILES IDX 85 14 4 15 86 16 15 18 16 19 17 20 18 21 19 22 20 23 84 24
REMARK SMILES IDX 21 25 83 26 22 27 23 28 24 29 77 30 25 31 82 32 76 33 78 34
REMARK SMILES IDX 26 35 81 36 75 37 74 38 27 40 61 41 40 42 60 43 41 44 44 45
REMARK SMILES IDX 59 46 79 47 42 48 43 49 58 51 80 52 45 53 28 54 29 55 38 56
REMARK SMILES IDX 30 57 31 58 37 59 39 60 32 61 33 62 34 63 35 64 36 65 62 66
REMARK SMILES IDX 63 67 72 68 64 69 65 70 71 71 73 72 66 73 67 74 68 75 69 76
REMARK SMILES IDX 70 77 46 78 47 79 56 80 48 81 49 82 55 83 57 84 50 85 51 86
REMARK SMILES IDX 52 87 53 88 54 89
REMARK H PARENT 4 17 78 39 44 50
REMARK Flexibility Score: inf
ROOT
ATOM      1  C   UNL A   1      41.488  19.955  27.455  1.00  0.00     0.202 C 
ENDROOT
BRANCH   1   2
ATOM      2  O   UNL A   1      42.666  19.160  27.349  1.00  0.00    -0.374 OA
BRANCH   2   3
ATOM      3  C   UNL A   1      42.707  18.250  26.252  1.00  0.00     0.202 C 
BRANCH   3   4
ATOM      4  C   UNL A   1      43.618  18.721  25.105  1.00  0.00     0.261 C 
BRANCH   4   5
ATOM      5  O   UNL A   1      45.025  18.643  25.426  1.00  0.00    -0.463 OA
BRANCH   5   6
ATOM      6  C   UNL A   1      45.822  19.689  25.104  1.00  0.00     0.306 C 
ATOM      7  O   UNL A   1      46.937  19.590  24.607  1.00  0.00    -0.252 OA
BRANCH   6   8
ATOM      8  C   UNL A   1      45.193  21.021  25.465  1.00  0.00     0.129 C 
BRANCH   8   9
ATOM      9  C   UNL A   1      45.000  22.006  24.310  1.00  0.00     0.067 C 
BRANCH   9  10
ATOM     10  C   UNL A   1      45.684  23.327  24.499  1.00  0.00     0.039 A 
ATOM     11  C   UNL A   1      46.510  26.777  25.465  1.00  0.00     0.069 C 
ATOM     12  C   UNL A   1      46.393  25.391  24.947  1.00  0.00     0.062 A 
ATOM     13  N   UNL A   1      47.364  24.835  24.217  1.00  0.00    -0.181 NA
ATOM     14  C   UNL A   1      45.314  24.495  25.141  1.00  0.00    -0.007 A 
ATOM     15  N   UNL A   1      46.890  23.618  23.915  1.00  0.00    -0.282 N 
ATOM     16  C   UNL A   1      44.074  24.806  25.870  1.00  0.00     0.048 C 
ATOM     17  H   UNL A   1      47.366  22.988  23.325  1.00  0.00     0.190 HD
ENDBRANCH   9  10
ENDBRANCH   8   9
ENDBRANCH   6   8
ENDBRANCH   5   6
ENDBRANCH   4   5
ENDBRANCH   3   4
ENDBRANCH   2   3
ENDBRANCH   1   2
BRANCH   1  18
ATOM     18  C   UNL A   1      40.988  20.465  26.110  1.00  0.00     0.261 C 
BRANCH  18  19
ATOM     19  O   UNL A   1      40.971  21.891  26.123  1.00  0.00    -0.460 OA
BRANCH  19  20
ATOM     20  C   UNL A   1      39.782  22.525  26.157  1.00  0.00     0.338 C 
ATOM     21  O   UNL A   1      38.789  22.286  25.493  1.00  0.00    -0.246 OA
BRANCH  20  22
ATOM     22  C   UNL A   1      39.927  23.628  27.125  1.00  0.00     0.060 A 
ATOM     23  C   UNL A   1      39.023  24.689  27.075  1.00  0.00     0.016 A 
ATOM     24  C   UNL A   1      41.025  23.646  28.007  1.00  0.00     0.016 A 
ATOM     25  C   UNL A   1      39.322  25.842  27.780  1.00  0.00     0.010 A 
ATOM     26  C   UNL A   1      41.290  24.766  28.752  1.00  0.00     0.010 A 
ATOM     27  C   UNL A   1      40.500  25.886  28.536  1.00  0.00    -0.014 A 
BRANCH  27  28
ATOM     28  C   UNL A   1      40.974  27.164  29.020  1.00  0.00     0.031 A 
ATOM     29  C   UNL A   1      42.181  27.685  28.351  1.00  0.00     0.074 A 
ATOM     30  C   UNL A   1      40.269  27.846  29.945  1.00  0.00     0.049 A 
ATOM     31  N   UNL A   1      43.372  27.792  28.839  1.00  0.00    -0.248 NA
ATOM     32  C   UNL A   1      42.088  27.990  26.916  1.00  0.00     0.031 C 
ATOM     33  C   UNL A   1      38.920  27.563  30.453  1.00  0.00     0.029 A 
ATOM     34  N   UNL A   1      40.587  29.008  30.565  1.00  0.00    -0.354 N 
ATOM     35  C   UNL A   1      44.129  28.403  27.845  1.00  0.00     0.074 A 
ATOM     36  C   UNL A   1      43.351  28.315  26.636  1.00  0.00     0.031 C 
ATOM     37  C   UNL A   1      38.460  28.639  31.129  1.00  0.00     0.029 A 
ATOM     38  C   UNL A   1      39.531  29.614  31.230  1.00  0.00     0.049 A 
ATOM     39  H   UNL A   1      41.494  29.391  30.547  1.00  0.00     0.167 HD
ATOM     40  C   UNL A   1      45.219  29.157  28.152  1.00  0.00     0.037 A 
ATOM     41  C   UNL A   1      39.528  30.856  31.770  1.00  0.00     0.037 A 
ATOM     42  C   UNL A   1      45.675  28.897  29.496  1.00  0.00     0.049 A 
ATOM     43  C   UNL A   1      40.952  31.231  31.990  1.00  0.00     0.074 A 
ATOM     44  C   UNL A   1      46.130  27.776  30.163  1.00  0.00     0.029 A 
ATOM     45  N   UNL A   1      45.338  29.802  30.476  1.00  0.00    -0.354 N 
ATOM     46  N   UNL A   1      41.740  30.620  32.836  1.00  0.00    -0.248 NA
ATOM     47  C   UNL A   1      41.634  31.966  30.933  1.00  0.00     0.031 C 
ATOM     48  C   UNL A   1      45.601  27.886  31.481  1.00  0.00     0.029 A 
ATOM     49  C   UNL A   1      44.900  29.091  31.566  1.00  0.00     0.049 A 
ATOM     50  H   UNL A   1      45.397  30.782  30.406  1.00  0.00     0.167 HD
ATOM     51  C   UNL A   1      42.971  30.544  32.196  1.00  0.00     0.074 A 
ATOM     52  C   UNL A   1      42.866  31.469  31.069  1.00  0.00     0.031 C 
ATOM     53  C   UNL A   1      43.855  29.537  32.467  1.00  0.00     0.037 A 
BRANCH  40  54
ATOM     54  C   UNL A   1      45.643  30.380  27.377  1.00  0.00     0.058 A 
ATOM     55  C   UNL A   1      47.000  30.547  27.033  1.00  0.00     0.135 A 
ATOM     56  C   UNL A   1      44.827  31.521  27.201  1.00  0.00     0.135 A 
ATOM     57  F   UNL A   1      47.869  29.532  27.167  1.00  0.00    -0.206 F 
ATOM     58  C   UNL A   1      47.519  31.775  26.621  1.00  0.00     0.059 A 
ATOM     59  C   UNL A   1      45.312  32.736  26.736  1.00  0.00     0.059 A 
ATOM     60  F   UNL A   1      43.540  31.547  27.570  1.00  0.00    -0.206 F 
ATOM     61  C   UNL A   1      46.668  32.869  26.495  1.00  0.00     0.060 A 
BRANCH  61  62
ATOM     62  S   UNL A   1      47.352  34.485  26.094  1.00  0.00     0.124 S 
ATOM     63  O   UNL A   1      47.667  35.002  27.420  1.00  0.00    -0.237 OA
ATOM     64  O   UNL A   1      48.493  34.132  25.256  1.00  0.00    -0.237 OA
ATOM     65  O   UNL A   1      46.254  35.150  25.400  1.00  0.00    -0.744 OA
ENDBRANCH  61  62
ENDBRANCH  40  54
BRANCH  41  66
ATOM     66  C   UNL A   1      38.406  31.831  31.739  1.00  0.00     0.058 A 
ATOM     67  C   UNL A   1      37.728  32.144  30.551  1.00  0.00     0.135 A 
ATOM     68  C   UNL A   1      37.811  32.296  32.933  1.00  0.00     0.135 A 
ATOM     69  F   UNL A   1      38.205  31.715  29.372  1.00  0.00    -0.206 F 
ATOM     70  C   UNL A   1      36.520  32.853  30.545  1.00  0.00     0.059 A 
ATOM     71  C   UNL A   1      36.616  33.012  32.952  1.00  0.00     0.059 A 
ATOM     72  F   UNL A   1      38.332  31.995  34.132  1.00  0.00    -0.206 F 
ATOM     73  C   UNL A   1      35.964  33.272  31.755  1.00  0.00     0.060 A 
BRANCH  73  74
ATOM     74  S   UNL A   1      34.339  34.066  31.766  1.00  0.00     0.124 S 
ATOM     75  O   UNL A   1      33.594  33.216  32.687  1.00  0.00    -0.237 OA
ATOM     76  O   UNL A   1      34.655  35.407  32.247  1.00  0.00    -0.237 OA
ATOM     77  O   UNL A   1      33.916  33.991  30.369  1.00  0.00    -0.744 OA
ENDBRANCH  73  74
ENDBRANCH  41  66
BRANCH  53  78
ATOM     78  C   UNL A   1      43.592  28.658  33.667  1.00  0.00     0.058 A 
ATOM     79  C   UNL A   1      43.885  29.028  34.992  1.00  0.00     0.135 A 
ATOM     80  C   UNL A   1      42.845  27.485  33.486  1.00  0.00     0.135 A 
ATOM     81  F   UNL A   1      44.507  30.182  35.263  1.00  0.00    -0.206 F 
ATOM     82  C   UNL A   1      43.476  28.257  36.083  1.00  0.00     0.059 A 
ATOM     83  C   UNL A   1      42.401  26.715  34.560  1.00  0.00     0.059 A 
ATOM     84  F   UNL A   1      42.478  27.108  32.250  1.00  0.00    -0.206 F 
ATOM     85  C   UNL A   1      42.726  27.105  35.858  1.00  0.00     0.060 A 
BRANCH  85  86
ATOM     86  S   UNL A   1      42.100  26.173  37.274  1.00  0.00     0.124 S 
ATOM     87  O   UNL A   1      43.127  26.415  38.280  1.00  0.00    -0.237 OA
ATOM     88  O   UNL A   1      40.806  26.803  37.524  1.00  0.00    -0.237 OA
ATOM     89  O   UNL A   1      42.026  24.801  36.775  1.00  0.00    -0.744 OA
ENDBRANCH  85  86
ENDBRANCH  53  78
ENDBRANCH  27  28
ENDBRANCH  20  22
ENDBRANCH  19  20
ENDBRANCH  18  19
ENDBRANCH   1  18
TORSDOF 19
ENDMDL
MODEL 2
REMARK VINA RESULT:     -10.2      2.766     11.621
REMARK SMILES Cc1n[nH]c(CCC(=O)OCCOCCOC(=O)c2ccc(-c3c4nc(c(-c5c(F)cc(S(=O)(=O)[O-])cc5F)c5ccc([nH]5)c(-c5c(F)cc(S(=O)(=O)[O-])cc5F)c5nc(c(-c6c(F)cc(S(=O)(=O)[O-])cc6F)c6ccc3[nH]6)C=C5)C=C4)cc2)c1C
REMARK SMILES IDX 14 1 13 2 12 3 11 4 10 5 8 6 9 7 7 8 6 9 5 10 1 11 2 12 3 13
REMARK SMILES IDX 85 14 4 15 86 16 15 18 16 19 17 20 18 21 19 22 20 23 84 24
REMARK SMILES IDX 21 25 83 26 22 27 23 28 24 29 77 30 25 31 82 32 76 33 78 34
REMARK SMILES IDX 26 35 81 36 75 37 74 38 27 40 61 41 40 42 60 43 41 44 44 45
REMARK SMILES IDX 59 46 79 47 42 48 43 49 58 51 80 52 45 53 28 54 29 55 38 56
REMARK SMILES IDX 30 57 31 58 37 59 39 60 32 61 33 62 34 63 35 64 36 65 62 66
REMARK SMILES IDX 63 67 72 68 64 69 65 70 71 71 73 72 66 73 67 74 68 75 69 76
REMARK SMILES IDX 70 77 46 78 47 79 56 80 48 81 49 82 55 83 57 84 50 85 51 86
REMARK SMILES IDX 52 87 53 88 54 89
REMARK H PARENT 4 17 78 39 44 50
REMARK Flexibility Score: inf
ROOT
ATOM      1  C   UNL A   1      34.796  34.944  28.401  1.00  0.00     0.202 C 
ENDROOT
BRANCH   1   2
ATOM      2  O   UNL A   1      33.701  35.783  28.760  1.00  0.00    -0.374 OA
BRANCH   2   3
ATOM      3  C   UNL A   1      32.949  35.372  29.900  1.00  0.00     0.202 C 
BRANCH   3   4
ATOM      4  C   UNL A   1      33.783  35.313  31.191  1.00  0.00     0.261 C 
BRANCH   4   5
ATOM      5  O   UNL A   1      34.195  33.972  31.543  1.00  0.00    -0.463 OA
BRANCH   5   6
ATOM      6  C   UNL A   1      34.063  33.570  32.828  1.00  0.00     0.306 C 
ATOM      7  O   UNL A   1      33.066  33.031  33.293  1.00  0.00    -0.252 OA
BRANCH   6   8
ATOM      8  C   UNL A   1      35.289  33.896  33.659  1.00  0.00     0.129 C 
BRANCH   8   9
ATOM      9  C   UNL A   1      36.479  32.947  33.499  1.00  0.00     0.067 C 
BRANCH   9  10
ATOM     10  C   UNL A   1      37.563  33.457  32.598  1.00  0.00     0.039 A 
ATOM     11  C   UNL A   1      40.788  34.090  30.948  1.00  0.00     0.069 C 
ATOM     12  C   UNL A   1      39.397  34.014  31.462  1.00  0.00     0.062 A 
ATOM     13  N   UNL A   1      38.416  34.746  30.927  1.00  0.00    -0.181 NA
ATOM     14  C   UNL A   1      38.920  33.201  32.518  1.00  0.00    -0.007 A 
ATOM     15  N   UNL A   1      37.338  34.435  31.662  1.00  0.00    -0.282 N 
ATOM     16  C   UNL A   1      39.748  32.302  33.337  1.00  0.00     0.048 C 
ATOM     17  H   UNL A   1      36.463  34.870  31.541  1.00  0.00     0.190 HD
ENDBRANCH   9  10
ENDBRANCH   8   9
ENDBRANCH   6   8
ENDBRANCH   5   6
ENDBRANCH   4   5
ENDBRANCH   3   4
ENDBRANCH   2   3
ENDBRANCH   1   2
BRANCH   1  18
ATOM     18  C   UNL A   1      34.366  33.543  27.993  1.00  0.00     0.261 C 
BRANCH  18  19
ATOM     19  O   UNL A   1      35.524  32.745  27.751  1.00  0.00    -0.460 OA
BRANCH  19  20
ATOM     20  C   UNL A   1      35.388  31.406  27.686  1.00  0.00     0.338 C 
ATOM     21  O   UNL A   1      34.497  30.772  27.149  1.00  0.00    -0.246 OA
BRANCH  20  22
ATOM     22  C   UNL A   1      36.508  30.836  28.456  1.00  0.00     0.060 A 
ATOM     23  C   UNL A   1      37.526  31.687  28.891  1.00  0.00     0.016 A 
ATOM     24  C   UNL A   1      36.590  29.444  28.649  1.00  0.00     0.016 A 
ATOM     25  C   UNL A   1      38.700  31.122  29.356  1.00  0.00     0.010 A 
ATOM     26  C   UNL A   1      37.730  28.887  29.166  1.00  0.00     0.010 A 
ATOM     27  C   UNL A   1      38.809  29.727  29.400  1.00  0.00    -0.014 A 
BRANCH  27  28
ATOM     28  C   UNL A   1      40.114  29.132  29.588  1.00  0.00     0.031 A 
ATOM     29  C   UNL A   1      40.581  29.063  30.987  1.00  0.00     0.074 A 
ATOM     30  C   UNL A   1      40.775  28.593  28.544  1.00  0.00     0.049 A 
ATOM     31  N   UNL A   1      41.530  29.742  31.538  1.00  0.00    -0.248 NA
ATOM     32  C   UNL A   1      39.803  28.242  31.926  1.00  0.00     0.031 C 
ATOM     33  C   UNL A   1      40.280  28.345  27.183  1.00  0.00     0.029 A 
ATOM     34  N   UNL A   1      42.022  28.064  28.512  1.00  0.00    -0.354 N 
ATOM     35  C   UNL A   1      41.627  29.261  32.839  1.00  0.00     0.074 A 
ATOM     36  C   UNL A   1      40.428  28.500  33.076  1.00  0.00     0.031 C 
ATOM     37  C   UNL A   1      41.136  27.524  26.537  1.00  0.00     0.029 A 
ATOM     38  C   UNL A   1      42.302  27.317  27.377  1.00  0.00     0.049 A 
ATOM     39  H   UNL A   1      42.677  28.199  29.235  1.00  0.00     0.167 HD
ATOM     40  C   UNL A   1      42.801  29.314  33.525  1.00  0.00     0.037 A 
ATOM     41  C   UNL A   1      43.391  26.537  27.177  1.00  0.00     0.037 A 
ATOM     42  C   UNL A   1      43.722  30.243  32.917  1.00  0.00     0.049 A 
ATOM     43  C   UNL A   1      44.442  27.020  28.114  1.00  0.00     0.074 A 
ATOM     44  C   UNL A   1      43.694  31.598  32.650  1.00  0.00     0.029 A 
ATOM     45  N   UNL A   1      44.728  29.729  32.133  1.00  0.00    -0.354 N 
ATOM     46  N   UNL A   1      44.994  28.203  28.036  1.00  0.00    -0.248 NA
ATOM     47  C   UNL A   1      44.537  26.381  29.419  1.00  0.00     0.031 C 
ATOM     48  C   UNL A   1      44.346  31.744  31.391  1.00  0.00     0.029 A 
ATOM     49  C   UNL A   1      44.787  30.482  30.985  1.00  0.00     0.049 A 
ATOM     50  H   UNL A   1      45.301  28.960  32.353  1.00  0.00     0.167 HD
ATOM     51  C   UNL A   1      45.133  28.627  29.352  1.00  0.00     0.074 A 
ATOM     52  C   UNL A   1      44.918  27.427  30.157  1.00  0.00     0.031 C 
ATOM     53  C   UNL A   1      45.127  29.955  29.678  1.00  0.00     0.037 A 
BRANCH  40  54
ATOM     54  C   UNL A   1      43.244  28.269  34.518  1.00  0.00     0.058 A 
ATOM     55  C   UNL A   1      43.583  28.659  35.830  1.00  0.00     0.135 A 
ATOM     56  C   UNL A   1      43.614  26.952  34.161  1.00  0.00     0.135 A 
ATOM     57  F   UNL A   1      43.288  29.891  36.275  1.00  0.00    -0.206 F 
ATOM     58  C   UNL A   1      44.303  27.830  36.691  1.00  0.00     0.059 A 
ATOM     59  C   UNL A   1      44.279  26.091  35.023  1.00  0.00     0.059 A 
ATOM     60  F   UNL A   1      43.443  26.470  32.924  1.00  0.00    -0.206 F 
ATOM     61  C   UNL A   1      44.663  26.554  36.269  1.00  0.00     0.060 A 
BRANCH  61  62
ATOM     62  S   UNL A   1      45.705  25.530  37.322  1.00  0.00     0.124 S 
ATOM     63  O   UNL A   1      46.520  26.539  37.989  1.00  0.00    -0.237 OA
ATOM     64  O   UNL A   1      44.719  24.849  38.154  1.00  0.00    -0.237 OA
ATOM     65  O   UNL A   1      46.409  24.677  36.369  1.00  0.00    -0.744 OA
ENDBRANCH  61  62
ENDBRANCH  40  54
BRANCH  41  66
ATOM     66  C   UNL A   1      43.417  25.208  26.512  1.00  0.00     0.058 A 
ATOM     67  C   UNL A   1      44.144  24.984  25.332  1.00  0.00     0.135 A 
ATOM     68  C   UNL A   1      42.921  24.057  27.162  1.00  0.00     0.135 A 
ATOM     69  F   UNL A   1      44.680  26.018  24.665  1.00  0.00    -0.206 F 
ATOM     70  C   UNL A   1      44.387  23.695  24.838  1.00  0.00     0.059 A 
ATOM     71  C   UNL A   1      43.140  22.766  26.685  1.00  0.00     0.059 A 
ATOM     72  F   UNL A   1      42.274  24.145  28.334  1.00  0.00    -0.206 F 
ATOM     73  C   UNL A   1      43.891  22.589  25.531  1.00  0.00     0.060 A 
BRANCH  73  74
ATOM     74  S   UNL A   1      44.316  20.922  24.977  1.00  0.00     0.124 S 
ATOM     75  O   UNL A   1      44.499  21.117  23.543  1.00  0.00    -0.237 OA
ATOM     76  O   UNL A   1      45.526  20.641  25.743  1.00  0.00    -0.237 OA
ATOM     77  O   UNL A   1      43.146  20.131  25.353  1.00  0.00    -0.744 OA
ENDBRANCH  73  74
ENDBRANCH  41  66
BRANCH  53  78
ATOM     78  C   UNL A   1      45.239  30.966  28.562  1.00  0.00     0.058 A 
ATOM     79  C   UNL A   1      44.135  31.518  27.888  1.00  0.00     0.135 A 
ATOM     80  C   UNL A   1      46.493  31.536  28.298  1.00  0.00     0.135 A 
ATOM     81  F   UNL A   1      42.889  31.104  28.153  1.00  0.00    -0.206 F 
ATOM     82  C   UNL A   1      44.273  32.569  26.978  1.00  0.00     0.059 A 
ATOM     83  C   UNL A   1      46.652  32.604  27.416  1.00  0.00     0.059 A 
ATOM     84  F   UNL A   1      47.580  31.098  28.955  1.00  0.00    -0.206 F 
ATOM     85  C   UNL A   1      45.537  33.113  26.754  1.00  0.00     0.060 A 
BRANCH  85  86
ATOM     86  S   UNL A   1      45.696  34.546  25.666  1.00  0.00     0.124 S 
ATOM     87  O   UNL A   1      44.818  34.191  24.557  1.00  0.00    -0.237 OA
ATOM     88  O   UNL A   1      45.236  35.643  26.514  1.00  0.00    -0.237 OA
ATOM     89  O   UNL A   1      47.122  34.576  25.347  1.00  0.00    -0.744 OA
ENDBRANCH  85  86
ENDBRANCH  53  78
ENDBRANCH  27  28
ENDBRANCH  20  22
ENDBRANCH  19  20
ENDBRANCH  18  19
ENDBRANCH   1  18
TORSDOF 19
ENDMDL
MODEL 3
REMARK VINA RESULT:     -10.0      3.601      5.640
REMARK SMILES Cc1n[nH]c(CCC(=O)OCCOCCOC(=O)c2ccc(-c3c4nc(c(-c5c(F)cc(S(=O)(=O)[O-])cc5F)c5ccc([nH]5)c(-c5c(F)cc(S(=O)(=O)[O-])cc5F)c5nc(c(-c6c(F)cc(S(=O)(=O)[O-])cc6F)c6ccc3[nH]6)C=C5)C=C4)cc2)c1C
REMARK SMILES IDX 14 1 13 2 12 3 11 4 10 5 8 6 9 7 7 8 6 9 5 10 1 11 2 12 3 13
REMARK SMILES IDX 85 14 4 15 86 16 15 18 16 19 17 20 18 21 19 22 20 23 84 24
REMARK SMILES IDX 21 25 83 26 22 27 23 28 24 29 77 30 25 31 82 32 76 33 78 34
REMARK SMILES IDX 26 35 81 36 75 37 74 38 27 40 61 41 40 42 60 43 41 44 44 45
REMARK SMILES IDX 59 46 79 47 42 48 43 49 58 51 80 52 45 53 28 54 29 55 38 56
REMARK SMILES IDX 30 57 31 58 37 59 39 60 32 61 33 62 34 63 35 64 36 65 62 66
REMARK SMILES IDX 63 67 72 68 64 69 65 70 71 71 73 72 66 73 67 74 68 75 69 76
REMARK SMILES IDX 70 77 46 78 47 79 56 80 48 81 49 82 55 83 57 84 50 85 51 86
REMARK SMILES IDX 52 87 53 88 54 89
REMARK H PARENT 4 17 78 39 44 50
REMARK Flexibility Score: inf
ROOT
ATOM      1  C   UNL A   1      40.689  20.860  27.002  1.00  0.00     0.202 C 
ENDROOT
BRANCH   1   2
ATOM      2  O   UNL A   1      39.623  20.974  26.063  1.00  0.00    -0.374 OA
BRANCH   2   3
ATOM      3  C   UNL A   1      38.779  22.114  26.213  1.00  0.00     0.202 C 
BRANCH   3   4
ATOM      4  C   UNL A   1      37.759  22.271  25.072  1.00  0.00     0.261 C 
BRANCH   4   5
ATOM      5  O   UNL A   1      36.399  22.415  25.540  1.00  0.00    -0.463 OA
BRANCH   5   6
ATOM      6  C   UNL A   1      35.393  21.960  24.757  1.00  0.00     0.306 C 
ATOM      7  O   UNL A   1      35.125  22.392  23.643  1.00  0.00    -0.252 OA
BRANCH   6   8
ATOM      8  C   UNL A   1      34.592  20.864  25.432  1.00  0.00     0.129 C 
BRANCH   8   9
ATOM      9  C   UNL A   1      33.616  20.096  24.536  1.00  0.00     0.067 C 
BRANCH   9  10
ATOM     10  C   UNL A   1      33.307  18.706  25.003  1.00  0.00     0.039 A 
ATOM     11  C   UNL A   1      32.906  15.058  25.232  1.00  0.00     0.069 C 
ATOM     12  C   UNL A   1      32.953  16.536  25.364  1.00  0.00     0.062 A 
ATOM     13  N   UNL A   1      32.522  17.151  26.467  1.00  0.00    -0.181 NA
ATOM     14  C   UNL A   1      33.443  17.462  24.412  1.00  0.00    -0.007 A 
ATOM     15  N   UNL A   1      32.693  18.455  26.204  1.00  0.00    -0.282 N 
ATOM     16  C   UNL A   1      33.959  17.116  23.079  1.00  0.00     0.048 C 
ATOM     17  H   UNL A   1      32.404  19.169  26.817  1.00  0.00     0.190 HD
ENDBRANCH   9  10
ENDBRANCH   8   9
ENDBRANCH   6   8
ENDBRANCH   5   6
ENDBRANCH   4   5
ENDBRANCH   3   4
ENDBRANCH   2   3
ENDBRANCH   1   2
BRANCH   1  18
ATOM     18  C   UNL A   1      42.064  20.944  26.357  1.00  0.00     0.261 C 
BRANCH  18  19
ATOM     19  O   UNL A   1      42.665  22.196  26.684  1.00  0.00    -0.460 OA
BRANCH  19  20
ATOM     20  C   UNL A   1      42.597  23.202  25.791  1.00  0.00     0.338 C 
ATOM     21  O   UNL A   1      42.995  23.206  24.639  1.00  0.00    -0.246 OA
BRANCH  20  22
ATOM     22  C   UNL A   1      41.995  24.347  26.499  1.00  0.00     0.060 A 
ATOM     23  C   UNL A   1      41.481  25.405  25.749  1.00  0.00     0.016 A 
ATOM     24  C   UNL A   1      42.040  24.404  27.905  1.00  0.00     0.016 A 
ATOM     25  C   UNL A   1      41.182  26.588  26.401  1.00  0.00     0.010 A 
ATOM     26  C   UNL A   1      41.687  25.556  28.558  1.00  0.00     0.010 A 
ATOM     27  C   UNL A   1      41.376  26.666  27.786  1.00  0.00    -0.014 A 
BRANCH  27  28
ATOM     28  C   UNL A   1      41.360  27.963  28.424  1.00  0.00     0.031 A 
ATOM     29  C   UNL A   1      42.540  28.810  28.162  1.00  0.00     0.074 A 
ATOM     30  C   UNL A   1      40.275  28.372  29.112  1.00  0.00     0.049 A 
ATOM     31  N   UNL A   1      43.477  29.137  28.987  1.00  0.00    -0.248 NA
ATOM     32  C   UNL A   1      42.787  29.226  26.774  1.00  0.00     0.031 C 
ATOM     33  C   UNL A   1      38.951  27.739  29.185  1.00  0.00     0.029 A 
ATOM     34  N   UNL A   1      40.106  29.509  29.831  1.00  0.00    -0.354 N 
ATOM     35  C   UNL A   1      44.310  30.001  28.283  1.00  0.00     0.074 A 
ATOM     36  C   UNL A   1      43.956  29.857  26.895  1.00  0.00     0.031 C 
ATOM     37  C   UNL A   1      38.067  28.609  29.720  1.00  0.00     0.029 A 
ATOM     38  C   UNL A   1      38.789  29.788  30.164  1.00  0.00     0.049 A 
ATOM     39  H   UNL A   1      40.857  30.089  30.096  1.00  0.00     0.167 HD
ATOM     40  C   UNL A   1      45.046  30.950  28.924  1.00  0.00     0.037 A 
ATOM     41  C   UNL A   1      38.326  30.937  30.711  1.00  0.00     0.037 A 
ATOM     42  C   UNL A   1      45.151  30.668  30.335  1.00  0.00     0.049 A 
ATOM     43  C   UNL A   1      39.489  31.604  31.358  1.00  0.00     0.074 A 
ATOM     44  C   UNL A   1      45.660  29.621  31.077  1.00  0.00     0.029 A 
ATOM     45  N   UNL A   1      44.335  31.371  31.192  1.00  0.00    -0.354 N 
ATOM     46  N   UNL A   1      40.129  31.108  32.385  1.00  0.00    -0.248 NA
ATOM     47  C   UNL A   1      40.239  32.576  30.575  1.00  0.00     0.031 C 
ATOM     48  C   UNL A   1      44.767  29.475  32.178  1.00  0.00     0.029 A 
ATOM     49  C   UNL A   1      43.796  30.475  32.081  1.00  0.00     0.049 A 
ATOM     50  H   UNL A   1      44.168  32.341  31.170  1.00  0.00     0.167 HD
ATOM     51  C   UNL A   1      41.470  31.379  32.142  1.00  0.00     0.074 A 
ATOM     52  C   UNL A   1      41.465  32.362  31.061  1.00  0.00     0.031 C 
ATOM     53  C   UNL A   1      42.461  30.579  32.639  1.00  0.00     0.037 A 
BRANCH  40  54
ATOM     54  C   UNL A   1      45.356  32.308  28.344  1.00  0.00     0.058 A 
ATOM     55  C   UNL A   1      46.701  32.703  28.186  1.00  0.00     0.135 A 
ATOM     56  C   UNL A   1      44.400  33.337  28.198  1.00  0.00     0.135 A 
ATOM     57  F   UNL A   1      47.695  31.809  28.312  1.00  0.00    -0.206 F 
ATOM     58  C   UNL A   1      47.067  34.033  27.977  1.00  0.00     0.059 A 
ATOM     59  C   UNL A   1      44.739  34.657  27.932  1.00  0.00     0.059 A 
ATOM     60  F   UNL A   1      43.093  33.137  28.410  1.00  0.00    -0.206 F 
ATOM     61  C   UNL A   1      46.077  35.005  27.871  1.00  0.00     0.060 A 
BRANCH  61  62
ATOM     62  S   UNL A   1      46.545  36.738  27.735  1.00  0.00     0.124 S 
ATOM     63  O   UNL A   1      46.902  37.050  29.114  1.00  0.00    -0.237 OA
ATOM     64  O   UNL A   1      47.650  36.681  26.784  1.00  0.00    -0.237 OA
ATOM     65  O   UNL A   1      45.329  37.376  27.237  1.00  0.00    -0.744 OA
ENDBRANCH  61  62
ENDBRANCH  40  54
BRANCH  41  66
ATOM     66  C   UNL A   1      37.054  31.629  30.371  1.00  0.00     0.058 A 
ATOM     67  C   UNL A   1      36.089  31.927  31.347  1.00  0.00     0.135 A 
ATOM     68  C   UNL A   1      36.867  32.235  29.110  1.00  0.00     0.135 A 
ATOM     69  F   UNL A   1      36.204  31.419  32.584  1.00  0.00    -0.206 F 
ATOM     70  C   UNL A   1      35.016  32.793  31.096  1.00  0.00     0.059 A 
ATOM     71  C   UNL A   1      35.803  33.091  28.833  1.00  0.00     0.059 A 
ATOM     72  F   UNL A   1      37.765  32.079  28.125  1.00  0.00    -0.206 F 
ATOM     73  C   UNL A   1      34.890  33.382  29.837  1.00  0.00     0.060 A 
BRANCH  73  74
ATOM     74  S   UNL A   1      33.590  34.605  29.548  1.00  0.00     0.124 S 
ATOM     75  O   UNL A   1      33.170  34.926  30.907  1.00  0.00    -0.237 OA
ATOM     76  O   UNL A   1      34.309  35.657  28.836  1.00  0.00    -0.237 OA
ATOM     77  O   UNL A   1      32.609  33.874  28.749  1.00  0.00    -0.744 OA
ENDBRANCH  73  74
ENDBRANCH  41  66
BRANCH  53  78
ATOM     78  C   UNL A   1      42.094  29.548  33.681  1.00  0.00     0.058 A 
ATOM     79  C   UNL A   1      41.721  28.226  33.381  1.00  0.00     0.135 A 
ATOM     80  C   UNL A   1      42.312  29.855  35.032  1.00  0.00     0.135 A 
ATOM     81  F   UNL A   1      41.588  27.819  32.112  1.00  0.00    -0.206 F 
ATOM     82  C   UNL A   1      41.549  27.261  34.377  1.00  0.00     0.059 A 
ATOM     83  C   UNL A   1      42.176  28.903  36.041  1.00  0.00     0.059 A 
ATOM     84  F   UNL A   1      42.732  31.083  35.381  1.00  0.00    -0.206 F 
ATOM     85  C   UNL A   1      41.788  27.607  35.706  1.00  0.00     0.060 A 
BRANCH  85  86
ATOM     86  S   UNL A   1      41.679  26.330  36.979  1.00  0.00     0.124 S 
ATOM     87  O   UNL A   1      42.881  26.578  37.768  1.00  0.00    -0.237 OA
ATOM     88  O   UNL A   1      40.413  26.643  37.637  1.00  0.00    -0.237 OA
ATOM     89  O   UNL A   1      41.680  25.084  36.215  1.00  0.00    -0.744 OA
ENDBRANCH  85  86
ENDBRANCH  53  78
ENDBRANCH  27  28
ENDBRANCH  20  22
ENDBRANCH  19  20
ENDBRANCH  18  19
ENDBRANCH   1  18
TORSDOF 19
ENDMDL
