MODEL 1
REMARK VINA RESULT:     -11.7      0.000      0.000
REMARK SMILES O=C(CN1C(=O)N[C@@](CCC(=O)OCCOCCOC(=O)c2ccc(-c3c4nc(c(-c5c(F)cc(S(=O)(=O)[O-])cc5F)c5ccc([nH]5)c(-c5c(F)cc(S(=O)(=O)[O-])cc5F)c5nc(c(-c6c(F)cc(S(=O)(=O)[O-])cc6F)c6ccc3[nH]6)C=C5)C=C4)cc2)(c2ccccc2)C1=O)Nc1cccc(F)c1
REMARK SMILES IDX 15 1 14 2 13 3 11 4 12 5 10 6 9 7 8 8 4 9 5 10 94 11 6 12
REMARK SMILES IDX 7 13 95 14 3 16 2 17 1 18 96 19 97 21 98 22 103 23 99 24
REMARK SMILES IDX 101 25 100 26 102 27 88 28 89 29 93 30 90 31 92 32 91 33
REMARK SMILES IDX 16 34 17 35 18 36 19 37 20 38 21 39 22 40 23 41 87 42 24 43
REMARK SMILES IDX 86 44 25 45 26 46 27 47 80 48 28 49 85 50 79 51 81 52 29 53
REMARK SMILES IDX 84 54 78 55 77 56 30 58 64 59 43 60 63 61 44 62 47 63 62 64
REMARK SMILES IDX 82 65 45 66 46 67 61 69 83 70 48 71 31 72 32 73 41 74 33 75
REMARK SMILES IDX 34 76 40 77 42 78 35 79 36 80 37 81 38 82 39 83 65 84 66 85
REMARK SMILES IDX 75 86 67 87 68 88 74 89 76 90 69 91 70 92 71 93 72 94 73 95
REMARK SMILES IDX 49 96 50 97 59 98 51 99 52 100 58 101 60 102 53 103 54 104
REMARK SMILES IDX 55 105 56 106 57 107
REMARK H PARENT 7 15 96 20 81 57 47 68
REMARK Flexibility Score: inf
ROOT
ATOM      1  C   UNL A   1      35.258  31.904  27.699  1.00  0.00     0.202 C 
ENDROOT
BRANCH   1   2
ATOM      2  C   UNL A   1      33.859  31.249  27.793  1.00  0.00     0.261 C 
BRANCH   2   3
ATOM      3  O   UNL A   1      33.435  30.436  26.674  1.00  0.00    -0.463 OA
BRANCH   3   4
ATOM      4  C   UNL A   1      33.906  29.168  26.574  1.00  0.00     0.305 C 
ATOM      5  O   UNL A   1      34.399  28.538  27.502  1.00  0.00    -0.252 OA
BRANCH   4   6
ATOM      6  C   UNL A   1      33.837  28.620  25.147  1.00  0.00     0.126 C 
BRANCH   6   7
ATOM      7  C   UNL A   1      32.757  29.181  24.196  1.00  0.00     0.055 C 
BRANCH   7   8
ATOM      8  C   UNL A   1      32.040  28.142  23.282  1.00  0.00     0.147 C 
ATOM      9  N   UNL A   1      32.338  25.827  22.904  1.00  0.00    -0.252 N 
ATOM     10  C   UNL A   1      32.823  26.488  21.816  1.00  0.00     0.325 C 
ATOM     11  C   UNL A   1      32.028  26.713  23.897  1.00  0.00     0.261 C 
ATOM     12  O   UNL A   1      33.238  26.023  20.779  1.00  0.00    -0.248 OA
ATOM     13  N   UNL A   1      32.798  27.844  22.089  1.00  0.00    -0.319 N 
ATOM     14  O   UNL A   1      31.670  26.404  25.029  1.00  0.00    -0.271 OA
ATOM     15  H   UNL A   1      33.242  28.526  21.535  1.00  0.00     0.166 HD
BRANCH   9  16
ATOM     16  C   UNL A   1      32.176  24.396  23.007  1.00  0.00     0.230 C 
BRANCH  16  17
ATOM     17  C   UNL A   1      33.538  23.697  23.088  1.00  0.00     0.244 C 
ATOM     18  O   UNL A   1      34.151  23.380  22.073  1.00  0.00    -0.273 OA
ATOM     19  N   UNL A   1      33.947  23.425  24.388  1.00  0.00    -0.324 N 
ATOM     20  H   UNL A   1      33.261  23.473  25.093  1.00  0.00     0.170 HD
BRANCH  19  21
ATOM     21  C   UNL A   1      35.260  23.084  24.790  1.00  0.00     0.044 A 
ATOM     22  C   UNL A   1      36.021  24.056  25.455  1.00  0.00     0.026 A 
ATOM     23  C   UNL A   1      35.845  21.846  24.515  1.00  0.00     0.065 A 
ATOM     24  C   UNL A   1      37.322  23.774  25.894  1.00  0.00     0.005 A 
ATOM     25  C   UNL A   1      37.155  21.590  24.918  1.00  0.00     0.125 A 
ATOM     26  C   UNL A   1      37.892  22.535  25.618  1.00  0.00     0.039 A 
ATOM     27  F   UNL A   1      37.720  20.417  24.605  1.00  0.00    -0.207 F 
ENDBRANCH  19  21
ENDBRANCH  16  17
ENDBRANCH   9  16
BRANCH   8  28
ATOM     28  C   UNL A   1      30.605  28.492  22.935  1.00  0.00    -0.013 A 
ATOM     29  C   UNL A   1      29.593  27.655  23.373  1.00  0.00     0.007 A 
ATOM     30  C   UNL A   1      30.234  29.605  22.162  1.00  0.00     0.007 A 
ATOM     31  C   UNL A   1      28.271  28.058  23.281  1.00  0.00     0.000 A 
ATOM     32  C   UNL A   1      28.895  29.948  21.988  1.00  0.00     0.000 A 
ATOM     33  C   UNL A   1      27.910  29.205  22.608  1.00  0.00     0.000 A 
ENDBRANCH   8  28
ENDBRANCH   7   8
ENDBRANCH   6   7
ENDBRANCH   4   6
ENDBRANCH   3   4
ENDBRANCH   2   3
ENDBRANCH   1   2
BRANCH   1  34
ATOM     34  O   UNL A   1      35.441  33.182  28.298  1.00  0.00    -0.374 OA
BRANCH  34  35
ATOM     35  C   UNL A   1      34.667  33.486  29.456  1.00  0.00     0.202 C 
BRANCH  35  36
ATOM     36  C   UNL A   1      35.270  33.066  30.815  1.00  0.00     0.261 C 
BRANCH  36  37
ATOM     37  O   UNL A   1      36.717  32.964  30.799  1.00  0.00    -0.460 OA
BRANCH  37  38
ATOM     38  C   UNL A   1      37.298  32.004  31.571  1.00  0.00     0.338 C 
ATOM     39  O   UNL A   1      36.875  31.611  32.645  1.00  0.00    -0.246 OA
BRANCH  38  40
ATOM     40  C   UNL A   1      38.451  31.348  30.864  1.00  0.00     0.060 A 
ATOM     41  C   UNL A   1      39.539  30.928  31.643  1.00  0.00     0.016 A 
ATOM     42  C   UNL A   1      38.451  31.039  29.497  1.00  0.00     0.016 A 
ATOM     43  C   UNL A   1      40.611  30.219  31.070  1.00  0.00     0.010 A 
ATOM     44  C   UNL A   1      39.523  30.316  28.925  1.00  0.00     0.010 A 
ATOM     45  C   UNL A   1      40.628  29.919  29.700  1.00  0.00    -0.014 A 
BRANCH  45  46
ATOM     46  C   UNL A   1      41.876  29.389  29.062  1.00  0.00     0.031 A 
ATOM     47  C   UNL A   1      43.029  30.343  28.884  1.00  0.00     0.074 A 
ATOM     48  C   UNL A   1      42.042  28.107  28.674  1.00  0.00     0.049 A 
ATOM     49  N   UNL A   1      44.254  30.107  28.487  1.00  0.00    -0.248 NA
ATOM     50  C   UNL A   1      42.767  31.750  29.222  1.00  0.00     0.031 C 
ATOM     51  C   UNL A   1      41.052  27.047  28.804  1.00  0.00     0.029 A 
ATOM     52  N   UNL A   1      43.117  27.473  28.086  1.00  0.00    -0.354 N 
ATOM     53  C   UNL A   1      44.915  31.326  28.559  1.00  0.00     0.074 A 
ATOM     54  C   UNL A   1      43.940  32.311  28.976  1.00  0.00     0.031 C 
ATOM     55  C   UNL A   1      41.538  25.907  28.280  1.00  0.00     0.029 A 
ATOM     56  C   UNL A   1      42.898  26.143  27.798  1.00  0.00     0.049 A 
ATOM     57  H   UNL A   1      43.965  27.931  27.889  1.00  0.00     0.167 HD
ATOM     58  C   UNL A   1      46.221  31.604  28.330  1.00  0.00     0.037 A 
ATOM     59  C   UNL A   1      43.700  25.213  27.235  1.00  0.00     0.037 A 
ATOM     60  C   UNL A   1      47.191  30.643  27.875  1.00  0.00     0.049 A 
ATOM     61  C   UNL A   1      45.126  25.567  26.885  1.00  0.00     0.074 A 
ATOM     62  C   UNL A   1      48.544  30.831  27.647  1.00  0.00     0.029 A 
ATOM     63  N   UNL A   1      46.911  29.326  27.546  1.00  0.00    -0.354 N 
ATOM     64  N   UNL A   1      45.765  26.698  27.067  1.00  0.00    -0.248 NA
ATOM     65  C   UNL A   1      45.951  24.507  26.284  1.00  0.00     0.031 C 
ATOM     66  C   UNL A   1      49.068  29.647  27.119  1.00  0.00     0.029 A 
ATOM     67  C   UNL A   1      48.058  28.699  27.082  1.00  0.00     0.049 A 
ATOM     68  H   UNL A   1      46.028  28.899  27.629  1.00  0.00     0.167 HD
ATOM     69  C   UNL A   1      47.075  26.470  26.649  1.00  0.00     0.074 A 
ATOM     70  C   UNL A   1      47.139  25.094  26.206  1.00  0.00     0.031 C 
ATOM     71  C   UNL A   1      48.129  27.325  26.648  1.00  0.00     0.037 A 
BRANCH  58  72
ATOM     72  C   UNL A   1      46.663  33.024  28.556  1.00  0.00     0.058 A 
ATOM     73  C   UNL A   1      46.622  33.979  27.526  1.00  0.00     0.135 A 
ATOM     74  C   UNL A   1      47.143  33.433  29.810  1.00  0.00     0.135 A 
ATOM     75  F   UNL A   1      46.187  33.637  26.302  1.00  0.00    -0.206 F 
ATOM     76  C   UNL A   1      47.089  35.274  27.716  1.00  0.00     0.059 A 
ATOM     77  C   UNL A   1      47.584  34.734  30.032  1.00  0.00     0.059 A 
ATOM     78  F   UNL A   1      47.201  32.563  30.830  1.00  0.00    -0.206 F 
ATOM     79  C   UNL A   1      47.575  35.640  28.972  1.00  0.00     0.060 A 
BRANCH  79  80
ATOM     80  S   UNL A   1      48.215  37.312  29.190  1.00  0.00     0.124 S 
ATOM     81  O   UNL A   1      48.080  37.852  27.840  1.00  0.00    -0.237 OA
ATOM     82  O   UNL A   1      47.308  37.867  30.187  1.00  0.00    -0.237 OA
ATOM     83  O   UNL A   1      49.586  37.096  29.644  1.00  0.00    -0.744 OA
ENDBRANCH  79  80
ENDBRANCH  58  72
BRANCH  59  84
ATOM     84  C   UNL A   1      43.206  23.822  27.012  1.00  0.00     0.058 A 
ATOM     85  C   UNL A   1      43.116  22.906  28.073  1.00  0.00     0.135 A 
ATOM     86  C   UNL A   1      42.845  23.368  25.734  1.00  0.00     0.135 A 
ATOM     87  F   UNL A   1      43.467  23.281  29.313  1.00  0.00    -0.206 F 
ATOM     88  C   UNL A   1      42.696  21.593  27.875  1.00  0.00     0.059 A 
ATOM     89  C   UNL A   1      42.401  22.064  25.514  1.00  0.00     0.059 A 
ATOM     90  F   UNL A   1      42.912  24.199  24.682  1.00  0.00    -0.206 F 
ATOM     91  C   UNL A   1      42.336  21.182  26.592  1.00  0.00     0.060 A 
BRANCH  91  92
ATOM     92  S   UNL A   1      41.739  19.492  26.362  1.00  0.00     0.124 S 
ATOM     93  O   UNL A   1      42.184  18.848  27.592  1.00  0.00    -0.237 OA
ATOM     94  O   UNL A   1      40.299  19.694  26.232  1.00  0.00    -0.237 OA
ATOM     95  O   UNL A   1      42.415  19.057  25.143  1.00  0.00    -0.744 OA
ENDBRANCH  91  92
ENDBRANCH  59  84
BRANCH  71  96
ATOM     96  C   UNL A   1      49.468  26.799  26.198  1.00  0.00     0.058 A 
ATOM     97  C   UNL A   1      49.943  26.987  24.891  1.00  0.00     0.135 A 
ATOM     98  C   UNL A   1      50.320  26.153  27.111  1.00  0.00     0.135 A 
ATOM     99  F   UNL A   1      49.174  27.593  23.972  1.00  0.00    -0.206 F 
ATOM    100  C   UNL A   1      51.202  26.537  24.499  1.00  0.00     0.059 A 
ATOM    101  C   UNL A   1      51.594  25.723  26.751  1.00  0.00     0.059 A 
ATOM    102  F   UNL A   1      49.925  25.953  28.379  1.00  0.00    -0.206 F 
ATOM    103  C   UNL A   1      52.023  25.909  25.439  1.00  0.00     0.060 A 
BRANCH 103 104
ATOM    104  S   UNL A   1      53.669  25.368  24.928  1.00  0.00     0.124 S 
ATOM    105  O   UNL A   1      53.803  26.017  23.628  1.00  0.00    -0.237 OA
ATOM    106  O   UNL A   1      54.516  25.899  25.992  1.00  0.00    -0.237 OA
ATOM    107  O   UNL A   1      53.554  23.913  24.893  1.00  0.00    -0.744 OA
ENDBRANCH 103 104
ENDBRANCH  71  96
ENDBRANCH  45  46
ENDBRANCH  38  40
ENDBRANCH  37  38
ENDBRANCH  36  37
ENDBRANCH  35  36
ENDBRANCH  34  35
ENDBRANCH   1  34
TORSDOF 23
ENDMDL
MODEL 2
REMARK VINA RESULT:     -11.6      5.810     11.874
REMARK SMILES O=C(CN1C(=O)N[C@@](CCC(=O)OCCOCCOC(=O)c2ccc(-c3c4nc(c(-c5c(F)cc(S(=O)(=O)[O-])cc5F)c5ccc([nH]5)c(-c5c(F)cc(S(=O)(=O)[O-])cc5F)c5nc(c(-c6c(F)cc(S(=O)(=O)[O-])cc6F)c6ccc3[nH]6)C=C5)C=C4)cc2)(c2ccccc2)C1=O)Nc1cccc(F)c1
REMARK SMILES IDX 15 1 14 2 13 3 11 4 12 5 10 6 9 7 8 8 4 9 5 10 94 11 6 12
REMARK SMILES IDX 7 13 95 14 3 16 2 17 1 18 96 19 97 21 98 22 103 23 99 24
REMARK SMILES IDX 101 25 100 26 102 27 88 28 89 29 93 30 90 31 92 32 91 33
REMARK SMILES IDX 16 34 17 35 18 36 19 37 20 38 21 39 22 40 23 41 87 42 24 43
REMARK SMILES IDX 86 44 25 45 26 46 27 47 80 48 28 49 85 50 79 51 81 52 29 53
REMARK SMILES IDX 84 54 78 55 77 56 30 58 64 59 43 60 63 61 44 62 47 63 62 64
REMARK SMILES IDX 82 65 45 66 46 67 61 69 83 70 48 71 31 72 32 73 41 74 33 75
REMARK SMILES IDX 34 76 40 77 42 78 35 79 36 80 37 81 38 82 39 83 65 84 66 85
REMARK SMILES IDX 75 86 67 87 68 88 74 89 76 90 69 91 70 92 71 93 72 94 73 95
REMARK SMILES IDX 49 96 50 97 59 98 51 99 52 100 58 101 60 102 53 103 54 104
REMARK SMILES IDX 55 105 56 106 57 107
REMARK H PARENT 7 15 96 20 81 57 47 68
REMARK Flexibility Score: inf
ROOT
ATOM      1  C   UNL A   1      40.659  20.602  26.442  1.00  0.00     0.202 C 
ENDROOT
BRANCH   1   2
ATOM      2  C   UNL A   1      39.622  21.717  26.167  1.00  0.00     0.261 C 
BRANCH   2   3
ATOM      3  O   UNL A   1      38.360  21.316  25.585  1.00  0.00    -0.463 OA
BRANCH   3   4
ATOM      4  C   UNL A   1      37.329  22.195  25.596  1.00  0.00     0.305 C 
ATOM      5  O   UNL A   1      37.457  23.413  25.543  1.00  0.00    -0.252 OA
BRANCH   4   6
ATOM      6  C   UNL A   1      35.969  21.515  25.768  1.00  0.00     0.126 C 
BRANCH   6   7
ATOM      7  C   UNL A   1      34.874  22.253  26.569  1.00  0.00     0.055 C 
BRANCH   7   8
ATOM      8  C   UNL A   1      33.408  22.038  26.086  1.00  0.00     0.147 C 
ATOM      9  N   UNL A   1      31.668  23.511  25.459  1.00  0.00    -0.252 N 
ATOM     10  C   UNL A   1      31.364  23.014  26.691  1.00  0.00     0.325 C 
ATOM     11  C   UNL A   1      32.934  23.145  25.101  1.00  0.00     0.261 C 
ATOM     12  O   UNL A   1      30.354  23.177  27.337  1.00  0.00    -0.248 OA
ATOM     13  N   UNL A   1      32.444  22.273  27.136  1.00  0.00    -0.319 N 
ATOM     14  O   UNL A   1      33.520  23.532  24.095  1.00  0.00    -0.271 OA
ATOM     15  H   UNL A   1      32.543  21.945  28.059  1.00  0.00     0.166 HD
BRANCH   9  16
ATOM     16  C   UNL A   1      30.789  24.317  24.644  1.00  0.00     0.230 C 
BRANCH  16  17
ATOM     17  C   UNL A   1      30.865  25.792  25.052  1.00  0.00     0.244 C 
ATOM     18  O   UNL A   1      29.857  26.416  25.371  1.00  0.00    -0.273 OA
ATOM     19  N   UNL A   1      32.144  26.328  24.963  1.00  0.00    -0.324 N 
ATOM     20  H   UNL A   1      32.807  25.821  24.441  1.00  0.00     0.170 HD
BRANCH  19  21
ATOM     21  C   UNL A   1      32.579  27.538  25.555  1.00  0.00     0.044 A 
ATOM     22  C   UNL A   1      31.930  28.725  25.185  1.00  0.00     0.026 A 
ATOM     23  C   UNL A   1      33.649  27.608  26.449  1.00  0.00     0.065 A 
ATOM     24  C   UNL A   1      32.304  29.953  25.748  1.00  0.00     0.005 A 
ATOM     25  C   UNL A   1      34.040  28.840  26.972  1.00  0.00     0.125 A 
ATOM     26  C   UNL A   1      33.369  30.009  26.643  1.00  0.00     0.039 A 
ATOM     27  F   UNL A   1      35.098  28.900  27.790  1.00  0.00    -0.207 F 
ENDBRANCH  19  21
ENDBRANCH  16  17
ENDBRANCH   9  16
BRANCH   8  28
ATOM     28  C   UNL A   1      33.155  20.702  25.413  1.00  0.00    -0.013 A 
ATOM     29  C   UNL A   1      33.150  19.557  26.189  1.00  0.00     0.007 A 
ATOM     30  C   UNL A   1      32.955  20.547  24.030  1.00  0.00     0.007 A 
ATOM     31  C   UNL A   1      32.696  18.361  25.659  1.00  0.00     0.000 A 
ATOM     32  C   UNL A   1      32.596  19.314  23.488  1.00  0.00     0.000 A 
ATOM     33  C   UNL A   1      32.401  18.229  24.319  1.00  0.00     0.000 A 
ENDBRANCH   8  28
ENDBRANCH   7   8
ENDBRANCH   6   7
ENDBRANCH   4   6
ENDBRANCH   3   4
ENDBRANCH   2   3
ENDBRANCH   1   2
BRANCH   1  34
ATOM     34  O   UNL A   1      41.908  20.665  25.762  1.00  0.00    -0.374 OA
BRANCH  34  35
ATOM     35  C   UNL A   1      42.931  21.477  26.334  1.00  0.00     0.202 C 
BRANCH  35  36
ATOM     36  C   UNL A   1      43.323  22.746  25.544  1.00  0.00     0.261 C 
BRANCH  36  37
ATOM     37  O   UNL A   1      42.645  23.945  26.000  1.00  0.00    -0.460 OA
BRANCH  37  38
ATOM     38  C   UNL A   1      43.396  25.060  26.215  1.00  0.00     0.338 C 
ATOM     39  O   UNL A   1      44.341  25.416  25.532  1.00  0.00    -0.246 OA
BRANCH  38  40
ATOM     40  C   UNL A   1      42.818  25.913  27.309  1.00  0.00     0.060 A 
ATOM     41  C   UNL A   1      43.403  27.168  27.534  1.00  0.00     0.016 A 
ATOM     42  C   UNL A   1      41.672  25.572  28.039  1.00  0.00     0.016 A 
ATOM     43  C   UNL A   1      42.859  28.065  28.472  1.00  0.00     0.010 A 
ATOM     44  C   UNL A   1      41.119  26.478  28.972  1.00  0.00     0.010 A 
ATOM     45  C   UNL A   1      41.721  27.726  29.218  1.00  0.00    -0.014 A 
BRANCH  45  46
ATOM     46  C   UNL A   1      41.302  28.576  30.379  1.00  0.00     0.031 A 
ATOM     47  C   UNL A   1      42.076  28.433  31.666  1.00  0.00     0.074 A 
ATOM     48  C   UNL A   1      40.306  29.486  30.332  1.00  0.00     0.049 A 
ATOM     49  N   UNL A   1      42.005  29.139  32.765  1.00  0.00    -0.248 NA
ATOM     50  C   UNL A   1      43.080  27.359  31.704  1.00  0.00     0.031 C 
ATOM     51  C   UNL A   1      39.483  29.781  29.167  1.00  0.00     0.029 A 
ATOM     52  N   UNL A   1      39.812  30.336  31.299  1.00  0.00    -0.354 N 
ATOM     53  C   UNL A   1      42.975  28.618  33.611  1.00  0.00     0.074 A 
ATOM     54  C   UNL A   1      43.576  27.496  32.923  1.00  0.00     0.031 C 
ATOM     55  C   UNL A   1      38.564  30.709  29.487  1.00  0.00     0.029 A 
ATOM     56  C   UNL A   1      38.748  31.105  30.882  1.00  0.00     0.049 A 
ATOM     57  H   UNL A   1      40.188  30.389  32.207  1.00  0.00     0.167 HD
ATOM     58  C   UNL A   1      43.357  29.046  34.838  1.00  0.00     0.037 A 
ATOM     59  C   UNL A   1      38.017  32.037  31.532  1.00  0.00     0.037 A 
ATOM     60  C   UNL A   1      42.739  30.133  35.552  1.00  0.00     0.049 A 
ATOM     61  C   UNL A   1      38.389  32.430  32.943  1.00  0.00     0.074 A 
ATOM     62  C   UNL A   1      43.083  30.654  36.787  1.00  0.00     0.029 A 
ATOM     63  N   UNL A   1      41.632  30.843  35.113  1.00  0.00    -0.354 N 
ATOM     64  N   UNL A   1      39.382  32.002  33.684  1.00  0.00    -0.248 NA
ATOM     65  C   UNL A   1      37.559  33.458  33.592  1.00  0.00     0.031 C 
ATOM     66  C   UNL A   1      42.146  31.635  37.125  1.00  0.00     0.029 A 
ATOM     67  C   UNL A   1      41.258  31.774  36.070  1.00  0.00     0.049 A 
ATOM     68  H   UNL A   1      41.180  30.707  34.250  1.00  0.00     0.167 HD
ATOM     69  C   UNL A   1      39.326  32.742  34.864  1.00  0.00     0.074 A 
ATOM     70  C   UNL A   1      38.202  33.644  34.738  1.00  0.00     0.031 C 
ATOM     71  C   UNL A   1      40.144  32.683  35.945  1.00  0.00     0.037 A 
BRANCH  58  72
ATOM     72  C   UNL A   1      44.495  28.310  35.491  1.00  0.00     0.058 A 
ATOM     73  C   UNL A   1      45.830  28.700  35.296  1.00  0.00     0.135 A 
ATOM     74  C   UNL A   1      44.251  27.197  36.311  1.00  0.00     0.135 A 
ATOM     75  F   UNL A   1      46.122  29.748  34.508  1.00  0.00    -0.206 F 
ATOM     76  C   UNL A   1      46.886  27.984  35.847  1.00  0.00     0.059 A 
ATOM     77  C   UNL A   1      45.291  26.485  36.900  1.00  0.00     0.059 A 
ATOM     78  F   UNL A   1      42.995  26.782  36.534  1.00  0.00    -0.206 F 
ATOM     79  C   UNL A   1      46.606  26.872  36.643  1.00  0.00     0.060 A 
BRANCH  79  80
ATOM     80  S   UNL A   1      47.987  25.929  37.316  1.00  0.00     0.124 S 
ATOM     81  O   UNL A   1      48.346  25.087  36.178  1.00  0.00    -0.237 OA
ATOM     82  O   UNL A   1      48.945  26.975  37.656  1.00  0.00    -0.237 OA
ATOM     83  O   UNL A   1      47.399  25.227  38.453  1.00  0.00    -0.744 OA
ENDBRANCH  79  80
ENDBRANCH  58  72
BRANCH  59  84
ATOM     84  C   UNL A   1      36.881  32.724  30.847  1.00  0.00     0.058 A 
ATOM     85  C   UNL A   1      35.565  32.255  30.981  1.00  0.00     0.135 A 
ATOM     86  C   UNL A   1      37.089  33.839  30.021  1.00  0.00     0.135 A 
ATOM     87  F   UNL A   1      35.311  31.179  31.743  1.00  0.00    -0.206 F 
ATOM     88  C   UNL A   1      34.500  32.857  30.316  1.00  0.00     0.059 A 
ATOM     89  C   UNL A   1      36.036  34.473  29.362  1.00  0.00     0.059 A 
ATOM     90  F   UNL A   1      38.327  34.331  29.856  1.00  0.00    -0.206 F 
ATOM     91  C   UNL A   1      34.745  33.970  29.512  1.00  0.00     0.060 A 
BRANCH  91  92
ATOM     92  S   UNL A   1      33.344  34.776  28.702  1.00  0.00     0.124 S 
ATOM     93  O   UNL A   1      32.484  35.090  29.836  1.00  0.00    -0.237 OA
ATOM     94  O   UNL A   1      33.984  35.915  28.051  1.00  0.00    -0.237 OA
ATOM     95  O   UNL A   1      32.842  33.747  27.795  1.00  0.00    -0.744 OA
ENDBRANCH  91  92
ENDBRANCH  59  84
BRANCH  71  96
ATOM     96  C   UNL A   1      39.896  33.650  37.075  1.00  0.00     0.058 A 
ATOM     97  C   UNL A   1      39.024  33.353  38.134  1.00  0.00     0.135 A 
ATOM     98  C   UNL A   1      40.596  34.868  37.133  1.00  0.00     0.135 A 
ATOM     99  F   UNL A   1      38.324  32.208  38.133  1.00  0.00    -0.206 F 
ATOM    100  C   UNL A   1      38.839  34.235  39.197  1.00  0.00     0.059 A 
ATOM    101  C   UNL A   1      40.451  35.750  38.200  1.00  0.00     0.059 A 
ATOM    102  F   UNL A   1      41.452  35.202  36.154  1.00  0.00    -0.206 F 
ATOM    103  C   UNL A   1      39.561  35.430  39.223  1.00  0.00     0.060 A 
BRANCH 103 104
ATOM    104  S   UNL A   1      39.342  36.545  40.627  1.00  0.00     0.124 S 
ATOM    105  O   UNL A   1      40.646  36.461  41.277  1.00  0.00    -0.237 OA
ATOM    106  O   UNL A   1      39.039  37.815  39.975  1.00  0.00    -0.237 OA
ATOM    107  O   UNL A   1      38.234  35.947  41.368  1.00  0.00    -0.744 OA
ENDBRANCH 103 104
ENDBRANCH  71  96
ENDBRANCH  45  46
ENDBRANCH  38  40
ENDBRANCH  37  38
ENDBRANCH  36  37
ENDBRANCH  35  36
ENDBRANCH  34  35
ENDBRANCH   1  34
TORSDOF 23
ENDMDL
MODEL 3
REMARK VINA RESULT:     -11.6      1.981      4.225
REMARK SMILES O=C(CN1C(=O)N[C@@](CCC(=O)OCCOCCOC(=O)c2ccc(-c3c4nc(c(-c5c(F)cc(S(=O)(=O)[O-])cc5F)c5ccc([nH]5)c(-c5c(F)cc(S(=O)(=O)[O-])cc5F)c5nc(c(-c6c(F)cc(S(=O)(=O)[O-])cc6F)c6ccc3[nH]6)C=C5)C=C4)cc2)(c2ccccc2)C1=O)Nc1cccc(F)c1
REMARK SMILES IDX 15 1 14 2 13 3 11 4 12 5 10 6 9 7 8 8 4 9 5 10 94 11 6 12
REMARK SMILES IDX 7 13 95 14 3 16 2 17 1 18 96 19 97 21 98 22 103 23 99 24
REMARK SMILES IDX 101 25 100 26 102 27 88 28 89 29 93 30 90 31 92 32 91 33
REMARK SMILES IDX 16 34 17 35 18 36 19 37 20 38 21 39 22 40 23 41 87 42 24 43
REMARK SMILES IDX 86 44 25 45 26 46 27 47 80 48 28 49 85 50 79 51 81 52 29 53
REMARK SMILES IDX 84 54 78 55 77 56 30 58 64 59 43 60 63 61 44 62 47 63 62 64
REMARK SMILES IDX 82 65 45 66 46 67 61 69 83 70 48 71 31 72 32 73 41 74 33 75
REMARK SMILES IDX 34 76 40 77 42 78 35 79 36 80 37 81 38 82 39 83 65 84 66 85
REMARK SMILES IDX 75 86 67 87 68 88 74 89 76 90 69 91 70 92 71 93 72 94 73 95
REMARK SMILES IDX 49 96 50 97 59 98 51 99 52 100 58 101 60 102 53 103 54 104
REMARK SMILES IDX 55 105 56 106 57 107
REMARK H PARENT 7 15 96 20 81 57 47 68
REMARK Flexibility Score: inf
ROOT
ATOM      1  C   UNL A   1      35.583  31.765  28.262  1.00  0.00     0.202 C 
ENDROOT
BRANCH   1   2
ATOM      2  C   UNL A   1      34.759  30.706  27.492  1.00  0.00     0.261 C 
BRANCH   2   3
ATOM      3  O   UNL A   1      33.344  30.961  27.330  1.00  0.00    -0.463 OA
BRANCH   3   4
ATOM      4  C   UNL A   1      32.571  30.004  26.760  1.00  0.00     0.305 C 
ATOM      5  O   UNL A   1      31.688  30.227  25.941  1.00  0.00    -0.252 OA
BRANCH   4   6
ATOM      6  C   UNL A   1      32.856  28.604  27.308  1.00  0.00     0.126 C 
BRANCH   6   7
ATOM      7  C   UNL A   1      33.618  27.605  26.410  1.00  0.00     0.055 C 
BRANCH   7   8
ATOM      8  C   UNL A   1      32.802  26.379  25.902  1.00  0.00     0.147 C 
ATOM      9  N   UNL A   1      30.792  26.155  24.676  1.00  0.00    -0.252 N 
ATOM     10  C   UNL A   1      30.524  25.830  25.972  1.00  0.00     0.325 C 
ATOM     11  C   UNL A   1      32.053  26.669  24.569  1.00  0.00     0.261 C 
ATOM     12  O   UNL A   1      29.495  25.396  26.439  1.00  0.00    -0.248 OA
ATOM     13  N   UNL A   1      31.649  26.105  26.728  1.00  0.00    -0.319 N 
ATOM     14  O   UNL A   1      32.534  27.146  23.546  1.00  0.00    -0.271 OA
ATOM     15  H   UNL A   1      31.664  26.112  27.712  1.00  0.00     0.166 HD
BRANCH   9  16
ATOM     16  C   UNL A   1      29.880  25.990  23.569  1.00  0.00     0.230 C 
BRANCH  16  17
ATOM     17  C   UNL A   1      29.013  27.240  23.385  1.00  0.00     0.244 C 
ATOM     18  O   UNL A   1      27.866  27.287  23.820  1.00  0.00    -0.273 OA
ATOM     19  N   UNL A   1      29.632  28.244  22.649  1.00  0.00    -0.324 N 
ATOM     20  H   UNL A   1      30.427  27.990  22.127  1.00  0.00     0.170 HD
BRANCH  19  21
ATOM     21  C   UNL A   1      29.222  29.596  22.582  1.00  0.00     0.044 A 
ATOM     22  C   UNL A   1      29.386  30.394  23.724  1.00  0.00     0.026 A 
ATOM     23  C   UNL A   1      28.621  30.156  21.453  1.00  0.00     0.065 A 
ATOM     24  C   UNL A   1      29.015  31.745  23.716  1.00  0.00     0.005 A 
ATOM     25  C   UNL A   1      28.218  31.490  21.469  1.00  0.00     0.125 A 
ATOM     26  C   UNL A   1      28.423  32.294  22.582  1.00  0.00     0.039 A 
ATOM     27  F   UNL A   1      27.599  32.001  20.397  1.00  0.00    -0.207 F 
ENDBRANCH  19  21
ENDBRANCH  16  17
ENDBRANCH   9  16
BRANCH   8  28
ATOM     28  C   UNL A   1      33.623  25.120  25.688  1.00  0.00    -0.013 A 
ATOM     29  C   UNL A   1      34.443  25.043  24.576  1.00  0.00     0.007 A 
ATOM     30  C   UNL A   1      33.578  24.002  26.537  1.00  0.00     0.007 A 
ATOM     31  C   UNL A   1      35.374  24.022  24.471  1.00  0.00     0.000 A 
ATOM     32  C   UNL A   1      34.451  22.929  26.364  1.00  0.00     0.000 A 
ATOM     33  C   UNL A   1      35.400  22.972  25.362  1.00  0.00     0.000 A 
ENDBRANCH   8  28
ENDBRANCH   7   8
ENDBRANCH   6   7
ENDBRANCH   4   6
ENDBRANCH   3   4
ENDBRANCH   2   3
ENDBRANCH   1   2
BRANCH   1  34
ATOM     34  O   UNL A   1      35.321  33.139  28.000  1.00  0.00    -0.374 OA
BRANCH  34  35
ATOM     35  C   UNL A   1      35.746  34.090  28.973  1.00  0.00     0.202 C 
BRANCH  35  36
ATOM     36  C   UNL A   1      35.894  33.571  30.421  1.00  0.00     0.261 C 
BRANCH  36  37
ATOM     37  O   UNL A   1      37.274  33.419  30.842  1.00  0.00    -0.460 OA
BRANCH  37  38
ATOM     38  C   UNL A   1      37.617  32.279  31.505  1.00  0.00     0.338 C 
ATOM     39  O   UNL A   1      37.003  31.796  32.442  1.00  0.00    -0.246 OA
BRANCH  38  40
ATOM     40  C   UNL A   1      38.764  31.574  30.837  1.00  0.00     0.060 A 
ATOM     41  C   UNL A   1      39.846  31.185  31.640  1.00  0.00     0.016 A 
ATOM     42  C   UNL A   1      38.764  31.194  29.488  1.00  0.00     0.016 A 
ATOM     43  C   UNL A   1      40.911  30.435  31.108  1.00  0.00     0.010 A 
ATOM     44  C   UNL A   1      39.829  30.431  28.958  1.00  0.00     0.010 A 
ATOM     45  C   UNL A   1      40.927  30.062  29.756  1.00  0.00    -0.014 A 
BRANCH  45  46
ATOM     46  C   UNL A   1      42.171  29.486  29.150  1.00  0.00     0.031 A 
ATOM     47  C   UNL A   1      43.363  30.397  29.001  1.00  0.00     0.074 A 
ATOM     48  C   UNL A   1      42.300  28.199  28.767  1.00  0.00     0.049 A 
ATOM     49  N   UNL A   1      44.588  30.115  28.637  1.00  0.00    -0.248 NA
ATOM     50  C   UNL A   1      43.145  31.813  29.333  1.00  0.00     0.031 C 
ATOM     51  C   UNL A   1      41.268  27.176  28.871  1.00  0.00     0.029 A 
ATOM     52  N   UNL A   1      43.365  27.525  28.206  1.00  0.00    -0.354 N 
ATOM     53  C   UNL A   1      45.292  31.308  28.726  1.00  0.00     0.074 A 
ATOM     54  C   UNL A   1      44.344  32.329  29.118  1.00  0.00     0.031 C 
ATOM     55  C   UNL A   1      41.725  26.019  28.359  1.00  0.00     0.029 A 
ATOM     56  C   UNL A   1      43.104  26.204  27.912  1.00  0.00     0.049 A 
ATOM     57  H   UNL A   1      44.235  27.951  28.031  1.00  0.00     0.167 HD
ATOM     58  C   UNL A   1      46.613  31.538  28.530  1.00  0.00     0.037 A 
ATOM     59  C   UNL A   1      43.886  25.244  27.370  1.00  0.00     0.037 A 
ATOM     60  C   UNL A   1      47.558  30.542  28.100  1.00  0.00     0.049 A 
ATOM     61  C   UNL A   1      45.332  25.545  27.057  1.00  0.00     0.074 A 
ATOM     62  C   UNL A   1      48.922  30.679  27.907  1.00  0.00     0.029 A 
ATOM     63  N   UNL A   1      47.238  29.235  27.764  1.00  0.00    -0.354 N 
ATOM     64  N   UNL A   1      46.007  26.651  27.255  1.00  0.00    -0.248 NA
ATOM     65  C   UNL A   1      46.132  24.454  26.477  1.00  0.00     0.031 C 
ATOM     66  C   UNL A   1      49.415  29.476  27.392  1.00  0.00     0.029 A 
ATOM     67  C   UNL A   1      48.372  28.566  27.330  1.00  0.00     0.049 A 
ATOM     68  H   UNL A   1      46.338  28.841  27.824  1.00  0.00     0.167 HD
ATOM     69  C   UNL A   1      47.318  26.374  26.871  1.00  0.00     0.074 A 
ATOM     70  C   UNL A   1      47.343  24.997  26.429  1.00  0.00     0.031 C 
ATOM     71  C   UNL A   1      48.403  27.190  26.897  1.00  0.00     0.037 A 
BRANCH  58  72
ATOM     72  C   UNL A   1      47.102  32.941  28.768  1.00  0.00     0.058 A 
ATOM     73  C   UNL A   1      47.135  33.892  27.734  1.00  0.00     0.135 A 
ATOM     74  C   UNL A   1      47.551  33.337  30.037  1.00  0.00     0.135 A 
ATOM     75  F   UNL A   1      46.732  33.562  26.496  1.00  0.00    -0.206 F 
ATOM     76  C   UNL A   1      47.645  35.169  27.937  1.00  0.00     0.059 A 
ATOM     77  C   UNL A   1      48.034  34.620  30.271  1.00  0.00     0.059 A 
ATOM     78  F   UNL A   1      47.538  32.470  31.061  1.00  0.00    -0.206 F 
ATOM     79  C   UNL A   1      48.099  35.522  29.209  1.00  0.00     0.060 A 
BRANCH  79  80
ATOM     80  S   UNL A   1      48.795  37.168  29.445  1.00  0.00     0.124 S 
ATOM     81  O   UNL A   1      49.101  37.151  30.873  1.00  0.00    -0.237 OA
ATOM     82  O   UNL A   1      49.948  37.151  28.551  1.00  0.00    -0.237 OA
ATOM     83  O   UNL A   1      47.709  38.058  29.048  1.00  0.00    -0.744 OA
ENDBRANCH  79  80
ENDBRANCH  58  72
BRANCH  59  84
ATOM     84  C   UNL A   1      43.346  23.872  27.133  1.00  0.00     0.058 A 
ATOM     85  C   UNL A   1      43.250  22.941  28.180  1.00  0.00     0.135 A 
ATOM     86  C   UNL A   1      42.945  23.451  25.856  1.00  0.00     0.135 A 
ATOM     87  F   UNL A   1      43.638  23.284  29.419  1.00  0.00    -0.206 F 
ATOM     88  C   UNL A   1      42.789  21.645  27.970  1.00  0.00     0.059 A 
ATOM     89  C   UNL A   1      42.459  22.165  25.624  1.00  0.00     0.059 A 
ATOM     90  F   UNL A   1      43.015  24.298  24.817  1.00  0.00    -0.206 F 
ATOM     91  C   UNL A   1      42.390  21.267  26.687  1.00  0.00     0.060 A 
BRANCH  91  92
ATOM     92  S   UNL A   1      41.739  19.599  26.442  1.00  0.00     0.124 S 
ATOM     93  O   UNL A   1      40.303  19.845  26.381  1.00  0.00    -0.237 OA
ATOM     94  O   UNL A   1      42.374  19.207  25.188  1.00  0.00    -0.237 OA
ATOM     95  O   UNL A   1      42.205  18.877  27.623  1.00  0.00    -0.744 OA
ENDBRANCH  91  92
ENDBRANCH  59  84
BRANCH  71  96
ATOM     96  C   UNL A   1      49.733  26.614  26.482  1.00  0.00     0.058 A 
ATOM     97  C   UNL A   1      50.192  26.676  25.157  1.00  0.00     0.135 A 
ATOM     98  C   UNL A   1      50.592  26.049  27.440  1.00  0.00     0.135 A 
ATOM     99  F   UNL A   1      49.415  27.200  24.195  1.00  0.00    -0.206 F 
ATOM    100  C   UNL A   1      51.444  26.182  24.794  1.00  0.00     0.059 A 
ATOM    101  C   UNL A   1      51.859  25.578  27.106  1.00  0.00     0.059 A 
ATOM    102  F   UNL A   1      50.213  25.972  28.726  1.00  0.00    -0.206 F 
ATOM    103  C   UNL A   1      52.272  25.638  25.777  1.00  0.00     0.060 A 
BRANCH 103 104
ATOM    104  S   UNL A   1      53.908  25.040  25.299  1.00  0.00     0.124 S 
ATOM    105  O   UNL A   1      54.587  24.975  26.589  1.00  0.00    -0.237 OA
ATOM    106  O   UNL A   1      53.602  23.755  24.678  1.00  0.00    -0.237 OA
ATOM    107  O   UNL A   1      54.395  26.071  24.387  1.00  0.00    -0.744 OA
ENDBRANCH 103 104
ENDBRANCH  71  96
ENDBRANCH  45  46
ENDBRANCH  38  40
ENDBRANCH  37  38
ENDBRANCH  36  37
ENDBRANCH  35  36
ENDBRANCH  34  35
ENDBRANCH   1  34
TORSDOF 23
ENDMDL
