MODEL 1
REMARK VINA RESULT:     -11.1      0.000      0.000
REMARK SMILES C=CCN1C(=O)/C(=C/c2ccc(OCc3cccc(C(=O)OCCOCCOC(=O)c4ccc(-c5c6nc(c(-c7c(F)cc(S(=O)(=O)[O-])cc7F)c7ccc([nH]7)c(-c7c(F)cc(S(=O)(=O)[O-])cc7F)c7nc(c(-c8c(F)cc(S(=O)(=O)[O-])cc8F)c8ccc5[nH]8)C=C7)C=C6)cc4)c3)cc2)C(=O)NC1=S
REMARK SMILES IDX 23 1 22 2 20 3 21 4 19 5 15 6 16 7 97 8 17 9 18 10 14 11
REMARK SMILES IDX 13 12 12 13 9 14 10 15 99 16 11 17 98 18 8 19 4 20 5 21
REMARK SMILES IDX 103 22 6 23 7 24 102 25 104 26 100 27 101 29 3 30 2 31 1 32
REMARK SMILES IDX 24 33 25 34 26 35 27 36 28 37 29 38 30 39 31 40 32 41 96 42
REMARK SMILES IDX 33 43 95 44 34 45 35 46 36 47 89 48 37 49 94 50 88 51 90 52
REMARK SMILES IDX 38 53 93 54 87 55 86 56 39 58 73 59 52 60 72 61 53 62 56 63
REMARK SMILES IDX 71 64 91 65 54 66 55 67 70 69 92 70 57 71 40 72 41 73 50 74
REMARK SMILES IDX 42 75 43 76 49 77 51 78 44 79 45 80 46 81 47 82 48 83 74 84
REMARK SMILES IDX 75 85 84 86 76 87 77 88 83 89 85 90 78 91 79 92 80 93 81 94
REMARK SMILES IDX 82 95 58 96 59 97 68 98 60 99 61 100 67 101 69 102 62 103
REMARK SMILES IDX 63 104 64 105 65 106 66 107
REMARK H PARENT 102 28 90 57 56 68
REMARK Flexibility Score: inf
ROOT
ATOM      1  C   UNL A   1      42.880  22.569  28.026  1.00  0.00     0.261 C 
ENDROOT
BRANCH   1   2
ATOM      2  O   UNL A   1      41.481  22.527  28.349  1.00  0.00    -0.460 OA
BRANCH   2   3
ATOM      3  C   UNL A   1      40.767  21.651  27.604  1.00  0.00     0.338 C 
ATOM      4  O   UNL A   1      40.870  20.433  27.613  1.00  0.00    -0.246 OA
BRANCH   3   5
ATOM      5  C   UNL A   1      39.679  22.341  26.870  1.00  0.00     0.060 A 
ATOM      6  C   UNL A   1      37.821  22.443  25.304  1.00  0.00    -0.010 A 
ATOM      7  C   UNL A   1      37.603  23.771  25.717  1.00  0.00     0.007 A 
ATOM      8  C   UNL A   1      38.884  21.729  25.887  1.00  0.00     0.023 A 
ATOM      9  C   UNL A   1      38.441  24.401  26.630  1.00  0.00     0.001 A 
ATOM     10  C   UNL A   1      39.474  23.684  27.212  1.00  0.00     0.016 A 
BRANCH   6  11
ATOM     11  C   UNL A   1      36.902  21.805  24.273  1.00  0.00     0.265 C 
BRANCH  11  12
ATOM     12  O   UNL A   1      35.593  21.466  24.750  1.00  0.00    -0.489 OA
BRANCH  12  13
ATOM     13  C   UNL A   1      34.517  22.166  24.282  1.00  0.00     0.119 A 
ATOM     14  C   UNL A   1      32.505  23.970  23.544  1.00  0.00    -0.024 A 
ATOM     15  C   UNL A   1      33.827  24.189  23.142  1.00  0.00     0.012 A 
ATOM     16  C   UNL A   1      32.176  22.786  24.198  1.00  0.00     0.012 A 
ATOM     17  C   UNL A   1      34.828  23.290  23.517  1.00  0.00     0.047 A 
ATOM     18  C   UNL A   1      33.178  21.868  24.525  1.00  0.00     0.047 A 
BRANCH  14  19
ATOM     19  C   UNL A   1      31.499  25.005  23.310  1.00  0.00     0.027 C 
ATOM     20  N   UNL A   1      30.791  28.410  23.956  1.00  0.00    -0.281 N 
ATOM     21  C   UNL A   1      30.415  27.123  23.571  1.00  0.00     0.265 C 
ATOM     22  C   UNL A   1      31.519  28.669  25.113  1.00  0.00     0.183 C 
ATOM     23  O   UNL A   1      29.500  26.876  22.788  1.00  0.00    -0.268 OA
ATOM     24  C   UNL A   1      31.258  26.044  24.133  1.00  0.00     0.106 C 
ATOM     25  N   UNL A   1      31.955  27.576  25.817  1.00  0.00    -0.298 N 
ATOM     26  S   UNL A   1      31.914  30.168  25.750  1.00  0.00    -0.040 S 
ATOM     27  C   UNL A   1      31.892  26.260  25.448  1.00  0.00     0.263 C 
ATOM     28  H   UNL A   1      32.364  27.760  26.695  1.00  0.00     0.172 HD
ATOM     29  O   UNL A   1      32.319  25.376  26.178  1.00  0.00    -0.269 OA
BRANCH  20  30
ATOM     30  C   UNL A   1      30.398  29.468  23.023  1.00  0.00     0.155 C 
BRANCH  30  31
ATOM     31  C   UNL A   1      29.182  30.203  23.502  1.00  0.00    -0.013 C 
ATOM     32  C   UNL A   1      27.934  29.890  23.125  1.00  0.00     0.006 C 
ENDBRANCH  30  31
ENDBRANCH  20  30
ENDBRANCH  14  19
ENDBRANCH  12  13
ENDBRANCH  11  12
ENDBRANCH   6  11
ENDBRANCH   3   5
ENDBRANCH   2   3
ENDBRANCH   1   2
BRANCH   1  33
ATOM     33  C   UNL A   1      43.132  22.236  26.553  1.00  0.00     0.202 C 
BRANCH  33  34
ATOM     34  O   UNL A   1      44.486  22.234  26.100  1.00  0.00    -0.374 OA
BRANCH  34  35
ATOM     35  C   UNL A   1      44.995  23.442  25.533  1.00  0.00     0.202 C 
BRANCH  35  36
ATOM     36  C   UNL A   1      43.996  24.393  24.861  1.00  0.00     0.261 C 
BRANCH  36  37
ATOM     37  O   UNL A   1      43.878  25.653  25.544  1.00  0.00    -0.460 OA
BRANCH  37  38
ATOM     38  C   UNL A   1      42.609  26.081  25.742  1.00  0.00     0.338 C 
ATOM     39  O   UNL A   1      41.634  25.855  25.037  1.00  0.00    -0.246 OA
BRANCH  38  40
ATOM     40  C   UNL A   1      42.505  26.724  27.064  1.00  0.00     0.060 A 
ATOM     41  C   UNL A   1      41.623  26.165  27.999  1.00  0.00     0.016 A 
ATOM     42  C   UNL A   1      43.221  27.882  27.367  1.00  0.00     0.016 A 
ATOM     43  C   UNL A   1      41.430  26.783  29.232  1.00  0.00     0.010 A 
ATOM     44  C   UNL A   1      43.018  28.507  28.602  1.00  0.00     0.010 A 
ATOM     45  C   UNL A   1      42.102  27.976  29.529  1.00  0.00    -0.014 A 
BRANCH  45  46
ATOM     46  C   UNL A   1      41.764  28.732  30.760  1.00  0.00     0.031 A 
ATOM     47  C   UNL A   1      40.582  29.662  30.745  1.00  0.00     0.074 A 
ATOM     48  C   UNL A   1      42.502  28.589  31.875  1.00  0.00     0.049 A 
ATOM     49  N   UNL A   1      40.148  30.464  31.681  1.00  0.00    -0.248 NA
ATOM     50  C   UNL A   1      39.787  29.695  29.508  1.00  0.00     0.031 C 
ATOM     51  C   UNL A   1      43.649  27.693  32.018  1.00  0.00     0.029 A 
ATOM     52  N   UNL A   1      42.402  29.205  33.097  1.00  0.00    -0.354 N 
ATOM     53  C   UNL A   1      39.037  31.107  31.146  1.00  0.00     0.074 A 
ATOM     54  C   UNL A   1      38.884  30.623  29.791  1.00  0.00     0.031 C 
ATOM     55  C   UNL A   1      44.155  27.827  33.255  1.00  0.00     0.029 A 
ATOM     56  C   UNL A   1      43.393  28.844  33.978  1.00  0.00     0.049 A 
ATOM     57  H   UNL A   1      41.689  29.845  33.321  1.00  0.00     0.167 HD
ATOM     58  C   UNL A   1      38.218  32.011  31.733  1.00  0.00     0.037 A 
ATOM     59  C   UNL A   1      43.668  29.299  35.216  1.00  0.00     0.037 A 
ATOM     60  C   UNL A   1      38.382  32.487  33.083  1.00  0.00     0.049 A 
ATOM     61  C   UNL A   1      42.781  30.352  35.828  1.00  0.00     0.074 A 
ATOM     62  C   UNL A   1      37.592  33.387  33.779  1.00  0.00     0.029 A 
ATOM     63  N   UNL A   1      39.406  32.111  33.939  1.00  0.00    -0.354 N 
ATOM     64  N   UNL A   1      41.719  30.935  35.319  1.00  0.00    -0.248 NA
ATOM     65  C   UNL A   1      43.124  30.809  37.182  1.00  0.00     0.031 C 
ATOM     66  C   UNL A   1      38.173  33.598  35.033  1.00  0.00     0.029 A 
ATOM     67  C   UNL A   1      39.287  32.780  35.146  1.00  0.00     0.049 A 
ATOM     68  H   UNL A   1      40.116  31.463  33.721  1.00  0.00     0.167 HD
ATOM     69  C   UNL A   1      41.248  31.798  36.304  1.00  0.00     0.074 A 
ATOM     70  C   UNL A   1      42.139  31.659  37.439  1.00  0.00     0.031 C 
ATOM     71  C   UNL A   1      40.173  32.624  36.274  1.00  0.00     0.037 A 
BRANCH  58  72
ATOM     72  C   UNL A   1      37.088  32.569  30.910  1.00  0.00     0.058 A 
ATOM     73  C   UNL A   1      37.255  33.695  30.087  1.00  0.00     0.135 A 
ATOM     74  C   UNL A   1      35.828  31.950  30.921  1.00  0.00     0.135 A 
ATOM     75  F   UNL A   1      38.433  34.337  30.049  1.00  0.00    -0.206 F 
ATOM     76  C   UNL A   1      36.205  34.204  29.329  1.00  0.00     0.059 A 
ATOM     77  C   UNL A   1      34.772  32.423  30.147  1.00  0.00     0.059 A 
ATOM     78  F   UNL A   1      35.611  30.871  31.690  1.00  0.00    -0.206 F 
ATOM     79  C   UNL A   1      34.966  33.560  29.366  1.00  0.00     0.060 A 
BRANCH  79  80
ATOM     80  S   UNL A   1      33.614  34.234  28.378  1.00  0.00     0.124 S 
ATOM     81  O   UNL A   1      34.304  35.260  27.601  1.00  0.00    -0.237 OA
ATOM     82  O   UNL A   1      33.166  33.066  27.626  1.00  0.00    -0.237 OA
ATOM     83  O   UNL A   1      32.676  34.731  29.378  1.00  0.00    -0.744 OA
ENDBRANCH  79  80
ENDBRANCH  58  72
BRANCH  59  84
ATOM     84  C   UNL A   1      44.841  28.764  35.959  1.00  0.00     0.058 A 
ATOM     85  C   UNL A   1      44.713  27.663  36.819  1.00  0.00     0.135 A 
ATOM     86  C   UNL A   1      46.115  29.335  35.814  1.00  0.00     0.135 A 
ATOM     87  F   UNL A   1      43.514  27.089  37.000  1.00  0.00    -0.206 F 
ATOM     88  C   UNL A   1      45.804  27.155  37.518  1.00  0.00     0.059 A 
ATOM     89  C   UNL A   1      47.225  28.827  36.481  1.00  0.00     0.059 A 
ATOM     90  F   UNL A   1      46.293  30.383  34.995  1.00  0.00    -0.206 F 
ATOM     91  C   UNL A   1      47.058  27.741  37.337  1.00  0.00     0.060 A 
BRANCH  91  92
ATOM     92  S   UNL A   1      48.475  27.037  38.207  1.00  0.00     0.124 S 
ATOM     93  O   UNL A   1      49.485  28.068  38.008  1.00  0.00    -0.237 OA
ATOM     94  O   UNL A   1      47.961  26.901  39.566  1.00  0.00    -0.237 OA
ATOM     95  O   UNL A   1      48.708  25.778  37.505  1.00  0.00    -0.744 OA
ENDBRANCH  91  92
ENDBRANCH  59  84
BRANCH  71  96
ATOM     96  C   UNL A   1      39.859  33.410  37.519  1.00  0.00     0.058 A 
ATOM     97  C   UNL A   1      40.459  34.651  37.788  1.00  0.00     0.135 A 
ATOM     98  C   UNL A   1      38.891  32.943  38.424  1.00  0.00     0.135 A 
ATOM     99  F   UNL A   1      41.395  35.142  36.960  1.00  0.00    -0.206 F 
ATOM    100  C   UNL A   1      40.127  35.388  38.920  1.00  0.00     0.059 A 
ATOM    101  C   UNL A   1      38.522  33.678  39.546  1.00  0.00     0.059 A 
ATOM    102  F   UNL A   1      38.278  31.768  38.211  1.00  0.00    -0.206 F 
ATOM    103  C   UNL A   1      39.154  34.896  39.791  1.00  0.00     0.060 A 
BRANCH 103 104
ATOM    104  S   UNL A   1      38.702  35.884  41.233  1.00  0.00     0.124 S 
ATOM    105  O   UNL A   1      37.415  35.300  41.598  1.00  0.00    -0.237 OA
ATOM    106  O   UNL A   1      39.803  35.615  42.152  1.00  0.00    -0.237 OA
ATOM    107  O   UNL A   1      38.647  37.246  40.710  1.00  0.00    -0.744 OA
ENDBRANCH 103 104
ENDBRANCH  71  96
ENDBRANCH  45  46
ENDBRANCH  38  40
ENDBRANCH  37  38
ENDBRANCH  36  37
ENDBRANCH  35  36
ENDBRANCH  34  35
ENDBRANCH  33  34
ENDBRANCH   1  33
TORSDOF 23
ENDMDL
MODEL 2
REMARK VINA RESULT:     -10.7      5.168     12.962
REMARK SMILES C=CCN1C(=O)/C(=C/c2ccc(OCc3cccc(C(=O)OCCOCCOC(=O)c4ccc(-c5c6nc(c(-c7c(F)cc(S(=O)(=O)[O-])cc7F)c7ccc([nH]7)c(-c7c(F)cc(S(=O)(=O)[O-])cc7F)c7nc(c(-c8c(F)cc(S(=O)(=O)[O-])cc8F)c8ccc5[nH]8)C=C7)C=C6)cc4)c3)cc2)C(=O)NC1=S
REMARK SMILES IDX 23 1 22 2 20 3 21 4 19 5 15 6 16 7 97 8 17 9 18 10 14 11
REMARK SMILES IDX 13 12 12 13 9 14 10 15 99 16 11 17 98 18 8 19 4 20 5 21
REMARK SMILES IDX 103 22 6 23 7 24 102 25 104 26 100 27 101 29 3 30 2 31 1 32
REMARK SMILES IDX 24 33 25 34 26 35 27 36 28 37 29 38 30 39 31 40 32 41 96 42
REMARK SMILES IDX 33 43 95 44 34 45 35 46 36 47 89 48 37 49 94 50 88 51 90 52
REMARK SMILES IDX 38 53 93 54 87 55 86 56 39 58 73 59 52 60 72 61 53 62 56 63
REMARK SMILES IDX 71 64 91 65 54 66 55 67 70 69 92 70 57 71 40 72 41 73 50 74
REMARK SMILES IDX 42 75 43 76 49 77 51 78 44 79 45 80 46 81 47 82 48 83 74 84
REMARK SMILES IDX 75 85 84 86 76 87 77 88 83 89 85 90 78 91 79 92 80 93 81 94
REMARK SMILES IDX 82 95 58 96 59 97 68 98 60 99 61 100 67 101 69 102 62 103
REMARK SMILES IDX 63 104 64 105 65 106 66 107
REMARK H PARENT 102 28 90 57 56 68
REMARK Flexibility Score: inf
ROOT
ATOM      1  C   UNL A   1      34.735  32.951  32.663  1.00  0.00     0.261 C 
ENDROOT
BRANCH   1   2
ATOM      2  O   UNL A   1      35.782  31.995  32.432  1.00  0.00    -0.460 OA
BRANCH   2   3
ATOM      3  C   UNL A   1      36.671  31.891  33.447  1.00  0.00     0.338 C 
ATOM      4  O   UNL A   1      36.685  32.553  34.474  1.00  0.00    -0.246 OA
BRANCH   3   5
ATOM      5  C   UNL A   1      37.565  30.723  33.254  1.00  0.00     0.060 A 
ATOM      6  C   UNL A   1      39.641  29.489  33.537  1.00  0.00    -0.010 A 
ATOM      7  C   UNL A   1      39.019  28.387  32.919  1.00  0.00     0.007 A 
ATOM      8  C   UNL A   1      38.898  30.673  33.692  1.00  0.00     0.023 A 
ATOM      9  C   UNL A   1      37.726  28.465  32.413  1.00  0.00     0.001 A 
ATOM     10  C   UNL A   1      36.996  29.629  32.588  1.00  0.00     0.016 A 
BRANCH   6  11
ATOM     11  C   UNL A   1      41.071  29.372  34.042  1.00  0.00     0.265 C 
BRANCH  11  12
ATOM     12  O   UNL A   1      41.281  28.380  35.056  1.00  0.00    -0.489 OA
BRANCH  12  13
ATOM     13  C   UNL A   1      42.023  27.273  34.755  1.00  0.00     0.119 A 
ATOM     14  C   UNL A   1      43.604  24.965  34.603  1.00  0.00    -0.024 A 
ATOM     15  C   UNL A   1      42.382  24.936  35.284  1.00  0.00     0.012 A 
ATOM     16  C   UNL A   1      43.965  26.107  33.893  1.00  0.00     0.012 A 
ATOM     17  C   UNL A   1      41.599  26.091  35.362  1.00  0.00     0.047 A 
ATOM     18  C   UNL A   1      43.151  27.242  33.936  1.00  0.00     0.047 A 
BRANCH  14  19
ATOM     19  C   UNL A   1      44.501  23.814  34.684  1.00  0.00     0.027 C 
ATOM     20  N   UNL A   1      45.977  21.577  36.992  1.00  0.00    -0.281 N 
ATOM     21  C   UNL A   1      45.892  22.173  35.734  1.00  0.00     0.265 C 
ATOM     22  C   UNL A   1      45.992  22.310  38.175  1.00  0.00     0.183 C 
ATOM     23  O   UNL A   1      46.226  21.624  34.686  1.00  0.00    -0.268 OA
ATOM     24  C   UNL A   1      45.292  23.526  35.736  1.00  0.00     0.106 C 
ATOM     25  N   UNL A   1      45.806  23.663  38.057  1.00  0.00    -0.298 N 
ATOM     26  S   UNL A   1      46.224  21.725  39.729  1.00  0.00    -0.040 S 
ATOM     27  C   UNL A   1      45.460  24.368  36.936  1.00  0.00     0.263 C 
ATOM     28  H   UNL A   1      45.937  24.193  38.878  1.00  0.00     0.172 HD
ATOM     29  O   UNL A   1      45.329  25.584  36.967  1.00  0.00    -0.269 OA
BRANCH  20  30
ATOM     30  C   UNL A   1      46.004  20.112  36.976  1.00  0.00     0.155 C 
BRANCH  30  31
ATOM     31  C   UNL A   1      47.331  19.580  37.429  1.00  0.00    -0.013 C 
ATOM     32  C   UNL A   1      48.503  20.007  36.939  1.00  0.00     0.006 C 
ENDBRANCH  30  31
ENDBRANCH  20  30
ENDBRANCH  14  19
ENDBRANCH  12  13
ENDBRANCH  11  12
ENDBRANCH   6  11
ENDBRANCH   3   5
ENDBRANCH   2   3
ENDBRANCH   1   2
BRANCH   1  33
ATOM     33  C   UNL A   1      34.633  33.968  31.523  1.00  0.00     0.202 C 
BRANCH  33  34
ATOM     34  O   UNL A   1      34.922  33.509  30.203  1.00  0.00    -0.374 OA
BRANCH  34  35
ATOM     35  C   UNL A   1      34.053  33.934  29.151  1.00  0.00     0.202 C 
BRANCH  35  36
ATOM     36  C   UNL A   1      33.658  32.900  28.089  1.00  0.00     0.261 C 
BRANCH  36  37
ATOM     37  O   UNL A   1      34.786  32.179  27.564  1.00  0.00    -0.460 OA
BRANCH  37  38
ATOM     38  C   UNL A   1      34.660  30.831  27.577  1.00  0.00     0.338 C 
ATOM     39  O   UNL A   1      33.680  30.175  27.248  1.00  0.00    -0.246 OA
BRANCH  38  40
ATOM     40  C   UNL A   1      35.968  30.217  27.871  1.00  0.00     0.060 A 
ATOM     41  C   UNL A   1      36.137  29.596  29.116  1.00  0.00     0.016 A 
ATOM     42  C   UNL A   1      37.025  30.291  26.964  1.00  0.00     0.016 A 
ATOM     43  C   UNL A   1      37.379  29.074  29.471  1.00  0.00     0.010 A 
ATOM     44  C   UNL A   1      38.274  29.775  27.328  1.00  0.00     0.010 A 
ATOM     45  C   UNL A   1      38.463  29.188  28.593  1.00  0.00    -0.014 A 
BRANCH  45  46
ATOM     46  C   UNL A   1      39.824  28.800  29.038  1.00  0.00     0.031 A 
ATOM     47  C   UNL A   1      40.647  29.786  29.821  1.00  0.00     0.074 A 
ATOM     48  C   UNL A   1      40.317  27.583  28.748  1.00  0.00     0.049 A 
ATOM     49  N   UNL A   1      41.877  29.681  30.251  1.00  0.00    -0.248 NA
ATOM     50  C   UNL A   1      39.997  31.062  30.159  1.00  0.00     0.031 C 
ATOM     51  C   UNL A   1      39.600  26.533  28.024  1.00  0.00     0.029 A 
ATOM     52  N   UNL A   1      41.543  27.028  29.017  1.00  0.00    -0.354 N 
ATOM     53  C   UNL A   1      42.155  30.878  30.900  1.00  0.00     0.074 A 
ATOM     54  C   UNL A   1      40.974  31.707  30.780  1.00  0.00     0.031 C 
ATOM     55  C   UNL A   1      40.405  25.465  27.896  1.00  0.00     0.029 A 
ATOM     56  C   UNL A   1      41.704  25.768  28.494  1.00  0.00     0.049 A 
ATOM     57  H   UNL A   1      42.241  27.490  29.536  1.00  0.00     0.167 HD
ATOM     58  C   UNL A   1      43.288  31.249  31.544  1.00  0.00     0.037 A 
ATOM     59  C   UNL A   1      42.783  24.961  28.478  1.00  0.00     0.037 A 
ATOM     60  C   UNL A   1      44.458  30.416  31.655  1.00  0.00     0.049 A 
ATOM     61  C   UNL A   1      44.055  25.419  29.144  1.00  0.00     0.074 A 
ATOM     62  C   UNL A   1      45.650  30.691  32.305  1.00  0.00     0.029 A 
ATOM     63  N   UNL A   1      44.590  29.153  31.099  1.00  0.00    -0.354 N 
ATOM     64  N   UNL A   1      44.297  26.544  29.776  1.00  0.00    -0.248 NA
ATOM     65  C   UNL A   1      45.199  24.498  29.101  1.00  0.00     0.031 C 
ATOM     66  C   UNL A   1      46.520  29.618  32.091  1.00  0.00     0.029 A 
ATOM     67  C   UNL A   1      45.851  28.644  31.366  1.00  0.00     0.049 A 
ATOM     68  H   UNL A   1      43.889  28.684  30.588  1.00  0.00     0.167 HD
ATOM     69  C   UNL A   1      45.608  26.450  30.235  1.00  0.00     0.074 A 
ATOM     70  C   UNL A   1      46.105  25.157  29.812  1.00  0.00     0.031 C 
ATOM     71  C   UNL A   1      46.330  27.349  30.949  1.00  0.00     0.037 A 
BRANCH  58  72
ATOM     72  C   UNL A   1      43.329  32.626  32.150  1.00  0.00     0.058 A 
ATOM     73  C   UNL A   1      42.974  32.859  33.488  1.00  0.00     0.135 A 
ATOM     74  C   UNL A   1      43.761  33.724  31.388  1.00  0.00     0.135 A 
ATOM     75  F   UNL A   1      42.538  31.849  34.259  1.00  0.00    -0.206 F 
ATOM     76  C   UNL A   1      43.015  34.135  34.040  1.00  0.00     0.059 A 
ATOM     77  C   UNL A   1      43.840  35.005  31.928  1.00  0.00     0.059 A 
ATOM     78  F   UNL A   1      44.112  33.560  30.103  1.00  0.00    -0.206 F 
ATOM     79  C   UNL A   1      43.450  35.203  33.251  1.00  0.00     0.060 A 
BRANCH  79  80
ATOM     80  S   UNL A   1      43.497  36.853  33.982  1.00  0.00     0.124 S 
ATOM     81  O   UNL A   1      43.457  37.699  32.793  1.00  0.00    -0.237 OA
ATOM     82  O   UNL A   1      42.293  36.862  34.807  1.00  0.00    -0.237 OA
ATOM     83  O   UNL A   1      44.757  36.864  34.717  1.00  0.00    -0.744 OA
ENDBRANCH  79  80
ENDBRANCH  58  72
BRANCH  59  84
ATOM     84  C   UNL A   1      42.710  23.638  27.802  1.00  0.00     0.058 A 
ATOM     85  C   UNL A   1      43.044  23.496  26.447  1.00  0.00     0.135 A 
ATOM     86  C   UNL A   1      42.316  22.486  28.502  1.00  0.00     0.135 A 
ATOM     87  F   UNL A   1      43.416  24.568  25.732  1.00  0.00    -0.206 F 
ATOM     88  C   UNL A   1      42.979  22.262  25.807  1.00  0.00     0.059 A 
ATOM     89  C   UNL A   1      42.270  21.237  27.890  1.00  0.00     0.059 A 
ATOM     90  F   UNL A   1      41.996  22.565  29.803  1.00  0.00    -0.206 F 
ATOM     91  C   UNL A   1      42.596  21.137  26.539  1.00  0.00     0.060 A 
BRANCH  91  92
ATOM     92  S   UNL A   1      42.570  19.533  25.710  1.00  0.00     0.124 S 
ATOM     93  O   UNL A   1      41.153  19.381  25.407  1.00  0.00    -0.237 OA
ATOM     94  O   UNL A   1      43.447  19.767  24.567  1.00  0.00    -0.237 OA
ATOM     95  O   UNL A   1      43.102  18.623  26.722  1.00  0.00    -0.744 OA
ENDBRANCH  91  92
ENDBRANCH  59  84
BRANCH  71  96
ATOM     96  C   UNL A   1      47.722  26.956  31.367  1.00  0.00     0.058 A 
ATOM     97  C   UNL A   1      47.962  26.148  32.490  1.00  0.00     0.135 A 
ATOM     98  C   UNL A   1      48.828  27.341  30.591  1.00  0.00     0.135 A 
ATOM     99  F   UNL A   1      46.943  25.755  33.270  1.00  0.00    -0.206 F 
ATOM    100  C   UNL A   1      49.250  25.755  32.840  1.00  0.00     0.059 A 
ATOM    101  C   UNL A   1      50.121  26.934  30.905  1.00  0.00     0.059 A 
ATOM    102  F   UNL A   1      48.656  28.105  29.501  1.00  0.00    -0.206 F 
ATOM    103  C   UNL A   1      50.323  26.148  32.039  1.00  0.00     0.060 A 
BRANCH 103 104
ATOM    104  S   UNL A   1      51.983  25.595  32.481  1.00  0.00     0.124 S 
ATOM    105  O   UNL A   1      52.657  25.622  31.186  1.00  0.00    -0.237 OA
ATOM    106  O   UNL A   1      52.407  26.612  33.437  1.00  0.00    -0.237 OA
ATOM    107  O   UNL A   1      51.761  24.266  33.044  1.00  0.00    -0.744 OA
ENDBRANCH 103 104
ENDBRANCH  71  96
ENDBRANCH  45  46
ENDBRANCH  38  40
ENDBRANCH  37  38
ENDBRANCH  36  37
ENDBRANCH  35  36
ENDBRANCH  34  35
ENDBRANCH  33  34
ENDBRANCH   1  33
TORSDOF 23
ENDMDL
MODEL 3
REMARK VINA RESULT:     -10.2      1.266      2.612
REMARK SMILES C=CCN1C(=O)/C(=C/c2ccc(OCc3cccc(C(=O)OCCOCCOC(=O)c4ccc(-c5c6nc(c(-c7c(F)cc(S(=O)(=O)[O-])cc7F)c7ccc([nH]7)c(-c7c(F)cc(S(=O)(=O)[O-])cc7F)c7nc(c(-c8c(F)cc(S(=O)(=O)[O-])cc8F)c8ccc5[nH]8)C=C7)C=C6)cc4)c3)cc2)C(=O)NC1=S
REMARK SMILES IDX 23 1 22 2 20 3 21 4 19 5 15 6 16 7 97 8 17 9 18 10 14 11
REMARK SMILES IDX 13 12 12 13 9 14 10 15 99 16 11 17 98 18 8 19 4 20 5 21
REMARK SMILES IDX 103 22 6 23 7 24 102 25 104 26 100 27 101 29 3 30 2 31 1 32
REMARK SMILES IDX 24 33 25 34 26 35 27 36 28 37 29 38 30 39 31 40 32 41 96 42
REMARK SMILES IDX 33 43 95 44 34 45 35 46 36 47 89 48 37 49 94 50 88 51 90 52
REMARK SMILES IDX 38 53 93 54 87 55 86 56 39 58 73 59 52 60 72 61 53 62 56 63
REMARK SMILES IDX 71 64 91 65 54 66 55 67 70 69 92 70 57 71 40 72 41 73 50 74
REMARK SMILES IDX 42 75 43 76 49 77 51 78 44 79 45 80 46 81 47 82 48 83 74 84
REMARK SMILES IDX 75 85 84 86 76 87 77 88 83 89 85 90 78 91 79 92 80 93 81 94
REMARK SMILES IDX 82 95 58 96 59 97 68 98 60 99 61 100 67 101 69 102 62 103
REMARK SMILES IDX 63 104 64 105 65 106 66 107
REMARK H PARENT 102 28 90 57 56 68
REMARK Flexibility Score: inf
ROOT
ATOM      1  C   UNL A   1      38.632  21.737  25.749  1.00  0.00     0.261 C 
ENDROOT
BRANCH   1   2
ATOM      2  O   UNL A   1      37.895  22.967  25.828  1.00  0.00    -0.460 OA
BRANCH   2   3
ATOM      3  C   UNL A   1      36.948  23.107  24.871  1.00  0.00     0.338 C 
ATOM      4  O   UNL A   1      37.083  23.656  23.788  1.00  0.00    -0.246 OA
BRANCH   3   5
ATOM      5  C   UNL A   1      35.725  22.343  25.217  1.00  0.00     0.060 A 
ATOM      6  C   UNL A   1      33.829  20.906  24.711  1.00  0.00    -0.010 A 
ATOM      7  C   UNL A   1      33.558  20.852  26.092  1.00  0.00     0.007 A 
ATOM      8  C   UNL A   1      34.924  21.674  24.277  1.00  0.00     0.023 A 
ATOM      9  C   UNL A   1      34.302  21.581  27.013  1.00  0.00     0.001 A 
ATOM     10  C   UNL A   1      35.390  22.319  26.577  1.00  0.00     0.016 A 
BRANCH   6  11
ATOM     11  C   UNL A   1      32.965  20.122  23.734  1.00  0.00     0.265 C 
BRANCH  11  12
ATOM     12  O   UNL A   1      32.156  20.921  22.860  1.00  0.00    -0.489 OA
BRANCH  12  13
ATOM     13  C   UNL A   1      32.130  22.275  23.038  1.00  0.00     0.119 A 
ATOM     14  C   UNL A   1      32.538  25.009  23.493  1.00  0.00    -0.024 A 
ATOM     15  C   UNL A   1      33.219  24.360  22.457  1.00  0.00     0.012 A 
ATOM     16  C   UNL A   1      31.562  24.320  24.208  1.00  0.00     0.012 A 
ATOM     17  C   UNL A   1      33.016  22.996  22.237  1.00  0.00     0.047 A 
ATOM     18  C   UNL A   1      31.332  22.966  23.947  1.00  0.00     0.047 A 
BRANCH  14  19
ATOM     19  C   UNL A   1      32.891  26.386  23.837  1.00  0.00     0.027 C 
ATOM     20  N   UNL A   1      31.485  29.594  24.321  1.00  0.00    -0.281 N 
ATOM     21  C   UNL A   1      32.568  28.741  24.109  1.00  0.00     0.265 C 
ATOM     22  C   UNL A   1      30.328  29.551  23.549  1.00  0.00     0.183 C 
ATOM     23  O   UNL A   1      33.710  28.965  24.504  1.00  0.00    -0.268 OA
ATOM     24  C   UNL A   1      32.227  27.479  23.415  1.00  0.00     0.106 C 
ATOM     25  N   UNL A   1      30.249  28.541  22.623  1.00  0.00    -0.298 N 
ATOM     26  S   UNL A   1      29.022  30.600  23.615  1.00  0.00    -0.040 S 
ATOM     27  C   UNL A   1      31.100  27.482  22.463  1.00  0.00     0.263 C 
ATOM     28  H   UNL A   1      29.488  28.583  21.999  1.00  0.00     0.172 HD
ATOM     29  O   UNL A   1      30.915  26.648  21.588  1.00  0.00    -0.269 OA
BRANCH  20  30
ATOM     30  C   UNL A   1      31.640  30.514  25.450  1.00  0.00     0.155 C 
BRANCH  30  31
ATOM     31  C   UNL A   1      32.198  29.819  26.655  1.00  0.00    -0.013 C 
ATOM     32  C   UNL A   1      31.549  28.849  27.314  1.00  0.00     0.006 C 
ENDBRANCH  30  31
ENDBRANCH  20  30
ENDBRANCH  14  19
ENDBRANCH  12  13
ENDBRANCH  11  12
ENDBRANCH   6  11
ENDBRANCH   3   5
ENDBRANCH   2   3
ENDBRANCH   1   2
BRANCH   1  33
ATOM     33  C   UNL A   1      39.776  21.694  26.767  1.00  0.00     0.202 C 
BRANCH  33  34
ATOM     34  O   UNL A   1      41.073  21.341  26.287  1.00  0.00    -0.374 OA
BRANCH  34  35
ATOM     35  C   UNL A   1      42.157  22.213  26.610  1.00  0.00     0.202 C 
BRANCH  35  36
ATOM     36  C   UNL A   1      42.306  23.501  25.790  1.00  0.00     0.261 C 
BRANCH  36  37
ATOM     37  O   UNL A   1      41.413  24.543  26.219  1.00  0.00    -0.460 OA
BRANCH  37  38
ATOM     38  C   UNL A   1      41.882  25.803  26.053  1.00  0.00     0.338 C 
ATOM     39  O   UNL A   1      42.151  26.360  24.997  1.00  0.00    -0.246 OA
BRANCH  38  40
ATOM     40  C   UNL A   1      41.849  26.515  27.344  1.00  0.00     0.060 A 
ATOM     41  C   UNL A   1      40.960  26.057  28.325  1.00  0.00     0.016 A 
ATOM     42  C   UNL A   1      42.641  27.641  27.572  1.00  0.00     0.016 A 
ATOM     43  C   UNL A   1      40.835  26.746  29.529  1.00  0.00     0.010 A 
ATOM     44  C   UNL A   1      42.506  28.337  28.778  1.00  0.00     0.010 A 
ATOM     45  C   UNL A   1      41.583  27.908  29.751  1.00  0.00    -0.014 A 
BRANCH  45  46
ATOM     46  C   UNL A   1      41.322  28.744  30.948  1.00  0.00     0.031 A 
ATOM     47  C   UNL A   1      40.217  29.763  30.902  1.00  0.00     0.074 A 
ATOM     48  C   UNL A   1      42.060  28.592  32.062  1.00  0.00     0.049 A 
ATOM     49  N   UNL A   1      39.860  30.638  31.805  1.00  0.00    -0.248 NA
ATOM     50  C   UNL A   1      39.412  29.804  29.672  1.00  0.00     0.031 C 
ATOM     51  C   UNL A   1      43.134  27.615  32.235  1.00  0.00     0.029 A 
ATOM     52  N   UNL A   1      42.025  29.268  33.256  1.00  0.00    -0.354 N 
ATOM     53  C   UNL A   1      38.797  31.342  31.251  1.00  0.00     0.074 A 
ATOM     54  C   UNL A   1      38.588  30.812  29.920  1.00  0.00     0.031 C 
ATOM     55  C   UNL A   1      43.665  27.763  33.460  1.00  0.00     0.029 A 
ATOM     56  C   UNL A   1      42.995  28.869  34.144  1.00  0.00     0.049 A 
ATOM     57  H   UNL A   1      41.367  29.972  33.457  1.00  0.00     0.167 HD
ATOM     58  C   UNL A   1      38.059  32.334  31.804  1.00  0.00     0.037 A 
ATOM     59  C   UNL A   1      43.321  29.355  35.357  1.00  0.00     0.037 A 
ATOM     60  C   UNL A   1      38.277  32.856  33.130  1.00  0.00     0.049 A 
ATOM     61  C   UNL A   1      42.527  30.502  35.928  1.00  0.00     0.074 A 
ATOM     62  C   UNL A   1      37.570  33.846  33.790  1.00  0.00     0.029 A 
ATOM     63  N   UNL A   1      39.279  32.437  33.992  1.00  0.00    -0.354 N 
ATOM     64  N   UNL A   1      41.509  31.144  35.403  1.00  0.00    -0.248 NA
ATOM     65  C   UNL A   1      42.922  30.990  37.257  1.00  0.00     0.031 C 
ATOM     66  C   UNL A   1      38.181  34.065  35.028  1.00  0.00     0.029 A 
ATOM     67  C   UNL A   1      39.228  33.167  35.169  1.00  0.00     0.049 A 
ATOM     68  H   UNL A   1      39.932  31.726  33.797  1.00  0.00     0.167 HD
ATOM     69  C   UNL A   1      41.120  32.085  36.352  1.00  0.00     0.074 A 
ATOM     70  C   UNL A   1      42.011  31.926  37.484  1.00  0.00     0.031 C 
ATOM     71  C   UNL A   1      40.113  32.992  36.294  1.00  0.00     0.037 A 
BRANCH  58  72
ATOM     72  C   UNL A   1      36.966  32.944  30.966  1.00  0.00     0.058 A 
ATOM     73  C   UNL A   1      35.613  32.629  31.167  1.00  0.00     0.135 A 
ATOM     74  C   UNL A   1      37.277  33.880  29.967  1.00  0.00     0.135 A 
ATOM     75  F   UNL A   1      35.259  31.728  32.098  1.00  0.00    -0.206 F 
ATOM     76  C   UNL A   1      34.610  33.197  30.389  1.00  0.00     0.059 A 
ATOM     77  C   UNL A   1      36.287  34.485  29.196  1.00  0.00     0.059 A 
ATOM     78  F   UNL A   1      38.554  34.218  29.730  1.00  0.00    -0.206 F 
ATOM     79  C   UNL A   1      34.958  34.124  29.404  1.00  0.00     0.060 A 
BRANCH  79  80
ATOM     80  S   UNL A   1      33.645  34.851  28.401  1.00  0.00     0.124 S 
ATOM     81  O   UNL A   1      33.771  36.267  28.739  1.00  0.00    -0.237 OA
ATOM     82  O   UNL A   1      34.048  34.485  27.047  1.00  0.00    -0.237 OA
ATOM     83  O   UNL A   1      32.438  34.195  28.893  1.00  0.00    -0.744 OA
ENDBRANCH  79  80
ENDBRANCH  58  72
BRANCH  59  84
ATOM     84  C   UNL A   1      44.456  28.762  36.113  1.00  0.00     0.058 A 
ATOM     85  C   UNL A   1      44.267  27.659  36.958  1.00  0.00     0.135 A 
ATOM     86  C   UNL A   1      45.756  29.279  35.995  1.00  0.00     0.135 A 
ATOM     87  F   UNL A   1      43.042  27.134  37.113  1.00  0.00    -0.206 F 
ATOM     88  C   UNL A   1      45.323  27.096  37.669  1.00  0.00     0.059 A 
ATOM     89  C   UNL A   1      46.832  28.717  36.675  1.00  0.00     0.059 A 
ATOM     90  F   UNL A   1      45.993  30.328  35.192  1.00  0.00    -0.206 F 
ATOM     91  C   UNL A   1      46.604  27.630  37.516  1.00  0.00     0.060 A 
BRANCH  91  92
ATOM     92  S   UNL A   1      47.975  26.857  38.401  1.00  0.00     0.124 S 
ATOM     93  O   UNL A   1      47.357  25.631  38.890  1.00  0.00    -0.237 OA
ATOM     94  O   UNL A   1      48.967  26.693  37.342  1.00  0.00    -0.237 OA
ATOM     95  O   UNL A   1      48.316  27.845  39.421  1.00  0.00    -0.744 OA
ENDBRANCH  91  92
ENDBRANCH  59  84
BRANCH  71  96
ATOM     96  C   UNL A   1      39.878  33.855  37.505  1.00  0.00     0.058 A 
ATOM     97  C   UNL A   1      39.001  33.475  38.533  1.00  0.00     0.135 A 
ATOM     98  C   UNL A   1      40.594  35.053  37.667  1.00  0.00     0.135 A 
ATOM     99  F   UNL A   1      38.287  32.343  38.427  1.00  0.00    -0.206 F 
ATOM    100  C   UNL A   1      38.826  34.261  39.667  1.00  0.00     0.059 A 
ATOM    101  C   UNL A   1      40.458  35.839  38.807  1.00  0.00     0.059 A 
ATOM    102  F   UNL A   1      41.455  35.460  36.720  1.00  0.00    -0.206 F 
ATOM    103  C   UNL A   1      39.563  35.440  39.798  1.00  0.00     0.060 A 
BRANCH 103 104
ATOM    104  S   UNL A   1      39.358  36.428  41.295  1.00  0.00     0.124 S 
ATOM    105  O   UNL A   1      40.697  36.370  41.871  1.00  0.00    -0.237 OA
ATOM    106  O   UNL A   1      38.954  37.724  40.759  1.00  0.00    -0.237 OA
ATOM    107  O   UNL A   1      38.324  35.713  42.037  1.00  0.00    -0.744 OA
ENDBRANCH 103 104
ENDBRANCH  71  96
ENDBRANCH  45  46
ENDBRANCH  38  40
ENDBRANCH  37  38
ENDBRANCH  36  37
ENDBRANCH  35  36
ENDBRANCH  34  35
ENDBRANCH  33  34
ENDBRANCH   1  33
TORSDOF 23
ENDMDL
