MODEL 1
REMARK VINA RESULT:     -10.2      0.000      0.000
REMARK SMILES O=C(OCCOCCOC(=O)[C@H]1CCC[N@@H+]1CCn1ccnc1)c1ccc(-c2c3nc(c(-c4c(F)cc(S(=O)(=O)[O-])cc4F)c4ccc([nH]4)c(-c4c(F)cc(S(=O)(=O)[O-])cc4F)c4nc(c(-c5c(F)cc(S(=O)(=O)[O-])cc5F)c5ccc2[nH]5)C=C4)C=C3)cc1
REMARK SMILES IDX 6 1 5 2 4 3 3 4 2 5 1 6 24 7 25 8 89 9 26 10 88 11 27 12
REMARK SMILES IDX 28 13 29 14 82 15 30 16 87 17 81 18 83 19 31 20 86 21 80 22
REMARK SMILES IDX 79 23 32 25 66 26 45 27 65 28 46 29 49 30 64 31 84 32 47 33
REMARK SMILES IDX 48 34 63 36 85 37 50 38 33 39 34 40 43 41 35 42 36 43 42 44
REMARK SMILES IDX 44 45 37 46 38 47 39 48 40 49 41 50 67 51 68 52 77 53 69 54
REMARK SMILES IDX 70 55 76 56 78 57 71 58 72 59 73 60 74 61 75 62 51 63 52 64
REMARK SMILES IDX 61 65 53 66 54 67 60 68 62 69 55 70 56 71 57 72 58 73 59 74
REMARK SMILES IDX 7 75 8 76 9 77 10 78 11 79 12 80 13 81 16 82 14 83 15 84
REMARK SMILES IDX 17 86 18 87 19 88 20 89 23 90 21 91 22 92
REMARK H PARENT 83 24 49 35 16 85
REMARK Flexibility Score: inf
ROOT
ATOM      1  O   UNL A   1      41.236  21.437  26.649  1.00  0.00    -0.374 OA
ENDROOT
BRANCH   1   2
ATOM      2  C   UNL A   1      41.290  20.016  26.676  1.00  0.00     0.202 C 
BRANCH   2   3
ATOM      3  C   UNL A   1      42.553  19.310  26.195  1.00  0.00     0.261 C 
BRANCH   3   4
ATOM      4  O   UNL A   1      43.108  19.818  24.968  1.00  0.00    -0.460 OA
BRANCH   4   5
ATOM      5  C   UNL A   1      44.303  20.431  24.843  1.00  0.00     0.338 C 
ATOM      6  O   UNL A   1      45.224  19.864  24.258  1.00  0.00    -0.246 OA
BRANCH   5   7
ATOM      7  C   UNL A   1      44.445  21.866  25.221  1.00  0.00     0.060 A 
ATOM      8  C   UNL A   1      45.307  22.347  26.201  1.00  0.00     0.016 A 
ATOM      9  C   UNL A   1      43.548  22.758  24.607  1.00  0.00     0.016 A 
ATOM     10  C   UNL A   1      45.112  23.601  26.741  1.00  0.00     0.010 A 
ATOM     11  C   UNL A   1      43.385  24.042  25.106  1.00  0.00     0.010 A 
ATOM     12  C   UNL A   1      44.096  24.410  26.240  1.00  0.00    -0.014 A 
BRANCH  12  13
ATOM     13  C   UNL A   1      43.848  25.652  26.949  1.00  0.00     0.031 A 
ATOM     14  C   UNL A   1      44.884  26.697  26.730  1.00  0.00     0.074 A 
ATOM     15  C   UNL A   1      42.761  25.823  27.725  1.00  0.00     0.049 A 
ATOM     16  N   UNL A   1      45.717  27.189  27.586  1.00  0.00    -0.248 NA
ATOM     17  C   UNL A   1      45.133  27.121  25.343  1.00  0.00     0.031 C 
ATOM     18  C   UNL A   1      41.574  24.969  27.842  1.00  0.00     0.029 A 
ATOM     19  N   UNL A   1      42.451  26.875  28.525  1.00  0.00    -0.354 N 
ATOM     20  C   UNL A   1      46.462  28.141  26.893  1.00  0.00     0.074 A 
ATOM     21  C   UNL A   1      46.173  27.943  25.497  1.00  0.00     0.031 C 
ATOM     22  C   UNL A   1      40.586  25.662  28.453  1.00  0.00     0.029 A 
ATOM     23  C   UNL A   1      41.116  26.937  28.902  1.00  0.00     0.049 A 
ATOM     24  H   UNL A   1      43.118  27.539  28.814  1.00  0.00     0.167 HD
ATOM     25  C   UNL A   1      47.098  29.159  27.537  1.00  0.00     0.037 A 
ATOM     26  C   UNL A   1      40.493  28.003  29.464  1.00  0.00     0.037 A 
ATOM     27  C   UNL A   1      47.272  28.866  28.934  1.00  0.00     0.049 A 
ATOM     28  C   UNL A   1      41.557  28.851  30.070  1.00  0.00     0.074 A 
ATOM     29  C   UNL A   1      47.961  27.900  29.641  1.00  0.00     0.029 A 
ATOM     30  N   UNL A   1      46.382  29.419  29.822  1.00  0.00    -0.354 N 
ATOM     31  N   UNL A   1      42.297  28.472  31.081  1.00  0.00    -0.248 NA
ATOM     32  C   UNL A   1      42.125  29.911  29.248  1.00  0.00     0.031 C 
ATOM     33  C   UNL A   1      47.120  27.586  30.747  1.00  0.00     0.029 A 
ATOM     34  C   UNL A   1      46.004  28.424  30.687  1.00  0.00     0.049 A 
ATOM     35  H   UNL A   1      46.072  30.354  29.835  1.00  0.00     0.167 HD
ATOM     36  C   UNL A   1      43.572  28.937  30.787  1.00  0.00     0.074 A 
ATOM     37  C   UNL A   1      43.390  29.871  29.678  1.00  0.00     0.031 C 
ATOM     38  C   UNL A   1      44.687  28.320  31.275  1.00  0.00     0.037 A 
BRANCH  25  39
ATOM     39  C   UNL A   1      47.237  30.556  26.982  1.00  0.00     0.058 A 
ATOM     40  C   UNL A   1      48.492  31.198  27.027  1.00  0.00     0.135 A 
ATOM     41  C   UNL A   1      46.135  31.390  26.688  1.00  0.00     0.135 A 
ATOM     42  F   UNL A   1      49.608  30.502  27.296  1.00  0.00    -0.206 F 
ATOM     43  C   UNL A   1      48.629  32.579  26.878  1.00  0.00     0.059 A 
ATOM     44  C   UNL A   1      46.257  32.760  26.486  1.00  0.00     0.059 A 
ATOM     45  F   UNL A   1      44.876  30.938  26.681  1.00  0.00    -0.206 F 
ATOM     46  C   UNL A   1      47.500  33.352  26.629  1.00  0.00     0.060 A 
BRANCH  46  47
ATOM     47  S   UNL A   1      47.655  35.145  26.561  1.00  0.00     0.124 S 
ATOM     48  O   UNL A   1      48.302  35.333  25.270  1.00  0.00    -0.237 OA
ATOM     49  O   UNL A   1      46.266  35.573  26.653  1.00  0.00    -0.237 OA
ATOM     50  O   UNL A   1      48.479  35.453  27.731  1.00  0.00    -0.744 OA
ENDBRANCH  46  47
ENDBRANCH  25  39
BRANCH  26  51
ATOM     51  C   UNL A   1      39.140  28.521  29.119  1.00  0.00     0.058 A 
ATOM     52  C   UNL A   1      38.128  28.630  30.089  1.00  0.00     0.135 A 
ATOM     53  C   UNL A   1      38.895  29.176  27.893  1.00  0.00     0.135 A 
ATOM     54  F   UNL A   1      38.286  28.062  31.294  1.00  0.00    -0.206 F 
ATOM     55  C   UNL A   1      36.961  29.376  29.870  1.00  0.00     0.059 A 
ATOM     56  C   UNL A   1      37.738  29.915  27.650  1.00  0.00     0.059 A 
ATOM     57  F   UNL A   1      39.818  29.194  26.920  1.00  0.00    -0.206 F 
ATOM     58  C   UNL A   1      36.784  30.031  28.652  1.00  0.00     0.060 A 
BRANCH  58  59
ATOM     59  S   UNL A   1      35.362  31.126  28.422  1.00  0.00     0.124 S 
ATOM     60  O   UNL A   1      35.907  32.143  27.528  1.00  0.00    -0.237 OA
ATOM     61  O   UNL A   1      34.372  30.228  27.837  1.00  0.00    -0.237 OA
ATOM     62  O   UNL A   1      35.062  31.583  29.776  1.00  0.00    -0.744 OA
ENDBRANCH  58  59
ENDBRANCH  26  51
BRANCH  38  63
ATOM     63  C   UNL A   1      44.530  27.280  32.355  1.00  0.00     0.058 A 
ATOM     64  C   UNL A   1      44.338  27.575  33.716  1.00  0.00     0.135 A 
ATOM     65  C   UNL A   1      44.349  25.948  31.955  1.00  0.00     0.135 A 
ATOM     66  F   UNL A   1      44.401  28.837  34.164  1.00  0.00    -0.206 F 
ATOM     67  C   UNL A   1      43.992  26.585  34.640  1.00  0.00     0.059 A 
ATOM     68  C   UNL A   1      43.976  24.952  32.851  1.00  0.00     0.059 A 
ATOM     69  F   UNL A   1      44.459  25.616  30.658  1.00  0.00    -0.206 F 
ATOM     70  C   UNL A   1      43.801  25.276  34.194  1.00  0.00     0.060 A 
BRANCH  70  71
ATOM     71  S   UNL A   1      43.231  24.018  35.360  1.00  0.00     0.124 S 
ATOM     72  O   UNL A   1      41.791  24.251  35.383  1.00  0.00    -0.237 OA
ATOM     73  O   UNL A   1      43.662  22.776  34.724  1.00  0.00    -0.237 OA
ATOM     74  O   UNL A   1      43.937  24.351  36.595  1.00  0.00    -0.744 OA
ENDBRANCH  70  71
ENDBRANCH  38  63
ENDBRANCH  12  13
ENDBRANCH   5   7
ENDBRANCH   4   5
ENDBRANCH   3   4
ENDBRANCH   2   3
ENDBRANCH   1   2
BRANCH   1  75
ATOM     75  C   UNL A   1      40.005  22.061  26.270  1.00  0.00     0.202 C 
BRANCH  75  76
ATOM     76  C   UNL A   1      38.782  21.218  25.879  1.00  0.00     0.261 C 
BRANCH  76  77
ATOM     77  O   UNL A   1      37.600  21.991  25.615  1.00  0.00    -0.459 OA
BRANCH  77  78
ATOM     78  C   UNL A   1      36.561  21.254  25.131  1.00  0.00     0.364 C 
ATOM     79  O   UNL A   1      36.623  20.044  24.924  1.00  0.00    -0.245 OA
BRANCH  78  80
ATOM     80  C   UNL A   1      35.277  22.105  24.933  1.00  0.00     0.295 C 
ATOM     81  C   UNL A   1      34.126  21.125  24.778  1.00  0.00     0.083 C 
ATOM     82  N   UNL A   1      34.942  22.845  26.177  1.00  0.00    -0.322 N 
ATOM     83  C   UNL A   1      33.777  20.747  26.218  1.00  0.00     0.068 C 
ATOM     84  C   UNL A   1      34.355  21.859  27.089  1.00  0.00     0.263 C 
ATOM     85  H   UNL A   1      35.802  23.244  26.554  1.00  0.00     0.348 HD
BRANCH  82  86
ATOM     86  C   UNL A   1      34.171  24.094  26.043  1.00  0.00     0.285 C 
BRANCH  86  87
ATOM     87  C   UNL A   1      34.424  25.130  24.921  1.00  0.00     0.184 C 
BRANCH  87  88
ATOM     88  N   UNL A   1      33.612  26.328  24.944  1.00  0.00    -0.332 N 
ATOM     89  C   UNL A   1      33.495  27.228  25.967  1.00  0.00     0.107 A 
ATOM     90  C   UNL A   1      32.811  26.766  23.926  1.00  0.00     0.199 A 
ATOM     91  C   UNL A   1      32.491  28.083  25.572  1.00  0.00     0.130 A 
ATOM     92  N   UNL A   1      32.088  27.801  24.292  1.00  0.00    -0.245 NA
ENDBRANCH  87  88
ENDBRANCH  86  87
ENDBRANCH  82  86
ENDBRANCH  78  80
ENDBRANCH  77  78
ENDBRANCH  76  77
ENDBRANCH  75  76
ENDBRANCH   1  75
TORSDOF 20
ENDMDL
MODEL 2
REMARK VINA RESULT:     -10.1      3.396      6.519
REMARK SMILES O=C(OCCOCCOC(=O)[C@H]1CCC[N@@H+]1CCn1ccnc1)c1ccc(-c2c3nc(c(-c4c(F)cc(S(=O)(=O)[O-])cc4F)c4ccc([nH]4)c(-c4c(F)cc(S(=O)(=O)[O-])cc4F)c4nc(c(-c5c(F)cc(S(=O)(=O)[O-])cc5F)c5ccc2[nH]5)C=C4)C=C3)cc1
REMARK SMILES IDX 6 1 5 2 4 3 3 4 2 5 1 6 24 7 25 8 89 9 26 10 88 11 27 12
REMARK SMILES IDX 28 13 29 14 82 15 30 16 87 17 81 18 83 19 31 20 86 21 80 22
REMARK SMILES IDX 79 23 32 25 66 26 45 27 65 28 46 29 49 30 64 31 84 32 47 33
REMARK SMILES IDX 48 34 63 36 85 37 50 38 33 39 34 40 43 41 35 42 36 43 42 44
REMARK SMILES IDX 44 45 37 46 38 47 39 48 40 49 41 50 67 51 68 52 77 53 69 54
REMARK SMILES IDX 70 55 76 56 78 57 71 58 72 59 73 60 74 61 75 62 51 63 52 64
REMARK SMILES IDX 61 65 53 66 54 67 60 68 62 69 55 70 56 71 57 72 58 73 59 74
REMARK SMILES IDX 7 75 8 76 9 77 10 78 11 79 12 80 13 81 16 82 14 83 15 84
REMARK SMILES IDX 17 86 18 87 19 88 20 89 23 90 21 91 22 92
REMARK H PARENT 83 24 49 35 16 85
REMARK Flexibility Score: inf
ROOT
ATOM      1  O   UNL A   1      43.029  20.545  25.361  1.00  0.00    -0.374 OA
ENDROOT
BRANCH   1   2
ATOM      2  C   UNL A   1      42.276  19.949  26.410  1.00  0.00     0.202 C 
BRANCH   2   3
ATOM      3  C   UNL A   1      40.786  20.255  26.523  1.00  0.00     0.261 C 
BRANCH   3   4
ATOM      4  O   UNL A   1      40.459  21.428  27.288  1.00  0.00    -0.460 OA
BRANCH   4   5
ATOM      5  C   UNL A   1      39.777  22.499  26.829  1.00  0.00     0.338 C 
ATOM      6  O   UNL A   1      38.666  22.348  26.324  1.00  0.00    -0.246 OA
BRANCH   5   7
ATOM      7  C   UNL A   1      40.270  23.874  27.123  1.00  0.00     0.060 A 
ATOM      8  C   UNL A   1      41.409  24.167  27.867  1.00  0.00     0.016 A 
ATOM      9  C   UNL A   1      39.443  24.931  26.703  1.00  0.00     0.016 A 
ATOM     10  C   UNL A   1      41.584  25.427  28.400  1.00  0.00     0.010 A 
ATOM     11  C   UNL A   1      39.645  26.214  27.188  1.00  0.00     0.010 A 
ATOM     12  C   UNL A   1      40.652  26.422  28.119  1.00  0.00    -0.014 A 
BRANCH  12  13
ATOM     13  C   UNL A   1      40.812  27.679  28.829  1.00  0.00     0.031 A 
ATOM     14  C   UNL A   1      41.917  28.533  28.316  1.00  0.00     0.074 A 
ATOM     15  C   UNL A   1      40.011  28.023  29.855  1.00  0.00     0.049 A 
ATOM     16  N   UNL A   1      43.016  28.862  28.910  1.00  0.00    -0.248 NA
ATOM     17  C   UNL A   1      41.863  28.927  26.899  1.00  0.00     0.031 C 
ATOM     18  C   UNL A   1      38.770  27.385  30.302  1.00  0.00     0.029 A 
ATOM     19  N   UNL A   1      40.105  29.101  30.674  1.00  0.00    -0.354 N 
ATOM     20  C   UNL A   1      43.704  29.681  28.018  1.00  0.00     0.074 A 
ATOM     21  C   UNL A   1      43.031  29.556  26.752  1.00  0.00     0.031 C 
ATOM     22  C   UNL A   1      38.108  28.228  31.128  1.00  0.00     0.029 A 
ATOM     23  C   UNL A   1      38.945  29.386  31.383  1.00  0.00     0.049 A 
ATOM     24  H   UNL A   1      40.926  29.637  30.759  1.00  0.00     0.167 HD
ATOM     25  C   UNL A   1      44.649  30.565  28.442  1.00  0.00     0.037 A 
ATOM     26  C   UNL A   1      38.681  30.535  32.054  1.00  0.00     0.037 A 
ATOM     27  C   UNL A   1      45.131  30.227  29.755  1.00  0.00     0.049 A 
ATOM     28  C   UNL A   1      39.994  31.179  32.336  1.00  0.00     0.074 A 
ATOM     29  C   UNL A   1      45.805  29.147  30.288  1.00  0.00     0.029 A 
ATOM     30  N   UNL A   1      44.610  30.912  30.826  1.00  0.00    -0.354 N 
ATOM     31  N   UNL A   1      40.896  30.664  33.131  1.00  0.00    -0.248 NA
ATOM     32  C   UNL A   1      40.499  32.137  31.362  1.00  0.00     0.031 C 
ATOM     33  C   UNL A   1      45.242  28.966  31.584  1.00  0.00     0.029 A 
ATOM     34  C   UNL A   1      44.308  29.985  31.790  1.00  0.00     0.049 A 
ATOM     35  H   UNL A   1      44.478  31.886  30.889  1.00  0.00     0.167 HD
ATOM     36  C   UNL A   1      42.110  30.907  32.502  1.00  0.00     0.074 A 
ATOM     37  C   UNL A   1      41.806  31.874  31.449  1.00  0.00     0.031 C 
ATOM     38  C   UNL A   1      43.193  30.100  32.703  1.00  0.00     0.037 A 
BRANCH  25  39
ATOM     39  C   UNL A   1      44.874  31.925  27.827  1.00  0.00     0.058 A 
ATOM     40  C   UNL A   1      46.077  32.185  27.139  1.00  0.00     0.135 A 
ATOM     41  C   UNL A   1      44.095  33.060  28.143  1.00  0.00     0.135 A 
ATOM     42  F   UNL A   1      46.896  31.180  26.787  1.00  0.00    -0.206 F 
ATOM     43  C   UNL A   1      46.515  33.482  26.864  1.00  0.00     0.059 A 
ATOM     44  C   UNL A   1      44.488  34.357  27.832  1.00  0.00     0.059 A 
ATOM     45  F   UNL A   1      42.965  32.979  28.854  1.00  0.00    -0.206 F 
ATOM     46  C   UNL A   1      45.719  34.561  27.235  1.00  0.00     0.060 A 
BRANCH  46  47
ATOM     47  S   UNL A   1      46.336  36.236  26.995  1.00  0.00     0.124 S 
ATOM     48  O   UNL A   1      47.212  36.062  25.845  1.00  0.00    -0.237 OA
ATOM     49  O   UNL A   1      45.106  36.981  26.761  1.00  0.00    -0.237 OA
ATOM     50  O   UNL A   1      47.009  36.528  28.262  1.00  0.00    -0.744 OA
ENDBRANCH  46  47
ENDBRANCH  25  39
BRANCH  26  51
ATOM     51  C   UNL A   1      37.393  31.284  32.056  1.00  0.00     0.058 A 
ATOM     52  C   UNL A   1      36.816  31.747  33.252  1.00  0.00     0.135 A 
ATOM     53  C   UNL A   1      36.840  31.798  30.864  1.00  0.00     0.135 A 
ATOM     54  F   UNL A   1      37.296  31.333  34.435  1.00  0.00    -0.206 F 
ATOM     55  C   UNL A   1      35.780  32.691  33.265  1.00  0.00     0.059 A 
ATOM     56  C   UNL A   1      35.804  32.730  30.853  1.00  0.00     0.059 A 
ATOM     57  F   UNL A   1      37.353  31.477  29.667  1.00  0.00    -0.206 F 
ATOM     58  C   UNL A   1      35.293  33.191  32.058  1.00  0.00     0.060 A 
BRANCH  58  59
ATOM     59  S   UNL A   1      34.073  34.528  32.069  1.00  0.00     0.124 S 
ATOM     60  O   UNL A   1      33.726  34.631  30.656  1.00  0.00    -0.237 OA
ATOM     61  O   UNL A   1      33.035  33.991  32.942  1.00  0.00    -0.237 OA
ATOM     62  O   UNL A   1      34.817  35.662  32.612  1.00  0.00    -0.744 OA
ENDBRANCH  58  59
ENDBRANCH  26  51
BRANCH  38  63
ATOM     63  C   UNL A   1      43.149  29.088  33.818  1.00  0.00     0.058 A 
ATOM     64  C   UNL A   1      43.414  29.383  35.167  1.00  0.00     0.135 A 
ATOM     65  C   UNL A   1      42.605  27.827  33.533  1.00  0.00     0.135 A 
ATOM     66  F   UNL A   1      43.846  30.598  35.534  1.00  0.00    -0.206 F 
ATOM     67  C   UNL A   1      43.158  28.460  36.185  1.00  0.00     0.059 A 
ATOM     68  C   UNL A   1      42.315  26.904  34.532  1.00  0.00     0.059 A 
ATOM     69  F   UNL A   1      42.275  27.509  32.270  1.00  0.00    -0.206 F 
ATOM     70  C   UNL A   1      42.596  27.225  35.858  1.00  0.00     0.060 A 
BRANCH  70  71
ATOM     71  S   UNL A   1      42.146  26.079  37.180  1.00  0.00     0.124 S 
ATOM     72  O   UNL A   1      42.404  24.782  36.564  1.00  0.00    -0.237 OA
ATOM     73  O   UNL A   1      43.057  26.462  38.256  1.00  0.00    -0.237 OA
ATOM     74  O   UNL A   1      40.739  26.382  37.432  1.00  0.00    -0.744 OA
ENDBRANCH  70  71
ENDBRANCH  38  63
ENDBRANCH  12  13
ENDBRANCH   5   7
ENDBRANCH   4   5
ENDBRANCH   3   4
ENDBRANCH   2   3
ENDBRANCH   1   2
BRANCH   1  75
ATOM     75  C   UNL A   1      43.476  21.894  25.530  1.00  0.00     0.202 C 
BRANCH  75  76
ATOM     76  C   UNL A   1      44.912  22.198  25.983  1.00  0.00     0.261 C 
BRANCH  76  77
ATOM     77  O   UNL A   1      45.297  23.573  25.821  1.00  0.00    -0.459 OA
BRANCH  77  78
ATOM     78  C   UNL A   1      45.295  24.282  26.985  1.00  0.00     0.364 C 
ATOM     79  O   UNL A   1      44.764  23.888  28.021  1.00  0.00    -0.245 OA
BRANCH  78  80
ATOM     80  C   UNL A   1      46.093  25.609  26.868  1.00  0.00     0.295 C 
ATOM     81  C   UNL A   1      45.849  26.377  28.155  1.00  0.00     0.083 C 
ATOM     82  N   UNL A   1      47.555  25.344  26.888  1.00  0.00    -0.322 N 
ATOM     83  C   UNL A   1      46.837  25.752  29.141  1.00  0.00     0.068 C 
ATOM     84  C   UNL A   1      47.896  25.063  28.285  1.00  0.00     0.263 C 
ATOM     85  H   UNL A   1      47.745  24.545  26.284  1.00  0.00     0.348 HD
BRANCH  82  86
ATOM     86  C   UNL A   1      48.436  26.323  26.226  1.00  0.00     0.285 C 
BRANCH  86  87
ATOM     87  C   UNL A   1      49.070  26.086  24.834  1.00  0.00     0.184 C 
BRANCH  87  88
ATOM     88  N   UNL A   1      48.516  26.839  23.728  1.00  0.00    -0.332 N 
ATOM     89  C   UNL A   1      49.060  27.001  22.484  1.00  0.00     0.107 A 
ATOM     90  C   UNL A   1      47.334  27.527  23.746  1.00  0.00     0.199 A 
ATOM     91  C   UNL A   1      48.251  27.925  21.863  1.00  0.00     0.130 A 
ATOM     92  N   UNL A   1      47.169  28.229  22.647  1.00  0.00    -0.245 NA
ENDBRANCH  87  88
ENDBRANCH  86  87
ENDBRANCH  82  86
ENDBRANCH  78  80
ENDBRANCH  77  78
ENDBRANCH  76  77
ENDBRANCH  75  76
ENDBRANCH   1  75
TORSDOF 20
ENDMDL
MODEL 3
REMARK VINA RESULT:     -10.0      2.684      9.456
REMARK SMILES O=C(OCCOCCOC(=O)[C@H]1CCC[N@@H+]1CCn1ccnc1)c1ccc(-c2c3nc(c(-c4c(F)cc(S(=O)(=O)[O-])cc4F)c4ccc([nH]4)c(-c4c(F)cc(S(=O)(=O)[O-])cc4F)c4nc(c(-c5c(F)cc(S(=O)(=O)[O-])cc5F)c5ccc2[nH]5)C=C4)C=C3)cc1
REMARK SMILES IDX 6 1 5 2 4 3 3 4 2 5 1 6 24 7 25 8 89 9 26 10 88 11 27 12
REMARK SMILES IDX 28 13 29 14 82 15 30 16 87 17 81 18 83 19 31 20 86 21 80 22
REMARK SMILES IDX 79 23 32 25 66 26 45 27 65 28 46 29 49 30 64 31 84 32 47 33
REMARK SMILES IDX 48 34 63 36 85 37 50 38 33 39 34 40 43 41 35 42 36 43 42 44
REMARK SMILES IDX 44 45 37 46 38 47 39 48 40 49 41 50 67 51 68 52 77 53 69 54
REMARK SMILES IDX 70 55 76 56 78 57 71 58 72 59 73 60 74 61 75 62 51 63 52 64
REMARK SMILES IDX 61 65 53 66 54 67 60 68 62 69 55 70 56 71 57 72 58 73 59 74
REMARK SMILES IDX 7 75 8 76 9 77 10 78 11 79 12 80 13 81 16 82 14 83 15 84
REMARK SMILES IDX 17 86 18 87 19 88 20 89 23 90 21 91 22 92
REMARK H PARENT 83 24 49 35 16 85
REMARK Flexibility Score: inf
ROOT
ATOM      1  O   UNL A   1      31.507  29.214  25.994  1.00  0.00    -0.374 OA
ENDROOT
BRANCH   1   2
ATOM      2  C   UNL A   1      32.292  30.362  26.292  1.00  0.00     0.202 C 
BRANCH   2   3
ATOM      3  C   UNL A   1      33.712  30.178  26.816  1.00  0.00     0.261 C 
BRANCH   3   4
ATOM      4  O   UNL A   1      34.096  31.080  27.870  1.00  0.00    -0.460 OA
BRANCH   4   5
ATOM      5  C   UNL A   1      35.274  31.732  27.954  1.00  0.00     0.338 C 
ATOM      6  O   UNL A   1      35.344  32.915  27.626  1.00  0.00    -0.246 OA
BRANCH   5   7
ATOM      7  C   UNL A   1      36.432  31.090  28.636  1.00  0.00     0.060 A 
ATOM      8  C   UNL A   1      37.508  31.776  29.191  1.00  0.00     0.016 A 
ATOM      9  C   UNL A   1      36.470  29.684  28.599  1.00  0.00     0.016 A 
ATOM     10  C   UNL A   1      38.687  31.115  29.460  1.00  0.00     0.010 A 
ATOM     11  C   UNL A   1      37.635  29.006  28.922  1.00  0.00     0.010 A 
ATOM     12  C   UNL A   1      38.766  29.742  29.246  1.00  0.00    -0.014 A 
BRANCH  12  13
ATOM     13  C   UNL A   1      40.075  29.135  29.404  1.00  0.00     0.031 A 
ATOM     14  C   UNL A   1      40.511  28.985  30.819  1.00  0.00     0.074 A 
ATOM     15  C   UNL A   1      40.809  28.741  28.346  1.00  0.00     0.049 A 
ATOM     16  N   UNL A   1      41.485  29.579  31.423  1.00  0.00    -0.248 NA
ATOM     17  C   UNL A   1      39.643  28.201  31.713  1.00  0.00     0.031 C 
ATOM     18  C   UNL A   1      40.406  28.630  26.941  1.00  0.00     0.029 A 
ATOM     19  N   UNL A   1      42.079  28.263  28.331  1.00  0.00    -0.354 N 
ATOM     20  C   UNL A   1      41.486  29.087  32.726  1.00  0.00     0.074 A 
ATOM     21  C   UNL A   1      40.246  28.374  32.890  1.00  0.00     0.031 C 
ATOM     22  C   UNL A   1      41.316  27.884  26.274  1.00  0.00     0.029 A 
ATOM     23  C   UNL A   1      42.429  27.600  27.162  1.00  0.00     0.049 A 
ATOM     24  H   UNL A   1      42.701  28.376  29.086  1.00  0.00     0.167 HD
ATOM     25  C   UNL A   1      42.603  29.124  33.505  1.00  0.00     0.037 A 
ATOM     26  C   UNL A   1      43.518  26.810  26.987  1.00  0.00     0.037 A 
ATOM     27  C   UNL A   1      43.554  30.083  33.009  1.00  0.00     0.049 A 
ATOM     28  C   UNL A   1      44.502  27.195  28.037  1.00  0.00     0.074 A 
ATOM     29  C   UNL A   1      43.546  31.454  32.839  1.00  0.00     0.029 A 
ATOM     30  N   UNL A   1      44.603  29.617  32.255  1.00  0.00    -0.354 N 
ATOM     31  N   UNL A   1      45.085  28.365  28.087  1.00  0.00    -0.248 NA
ATOM     32  C   UNL A   1      44.463  26.466  29.298  1.00  0.00     0.031 C 
ATOM     33  C   UNL A   1      44.256  31.677  31.625  1.00  0.00     0.029 A 
ATOM     34  C   UNL A   1      44.713  30.439  31.164  1.00  0.00     0.049 A 
ATOM     35  H   UNL A   1      45.170  28.837  32.459  1.00  0.00     0.167 HD
ATOM     36  C   UNL A   1      45.115  28.694  29.436  1.00  0.00     0.074 A 
ATOM     37  C   UNL A   1      44.777  27.458  30.137  1.00  0.00     0.031 C 
ATOM     38  C   UNL A   1      45.135  29.994  29.854  1.00  0.00     0.037 A 
BRANCH  25  39
ATOM     39  C   UNL A   1      42.984  28.048  34.493  1.00  0.00     0.058 A 
ATOM     40  C   UNL A   1      43.198  28.392  35.844  1.00  0.00     0.135 A 
ATOM     41  C   UNL A   1      43.434  26.765  34.111  1.00  0.00     0.135 A 
ATOM     42  F   UNL A   1      42.809  29.587  36.317  1.00  0.00    -0.206 F 
ATOM     43  C   UNL A   1      43.887  27.558  36.726  1.00  0.00     0.059 A 
ATOM     44  C   UNL A   1      44.077  25.898  34.987  1.00  0.00     0.059 A 
ATOM     45  F   UNL A   1      43.364  26.327  32.849  1.00  0.00    -0.206 F 
ATOM     46  C   UNL A   1      44.340  26.321  36.278  1.00  0.00     0.060 A 
BRANCH  46  47
ATOM     47  S   UNL A   1      45.336  25.297  37.375  1.00  0.00     0.124 S 
ATOM     48  O   UNL A   1      45.433  24.061  36.612  1.00  0.00    -0.237 OA
ATOM     49  O   UNL A   1      46.559  26.080  37.492  1.00  0.00    -0.237 OA
ATOM     50  O   UNL A   1      44.526  25.226  38.592  1.00  0.00    -0.744 OA
ENDBRANCH  46  47
ENDBRANCH  25  39
BRANCH  26  51
ATOM     51  C   UNL A   1      43.557  25.499  26.281  1.00  0.00     0.058 A 
ATOM     52  C   UNL A   1      44.482  25.248  25.252  1.00  0.00     0.135 A 
ATOM     53  C   UNL A   1      42.872  24.373  26.784  1.00  0.00     0.135 A 
ATOM     54  F   UNL A   1      45.199  26.255  24.732  1.00  0.00    -0.206 F 
ATOM     55  C   UNL A   1      44.740  23.954  24.778  1.00  0.00     0.059 A 
ATOM     56  C   UNL A   1      43.106  23.078  26.322  1.00  0.00     0.059 A 
ATOM     57  F   UNL A   1      42.015  24.483  27.810  1.00  0.00    -0.206 F 
ATOM     58  C   UNL A   1      44.059  22.872  25.334  1.00  0.00     0.060 A 
BRANCH  58  59
ATOM     59  S   UNL A   1      44.502  21.187  24.845  1.00  0.00     0.124 S 
ATOM     60  O   UNL A   1      44.529  21.292  23.390  1.00  0.00    -0.237 OA
ATOM     61  O   UNL A   1      45.795  21.007  25.495  1.00  0.00    -0.237 OA
ATOM     62  O   UNL A   1      43.415  20.378  25.391  1.00  0.00    -0.744 OA
ENDBRANCH  58  59
ENDBRANCH  26  51
BRANCH  38  63
ATOM     63  C   UNL A   1      45.389  31.080  28.840  1.00  0.00     0.058 A 
ATOM     64  C   UNL A   1      44.389  31.676  28.051  1.00  0.00     0.135 A 
ATOM     65  C   UNL A   1      46.655  31.683  28.835  1.00  0.00     0.135 A 
ATOM     66  F   UNL A   1      43.130  31.217  28.072  1.00  0.00    -0.206 F 
ATOM     67  C   UNL A   1      44.643  32.815  27.281  1.00  0.00     0.059 A 
ATOM     68  C   UNL A   1      46.923  32.833  28.100  1.00  0.00     0.059 A 
ATOM     69  F   UNL A   1      47.633  31.195  29.615  1.00  0.00    -0.206 F 
ATOM     70  C   UNL A   1      45.912  33.395  27.323  1.00  0.00     0.060 A 
BRANCH  70  71
ATOM     71  S   UNL A   1      46.210  34.937  26.431  1.00  0.00     0.124 S 
ATOM     72  O   UNL A   1      44.857  35.360  26.089  1.00  0.00    -0.237 OA
ATOM     73  O   UNL A   1      46.896  35.754  27.429  1.00  0.00    -0.237 OA
ATOM     74  O   UNL A   1      47.040  34.525  25.301  1.00  0.00    -0.744 OA
ENDBRANCH  70  71
ENDBRANCH  38  63
ENDBRANCH  12  13
ENDBRANCH   5   7
ENDBRANCH   4   5
ENDBRANCH   3   4
ENDBRANCH   2   3
ENDBRANCH   1   2
BRANCH   1  75
ATOM     75  C   UNL A   1      31.339  28.846  24.621  1.00  0.00     0.202 C 
BRANCH  75  76
ATOM     76  C   UNL A   1      32.474  28.162  23.844  1.00  0.00     0.261 C 
BRANCH  76  77
ATOM     77  O   UNL A   1      32.091  26.925  23.220  1.00  0.00    -0.459 OA
BRANCH  77  78
ATOM     78  C   UNL A   1      33.147  26.177  22.793  1.00  0.00     0.364 C 
ATOM     79  O   UNL A   1      33.659  26.295  21.682  1.00  0.00    -0.245 OA
BRANCH  78  80
ATOM     80  C   UNL A   1      33.667  25.211  23.892  1.00  0.00     0.295 C 
ATOM     81  C   UNL A   1      32.440  24.600  24.548  1.00  0.00     0.083 C 
ATOM     82  N   UNL A   1      34.357  24.046  23.283  1.00  0.00    -0.322 N 
ATOM     83  C   UNL A   1      32.048  23.469  23.596  1.00  0.00     0.068 C 
ATOM     84  C   UNL A   1      33.298  23.170  22.772  1.00  0.00     0.263 C 
ATOM     85  H   UNL A   1      34.960  24.386  22.534  1.00  0.00     0.348 HD
BRANCH  82  86
ATOM     86  C   UNL A   1      35.385  23.362  24.088  1.00  0.00     0.285 C 
BRANCH  86  87
ATOM     87  C   UNL A   1      36.173  24.058  25.224  1.00  0.00     0.184 C 
BRANCH  87  88
ATOM     88  N   UNL A   1      37.397  23.417  25.657  1.00  0.00    -0.332 N 
ATOM     89  C   UNL A   1      37.822  22.154  25.351  1.00  0.00     0.107 A 
ATOM     90  C   UNL A   1      38.349  23.981  26.460  1.00  0.00     0.199 A 
ATOM     91  C   UNL A   1      38.940  21.960  26.129  1.00  0.00     0.130 A 
ATOM     92  N   UNL A   1      39.273  23.109  26.797  1.00  0.00    -0.245 NA
ENDBRANCH  87  88
ENDBRANCH  86  87
ENDBRANCH  82  86
ENDBRANCH  78  80
ENDBRANCH  77  78
ENDBRANCH  76  77
ENDBRANCH  75  76
ENDBRANCH   1  75
TORSDOF 20
ENDMDL
