MODEL 1
REMARK VINA RESULT:      -9.2      0.000      0.000
REMARK SMILES O=C(CCN1C(=O)/C(=C2\C(=O)N(Cc3ccc(Cl)cc3)c3ccccc32)SC1=S)OCCOCCOC(=O)c1ccc(-c2c3nc(c(-c4c(F)cc(S(=O)(=O)[O-])cc4F)c4ccc([nH]4)c(-c4c(F)cc(S(=O)(=O)[O-])cc4F)c4nc(c(-c5c(F)cc(S(=O)(=O)[O-])cc5F)c5ccc2[nH]5)C=C4)C=C3)cc1
REMARK SMILES IDX 32 1 31 2 30 3 2 4 1 5 3 6 4 7 5 8 6 9 28 10 7 11 8 12 27 13
REMARK SMILES IDX 29 14 9 15 10 16 26 17 11 18 12 19 21 20 25 21 22 22 24 23
REMARK SMILES IDX 23 24 13 25 14 26 15 27 20 28 16 29 19 30 17 31 18 32 33 33
REMARK SMILES IDX 34 34 35 35 36 36 37 37 38 38 39 39 40 40 104 41 41 42
REMARK SMILES IDX 103 43 42 44 43 45 44 46 97 47 45 48 102 49 96 50 98 51
REMARK SMILES IDX 46 52 101 53 95 54 94 55 47 57 81 58 60 59 80 60 61 61 64 62
REMARK SMILES IDX 79 63 99 64 62 65 63 66 78 68 100 69 65 70 48 71 49 72 58 73
REMARK SMILES IDX 50 74 51 75 57 76 59 77 52 78 53 79 54 80 55 81 56 82 82 83
REMARK SMILES IDX 83 84 92 85 84 86 85 87 91 88 93 89 86 90 87 91 88 92 89 93
REMARK SMILES IDX 90 94 66 95 67 96 76 97 68 98 69 99 75 100 77 101 70 102
REMARK SMILES IDX 71 103 72 104 73 105 74 106
REMARK H PARENT 98 56 64 67
REMARK Flexibility Score: inf
ROOT
ATOM      1  C   UNL A   1      45.229  22.526  25.001  1.00  0.00     0.202 C 
ENDROOT
BRANCH   1   2
ATOM      2  C   UNL A   1      46.206  23.565  24.459  1.00  0.00     0.261 C 
BRANCH   2   3
ATOM      3  O   UNL A   1      46.722  24.269  25.597  1.00  0.00    -0.463 OA
BRANCH   3   4
ATOM      4  C   UNL A   1      46.419  25.585  25.604  1.00  0.00     0.307 C 
ATOM      5  O   UNL A   1      46.054  26.213  24.625  1.00  0.00    -0.252 OA
BRANCH   4   6
ATOM      6  C   UNL A   1      46.512  26.128  27.003  1.00  0.00     0.144 C 
BRANCH   6   7
ATOM      7  C   UNL A   1      47.251  27.472  27.040  1.00  0.00     0.139 C 
BRANCH   7   8
ATOM      8  N   UNL A   1      46.587  28.550  27.798  1.00  0.00    -0.292 N 
ATOM      9  C   UNL A   1      45.713  29.412  27.135  1.00  0.00     0.267 C 
ATOM     10  C   UNL A   1      46.809  28.829  29.127  1.00  0.00     0.148 C 
ATOM     11  O   UNL A   1      45.424  29.339  25.952  1.00  0.00    -0.268 OA
ATOM     12  C   UNL A   1      45.075  30.368  28.091  1.00  0.00     0.093 C 
ATOM     13  S   UNL A   1      45.556  29.917  29.702  1.00  0.00    -0.053 SA
ATOM     14  S   UNL A   1      48.069  28.314  30.093  1.00  0.00    -0.052 S 
ATOM     15  C   UNL A   1      44.359  31.473  27.821  1.00  0.00     0.069 C 
ATOM     16  C   UNL A   1      44.604  32.355  26.611  1.00  0.00     0.260 C 
ATOM     17  C   UNL A   1      43.572  32.273  28.766  1.00  0.00     0.012 A 
ATOM     18  O   UNL A   1      45.235  32.087  25.610  1.00  0.00    -0.269 OA
ATOM     19  N   UNL A   1      44.124  33.624  26.994  1.00  0.00    -0.303 N 
ATOM     20  C   UNL A   1      43.556  33.580  28.282  1.00  0.00     0.052 A 
ATOM     21  C   UNL A   1      42.840  31.925  29.893  1.00  0.00     0.011 A 
ATOM     22  C   UNL A   1      43.017  34.599  29.043  1.00  0.00     0.027 A 
ATOM     23  C   UNL A   1      42.188  32.933  30.604  1.00  0.00     0.001 A 
ATOM     24  C   UNL A   1      42.311  34.269  30.202  1.00  0.00     0.002 A 
BRANCH  19  25
ATOM     25  C   UNL A   1      44.256  34.818  26.175  1.00  0.00     0.161 C 
BRANCH  25  26
ATOM     26  C   UNL A   1      45.453  35.700  26.485  1.00  0.00    -0.028 A 
ATOM     27  C   UNL A   1      46.770  35.216  26.398  1.00  0.00     0.007 A 
ATOM     28  C   UNL A   1      45.279  37.049  26.834  1.00  0.00     0.007 A 
ATOM     29  C   UNL A   1      47.870  36.022  26.694  1.00  0.00     0.021 A 
ATOM     30  C   UNL A   1      46.384  37.872  27.097  1.00  0.00     0.021 A 
ATOM     31  C   UNL A   1      47.673  37.351  27.039  1.00  0.00     0.041 A 
ATOM     32  Cl  UNL A   1      49.032  38.351  27.373  1.00  0.00    -0.084 Cl
ENDBRANCH  25  26
ENDBRANCH  19  25
ENDBRANCH   7   8
ENDBRANCH   6   7
ENDBRANCH   4   6
ENDBRANCH   3   4
ENDBRANCH   2   3
ENDBRANCH   1   2
BRANCH   1  33
ATOM     33  O   UNL A   1      43.922  22.813  24.500  1.00  0.00    -0.374 OA
BRANCH  33  34
ATOM     34  C   UNL A   1      42.813  22.596  25.375  1.00  0.00     0.202 C 
BRANCH  34  35
ATOM     35  C   UNL A   1      42.623  23.634  26.493  1.00  0.00     0.261 C 
BRANCH  35  36
ATOM     36  O   UNL A   1      41.404  24.388  26.392  1.00  0.00    -0.460 OA
BRANCH  36  37
ATOM     37  C   UNL A   1      41.506  25.702  26.087  1.00  0.00     0.338 C 
ATOM     38  O   UNL A   1      41.393  26.212  24.987  1.00  0.00    -0.246 OA
BRANCH  37  39
ATOM     39  C   UNL A   1      41.489  26.435  27.373  1.00  0.00     0.060 A 
ATOM     40  C   UNL A   1      42.535  27.296  27.724  1.00  0.00     0.016 A 
ATOM     41  C   UNL A   1      40.455  26.167  28.279  1.00  0.00     0.016 A 
ATOM     42  C   UNL A   1      42.531  27.913  28.972  1.00  0.00     0.010 A 
ATOM     43  C   UNL A   1      40.447  26.789  29.527  1.00  0.00     0.010 A 
ATOM     44  C   UNL A   1      41.468  27.689  29.865  1.00  0.00    -0.014 A 
BRANCH  44  45
ATOM     45  C   UNL A   1      41.289  28.610  31.009  1.00  0.00     0.031 A 
ATOM     46  C   UNL A   1      42.125  28.538  32.245  1.00  0.00     0.074 A 
ATOM     47  C   UNL A   1      40.308  29.524  30.886  1.00  0.00     0.049 A 
ATOM     48  N   UNL A   1      42.105  29.331  33.284  1.00  0.00    -0.248 NA
ATOM     49  C   UNL A   1      43.097  27.441  32.339  1.00  0.00     0.031 C 
ATOM     50  C   UNL A   1      39.417  29.640  29.725  1.00  0.00     0.029 A 
ATOM     51  N   UNL A   1      39.893  30.523  31.724  1.00  0.00    -0.354 N 
ATOM     52  C   UNL A   1      43.074  28.846  34.153  1.00  0.00     0.074 A 
ATOM     53  C   UNL A   1      43.634  27.661  33.535  1.00  0.00     0.031 C 
ATOM     54  C   UNL A   1      38.579  30.668  29.915  1.00  0.00     0.029 A 
ATOM     55  C   UNL A   1      38.851  31.262  31.217  1.00  0.00     0.049 A 
ATOM     56  H   UNL A   1      40.301  30.696  32.602  1.00  0.00     0.167 HD
ATOM     57  C   UNL A   1      43.461  29.363  35.346  1.00  0.00     0.037 A 
ATOM     58  C   UNL A   1      38.185  32.305  31.743  1.00  0.00     0.037 A 
ATOM     59  C   UNL A   1      42.870  30.536  35.946  1.00  0.00     0.049 A 
ATOM     60  C   UNL A   1      38.615  32.833  33.079  1.00  0.00     0.074 A 
ATOM     61  C   UNL A   1      43.219  31.164  37.129  1.00  0.00     0.029 A 
ATOM     62  N   UNL A   1      41.798  31.247  35.422  1.00  0.00    -0.354 N 
ATOM     63  N   UNL A   1      39.590  32.416  33.850  1.00  0.00    -0.248 NA
ATOM     64  C   UNL A   1      37.864  33.975  33.614  1.00  0.00     0.031 C 
ATOM     65  C   UNL A   1      42.323  32.216  37.350  1.00  0.00     0.029 A 
ATOM     66  C   UNL A   1      41.453  32.285  36.275  1.00  0.00     0.049 A 
ATOM     67  H   UNL A   1      41.349  31.045  34.569  1.00  0.00     0.167 HD
ATOM     68  C   UNL A   1      39.583  33.254  34.957  1.00  0.00     0.074 A 
ATOM     69  C   UNL A   1      38.519  34.216  34.743  1.00  0.00     0.031 C 
ATOM     70  C   UNL A   1      40.383  33.229  36.052  1.00  0.00     0.037 A 
BRANCH  57  71
ATOM     71  C   UNL A   1      44.580  28.681  36.089  1.00  0.00     0.058 A 
ATOM     72  C   UNL A   1      44.335  27.594  36.944  1.00  0.00     0.135 A 
ATOM     73  C   UNL A   1      45.918  29.047  35.867  1.00  0.00     0.135 A 
ATOM     74  F   UNL A   1      43.076  27.205  37.197  1.00  0.00    -0.206 F 
ATOM     75  C   UNL A   1      45.374  26.903  37.559  1.00  0.00     0.059 A 
ATOM     76  C   UNL A   1      46.975  28.353  36.452  1.00  0.00     0.059 A 
ATOM     77  F   UNL A   1      46.211  30.077  35.056  1.00  0.00    -0.206 F 
ATOM     78  C   UNL A   1      46.692  27.284  37.301  1.00  0.00     0.060 A 
BRANCH  78  79
ATOM     79  S   UNL A   1      48.025  26.347  38.080  1.00  0.00     0.124 S 
ATOM     80  O   UNL A   1      48.120  25.186  37.200  1.00  0.00    -0.237 OA
ATOM     81  O   UNL A   1      49.142  27.285  38.015  1.00  0.00    -0.237 OA
ATOM     82  O   UNL A   1      47.514  26.077  39.421  1.00  0.00    -0.744 OA
ENDBRANCH  78  79
ENDBRANCH  57  71
BRANCH  58  83
ATOM     83  C   UNL A   1      37.075  32.924  30.976  1.00  0.00     0.058 A 
ATOM     84  C   UNL A   1      35.739  32.643  31.290  1.00  0.00     0.135 A 
ATOM     85  C   UNL A   1      37.328  33.852  29.952  1.00  0.00     0.135 A 
ATOM     86  F   UNL A   1      35.449  31.767  32.264  1.00  0.00    -0.206 F 
ATOM     87  C   UNL A   1      34.689  33.249  30.609  1.00  0.00     0.059 A 
ATOM     88  C   UNL A   1      36.297  34.492  29.276  1.00  0.00     0.059 A 
ATOM     89  F   UNL A   1      38.591  34.175  29.633  1.00  0.00    -0.206 F 
ATOM     90  C   UNL A   1      34.979  34.178  29.607  1.00  0.00     0.060 A 
BRANCH  90  91
ATOM     91  S   UNL A   1      33.606  34.992  28.765  1.00  0.00     0.124 S 
ATOM     92  O   UNL A   1      32.962  35.696  29.867  1.00  0.00    -0.237 OA
ATOM     93  O   UNL A   1      34.301  35.827  27.789  1.00  0.00    -0.237 OA
ATOM     94  O   UNL A   1      32.850  33.878  28.200  1.00  0.00    -0.744 OA
ENDBRANCH  90  91
ENDBRANCH  58  83
BRANCH  70  95
ATOM     95  C   UNL A   1      40.143  34.275  37.105  1.00  0.00     0.058 A 
ATOM     96  C   UNL A   1      40.757  35.536  37.040  1.00  0.00     0.135 A 
ATOM     97  C   UNL A   1      39.243  34.038  38.157  1.00  0.00     0.135 A 
ATOM     98  F   UNL A   1      41.635  35.811  36.062  1.00  0.00    -0.206 F 
ATOM     99  C   UNL A   1      40.498  36.519  37.989  1.00  0.00     0.059 A 
ATOM    100  C   UNL A   1      38.946  35.017  39.099  1.00  0.00     0.059 A 
ATOM    101  F   UNL A   1      38.625  32.850  38.262  1.00  0.00    -0.206 F 
ATOM    102  C   UNL A   1      39.585  36.253  39.011  1.00  0.00     0.060 A 
BRANCH 102 103
ATOM    103  S   UNL A   1      39.229  37.557  40.207  1.00  0.00     0.124 S 
ATOM    104  O   UNL A   1      38.171  38.298  39.530  1.00  0.00    -0.237 OA
ATOM    105  O   UNL A   1      38.817  36.794  41.382  1.00  0.00    -0.237 OA
ATOM    106  O   UNL A   1      40.503  38.259  40.336  1.00  0.00    -0.744 OA
ENDBRANCH 102 103
ENDBRANCH  70  95
ENDBRANCH  44  45
ENDBRANCH  37  39
ENDBRANCH  36  37
ENDBRANCH  35  36
ENDBRANCH  34  35
ENDBRANCH  33  34
ENDBRANCH   1  33
TORSDOF 21
ENDMDL
MODEL 2
REMARK VINA RESULT:      -8.9      8.193     15.345
REMARK SMILES O=C(CCN1C(=O)/C(=C2\C(=O)N(Cc3ccc(Cl)cc3)c3ccccc32)SC1=S)OCCOCCOC(=O)c1ccc(-c2c3nc(c(-c4c(F)cc(S(=O)(=O)[O-])cc4F)c4ccc([nH]4)c(-c4c(F)cc(S(=O)(=O)[O-])cc4F)c4nc(c(-c5c(F)cc(S(=O)(=O)[O-])cc5F)c5ccc2[nH]5)C=C4)C=C3)cc1
REMARK SMILES IDX 32 1 31 2 30 3 2 4 1 5 3 6 4 7 5 8 6 9 28 10 7 11 8 12 27 13
REMARK SMILES IDX 29 14 9 15 10 16 26 17 11 18 12 19 21 20 25 21 22 22 24 23
REMARK SMILES IDX 23 24 13 25 14 26 15 27 20 28 16 29 19 30 17 31 18 32 33 33
REMARK SMILES IDX 34 34 35 35 36 36 37 37 38 38 39 39 40 40 104 41 41 42
REMARK SMILES IDX 103 43 42 44 43 45 44 46 97 47 45 48 102 49 96 50 98 51
REMARK SMILES IDX 46 52 101 53 95 54 94 55 47 57 81 58 60 59 80 60 61 61 64 62
REMARK SMILES IDX 79 63 99 64 62 65 63 66 78 68 100 69 65 70 48 71 49 72 58 73
REMARK SMILES IDX 50 74 51 75 57 76 59 77 52 78 53 79 54 80 55 81 56 82 82 83
REMARK SMILES IDX 83 84 92 85 84 86 85 87 91 88 93 89 86 90 87 91 88 92 89 93
REMARK SMILES IDX 90 94 66 95 67 96 76 97 68 98 69 99 75 100 77 101 70 102
REMARK SMILES IDX 71 103 72 104 73 105 74 106
REMARK H PARENT 98 56 64 67
REMARK Flexibility Score: inf
ROOT
ATOM      1  C   UNL A   1      45.944  39.918  26.052  1.00  0.00     0.202 C 
ENDROOT
BRANCH   1   2
ATOM      2  C   UNL A   1      46.617  40.443  24.787  1.00  0.00     0.261 C 
BRANCH   2   3
ATOM      3  O   UNL A   1      45.662  41.298  24.145  1.00  0.00    -0.463 OA
BRANCH   3   4
ATOM      4  C   UNL A   1      45.965  42.611  24.232  1.00  0.00     0.307 C 
ATOM      5  O   UNL A   1      45.896  43.268  25.256  1.00  0.00    -0.252 OA
BRANCH   4   6
ATOM      6  C   UNL A   1      46.480  43.110  22.910  1.00  0.00     0.144 C 
BRANCH   6   7
ATOM      7  C   UNL A   1      45.772  42.426  21.733  1.00  0.00     0.139 C 
BRANCH   7   8
ATOM      8  N   UNL A   1      44.873  43.283  20.937  1.00  0.00    -0.292 N 
ATOM      9  C   UNL A   1      45.422  44.249  20.092  1.00  0.00     0.267 C 
ATOM     10  C   UNL A   1      43.499  43.257  21.003  1.00  0.00     0.148 C 
ATOM     11  O   UNL A   1      46.616  44.440  19.932  1.00  0.00    -0.268 OA
ATOM     12  C   UNL A   1      44.355  44.943  19.308  1.00  0.00     0.093 C 
ATOM     13  S   UNL A   1      42.842  44.149  19.640  1.00  0.00    -0.053 SA
ATOM     14  S   UNL A   1      42.536  42.572  22.182  1.00  0.00    -0.052 S 
ATOM     15  C   UNL A   1      44.451  46.060  18.566  1.00  0.00     0.069 C 
ATOM     16  C   UNL A   1      45.397  47.201  18.888  1.00  0.00     0.260 C 
ATOM     17  C   UNL A   1      43.447  46.600  17.642  1.00  0.00     0.012 A 
ATOM     18  O   UNL A   1      46.353  47.187  19.634  1.00  0.00    -0.269 OA
ATOM     19  N   UNL A   1      44.797  48.335  18.304  1.00  0.00    -0.303 N 
ATOM     20  C   UNL A   1      43.625  47.982  17.608  1.00  0.00     0.052 A 
ATOM     21  C   UNL A   1      42.517  45.983  16.816  1.00  0.00     0.011 A 
ATOM     22  C   UNL A   1      42.721  48.785  16.938  1.00  0.00     0.027 A 
ATOM     23  C   UNL A   1      41.678  46.783  16.041  1.00  0.00     0.001 A 
ATOM     24  C   UNL A   1      41.754  48.178  16.133  1.00  0.00     0.002 A 
BRANCH  19  25
ATOM     25  C   UNL A   1      45.308  49.687  18.457  1.00  0.00     0.161 C 
BRANCH  25  26
ATOM     26  C   UNL A   1      46.624  49.978  17.755  1.00  0.00    -0.028 A 
ATOM     27  C   UNL A   1      47.784  50.314  18.473  1.00  0.00     0.007 A 
ATOM     28  C   UNL A   1      46.728  49.880  16.359  1.00  0.00     0.007 A 
ATOM     29  C   UNL A   1      48.991  50.593  17.829  1.00  0.00     0.021 A 
ATOM     30  C   UNL A   1      47.948  50.124  15.710  1.00  0.00     0.021 A 
ATOM     31  C   UNL A   1      49.070  50.493  16.447  1.00  0.00     0.041 A 
ATOM     32  Cl  UNL A   1      50.566  50.806  15.659  1.00  0.00    -0.084 Cl
ENDBRANCH  25  26
ENDBRANCH  19  25
ENDBRANCH   7   8
ENDBRANCH   6   7
ENDBRANCH   4   6
ENDBRANCH   3   4
ENDBRANCH   2   3
ENDBRANCH   1   2
BRANCH   1  33
ATOM     33  O   UNL A   1      46.925  39.797  27.083  1.00  0.00    -0.374 OA
BRANCH  33  34
ATOM     34  C   UNL A   1      46.737  38.772  28.062  1.00  0.00     0.202 C 
BRANCH  34  35
ATOM     35  C   UNL A   1      47.952  38.453  28.946  1.00  0.00     0.261 C 
BRANCH  35  36
ATOM     36  O   UNL A   1      48.219  37.049  29.093  1.00  0.00    -0.460 OA
BRANCH  36  37
ATOM     37  C   UNL A   1      48.592  36.366  27.985  1.00  0.00     0.338 C 
ATOM     38  O   UNL A   1      49.529  36.616  27.248  1.00  0.00    -0.246 OA
BRANCH  37  39
ATOM     39  C   UNL A   1      47.835  35.094  28.001  1.00  0.00     0.060 A 
ATOM     40  C   UNL A   1      46.938  34.779  26.975  1.00  0.00     0.016 A 
ATOM     41  C   UNL A   1      47.956  34.260  29.120  1.00  0.00     0.016 A 
ATOM     42  C   UNL A   1      46.182  33.612  27.054  1.00  0.00     0.010 A 
ATOM     43  C   UNL A   1      47.204  33.088  29.197  1.00  0.00     0.010 A 
ATOM     44  C   UNL A   1      46.339  32.744  28.149  1.00  0.00    -0.014 A 
BRANCH  44  45
ATOM     45  C   UNL A   1      45.819  31.363  28.046  1.00  0.00     0.031 A 
ATOM     46  C   UNL A   1      44.406  31.003  28.376  1.00  0.00     0.074 A 
ATOM     47  C   UNL A   1      46.700  30.426  27.649  1.00  0.00     0.049 A 
ATOM     48  N   UNL A   1      43.818  29.841  28.263  1.00  0.00    -0.248 NA
ATOM     49  C   UNL A   1      43.545  32.068  28.908  1.00  0.00     0.031 C 
ATOM     50  C   UNL A   1      48.111  30.685  27.343  1.00  0.00     0.029 A 
ATOM     51  N   UNL A   1      46.553  29.083  27.429  1.00  0.00    -0.354 N 
ATOM     52  C   UNL A   1      42.510  30.032  28.688  1.00  0.00     0.074 A 
ATOM     53  C   UNL A   1      42.404  31.416  29.104  1.00  0.00     0.031 C 
ATOM     54  C   UNL A   1      48.693  29.543  26.951  1.00  0.00     0.029 A 
ATOM     55  C   UNL A   1      47.709  28.470  27.008  1.00  0.00     0.049 A 
ATOM     56  H   UNL A   1      45.704  28.604  27.560  1.00  0.00     0.167 HD
ATOM     57  C   UNL A   1      41.498  29.130  28.709  1.00  0.00     0.037 A 
ATOM     58  C   UNL A   1      47.951  27.184  26.700  1.00  0.00     0.037 A 
ATOM     59  C   UNL A   1      41.640  27.750  28.306  1.00  0.00     0.049 A 
ATOM     60  C   UNL A   1      46.819  26.203  26.763  1.00  0.00     0.074 A 
ATOM     61  C   UNL A   1      40.666  26.767  28.249  1.00  0.00     0.029 A 
ATOM     62  N   UNL A   1      42.829  27.152  27.909  1.00  0.00    -0.354 N 
ATOM     63  N   UNL A   1      45.566  26.417  27.087  1.00  0.00    -0.248 NA
ATOM     64  C   UNL A   1      47.127  24.811  26.415  1.00  0.00     0.031 C 
ATOM     65  C   UNL A   1      41.276  25.565  27.875  1.00  0.00     0.029 A 
ATOM     66  C   UNL A   1      42.619  25.808  27.639  1.00  0.00     0.049 A 
ATOM     67  H   UNL A   1      43.695  27.615  27.830  1.00  0.00     0.167 HD
ATOM     68  C   UNL A   1      44.929  25.190  26.964  1.00  0.00     0.074 A 
ATOM     69  C   UNL A   1      45.933  24.243  26.517  1.00  0.00     0.031 C 
ATOM     70  C   UNL A   1      43.632  24.875  27.203  1.00  0.00     0.037 A 
BRANCH  57  71
ATOM     71  C   UNL A   1      40.140  29.592  29.170  1.00  0.00     0.058 A 
ATOM     72  C   UNL A   1      39.866  29.813  30.529  1.00  0.00     0.135 A 
ATOM     73  C   UNL A   1      39.137  29.916  28.242  1.00  0.00     0.135 A 
ATOM     74  F   UNL A   1      40.785  29.515  31.461  1.00  0.00    -0.206 F 
ATOM     75  C   UNL A   1      38.644  30.327  30.952  1.00  0.00     0.059 A 
ATOM     76  C   UNL A   1      37.916  30.456  28.640  1.00  0.00     0.059 A 
ATOM     77  F   UNL A   1      39.346  29.727  26.929  1.00  0.00    -0.206 F 
ATOM     78  C   UNL A   1      37.677  30.654  29.998  1.00  0.00     0.060 A 
BRANCH  78  79
ATOM     79  S   UNL A   1      36.114  31.358  30.567  1.00  0.00     0.124 S 
ATOM     80  O   UNL A   1      36.491  32.746  30.815  1.00  0.00    -0.237 OA
ATOM     81  O   UNL A   1      35.239  31.133  29.421  1.00  0.00    -0.237 OA
ATOM     82  O   UNL A   1      35.799  30.572  31.757  1.00  0.00    -0.744 OA
ENDBRANCH  78  79
ENDBRANCH  57  71
BRANCH  58  83
ATOM     83  C   UNL A   1      49.315  26.781  26.272  1.00  0.00     0.058 A 
ATOM     84  C   UNL A   1      50.274  26.381  27.212  1.00  0.00     0.135 A 
ATOM     85  C   UNL A   1      49.666  26.733  24.913  1.00  0.00     0.135 A 
ATOM     86  F   UNL A   1      49.982  26.405  28.521  1.00  0.00    -0.206 F 
ATOM     87  C   UNL A   1      51.541  25.959  26.822  1.00  0.00     0.059 A 
ATOM     88  C   UNL A   1      50.915  26.287  24.498  1.00  0.00     0.059 A 
ATOM     89  F   UNL A   1      48.772  27.079  23.974  1.00  0.00    -0.206 F 
ATOM     90  C   UNL A   1      51.849  25.910  25.461  1.00  0.00     0.060 A 
BRANCH  90  91
ATOM     91  S   UNL A   1      53.480  25.314  24.970  1.00  0.00     0.124 S 
ATOM     92  O   UNL A   1      54.347  26.025  25.902  1.00  0.00    -0.237 OA
ATOM     93  O   UNL A   1      53.354  23.875  25.183  1.00  0.00    -0.237 OA
ATOM     94  O   UNL A   1      53.583  25.727  23.573  1.00  0.00    -0.744 OA
ENDBRANCH  90  91
ENDBRANCH  58  83
BRANCH  70  95
ATOM     95  C   UNL A   1      43.217  23.446  26.983  1.00  0.00     0.058 A 
ATOM     96  C   UNL A   1      43.087  22.911  25.692  1.00  0.00     0.135 A 
ATOM     97  C   UNL A   1      43.008  22.586  28.073  1.00  0.00     0.135 A 
ATOM     98  F   UNL A   1      43.264  23.693  24.615  1.00  0.00    -0.206 F 
ATOM     99  C   UNL A   1      42.749  21.577  25.490  1.00  0.00     0.059 A 
ATOM    100  C   UNL A   1      42.701  21.241  27.894  1.00  0.00     0.059 A 
ATOM    101  F   UNL A   1      43.125  23.046  29.330  1.00  0.00    -0.206 F 
ATOM    102  C   UNL A   1      42.566  20.748  26.597  1.00  0.00     0.060 A 
BRANCH 102 103
ATOM    103  S   UNL A   1      42.172  19.010  26.314  1.00  0.00     0.124 S 
ATOM    104  O   UNL A   1      42.447  18.427  27.622  1.00  0.00    -0.237 OA
ATOM    105  O   UNL A   1      40.764  19.070  25.930  1.00  0.00    -0.237 OA
ATOM    106  O   UNL A   1      43.091  18.620  25.247  1.00  0.00    -0.744 OA
ENDBRANCH 102 103
ENDBRANCH  70  95
ENDBRANCH  44  45
ENDBRANCH  37  39
ENDBRANCH  36  37
ENDBRANCH  35  36
ENDBRANCH  34  35
ENDBRANCH  33  34
ENDBRANCH   1  33
TORSDOF 21
ENDMDL
MODEL 3
REMARK VINA RESULT:      -8.5      6.501     15.566
REMARK SMILES O=C(CCN1C(=O)/C(=C2\C(=O)N(Cc3ccc(Cl)cc3)c3ccccc32)SC1=S)OCCOCCOC(=O)c1ccc(-c2c3nc(c(-c4c(F)cc(S(=O)(=O)[O-])cc4F)c4ccc([nH]4)c(-c4c(F)cc(S(=O)(=O)[O-])cc4F)c4nc(c(-c5c(F)cc(S(=O)(=O)[O-])cc5F)c5ccc2[nH]5)C=C4)C=C3)cc1
REMARK SMILES IDX 32 1 31 2 30 3 2 4 1 5 3 6 4 7 5 8 6 9 28 10 7 11 8 12 27 13
REMARK SMILES IDX 29 14 9 15 10 16 26 17 11 18 12 19 21 20 25 21 22 22 24 23
REMARK SMILES IDX 23 24 13 25 14 26 15 27 20 28 16 29 19 30 17 31 18 32 33 33
REMARK SMILES IDX 34 34 35 35 36 36 37 37 38 38 39 39 40 40 104 41 41 42
REMARK SMILES IDX 103 43 42 44 43 45 44 46 97 47 45 48 102 49 96 50 98 51
REMARK SMILES IDX 46 52 101 53 95 54 94 55 47 57 81 58 60 59 80 60 61 61 64 62
REMARK SMILES IDX 79 63 99 64 62 65 63 66 78 68 100 69 65 70 48 71 49 72 58 73
REMARK SMILES IDX 50 74 51 75 57 76 59 77 52 78 53 79 54 80 55 81 56 82 82 83
REMARK SMILES IDX 83 84 92 85 84 86 85 87 91 88 93 89 86 90 87 91 88 92 89 93
REMARK SMILES IDX 90 94 66 95 67 96 76 97 68 98 69 99 75 100 77 101 70 102
REMARK SMILES IDX 71 103 72 104 73 105 74 106
REMARK H PARENT 98 56 64 67
REMARK Flexibility Score: inf
ROOT
ATOM      1  C   UNL A   1      37.348  34.253  33.975  1.00  0.00     0.202 C 
ENDROOT
BRANCH   1   2
ATOM      2  C   UNL A   1      37.222  33.845  35.440  1.00  0.00     0.261 C 
BRANCH   2   3
ATOM      3  O   UNL A   1      37.579  32.457  35.507  1.00  0.00    -0.463 OA
BRANCH   3   4
ATOM      4  C   UNL A   1      37.672  31.981  36.767  1.00  0.00     0.307 C 
ATOM      5  O   UNL A   1      37.753  30.799  37.053  1.00  0.00    -0.252 OA
BRANCH   4   6
ATOM      6  C   UNL A   1      37.751  33.121  37.744  1.00  0.00     0.144 C 
BRANCH   6   7
ATOM      7  C   UNL A   1      36.669  33.014  38.828  1.00  0.00     0.139 C 
BRANCH   7   8
ATOM      8  N   UNL A   1      37.147  32.677  40.182  1.00  0.00    -0.292 N 
ATOM      9  C   UNL A   1      36.421  31.770  40.956  1.00  0.00     0.267 C 
ATOM     10  C   UNL A   1      38.242  33.242  40.793  1.00  0.00     0.148 C 
ATOM     11  O   UNL A   1      35.407  31.198  40.593  1.00  0.00    -0.268 OA
ATOM     12  C   UNL A   1      37.118  31.493  42.249  1.00  0.00     0.093 C 
ATOM     13  S   UNL A   1      38.662  32.294  42.211  1.00  0.00    -0.053 SA
ATOM     14  S   UNL A   1      39.059  34.633  40.364  1.00  0.00    -0.052 S 
ATOM     15  C   UNL A   1      36.645  30.860  43.337  1.00  0.00     0.069 C 
ATOM     16  C   UNL A   1      35.190  30.902  43.766  1.00  0.00     0.260 C 
ATOM     17  C   UNL A   1      37.410  30.418  44.508  1.00  0.00     0.012 A 
ATOM     18  O   UNL A   1      34.230  31.239  43.107  1.00  0.00    -0.269 OA
ATOM     19  N   UNL A   1      35.223  30.674  45.156  1.00  0.00    -0.303 N 
ATOM     20  C   UNL A   1      36.539  30.432  45.596  1.00  0.00     0.052 A 
ATOM     21  C   UNL A   1      38.709  29.946  44.645  1.00  0.00     0.011 A 
ATOM     22  C   UNL A   1      37.015  30.210  46.874  1.00  0.00     0.027 A 
ATOM     23  C   UNL A   1      39.164  29.601  45.918  1.00  0.00     0.001 A 
ATOM     24  C   UNL A   1      38.332  29.771  47.032  1.00  0.00     0.002 A 
BRANCH  19  25
ATOM     25  C   UNL A   1      34.050  30.736  46.013  1.00  0.00     0.161 C 
BRANCH  25  26
ATOM     26  C   UNL A   1      33.399  29.402  46.337  1.00  0.00    -0.028 A 
ATOM     27  C   UNL A   1      32.814  28.605  45.339  1.00  0.00     0.007 A 
ATOM     28  C   UNL A   1      33.398  28.905  47.650  1.00  0.00     0.007 A 
ATOM     29  C   UNL A   1      32.205  27.384  45.637  1.00  0.00     0.021 A 
ATOM     30  C   UNL A   1      32.819  27.663  47.948  1.00  0.00     0.021 A 
ATOM     31  C   UNL A   1      32.214  26.914  46.942  1.00  0.00     0.041 A 
ATOM     32  Cl  UNL A   1      31.490  25.396  47.301  1.00  0.00    -0.084 Cl
ENDBRANCH  25  26
ENDBRANCH  19  25
ENDBRANCH   7   8
ENDBRANCH   6   7
ENDBRANCH   4   6
ENDBRANCH   3   4
ENDBRANCH   2   3
ENDBRANCH   1   2
BRANCH   1  33
ATOM     33  O   UNL A   1      36.082  34.088  33.336  1.00  0.00    -0.374 OA
BRANCH  33  34
ATOM     34  C   UNL A   1      36.031  34.232  31.915  1.00  0.00     0.202 C 
BRANCH  34  35
ATOM     35  C   UNL A   1      35.657  32.969  31.123  1.00  0.00     0.261 C 
BRANCH  35  36
ATOM     36  O   UNL A   1      36.787  32.202  30.676  1.00  0.00    -0.460 OA
BRANCH  36  37
ATOM     37  C   UNL A   1      37.015  31.015  31.285  1.00  0.00     0.338 C 
ATOM     38  O   UNL A   1      36.249  30.398  32.003  1.00  0.00    -0.246 OA
BRANCH  37  39
ATOM     39  C   UNL A   1      38.251  30.465  30.684  1.00  0.00     0.060 A 
ATOM     40  C   UNL A   1      38.372  30.315  29.298  1.00  0.00     0.016 A 
ATOM     41  C   UNL A   1      39.258  29.998  31.539  1.00  0.00     0.016 A 
ATOM     42  C   UNL A   1      39.514  29.724  28.765  1.00  0.00     0.010 A 
ATOM     43  C   UNL A   1      40.405  29.411  31.006  1.00  0.00     0.010 A 
ATOM     44  C   UNL A   1      40.551  29.302  29.616  1.00  0.00    -0.014 A 
BRANCH  44  45
ATOM     45  C   UNL A   1      41.883  29.022  29.035  1.00  0.00     0.031 A 
ATOM     46  C   UNL A   1      42.951  30.060  28.921  1.00  0.00     0.074 A 
ATOM     47  C   UNL A   1      42.085  27.766  28.594  1.00  0.00     0.049 A 
ATOM     48  N   UNL A   1      44.177  29.918  28.490  1.00  0.00    -0.248 NA
ATOM     49  C   UNL A   1      42.607  31.430  29.325  1.00  0.00     0.031 C 
ATOM     50  C   UNL A   1      41.080  26.697  28.634  1.00  0.00     0.029 A 
ATOM     51  N   UNL A   1      43.182  27.170  28.036  1.00  0.00    -0.354 N 
ATOM     52  C   UNL A   1      44.766  31.172  28.589  1.00  0.00     0.074 A 
ATOM     53  C   UNL A   1      43.744  32.075  29.081  1.00  0.00     0.031 C 
ATOM     54  C   UNL A   1      41.617  25.571  28.145  1.00  0.00     0.029 A 
ATOM     55  C   UNL A   1      42.986  25.844  27.730  1.00  0.00     0.049 A 
ATOM     56  H   UNL A   1      44.029  27.643  27.869  1.00  0.00     0.167 HD
ATOM     57  C   UNL A   1      46.045  31.520  28.308  1.00  0.00     0.037 A 
ATOM     58  C   UNL A   1      43.819  24.944  27.177  1.00  0.00     0.037 A 
ATOM     59  C   UNL A   1      47.037  30.600  27.800  1.00  0.00     0.049 A 
ATOM     60  C   UNL A   1      45.218  25.368  26.847  1.00  0.00     0.074 A 
ATOM     61  C   UNL A   1      48.372  30.843  27.524  1.00  0.00     0.029 A 
ATOM     62  N   UNL A   1      46.802  29.270  27.476  1.00  0.00    -0.354 N 
ATOM     63  N   UNL A   1      45.785  26.537  27.025  1.00  0.00    -0.248 NA
ATOM     64  C   UNL A   1      46.094  24.354  26.248  1.00  0.00     0.031 C 
ATOM     65  C   UNL A   1      48.927  29.681  26.979  1.00  0.00     0.029 A 
ATOM     66  C   UNL A   1      47.957  28.692  26.972  1.00  0.00     0.049 A 
ATOM     67  H   UNL A   1      45.941  28.806  27.589  1.00  0.00     0.167 HD
ATOM     68  C   UNL A   1      47.092  26.397  26.577  1.00  0.00     0.074 A 
ATOM     69  C   UNL A   1      47.235  25.021  26.139  1.00  0.00     0.031 C 
ATOM     70  C   UNL A   1      48.082  27.323  26.530  1.00  0.00     0.037 A 
BRANCH  57  71
ATOM     71  C   UNL A   1      46.465  32.947  28.545  1.00  0.00     0.058 A 
ATOM     72  C   UNL A   1      47.006  33.356  29.775  1.00  0.00     0.135 A 
ATOM     73  C   UNL A   1      46.424  33.891  27.506  1.00  0.00     0.135 A 
ATOM     74  F   UNL A   1      47.065  32.497  30.806  1.00  0.00    -0.206 F 
ATOM     75  C   UNL A   1      47.481  34.649  29.968  1.00  0.00     0.059 A 
ATOM     76  C   UNL A   1      46.917  35.184  27.669  1.00  0.00     0.059 A 
ATOM     77  F   UNL A   1      45.920  33.554  26.307  1.00  0.00    -0.206 F 
ATOM     78  C   UNL A   1      47.440  35.555  28.906  1.00  0.00     0.060 A 
BRANCH  78  79
ATOM     79  S   UNL A   1      48.097  37.216  29.169  1.00  0.00     0.124 S 
ATOM     80  O   UNL A   1      49.324  37.174  28.379  1.00  0.00    -0.237 OA
ATOM     81  O   UNL A   1      47.031  38.059  28.638  1.00  0.00    -0.237 OA
ATOM     82  O   UNL A   1      48.286  37.283  30.615  1.00  0.00    -0.744 OA
ENDBRANCH  78  79
ENDBRANCH  57  71
BRANCH  58  83
ATOM     83  C   UNL A   1      43.343  23.557  26.945  1.00  0.00     0.058 A 
ATOM     84  C   UNL A   1      42.907  23.149  25.678  1.00  0.00     0.135 A 
ATOM     85  C   UNL A   1      43.371  22.598  27.971  1.00  0.00     0.135 A 
ATOM     86  F   UNL A   1      42.868  24.029  24.666  1.00  0.00    -0.206 F 
ATOM     87  C   UNL A   1      42.501  21.841  25.436  1.00  0.00     0.059 A 
ATOM     88  C   UNL A   1      42.998  21.278  27.747  1.00  0.00     0.059 A 
ATOM     89  F   UNL A   1      43.808  22.934  29.195  1.00  0.00    -0.206 F 
ATOM     90  C   UNL A   1      42.556  20.912  26.476  1.00  0.00     0.060 A 
BRANCH  90  91
ATOM     91  S   UNL A   1      42.072  19.207  26.134  1.00  0.00     0.124 S 
ATOM     92  O   UNL A   1      40.655  19.360  25.823  1.00  0.00    -0.237 OA
ATOM     93  O   UNL A   1      42.940  18.865  25.011  1.00  0.00    -0.237 OA
ATOM     94  O   UNL A   1      42.372  18.514  27.383  1.00  0.00    -0.744 OA
ENDBRANCH  90  91
ENDBRANCH  58  83
BRANCH  70  95
ATOM     95  C   UNL A   1      49.413  26.881  25.989  1.00  0.00     0.058 A 
ATOM     96  C   UNL A   1      49.771  27.101  24.650  1.00  0.00     0.135 A 
ATOM     97  C   UNL A   1      50.366  26.286  26.833  1.00  0.00     0.135 A 
ATOM     98  F   UNL A   1      48.893  27.654  23.798  1.00  0.00    -0.206 F 
ATOM     99  C   UNL A   1      51.021  26.734  24.163  1.00  0.00     0.059 A 
ATOM    100  C   UNL A   1      51.633  25.941  26.374  1.00  0.00     0.059 A 
ATOM    101  F   UNL A   1      50.077  26.058  28.124  1.00  0.00    -0.206 F 
ATOM    102  C   UNL A   1      51.948  26.162  25.035  1.00  0.00     0.060 A 
BRANCH 102 103
ATOM    103  S   UNL A   1      53.580  25.734  24.393  1.00  0.00     0.124 S 
ATOM    104  O   UNL A   1      54.424  26.728  25.046  1.00  0.00    -0.237 OA
ATOM    105  O   UNL A   1      53.744  24.359  24.859  1.00  0.00    -0.237 OA
ATOM    106  O   UNL A   1      53.431  25.887  22.949  1.00  0.00    -0.744 OA
ENDBRANCH 102 103
ENDBRANCH  70  95
ENDBRANCH  44  45
ENDBRANCH  37  39
ENDBRANCH  36  37
ENDBRANCH  35  36
ENDBRANCH  34  35
ENDBRANCH  33  34
ENDBRANCH   1  33
TORSDOF 21
ENDMDL
