MODEL 1
REMARK VINA RESULT:     -10.1      0.000      0.000
REMARK SMILES Cc1cc(F)c(-c2ccc(F)c(C(=O)OCCOCCOC(=O)c3ccc(-c4c5nc(c(-c6c(F)cc(S(=O)(=O)[O-])cc6F)c6ccc([nH]6)c(-c6c(F)cc(S(=O)(=O)[O-])cc6F)c6nc(c(-c7c(F)cc(S(=O)(=O)[O-])cc7F)c7ccc4[nH]7)C=C6)C=C5)cc3)c2)cc1F
REMARK SMILES IDX 19 1 18 2 17 3 16 4 15 5 13 6 14 7 12 8 7 9 8 10 90 11 9 12
REMARK SMILES IDX 10 13 11 14 6 15 1 16 2 17 3 18 92 19 4 20 91 21 93 22 5 23
REMARK SMILES IDX 20 24 21 25 22 26 23 27 24 28 25 29 89 30 26 31 88 32 27 33
REMARK SMILES IDX 28 34 29 35 82 36 30 37 87 38 81 39 83 40 31 41 86 42 80 43
REMARK SMILES IDX 79 44 32 46 66 47 45 48 65 49 46 50 49 51 64 52 84 53 47 54
REMARK SMILES IDX 48 55 63 57 85 58 50 59 33 60 34 61 43 62 35 63 36 64 42 65
REMARK SMILES IDX 44 66 37 67 38 68 39 69 40 70 41 71 67 72 68 73 77 74 69 75
REMARK SMILES IDX 70 76 76 77 78 78 71 79 72 80 73 81 74 82 75 83 51 84 52 85
REMARK SMILES IDX 61 86 53 87 54 88 60 89 62 90 55 91 56 92 57 93 58 94 59 95
REMARK H PARENT 83 45 49 56
REMARK Flexibility Score: inf
ROOT
ATOM      1  C   UNL A   1      33.432  33.940  28.078  1.00  0.00     0.202 C 
ENDROOT
BRANCH   1   2
ATOM      2  O   UNL A   1      32.893  34.398  29.318  1.00  0.00    -0.374 OA
BRANCH   2   3
ATOM      3  C   UNL A   1      33.602  35.421  30.016  1.00  0.00     0.202 C 
BRANCH   3   4
ATOM      4  C   UNL A   1      33.573  35.379  31.549  1.00  0.00     0.261 C 
BRANCH   4   5
ATOM      5  O   UNL A   1      34.777  34.803  32.081  1.00  0.00    -0.460 OA
BRANCH   5   6
ATOM      6  C   UNL A   1      34.661  33.515  32.494  1.00  0.00     0.341 C 
ATOM      7  O   UNL A   1      33.847  32.695  32.109  1.00  0.00    -0.246 OA
BRANCH   6   8
ATOM      8  C   UNL A   1      35.792  33.189  33.385  1.00  0.00     0.096 A 
ATOM      9  C   UNL A   1      37.822  31.949  33.937  1.00  0.00    -0.014 A 
ATOM     10  C   UNL A   1      37.877  32.662  35.153  1.00  0.00     0.012 A 
ATOM     11  C   UNL A   1      36.754  32.219  33.059  1.00  0.00     0.027 A 
ATOM     12  C   UNL A   1      36.906  33.605  35.487  1.00  0.00     0.041 A 
ATOM     13  C   UNL A   1      35.872  33.866  34.601  1.00  0.00     0.137 A 
ATOM     14  F   UNL A   1      34.934  34.748  34.973  1.00  0.00    -0.206 F 
BRANCH   9  15
ATOM     15  C   UNL A   1      38.902  30.999  33.601  1.00  0.00     0.020 A 
ATOM     16  C   UNL A   1      42.007  28.002  33.157  1.00  0.00     0.047 C 
ATOM     17  C   UNL A   1      40.948  29.059  33.231  1.00  0.00    -0.012 A 
ATOM     18  C   UNL A   1      41.262  30.350  33.669  1.00  0.00     0.046 A 
ATOM     19  C   UNL A   1      39.615  28.763  32.951  1.00  0.00     0.126 A 
ATOM     20  C   UNL A   1      40.252  31.298  33.845  1.00  0.00     0.131 A 
ATOM     21  C   UNL A   1      38.608  29.712  33.117  1.00  0.00     0.051 A 
ATOM     22  F   UNL A   1      39.273  27.530  32.546  1.00  0.00    -0.207 F 
ATOM     23  F   UNL A   1      40.599  32.504  34.318  1.00  0.00    -0.206 F 
ENDBRANCH   9  15
ENDBRANCH   6   8
ENDBRANCH   5   6
ENDBRANCH   4   5
ENDBRANCH   3   4
ENDBRANCH   2   3
ENDBRANCH   1   2
BRANCH   1  24
ATOM     24  C   UNL A   1      34.632  32.985  28.129  1.00  0.00     0.261 C 
BRANCH  24  25
ATOM     25  O   UNL A   1      34.378  31.809  28.914  1.00  0.00    -0.460 OA
BRANCH  25  26
ATOM     26  C   UNL A   1      34.507  30.633  28.247  1.00  0.00     0.338 C 
ATOM     27  O   UNL A   1      33.695  30.119  27.496  1.00  0.00    -0.246 OA
BRANCH  26  28
ATOM     28  C   UNL A   1      35.889  30.138  28.405  1.00  0.00     0.060 A 
ATOM     29  C   UNL A   1      36.781  30.123  27.331  1.00  0.00     0.016 A 
ATOM     30  C   UNL A   1      36.295  29.701  29.673  1.00  0.00     0.016 A 
ATOM     31  C   UNL A   1      38.091  29.686  27.539  1.00  0.00     0.010 A 
ATOM     32  C   UNL A   1      37.605  29.265  29.877  1.00  0.00     0.010 A 
ATOM     33  C   UNL A   1      38.518  29.270  28.814  1.00  0.00    -0.014 A 
BRANCH  33  34
ATOM     34  C   UNL A   1      39.951  28.959  29.054  1.00  0.00     0.031 A 
ATOM     35  C   UNL A   1      40.530  27.616  28.721  1.00  0.00     0.074 A 
ATOM     36  C   UNL A   1      40.731  29.918  29.592  1.00  0.00     0.049 A 
ATOM     37  N   UNL A   1      41.774  27.217  28.801  1.00  0.00    -0.248 NA
ATOM     38  C   UNL A   1      39.597  26.585  28.244  1.00  0.00     0.031 C 
ATOM     39  C   UNL A   1      40.266  31.246  29.997  1.00  0.00     0.029 A 
ATOM     40  N   UNL A   1      42.071  29.931  29.882  1.00  0.00    -0.354 N 
ATOM     41  C   UNL A   1      41.782  25.898  28.365  1.00  0.00     0.074 A 
ATOM     42  C   UNL A   1      40.408  25.548  28.070  1.00  0.00     0.031 C 
ATOM     43  C   UNL A   1      41.309  31.956  30.450  1.00  0.00     0.029 A 
ATOM     44  C   UNL A   1      42.510  31.127  30.399  1.00  0.00     0.049 A 
ATOM     45  H   UNL A   1      42.663  29.159  29.735  1.00  0.00     0.167 HD
ATOM     46  C   UNL A   1      42.842  25.069  28.207  1.00  0.00     0.037 A 
ATOM     47  C   UNL A   1      43.741  31.517  30.786  1.00  0.00     0.037 A 
ATOM     48  C   UNL A   1      44.204  25.427  28.519  1.00  0.00     0.049 A 
ATOM     49  C   UNL A   1      44.893  30.562  30.638  1.00  0.00     0.074 A 
ATOM     50  C   UNL A   1      45.350  24.666  28.353  1.00  0.00     0.029 A 
ATOM     51  N   UNL A   1      44.607  26.633  29.071  1.00  0.00    -0.354 N 
ATOM     52  N   UNL A   1      44.896  29.346  30.147  1.00  0.00    -0.248 NA
ATOM     53  C   UNL A   1      46.209  31.031  31.090  1.00  0.00     0.031 C 
ATOM     54  C   UNL A   1      46.435  25.389  28.858  1.00  0.00     0.029 A 
ATOM     55  C   UNL A   1      45.978  26.625  29.283  1.00  0.00     0.049 A 
ATOM     56  H   UNL A   1      44.008  27.385  29.283  1.00  0.00     0.167 HD
ATOM     57  C   UNL A   1      46.215  28.911  30.215  1.00  0.00     0.074 A 
ATOM     58  C   UNL A   1      46.985  30.002  30.775  1.00  0.00     0.031 C 
ATOM     59  C   UNL A   1      46.738  27.716  29.846  1.00  0.00     0.037 A 
BRANCH  46  60
ATOM     60  C   UNL A   1      42.585  23.690  27.663  1.00  0.00     0.058 A 
ATOM     61  C   UNL A   1      42.594  23.436  26.282  1.00  0.00     0.135 A 
ATOM     62  C   UNL A   1      42.418  22.595  28.527  1.00  0.00     0.135 A 
ATOM     63  F   UNL A   1      42.739  24.446  25.409  1.00  0.00    -0.206 F 
ATOM     64  C   UNL A   1      42.432  22.150  25.777  1.00  0.00     0.059 A 
ATOM     65  C   UNL A   1      42.282  21.295  28.045  1.00  0.00     0.059 A 
ATOM     66  F   UNL A   1      42.406  22.778  29.857  1.00  0.00    -0.206 F 
ATOM     67  C   UNL A   1      42.282  21.085  26.666  1.00  0.00     0.060 A 
BRANCH  67  68
ATOM     68  S   UNL A   1      42.099  19.421  25.988  1.00  0.00     0.124 S 
ATOM     69  O   UNL A   1      42.629  18.604  27.074  1.00  0.00    -0.237 OA
ATOM     70  O   UNL A   1      40.658  19.333  25.772  1.00  0.00    -0.237 OA
ATOM     71  O   UNL A   1      42.912  19.454  24.777  1.00  0.00    -0.744 OA
ENDBRANCH  67  68
ENDBRANCH  46  60
BRANCH  47  72
ATOM     72  C   UNL A   1      43.943  32.888  31.323  1.00  0.00     0.058 A 
ATOM     73  C   UNL A   1      43.988  33.123  32.706  1.00  0.00     0.135 A 
ATOM     74  C   UNL A   1      44.128  33.985  30.468  1.00  0.00     0.135 A 
ATOM     75  F   UNL A   1      43.810  32.107  33.564  1.00  0.00    -0.206 F 
ATOM     76  C   UNL A   1      44.198  34.396  33.221  1.00  0.00     0.059 A 
ATOM     77  C   UNL A   1      44.370  35.264  30.959  1.00  0.00     0.059 A 
ATOM     78  F   UNL A   1      44.111  33.811  29.137  1.00  0.00    -0.206 F 
ATOM     79  C   UNL A   1      44.395  35.461  32.339  1.00  0.00     0.060 A 
BRANCH  79  80
ATOM     80  S   UNL A   1      44.722  37.100  33.024  1.00  0.00     0.124 S 
ATOM     81  O   UNL A   1      43.371  37.622  33.193  1.00  0.00    -0.237 OA
ATOM     82  O   UNL A   1      45.441  36.777  34.252  1.00  0.00    -0.237 OA
ATOM     83  O   UNL A   1      45.522  37.744  31.987  1.00  0.00    -0.744 OA
ENDBRANCH  79  80
ENDBRANCH  47  72
BRANCH  59  84
ATOM     84  C   UNL A   1      48.219  27.514  30.025  1.00  0.00     0.058 A 
ATOM     85  C   UNL A   1      49.132  27.827  29.006  1.00  0.00     0.135 A 
ATOM     86  C   UNL A   1      48.737  27.072  31.254  1.00  0.00     0.135 A 
ATOM     87  F   UNL A   1      48.693  28.247  27.810  1.00  0.00    -0.206 F 
ATOM     88  C   UNL A   1      50.505  27.697  29.194  1.00  0.00     0.059 A 
ATOM     89  C   UNL A   1      50.107  26.963  31.475  1.00  0.00     0.059 A 
ATOM     90  F   UNL A   1      47.909  26.766  32.266  1.00  0.00    -0.206 F 
ATOM     91  C   UNL A   1      50.983  27.271  30.435  1.00  0.00     0.060 A 
BRANCH  91  92
ATOM     92  S   UNL A   1      52.769  27.153  30.675  1.00  0.00     0.124 S 
ATOM     93  O   UNL A   1      52.850  26.415  31.931  1.00  0.00    -0.237 OA
ATOM     94  O   UNL A   1      53.194  26.425  29.483  1.00  0.00    -0.237 OA
ATOM     95  O   UNL A   1      53.198  28.547  30.739  1.00  0.00    -0.744 OA
ENDBRANCH  91  92
ENDBRANCH  59  84
ENDBRANCH  33  34
ENDBRANCH  26  28
ENDBRANCH  25  26
ENDBRANCH  24  25
ENDBRANCH   1  24
TORSDOF 18
ENDMDL
MODEL 2
REMARK VINA RESULT:      -9.9      2.642      8.922
REMARK SMILES Cc1cc(F)c(-c2ccc(F)c(C(=O)OCCOCCOC(=O)c3ccc(-c4c5nc(c(-c6c(F)cc(S(=O)(=O)[O-])cc6F)c6ccc([nH]6)c(-c6c(F)cc(S(=O)(=O)[O-])cc6F)c6nc(c(-c7c(F)cc(S(=O)(=O)[O-])cc7F)c7ccc4[nH]7)C=C6)C=C5)cc3)c2)cc1F
REMARK SMILES IDX 19 1 18 2 17 3 16 4 15 5 13 6 14 7 12 8 7 9 8 10 90 11 9 12
REMARK SMILES IDX 10 13 11 14 6 15 1 16 2 17 3 18 92 19 4 20 91 21 93 22 5 23
REMARK SMILES IDX 20 24 21 25 22 26 23 27 24 28 25 29 89 30 26 31 88 32 27 33
REMARK SMILES IDX 28 34 29 35 82 36 30 37 87 38 81 39 83 40 31 41 86 42 80 43
REMARK SMILES IDX 79 44 32 46 66 47 45 48 65 49 46 50 49 51 64 52 84 53 47 54
REMARK SMILES IDX 48 55 63 57 85 58 50 59 33 60 34 61 43 62 35 63 36 64 42 65
REMARK SMILES IDX 44 66 37 67 38 68 39 69 40 70 41 71 67 72 68 73 77 74 69 75
REMARK SMILES IDX 70 76 76 77 78 78 71 79 72 80 73 81 74 82 75 83 51 84 52 85
REMARK SMILES IDX 61 86 53 87 54 88 60 89 62 90 55 91 56 92 57 93 58 94 59 95
REMARK H PARENT 83 45 49 56
REMARK Flexibility Score: inf
ROOT
ATOM      1  C   UNL A   1      34.562  33.920  30.396  1.00  0.00     0.202 C 
ENDROOT
BRANCH   1   2
ATOM      2  O   UNL A   1      33.630  34.579  31.253  1.00  0.00    -0.374 OA
BRANCH   2   3
ATOM      3  C   UNL A   1      34.042  35.792  31.881  1.00  0.00     0.202 C 
BRANCH   3   4
ATOM      4  C   UNL A   1      34.456  35.719  33.356  1.00  0.00     0.261 C 
BRANCH   4   5
ATOM      5  O   UNL A   1      35.820  35.292  33.498  1.00  0.00    -0.460 OA
BRANCH   5   6
ATOM      6  C   UNL A   1      35.981  33.973  33.773  1.00  0.00     0.341 C 
ATOM      7  O   UNL A   1      35.107  33.173  34.057  1.00  0.00    -0.246 OA
BRANCH   6   8
ATOM      8  C   UNL A   1      37.385  33.592  33.518  1.00  0.00     0.096 A 
ATOM      9  C   UNL A   1      39.435  33.653  32.194  1.00  0.00    -0.014 A 
ATOM     10  C   UNL A   1      40.027  32.800  33.147  1.00  0.00     0.012 A 
ATOM     11  C   UNL A   1      38.093  34.035  32.389  1.00  0.00     0.027 A 
ATOM     12  C   UNL A   1      39.314  32.339  34.253  1.00  0.00     0.041 A 
ATOM     13  C   UNL A   1      37.999  32.740  34.434  1.00  0.00     0.137 A 
ATOM     14  F   UNL A   1      37.330  32.245  35.485  1.00  0.00    -0.206 F 
BRANCH   9  15
ATOM     15  C   UNL A   1      40.246  34.160  31.068  1.00  0.00     0.020 A 
ATOM     16  C   UNL A   1      42.451  36.178  27.924  1.00  0.00     0.047 C 
ATOM     17  C   UNL A   1      41.721  35.409  28.982  1.00  0.00    -0.012 A 
ATOM     18  C   UNL A   1      40.419  34.951  28.757  1.00  0.00     0.046 A 
ATOM     19  C   UNL A   1      42.284  35.207  30.241  1.00  0.00     0.126 A 
ATOM     20  C   UNL A   1      39.702  34.335  29.785  1.00  0.00     0.131 A 
ATOM     21  C   UNL A   1      41.572  34.583  31.265  1.00  0.00     0.051 A 
ATOM     22  F   UNL A   1      43.524  35.648  30.500  1.00  0.00    -0.207 F 
ATOM     23  F   UNL A   1      38.439  33.962  29.534  1.00  0.00    -0.206 F 
ENDBRANCH   9  15
ENDBRANCH   6   8
ENDBRANCH   5   6
ENDBRANCH   4   5
ENDBRANCH   3   4
ENDBRANCH   2   3
ENDBRANCH   1   2
BRANCH   1  24
ATOM     24  C   UNL A   1      34.779  32.415  30.597  1.00  0.00     0.261 C 
BRANCH  24  25
ATOM     25  O   UNL A   1      36.127  32.001  30.317  1.00  0.00    -0.460 OA
BRANCH  25  26
ATOM     26  C   UNL A   1      36.597  31.001  31.106  1.00  0.00     0.338 C 
ATOM     27  O   UNL A   1      36.030  30.482  32.054  1.00  0.00    -0.246 OA
BRANCH  26  28
ATOM     28  C   UNL A   1      37.846  30.475  30.524  1.00  0.00     0.060 A 
ATOM     29  C   UNL A   1      38.094  30.544  29.152  1.00  0.00     0.016 A 
ATOM     30  C   UNL A   1      38.798  29.919  31.390  1.00  0.00     0.016 A 
ATOM     31  C   UNL A   1      39.310  30.071  28.653  1.00  0.00     0.010 A 
ATOM     32  C   UNL A   1      40.012  29.448  30.889  1.00  0.00     0.010 A 
ATOM     33  C   UNL A   1      40.284  29.535  29.517  1.00  0.00    -0.014 A 
BRANCH  33  34
ATOM     34  C   UNL A   1      41.629  29.184  28.994  1.00  0.00     0.031 A 
ATOM     35  C   UNL A   1      42.736  30.194  28.934  1.00  0.00     0.074 A 
ATOM     36  C   UNL A   1      41.837  27.925  28.561  1.00  0.00     0.049 A 
ATOM     37  N   UNL A   1      43.984  30.022  28.576  1.00  0.00    -0.248 NA
ATOM     38  C   UNL A   1      42.405  31.574  29.317  1.00  0.00     0.031 C 
ATOM     39  C   UNL A   1      40.820  26.871  28.531  1.00  0.00     0.029 A 
ATOM     40  N   UNL A   1      42.964  27.314  28.075  1.00  0.00    -0.354 N 
ATOM     41  C   UNL A   1      44.594  31.262  28.709  1.00  0.00     0.074 A 
ATOM     42  C   UNL A   1      43.567  32.191  29.133  1.00  0.00     0.031 C 
ATOM     43  C   UNL A   1      41.379  25.736  28.084  1.00  0.00     0.029 A 
ATOM     44  C   UNL A   1      42.782  25.987  27.766  1.00  0.00     0.049 A 
ATOM     45  H   UNL A   1      43.823  27.781  27.956  1.00  0.00     0.167 HD
ATOM     46  C   UNL A   1      45.896  31.586  28.516  1.00  0.00     0.037 A 
ATOM     47  C   UNL A   1      43.645  25.071  27.285  1.00  0.00     0.037 A 
ATOM     48  C   UNL A   1      46.907  30.654  28.079  1.00  0.00     0.049 A 
ATOM     49  C   UNL A   1      45.075  25.468  27.040  1.00  0.00     0.074 A 
ATOM     50  C   UNL A   1      48.261  30.881  27.895  1.00  0.00     0.029 A 
ATOM     51  N   UNL A   1      46.679  29.328  27.745  1.00  0.00    -0.354 N 
ATOM     52  N   UNL A   1      45.655  26.625  27.250  1.00  0.00    -0.248 NA
ATOM     53  C   UNL A   1      45.969  24.436  26.499  1.00  0.00     0.031 C 
ATOM     54  C   UNL A   1      48.840  29.711  27.395  1.00  0.00     0.029 A 
ATOM     55  C   UNL A   1      47.860  28.734  27.324  1.00  0.00     0.049 A 
ATOM     56  H   UNL A   1      45.807  28.874  27.798  1.00  0.00     0.167 HD
ATOM     57  C   UNL A   1      46.985  26.456  26.884  1.00  0.00     0.074 A 
ATOM     58  C   UNL A   1      47.130  25.079  26.459  1.00  0.00     0.031 C 
ATOM     59  C   UNL A   1      47.995  27.361  26.898  1.00  0.00     0.037 A 
BRANCH  46  60
ATOM     60  C   UNL A   1      46.318  33.006  28.782  1.00  0.00     0.058 A 
ATOM     61  C   UNL A   1      46.787  33.404  30.045  1.00  0.00     0.135 A 
ATOM     62  C   UNL A   1      46.341  33.956  27.748  1.00  0.00     0.135 A 
ATOM     63  F   UNL A   1      46.779  32.540  31.073  1.00  0.00    -0.206 F 
ATOM     64  C   UNL A   1      47.249  34.695  30.276  1.00  0.00     0.059 A 
ATOM     65  C   UNL A   1      46.825  35.247  27.949  1.00  0.00     0.059 A 
ATOM     66  F   UNL A   1      45.908  33.629  26.520  1.00  0.00    -0.206 F 
ATOM     67  C   UNL A   1      47.270  35.609  29.220  1.00  0.00     0.060 A 
BRANCH  67  68
ATOM     68  S   UNL A   1      47.897  37.272  29.538  1.00  0.00     0.124 S 
ATOM     69  O   UNL A   1      46.763  38.093  29.130  1.00  0.00    -0.237 OA
ATOM     70  O   UNL A   1      48.168  37.231  30.971  1.00  0.00    -0.237 OA
ATOM     71  O   UNL A   1      49.075  37.362  28.680  1.00  0.00    -0.744 OA
ENDBRANCH  67  68
ENDBRANCH  46  60
BRANCH  47  72
ATOM     72  C   UNL A   1      43.179  23.682  27.031  1.00  0.00     0.058 A 
ATOM     73  C   UNL A   1      42.907  23.237  25.729  1.00  0.00     0.135 A 
ATOM     74  C   UNL A   1      43.028  22.762  28.080  1.00  0.00     0.135 A 
ATOM     75  F   UNL A   1      43.030  24.082  24.693  1.00  0.00    -0.206 F 
ATOM     76  C   UNL A   1      42.491  21.935  25.476  1.00  0.00     0.059 A 
ATOM     77  C   UNL A   1      42.642  21.446  27.851  1.00  0.00     0.059 A 
ATOM     78  F   UNL A   1      43.292  23.133  29.344  1.00  0.00    -0.206 F 
ATOM     79  C   UNL A   1      42.368  21.043  26.544  1.00  0.00     0.060 A 
BRANCH  79  80
ATOM     80  S   UNL A   1      41.880  19.341  26.194  1.00  0.00     0.124 S 
ATOM     81  O   UNL A   1      42.674  19.046  25.007  1.00  0.00    -0.237 OA
ATOM     82  O   UNL A   1      42.280  18.653  27.417  1.00  0.00    -0.237 OA
ATOM     83  O   UNL A   1      40.440  19.441  25.981  1.00  0.00    -0.744 OA
ENDBRANCH  79  80
ENDBRANCH  47  72
BRANCH  59  84
ATOM     84  C   UNL A   1      49.355  26.900  26.450  1.00  0.00     0.058 A 
ATOM     85  C   UNL A   1      50.319  26.452  27.367  1.00  0.00     0.135 A 
ATOM     86  C   UNL A   1      49.675  26.836  25.083  1.00  0.00     0.135 A 
ATOM     87  F   UNL A   1      50.071  26.498  28.685  1.00  0.00    -0.206 F 
ATOM     88  C   UNL A   1      51.556  25.970  26.947  1.00  0.00     0.059 A 
ATOM     89  C   UNL A   1      50.893  26.329  24.638  1.00  0.00     0.059 A 
ATOM     90  F   UNL A   1      48.787  27.244  24.162  1.00  0.00    -0.206 F 
ATOM     91  C   UNL A   1      51.830  25.906  25.579  1.00  0.00     0.060 A 
BRANCH  91  92
ATOM     92  S   UNL A   1      53.420  25.233  25.051  1.00  0.00     0.124 S 
ATOM     93  O   UNL A   1      53.177  23.798  25.137  1.00  0.00    -0.237 OA
ATOM     94  O   UNL A   1      53.553  25.775  23.702  1.00  0.00    -0.237 OA
ATOM     95  O   UNL A   1      54.360  25.770  26.031  1.00  0.00    -0.744 OA
ENDBRANCH  91  92
ENDBRANCH  59  84
ENDBRANCH  33  34
ENDBRANCH  26  28
ENDBRANCH  25  26
ENDBRANCH  24  25
ENDBRANCH   1  24
TORSDOF 18
ENDMDL
MODEL 3
REMARK VINA RESULT:      -9.7      3.494      6.177
REMARK SMILES Cc1cc(F)c(-c2ccc(F)c(C(=O)OCCOCCOC(=O)c3ccc(-c4c5nc(c(-c6c(F)cc(S(=O)(=O)[O-])cc6F)c6ccc([nH]6)c(-c6c(F)cc(S(=O)(=O)[O-])cc6F)c6nc(c(-c7c(F)cc(S(=O)(=O)[O-])cc7F)c7ccc4[nH]7)C=C6)C=C5)cc3)c2)cc1F
REMARK SMILES IDX 19 1 18 2 17 3 16 4 15 5 13 6 14 7 12 8 7 9 8 10 90 11 9 12
REMARK SMILES IDX 10 13 11 14 6 15 1 16 2 17 3 18 92 19 4 20 91 21 93 22 5 23
REMARK SMILES IDX 20 24 21 25 22 26 23 27 24 28 25 29 89 30 26 31 88 32 27 33
REMARK SMILES IDX 28 34 29 35 82 36 30 37 87 38 81 39 83 40 31 41 86 42 80 43
REMARK SMILES IDX 79 44 32 46 66 47 45 48 65 49 46 50 49 51 64 52 84 53 47 54
REMARK SMILES IDX 48 55 63 57 85 58 50 59 33 60 34 61 43 62 35 63 36 64 42 65
REMARK SMILES IDX 44 66 37 67 38 68 39 69 40 70 41 71 67 72 68 73 77 74 69 75
REMARK SMILES IDX 70 76 76 77 78 78 71 79 72 80 73 81 74 82 75 83 51 84 52 85
REMARK SMILES IDX 61 86 53 87 54 88 60 89 62 90 55 91 56 92 57 93 58 94 59 95
REMARK H PARENT 83 45 49 56
REMARK Flexibility Score: inf
ROOT
ATOM      1  C   UNL A   1      32.697  29.704  25.387  1.00  0.00     0.202 C 
ENDROOT
BRANCH   1   2
ATOM      2  O   UNL A   1      31.631  28.860  24.952  1.00  0.00    -0.374 OA
BRANCH   2   3
ATOM      3  C   UNL A   1      31.807  27.449  25.068  1.00  0.00     0.202 C 
BRANCH   3   4
ATOM      4  C   UNL A   1      30.930  26.709  26.086  1.00  0.00     0.261 C 
BRANCH   4   5
ATOM      5  O   UNL A   1      30.211  25.627  25.472  1.00  0.00    -0.460 OA
BRANCH   5   6
ATOM      6  C   UNL A   1      30.601  24.387  25.862  1.00  0.00     0.341 C 
ATOM      7  O   UNL A   1      30.108  23.711  26.747  1.00  0.00    -0.246 OA
BRANCH   6   8
ATOM      8  C   UNL A   1      31.634  23.890  24.932  1.00  0.00     0.096 A 
ATOM      9  C   UNL A   1      33.929  23.260  24.385  1.00  0.00    -0.014 A 
ATOM     10  C   UNL A   1      33.488  22.944  23.083  1.00  0.00     0.012 A 
ATOM     11  C   UNL A   1      32.981  23.749  25.305  1.00  0.00     0.027 A 
ATOM     12  C   UNL A   1      32.156  23.110  22.707  1.00  0.00     0.041 A 
ATOM     13  C   UNL A   1      31.236  23.579  23.633  1.00  0.00     0.137 A 
ATOM     14  F   UNL A   1      29.973  23.765  23.224  1.00  0.00    -0.206 F 
BRANCH   9  15
ATOM     15  C   UNL A   1      35.338  23.017  24.755  1.00  0.00     0.020 A 
ATOM     16  C   UNL A   1      39.267  22.091  26.344  1.00  0.00     0.047 C 
ATOM     17  C   UNL A   1      37.947  22.437  25.725  1.00  0.00    -0.012 A 
ATOM     18  C   UNL A   1      37.380  23.700  25.921  1.00  0.00     0.046 A 
ATOM     19  C   UNL A   1      37.215  21.486  25.016  1.00  0.00     0.126 A 
ATOM     20  C   UNL A   1      36.099  23.978  25.439  1.00  0.00     0.131 A 
ATOM     21  C   UNL A   1      35.940  21.767  24.525  1.00  0.00     0.051 A 
ATOM     22  F   UNL A   1      37.719  20.258  24.823  1.00  0.00    -0.207 F 
ATOM     23  F   UNL A   1      35.580  25.186  25.699  1.00  0.00    -0.206 F 
ENDBRANCH   9  15
ENDBRANCH   6   8
ENDBRANCH   5   6
ENDBRANCH   4   5
ENDBRANCH   3   4
ENDBRANCH   2   3
ENDBRANCH   1   2
BRANCH   1  24
ATOM     24  C   UNL A   1      32.783  30.032  26.884  1.00  0.00     0.261 C 
BRANCH  24  25
ATOM     25  O   UNL A   1      33.985  29.537  27.497  1.00  0.00    -0.460 OA
BRANCH  25  26
ATOM     26  C   UNL A   1      34.709  30.464  28.174  1.00  0.00     0.338 C 
ATOM     27  O   UNL A   1      34.287  31.466  28.730  1.00  0.00    -0.246 OA
BRANCH  26  28
ATOM     28  C   UNL A   1      36.095  29.981  28.322  1.00  0.00     0.060 A 
ATOM     29  C   UNL A   1      36.995  30.022  27.257  1.00  0.00     0.016 A 
ATOM     30  C   UNL A   1      36.498  29.497  29.574  1.00  0.00     0.016 A 
ATOM     31  C   UNL A   1      38.310  29.594  27.457  1.00  0.00     0.010 A 
ATOM     32  C   UNL A   1      37.811  29.070  29.772  1.00  0.00     0.010 A 
ATOM     33  C   UNL A   1      38.733  29.130  28.717  1.00  0.00    -0.014 A 
BRANCH  33  34
ATOM     34  C   UNL A   1      40.167  28.829  28.956  1.00  0.00     0.031 A 
ATOM     35  C   UNL A   1      40.755  27.490  28.621  1.00  0.00     0.074 A 
ATOM     36  C   UNL A   1      40.941  29.792  29.494  1.00  0.00     0.049 A 
ATOM     37  N   UNL A   1      42.002  27.099  28.699  1.00  0.00    -0.248 NA
ATOM     38  C   UNL A   1      39.828  26.453  28.142  1.00  0.00     0.031 C 
ATOM     39  C   UNL A   1      40.468  31.116  29.901  1.00  0.00     0.029 A 
ATOM     40  N   UNL A   1      42.282  29.813  29.784  1.00  0.00    -0.354 N 
ATOM     41  C   UNL A   1      42.018  25.781  28.262  1.00  0.00     0.074 A 
ATOM     42  C   UNL A   1      40.646  25.422  27.966  1.00  0.00     0.031 C 
ATOM     43  C   UNL A   1      41.508  31.832  30.355  1.00  0.00     0.029 A 
ATOM     44  C   UNL A   1      42.714  31.011  30.303  1.00  0.00     0.049 A 
ATOM     45  H   UNL A   1      42.878  29.045  29.635  1.00  0.00     0.167 HD
ATOM     46  C   UNL A   1      43.083  24.958  28.102  1.00  0.00     0.037 A 
ATOM     47  C   UNL A   1      43.942  31.408  30.689  1.00  0.00     0.037 A 
ATOM     48  C   UNL A   1      44.444  25.325  28.413  1.00  0.00     0.049 A 
ATOM     49  C   UNL A   1      45.100  30.461  30.539  1.00  0.00     0.074 A 
ATOM     50  C   UNL A   1      45.594  24.572  28.246  1.00  0.00     0.029 A 
ATOM     51  N   UNL A   1      44.839  26.533  28.967  1.00  0.00    -0.354 N 
ATOM     52  N   UNL A   1      45.110  29.246  30.046  1.00  0.00    -0.248 NA
ATOM     53  C   UNL A   1      46.414  30.938  30.992  1.00  0.00     0.031 C 
ATOM     54  C   UNL A   1      46.674  25.301  28.751  1.00  0.00     0.029 A 
ATOM     55  C   UNL A   1      46.210  26.534  29.178  1.00  0.00     0.049 A 
ATOM     56  H   UNL A   1      44.235  27.281  29.180  1.00  0.00     0.167 HD
ATOM     57  C   UNL A   1      46.432  28.819  30.113  1.00  0.00     0.074 A 
ATOM     58  C   UNL A   1      47.196  29.915  30.674  1.00  0.00     0.031 C 
ATOM     59  C   UNL A   1      46.963  27.628  29.742  1.00  0.00     0.037 A 
BRANCH  46  60
ATOM     60  C   UNL A   1      42.835  23.578  27.556  1.00  0.00     0.058 A 
ATOM     61  C   UNL A   1      42.984  23.296  26.188  1.00  0.00     0.135 A 
ATOM     62  C   UNL A   1      42.535  22.508  28.415  1.00  0.00     0.135 A 
ATOM     63  F   UNL A   1      43.261  24.282  25.320  1.00  0.00    -0.206 F 
ATOM     64  C   UNL A   1      42.829  22.007  25.690  1.00  0.00     0.059 A 
ATOM     65  C   UNL A   1      42.402  21.204  27.942  1.00  0.00     0.059 A 
ATOM     66  F   UNL A   1      42.385  22.719  29.732  1.00  0.00    -0.206 F 
ATOM     67  C   UNL A   1      42.544  20.966  26.575  1.00  0.00     0.060 A 
BRANCH  67  68
ATOM     68  S   UNL A   1      42.373  19.297  25.909  1.00  0.00     0.124 S 
ATOM     69  O   UNL A   1      42.889  18.489  27.009  1.00  0.00    -0.237 OA
ATOM     70  O   UNL A   1      40.935  19.204  25.674  1.00  0.00    -0.237 OA
ATOM     71  O   UNL A   1      43.203  19.321  24.708  1.00  0.00    -0.744 OA
ENDBRANCH  67  68
ENDBRANCH  46  60
BRANCH  47  72
ATOM     72  C   UNL A   1      44.136  32.780  31.229  1.00  0.00     0.058 A 
ATOM     73  C   UNL A   1      44.037  33.036  32.604  1.00  0.00     0.135 A 
ATOM     74  C   UNL A   1      44.455  33.856  30.385  1.00  0.00     0.135 A 
ATOM     75  F   UNL A   1      43.727  32.042  33.451  1.00  0.00    -0.206 F 
ATOM     76  C   UNL A   1      44.238  34.310  33.124  1.00  0.00     0.059 A 
ATOM     77  C   UNL A   1      44.690  35.133  30.884  1.00  0.00     0.059 A 
ATOM     78  F   UNL A   1      44.578  33.660  29.062  1.00  0.00    -0.206 F 
ATOM     79  C   UNL A   1      44.571  35.352  32.255  1.00  0.00     0.060 A 
BRANCH  79  80
ATOM     80  S   UNL A   1      44.881  36.988  32.951  1.00  0.00     0.124 S 
ATOM     81  O   UNL A   1      45.206  36.663  34.335  1.00  0.00    -0.237 OA
ATOM     82  O   UNL A   1      45.990  37.462  32.129  1.00  0.00    -0.237 OA
ATOM     83  O   UNL A   1      43.616  37.686  32.747  1.00  0.00    -0.744 OA
ENDBRANCH  79  80
ENDBRANCH  47  72
BRANCH  59  84
ATOM     84  C   UNL A   1      48.445  27.436  29.920  1.00  0.00     0.058 A 
ATOM     85  C   UNL A   1      48.971  26.764  31.035  1.00  0.00     0.135 A 
ATOM     86  C   UNL A   1      49.346  27.865  28.931  1.00  0.00     0.135 A 
ATOM     87  F   UNL A   1      48.158  26.340  32.014  1.00  0.00    -0.206 F 
ATOM     88  C   UNL A   1      50.338  26.536  31.169  1.00  0.00     0.059 A 
ATOM     89  C   UNL A   1      50.713  27.621  29.029  1.00  0.00     0.059 A 
ATOM     90  F   UNL A   1      48.897  28.506  27.840  1.00  0.00    -0.206 F 
ATOM     91  C   UNL A   1      51.200  26.961  30.157  1.00  0.00     0.060 A 
BRANCH  91  92
ATOM     92  S   UNL A   1      52.964  26.614  30.326  1.00  0.00     0.124 S 
ATOM     93  O   UNL A   1      52.965  25.587  31.361  1.00  0.00    -0.237 OA
ATOM     94  O   UNL A   1      53.321  26.164  28.984  1.00  0.00    -0.237 OA
ATOM     95  O   UNL A   1      53.529  27.902  30.720  1.00  0.00    -0.744 OA
ENDBRANCH  91  92
ENDBRANCH  59  84
ENDBRANCH  33  34
ENDBRANCH  26  28
ENDBRANCH  25  26
ENDBRANCH  24  25
ENDBRANCH   1  24
TORSDOF 18
ENDMDL
