MODEL 1
REMARK VINA RESULT:     -10.8      0.000      0.000
REMARK SMILES O=C(C[C@@H]1CN(c2cc(C(F)(F)F)ccn2)CCO1)OCCOCCOC(=O)c1ccc(-c2c3nc(c(-c4c(F)cc(S(=O)(=O)[O-])cc4F)c4ccc([nH]4)c(-c4c(F)cc(S(=O)(=O)[O-])cc4F)c4nc(c(-c5c(F)cc(S(=O)(=O)[O-])cc5F)c5ccc2[nH]5)C=C4)C=C3)cc1
REMARK SMILES IDX 23 1 22 2 21 3 20 4 2 5 1 6 3 7 4 8 5 9 19 10 6 11 18 12
REMARK SMILES IDX 17 13 7 14 8 15 16 16 9 17 15 18 14 19 10 20 11 21 12 22
REMARK SMILES IDX 13 23 24 24 25 25 26 26 27 27 28 28 29 29 30 30 94 31 31 32
REMARK SMILES IDX 93 33 32 34 33 35 34 36 87 37 35 38 92 39 86 40 88 41 36 42
REMARK SMILES IDX 91 43 85 44 84 45 37 47 71 48 50 49 70 50 51 51 54 52 69 53
REMARK SMILES IDX 89 54 52 55 53 56 68 58 90 59 55 60 38 61 39 62 48 63 40 64
REMARK SMILES IDX 41 65 47 66 49 67 42 68 43 69 44 70 45 71 46 72 72 73 73 74
REMARK SMILES IDX 82 75 74 76 75 77 81 78 83 79 76 80 77 81 78 82 79 83 80 84
REMARK SMILES IDX 56 85 57 86 66 87 58 88 59 89 65 90 67 91 60 92 61 93 62 94
REMARK SMILES IDX 63 95 64 96
REMARK H PARENT 88 46 54 57
REMARK Flexibility Score: inf
ROOT
ATOM      1  O   UNL A   1      32.773  29.224  26.297  1.00  0.00    -0.374 OA
ENDROOT
BRANCH   1   2
ATOM      2  C   UNL A   1      32.192  29.706  25.093  1.00  0.00     0.202 C 
BRANCH   2   3
ATOM      3  C   UNL A   1      32.380  28.879  23.829  1.00  0.00     0.261 C 
BRANCH   3   4
ATOM      4  O   UNL A   1      32.501  27.462  24.046  1.00  0.00    -0.463 OA
BRANCH   4   5
ATOM      5  C   UNL A   1      32.694  26.524  23.097  1.00  0.00     0.308 C 
ATOM      6  O   UNL A   1      33.608  26.658  22.284  1.00  0.00    -0.252 OA
BRANCH   5   7
ATOM      7  C   UNL A   1      31.764  25.343  22.987  1.00  0.00     0.156 C 
BRANCH   7   8
ATOM      8  C   UNL A   1      31.840  24.447  24.204  1.00  0.00     0.148 C 
ATOM      9  C   UNL A   1      31.226  23.072  23.940  1.00  0.00     0.150 C 
ATOM     10  O   UNL A   1      31.150  25.072  25.311  1.00  0.00    -0.374 OA
ATOM     11  N   UNL A   1      31.386  22.266  25.146  1.00  0.00    -0.352 N 
ATOM     12  C   UNL A   1      31.339  24.314  26.523  1.00  0.00     0.182 C 
ATOM     13  C   UNL A   1      30.866  22.854  26.379  1.00  0.00     0.146 C 
BRANCH  11  14
ATOM     14  C   UNL A   1      32.384  21.325  25.177  1.00  0.00     0.129 A 
ATOM     15  C   UNL A   1      33.732  21.675  25.227  1.00  0.00     0.060 A 
ATOM     16  N   UNL A   1      32.007  20.047  25.001  1.00  0.00    -0.239 NA
ATOM     17  C   UNL A   1      34.723  20.712  25.009  1.00  0.00     0.061 A 
ATOM     18  C   UNL A   1      32.968  19.121  24.793  1.00  0.00     0.114 A 
ATOM     19  C   UNL A   1      34.321  19.401  24.772  1.00  0.00     0.033 A 
BRANCH  17  20
ATOM     20  C   UNL A   1      36.180  21.090  24.979  1.00  0.00     0.416 C 
ATOM     21  F   UNL A   1      36.982  20.027  24.707  1.00  0.00    -0.166 F 
ATOM     22  F   UNL A   1      36.446  22.021  24.023  1.00  0.00    -0.166 F 
ATOM     23  F   UNL A   1      36.627  21.615  26.152  1.00  0.00    -0.166 F 
ENDBRANCH  17  20
ENDBRANCH  11  14
ENDBRANCH   7   8
ENDBRANCH   5   7
ENDBRANCH   4   5
ENDBRANCH   3   4
ENDBRANCH   2   3
ENDBRANCH   1   2
BRANCH   1  24
ATOM     24  C   UNL A   1      33.709  30.095  26.944  1.00  0.00     0.202 C 
BRANCH  24  25
ATOM     25  C   UNL A   1      34.849  29.410  27.701  1.00  0.00     0.261 C 
BRANCH  25  26
ATOM     26  O   UNL A   1      35.781  30.369  28.220  1.00  0.00    -0.460 OA
BRANCH  26  27
ATOM     27  C   UNL A   1      36.339  30.050  29.412  1.00  0.00     0.338 C 
ATOM     28  O   UNL A   1      35.760  29.732  30.439  1.00  0.00    -0.246 OA
BRANCH  27  29
ATOM     29  C   UNL A   1      37.794  29.895  29.213  1.00  0.00     0.060 A 
ATOM     30  C   UNL A   1      38.272  29.729  27.903  1.00  0.00     0.016 A 
ATOM     31  C   UNL A   1      38.675  29.933  30.295  1.00  0.00     0.016 A 
ATOM     32  C   UNL A   1      39.632  29.544  27.676  1.00  0.00     0.010 A 
ATOM     33  C   UNL A   1      40.034  29.735  30.069  1.00  0.00     0.010 A 
ATOM     34  C   UNL A   1      40.508  29.496  28.766  1.00  0.00    -0.014 A 
BRANCH  34  35
ATOM     35  C   UNL A   1      41.884  28.986  28.600  1.00  0.00     0.031 A 
ATOM     36  C   UNL A   1      43.003  29.988  28.609  1.00  0.00     0.074 A 
ATOM     37  C   UNL A   1      42.118  27.682  28.385  1.00  0.00     0.049 A 
ATOM     38  N   UNL A   1      44.262  29.828  28.308  1.00  0.00    -0.248 NA
ATOM     39  C   UNL A   1      42.641  31.364  28.990  1.00  0.00     0.031 C 
ATOM     40  C   UNL A   1      41.103  26.630  28.384  1.00  0.00     0.029 A 
ATOM     41  N   UNL A   1      43.286  27.030  28.082  1.00  0.00    -0.354 N 
ATOM     42  C   UNL A   1      44.837  31.088  28.427  1.00  0.00     0.074 A 
ATOM     43  C   UNL A   1      43.785  32.004  28.808  1.00  0.00     0.031 C 
ATOM     44  C   UNL A   1      41.687  25.467  28.052  1.00  0.00     0.029 A 
ATOM     45  C   UNL A   1      43.102  25.703  27.775  1.00  0.00     0.049 A 
ATOM     46  H   UNL A   1      44.167  27.468  28.085  1.00  0.00     0.167 HD
ATOM     47  C   UNL A   1      46.127  31.443  28.233  1.00  0.00     0.037 A 
ATOM     48  C   UNL A   1      43.972  24.801  27.279  1.00  0.00     0.037 A 
ATOM     49  C   UNL A   1      47.154  30.512  27.850  1.00  0.00     0.049 A 
ATOM     50  C   UNL A   1      45.395  25.220  27.025  1.00  0.00     0.074 A 
ATOM     51  C   UNL A   1      48.504  30.746  27.668  1.00  0.00     0.029 A 
ATOM     52  N   UNL A   1      46.937  29.168  27.575  1.00  0.00    -0.354 N 
ATOM     53  N   UNL A   1      45.945  26.403  27.181  1.00  0.00    -0.248 NA
ATOM     54  C   UNL A   1      46.320  24.190  26.534  1.00  0.00     0.031 C 
ATOM     55  C   UNL A   1      49.092  29.560  27.218  1.00  0.00     0.029 A 
ATOM     56  C   UNL A   1      48.123  28.567  27.190  1.00  0.00     0.049 A 
ATOM     57  H   UNL A   1      46.069  28.710  27.643  1.00  0.00     0.167 HD
ATOM     58  C   UNL A   1      47.284  26.252  26.836  1.00  0.00     0.074 A 
ATOM     59  C   UNL A   1      47.461  24.863  26.464  1.00  0.00     0.031 C 
ATOM     60  C   UNL A   1      48.277  27.176  26.834  1.00  0.00     0.037 A 
BRANCH  47  61
ATOM     61  C   UNL A   1      46.480  32.898  28.381  1.00  0.00     0.058 A 
ATOM     62  C   UNL A   1      46.920  33.441  29.600  1.00  0.00     0.135 A 
ATOM     63  C   UNL A   1      46.371  33.768  27.283  1.00  0.00     0.135 A 
ATOM     64  F   UNL A   1      47.026  32.662  30.689  1.00  0.00    -0.206 F 
ATOM     65  C   UNL A   1      47.197  34.798  29.735  1.00  0.00     0.059 A 
ATOM     66  C   UNL A   1      46.676  35.121  27.386  1.00  0.00     0.059 A 
ATOM     67  F   UNL A   1      45.952  33.306  26.094  1.00  0.00    -0.206 F 
ATOM     68  C   UNL A   1      47.068  35.631  28.622  1.00  0.00     0.060 A 
BRANCH  68  69
ATOM     69  S   UNL A   1      47.410  37.392  28.819  1.00  0.00     0.124 S 
ATOM     70  O   UNL A   1      48.868  37.398  28.895  1.00  0.00    -0.237 OA
ATOM     71  O   UNL A   1      46.837  37.958  27.601  1.00  0.00    -0.237 OA
ATOM     72  O   UNL A   1      46.717  37.738  30.055  1.00  0.00    -0.744 OA
ENDBRANCH  68  69
ENDBRANCH  47  61
BRANCH  48  73
ATOM     73  C   UNL A   1      43.498  23.425  26.971  1.00  0.00     0.058 A 
ATOM     74  C   UNL A   1      43.272  23.014  25.650  1.00  0.00     0.135 A 
ATOM     75  C   UNL A   1      43.319  22.476  27.991  1.00  0.00     0.135 A 
ATOM     76  F   UNL A   1      43.420  23.886  24.642  1.00  0.00    -0.206 F 
ATOM     77  C   UNL A   1      42.888  21.710  25.350  1.00  0.00     0.059 A 
ATOM     78  C   UNL A   1      42.962  21.160  27.714  1.00  0.00     0.059 A 
ATOM     79  F   UNL A   1      43.534  22.817  29.272  1.00  0.00    -0.206 F 
ATOM     80  C   UNL A   1      42.747  20.788  26.389  1.00  0.00     0.060 A 
BRANCH  80  81
ATOM     81  S   UNL A   1      42.333  19.078  25.975  1.00  0.00     0.124 S 
ATOM     82  O   UNL A   1      40.909  19.182  25.683  1.00  0.00    -0.237 OA
ATOM     83  O   UNL A   1      43.203  18.825  24.831  1.00  0.00    -0.237 OA
ATOM     84  O   UNL A   1      42.678  18.346  27.190  1.00  0.00    -0.744 OA
ENDBRANCH  80  81
ENDBRANCH  48  73
BRANCH  60  85
ATOM     85  C   UNL A   1      49.662  26.720  26.466  1.00  0.00     0.058 A 
ATOM     86  C   UNL A   1      50.498  26.069  27.385  1.00  0.00     0.135 A 
ATOM     87  C   UNL A   1      50.113  26.842  25.141  1.00  0.00     0.135 A 
ATOM     88  F   UNL A   1      50.120  25.933  28.666  1.00  0.00    -0.206 F 
ATOM     89  C   UNL A   1      51.735  25.555  27.003  1.00  0.00     0.059 A 
ATOM     90  C   UNL A   1      51.331  26.310  24.731  1.00  0.00     0.059 A 
ATOM     91  F   UNL A   1      49.347  27.449  24.220  1.00  0.00    -0.206 F 
ATOM     92  C   UNL A   1      52.136  25.670  25.670  1.00  0.00     0.060 A 
BRANCH  92  93
ATOM     93  S   UNL A   1      53.706  24.930  25.173  1.00  0.00     0.124 S 
ATOM     94  O   UNL A   1      53.975  25.624  23.919  1.00  0.00    -0.237 OA
ATOM     95  O   UNL A   1      54.579  25.276  26.291  1.00  0.00    -0.237 OA
ATOM     96  O   UNL A   1      53.389  23.510  25.050  1.00  0.00    -0.744 OA
ENDBRANCH  92  93
ENDBRANCH  60  85
ENDBRANCH  34  35
ENDBRANCH  27  29
ENDBRANCH  26  27
ENDBRANCH  25  26
ENDBRANCH  24  25
ENDBRANCH   1  24
TORSDOF 20
ENDMDL
MODEL 2
REMARK VINA RESULT:     -10.5      1.451      2.397
REMARK SMILES O=C(C[C@@H]1CN(c2cc(C(F)(F)F)ccn2)CCO1)OCCOCCOC(=O)c1ccc(-c2c3nc(c(-c4c(F)cc(S(=O)(=O)[O-])cc4F)c4ccc([nH]4)c(-c4c(F)cc(S(=O)(=O)[O-])cc4F)c4nc(c(-c5c(F)cc(S(=O)(=O)[O-])cc5F)c5ccc2[nH]5)C=C4)C=C3)cc1
REMARK SMILES IDX 23 1 22 2 21 3 20 4 2 5 1 6 3 7 4 8 5 9 19 10 6 11 18 12
REMARK SMILES IDX 17 13 7 14 8 15 16 16 9 17 15 18 14 19 10 20 11 21 12 22
REMARK SMILES IDX 13 23 24 24 25 25 26 26 27 27 28 28 29 29 30 30 94 31 31 32
REMARK SMILES IDX 93 33 32 34 33 35 34 36 87 37 35 38 92 39 86 40 88 41 36 42
REMARK SMILES IDX 91 43 85 44 84 45 37 47 71 48 50 49 70 50 51 51 54 52 69 53
REMARK SMILES IDX 89 54 52 55 53 56 68 58 90 59 55 60 38 61 39 62 48 63 40 64
REMARK SMILES IDX 41 65 47 66 49 67 42 68 43 69 44 70 45 71 46 72 72 73 73 74
REMARK SMILES IDX 82 75 74 76 75 77 81 78 83 79 76 80 77 81 78 82 79 83 80 84
REMARK SMILES IDX 56 85 57 86 66 87 58 88 59 89 65 90 67 91 60 92 61 93 62 94
REMARK SMILES IDX 63 95 64 96
REMARK H PARENT 88 46 54 57
REMARK Flexibility Score: inf
ROOT
ATOM      1  O   UNL A   1      34.873  32.614  27.617  1.00  0.00    -0.374 OA
ENDROOT
BRANCH   1   2
ATOM      2  C   UNL A   1      34.160  31.384  27.616  1.00  0.00     0.202 C 
BRANCH   2   3
ATOM      3  C   UNL A   1      32.697  31.407  27.197  1.00  0.00     0.261 C 
BRANCH   3   4
ATOM      4  O   UNL A   1      32.183  30.148  26.730  1.00  0.00    -0.463 OA
BRANCH   4   5
ATOM      5  C   UNL A   1      31.994  29.792  25.443  1.00  0.00     0.308 C 
ATOM      6  O   UNL A   1      30.890  29.947  24.923  1.00  0.00    -0.252 OA
BRANCH   5   7
ATOM      7  C   UNL A   1      33.107  29.151  24.654  1.00  0.00     0.156 C 
BRANCH   7   8
ATOM      8  C   UNL A   1      32.644  27.904  23.934  1.00  0.00     0.148 C 
ATOM      9  C   UNL A   1      33.787  27.220  23.183  1.00  0.00     0.150 C 
ATOM     10  O   UNL A   1      31.597  28.246  22.997  1.00  0.00    -0.374 OA
ATOM     11  N   UNL A   1      33.260  26.010  22.562  1.00  0.00    -0.352 N 
ATOM     12  C   UNL A   1      31.031  27.057  22.408  1.00  0.00     0.182 C 
ATOM     13  C   UNL A   1      32.093  26.192  21.702  1.00  0.00     0.146 C 
BRANCH  11  14
ATOM     14  C   UNL A   1      33.519  24.802  23.158  1.00  0.00     0.129 A 
ATOM     15  C   UNL A   1      34.592  24.620  24.028  1.00  0.00     0.060 A 
ATOM     16  N   UNL A   1      32.779  23.758  22.745  1.00  0.00    -0.239 NA
ATOM     17  C   UNL A   1      34.974  23.333  24.423  1.00  0.00     0.061 A 
ATOM     18  C   UNL A   1      33.151  22.519  23.131  1.00  0.00     0.114 A 
ATOM     19  C   UNL A   1      34.236  22.255  23.945  1.00  0.00     0.033 A 
BRANCH  17  20
ATOM     20  C   UNL A   1      36.181  23.115  25.297  1.00  0.00     0.416 C 
ATOM     21  F   UNL A   1      35.991  23.575  26.562  1.00  0.00    -0.166 F 
ATOM     22  F   UNL A   1      36.492  21.795  25.416  1.00  0.00    -0.166 F 
ATOM     23  F   UNL A   1      37.304  23.727  24.832  1.00  0.00    -0.166 F 
ENDBRANCH  17  20
ENDBRANCH  11  14
ENDBRANCH   7   8
ENDBRANCH   5   7
ENDBRANCH   4   5
ENDBRANCH   3   4
ENDBRANCH   2   3
ENDBRANCH   1   2
BRANCH   1  24
ATOM     24  C   UNL A   1      35.686  32.876  28.767  1.00  0.00     0.202 C 
BRANCH  24  25
ATOM     25  C   UNL A   1      35.303  32.124  30.045  1.00  0.00     0.261 C 
BRANCH  25  26
ATOM     26  O   UNL A   1      36.462  31.785  30.818  1.00  0.00    -0.460 OA
BRANCH  26  27
ATOM     27  C   UNL A   1      36.754  30.464  30.879  1.00  0.00     0.338 C 
ATOM     28  O   UNL A   1      35.971  29.539  31.026  1.00  0.00    -0.246 OA
BRANCH  27  29
ATOM     29  C   UNL A   1      38.164  30.284  30.479  1.00  0.00     0.060 A 
ATOM     30  C   UNL A   1      38.467  30.256  29.108  1.00  0.00     0.016 A 
ATOM     31  C   UNL A   1      39.173  30.168  31.436  1.00  0.00     0.016 A 
ATOM     32  C   UNL A   1      39.778  30.053  28.689  1.00  0.00     0.010 A 
ATOM     33  C   UNL A   1      40.482  29.952  31.016  1.00  0.00     0.010 A 
ATOM     34  C   UNL A   1      40.779  29.850  29.645  1.00  0.00    -0.014 A 
BRANCH  34  35
ATOM     35  C   UNL A   1      42.098  29.317  29.248  1.00  0.00     0.031 A 
ATOM     36  C   UNL A   1      43.231  30.294  29.115  1.00  0.00     0.074 A 
ATOM     37  C   UNL A   1      42.261  28.017  28.955  1.00  0.00     0.049 A 
ATOM     38  N   UNL A   1      44.424  30.118  28.615  1.00  0.00    -0.248 NA
ATOM     39  C   UNL A   1      42.970  31.663  29.594  1.00  0.00     0.031 C 
ATOM     40  C   UNL A   1      41.230  26.989  29.079  1.00  0.00     0.029 A 
ATOM     41  N   UNL A   1      43.349  27.352  28.451  1.00  0.00    -0.354 N 
ATOM     42  C   UNL A   1      45.043  31.361  28.685  1.00  0.00     0.074 A 
ATOM     43  C   UNL A   1      44.089  32.284  29.257  1.00  0.00     0.031 C 
ATOM     44  C   UNL A   1      41.723  25.826  28.621  1.00  0.00     0.029 A 
ATOM     45  C   UNL A   1      43.084  26.042  28.133  1.00  0.00     0.049 A 
ATOM     46  H   UNL A   1      44.231  27.771  28.331  1.00  0.00     0.167 HD
ATOM     47  C   UNL A   1      46.297  31.696  28.302  1.00  0.00     0.037 A 
ATOM     48  C   UNL A   1      43.841  25.141  27.476  1.00  0.00     0.037 A 
ATOM     49  C   UNL A   1      47.226  30.757  27.733  1.00  0.00     0.049 A 
ATOM     50  C   UNL A   1      45.218  25.539  27.016  1.00  0.00     0.074 A 
ATOM     51  C   UNL A   1      48.537  30.969  27.348  1.00  0.00     0.029 A 
ATOM     52  N   UNL A   1      46.933  29.429  27.450  1.00  0.00    -0.354 N 
ATOM     53  N   UNL A   1      45.817  26.703  27.124  1.00  0.00    -0.248 NA
ATOM     54  C   UNL A   1      46.026  24.508  26.352  1.00  0.00     0.031 C 
ATOM     55  C   UNL A   1      49.015  29.789  26.772  1.00  0.00     0.029 A 
ATOM     56  C   UNL A   1      48.028  28.818  26.864  1.00  0.00     0.049 A 
ATOM     57  H   UNL A   1      46.073  28.988  27.638  1.00  0.00     0.167 HD
ATOM     58  C   UNL A   1      47.081  26.537  26.568  1.00  0.00     0.074 A 
ATOM     59  C   UNL A   1      47.160  25.159  26.126  1.00  0.00     0.031 C 
ATOM     60  C   UNL A   1      48.087  27.438  26.441  1.00  0.00     0.037 A 
BRANCH  47  61
ATOM     61  C   UNL A   1      46.707  33.136  28.442  1.00  0.00     0.058 A 
ATOM     62  C   UNL A   1      47.297  33.636  29.616  1.00  0.00     0.135 A 
ATOM     63  C   UNL A   1      46.503  34.036  27.383  1.00  0.00     0.135 A 
ATOM     64  F   UNL A   1      47.499  32.827  30.669  1.00  0.00    -0.206 F 
ATOM     65  C   UNL A   1      47.628  34.980  29.749  1.00  0.00     0.059 A 
ATOM     66  C   UNL A   1      46.858  35.377  27.481  1.00  0.00     0.059 A 
ATOM     67  F   UNL A   1      45.940  33.615  26.239  1.00  0.00    -0.206 F 
ATOM     68  C   UNL A   1      47.400  35.844  28.676  1.00  0.00     0.060 A 
BRANCH  68  69
ATOM     69  S   UNL A   1      47.815  37.590  28.872  1.00  0.00     0.124 S 
ATOM     70  O   UNL A   1      46.536  38.147  29.300  1.00  0.00    -0.237 OA
ATOM     71  O   UNL A   1      48.860  37.549  29.891  1.00  0.00    -0.237 OA
ATOM     72  O   UNL A   1      48.258  37.987  27.540  1.00  0.00    -0.744 OA
ENDBRANCH  68  69
ENDBRANCH  47  61
BRANCH  48  73
ATOM     73  C   UNL A   1      43.288  23.788  27.201  1.00  0.00     0.058 A 
ATOM     74  C   UNL A   1      42.784  23.454  25.936  1.00  0.00     0.135 A 
ATOM     75  C   UNL A   1      43.308  22.783  28.183  1.00  0.00     0.135 A 
ATOM     76  F   UNL A   1      42.734  24.380  24.968  1.00  0.00    -0.206 F 
ATOM     77  C   UNL A   1      42.322  22.172  25.652  1.00  0.00     0.059 A 
ATOM     78  C   UNL A   1      42.877  21.488  27.916  1.00  0.00     0.059 A 
ATOM     79  F   UNL A   1      43.792  23.050  29.407  1.00  0.00    -0.206 F 
ATOM     80  C   UNL A   1      42.383  21.193  26.647  1.00  0.00     0.060 A 
BRANCH  80  81
ATOM     81  S   UNL A   1      41.861  19.512  26.237  1.00  0.00     0.124 S 
ATOM     82  O   UNL A   1      40.424  19.684  26.066  1.00  0.00    -0.237 OA
ATOM     83  O   UNL A   1      42.622  19.247  25.020  1.00  0.00    -0.237 OA
ATOM     84  O   UNL A   1      42.271  18.739  27.405  1.00  0.00    -0.744 OA
ENDBRANCH  80  81
ENDBRANCH  48  73
BRANCH  60  85
ATOM     85  C   UNL A   1      49.385  26.967  25.845  1.00  0.00     0.058 A 
ATOM     86  C   UNL A   1      49.685  27.146  24.487  1.00  0.00     0.135 A 
ATOM     87  C   UNL A   1      50.383  26.427  26.674  1.00  0.00     0.135 A 
ATOM     88  F   UNL A   1      48.765  27.649  23.651  1.00  0.00    -0.206 F 
ATOM     89  C   UNL A   1      50.932  26.805  23.970  1.00  0.00     0.059 A 
ATOM     90  C   UNL A   1      51.644  26.107  26.184  1.00  0.00     0.059 A 
ATOM     91  F   UNL A   1      50.148  26.243  27.983  1.00  0.00    -0.206 F 
ATOM     92  C   UNL A   1      51.909  26.298  24.830  1.00  0.00     0.060 A 
BRANCH  92  93
ATOM     93  S   UNL A   1      53.545  25.933  24.160  1.00  0.00     0.124 S 
ATOM     94  O   UNL A   1      53.287  25.952  22.724  1.00  0.00    -0.237 OA
ATOM     95  O   UNL A   1      54.346  27.039  24.676  1.00  0.00    -0.237 OA
ATOM     96  O   UNL A   1      53.860  24.623  24.724  1.00  0.00    -0.744 OA
ENDBRANCH  92  93
ENDBRANCH  60  85
ENDBRANCH  34  35
ENDBRANCH  27  29
ENDBRANCH  26  27
ENDBRANCH  25  26
ENDBRANCH  24  25
ENDBRANCH   1  24
TORSDOF 20
ENDMDL
MODEL 3
REMARK VINA RESULT:     -10.2     10.147     16.731
REMARK SMILES O=C(C[C@@H]1CN(c2cc(C(F)(F)F)ccn2)CCO1)OCCOCCOC(=O)c1ccc(-c2c3nc(c(-c4c(F)cc(S(=O)(=O)[O-])cc4F)c4ccc([nH]4)c(-c4c(F)cc(S(=O)(=O)[O-])cc4F)c4nc(c(-c5c(F)cc(S(=O)(=O)[O-])cc5F)c5ccc2[nH]5)C=C4)C=C3)cc1
REMARK SMILES IDX 23 1 22 2 21 3 20 4 2 5 1 6 3 7 4 8 5 9 19 10 6 11 18 12
REMARK SMILES IDX 17 13 7 14 8 15 16 16 9 17 15 18 14 19 10 20 11 21 12 22
REMARK SMILES IDX 13 23 24 24 25 25 26 26 27 27 28 28 29 29 30 30 94 31 31 32
REMARK SMILES IDX 93 33 32 34 33 35 34 36 87 37 35 38 92 39 86 40 88 41 36 42
REMARK SMILES IDX 91 43 85 44 84 45 37 47 71 48 50 49 70 50 51 51 54 52 69 53
REMARK SMILES IDX 89 54 52 55 53 56 68 58 90 59 55 60 38 61 39 62 48 63 40 64
REMARK SMILES IDX 41 65 47 66 49 67 42 68 43 69 44 70 45 71 46 72 72 73 73 74
REMARK SMILES IDX 82 75 74 76 75 77 81 78 83 79 76 80 77 81 78 82 79 83 80 84
REMARK SMILES IDX 56 85 57 86 66 87 58 88 59 89 65 90 67 91 60 92 61 93 62 94
REMARK SMILES IDX 63 95 64 96
REMARK H PARENT 88 46 54 57
REMARK Flexibility Score: inf
ROOT
ATOM      1  O   UNL A   1      46.145  23.076  38.723  1.00  0.00    -0.374 OA
ENDROOT
BRANCH   1   2
ATOM      2  C   UNL A   1      45.987  21.953  39.579  1.00  0.00     0.202 C 
BRANCH   2   3
ATOM      3  C   UNL A   1      46.921  20.767  39.382  1.00  0.00     0.261 C 
BRANCH   3   4
ATOM      4  O   UNL A   1      46.438  19.522  39.916  1.00  0.00    -0.463 OA
BRANCH   4   5
ATOM      5  C   UNL A   1      46.953  18.852  40.966  1.00  0.00     0.308 C 
ATOM      6  O   UNL A   1      47.418  19.477  41.919  1.00  0.00    -0.252 OA
BRANCH   5   7
ATOM      7  C   UNL A   1      47.017  17.347  40.958  1.00  0.00     0.156 C 
BRANCH   7   8
ATOM      8  C   UNL A   1      45.990  16.731  41.882  1.00  0.00     0.148 C 
ATOM      9  C   UNL A   1      44.579  17.243  41.590  1.00  0.00     0.150 C 
ATOM     10  O   UNL A   1      46.330  17.033  43.256  1.00  0.00    -0.374 OA
ATOM     11  N   UNL A   1      43.655  16.565  42.493  1.00  0.00    -0.352 N 
ATOM     12  C   UNL A   1      45.456  16.331  44.164  1.00  0.00     0.182 C 
ATOM     13  C   UNL A   1      43.971  16.659  43.917  1.00  0.00     0.146 C 
BRANCH  11  14
ATOM     14  C   UNL A   1      42.903  15.528  42.002  1.00  0.00     0.129 A 
ATOM     15  C   UNL A   1      42.664  14.370  42.741  1.00  0.00     0.060 A 
ATOM     16  N   UNL A   1      42.533  15.613  40.712  1.00  0.00    -0.239 NA
ATOM     17  C   UNL A   1      42.110  13.241  42.130  1.00  0.00     0.061 A 
ATOM     18  C   UNL A   1      41.997  14.521  40.128  1.00  0.00     0.114 A 
ATOM     19  C   UNL A   1      41.782  13.321  40.779  1.00  0.00     0.033 A 
BRANCH  17  20
ATOM     20  C   UNL A   1      41.920  11.958  42.894  1.00  0.00     0.416 C 
ATOM     21  F   UNL A   1      40.626  11.761  43.259  1.00  0.00    -0.166 F 
ATOM     22  F   UNL A   1      42.277  10.869  42.159  1.00  0.00    -0.166 F 
ATOM     23  F   UNL A   1      42.653  11.897  44.039  1.00  0.00    -0.166 F 
ENDBRANCH  17  20
ENDBRANCH  11  14
ENDBRANCH   7   8
ENDBRANCH   5   7
ENDBRANCH   4   5
ENDBRANCH   3   4
ENDBRANCH   2   3
ENDBRANCH   1   2
BRANCH   1  24
ATOM     24  C   UNL A   1      47.269  23.924  38.989  1.00  0.00     0.202 C 
BRANCH  24  25
ATOM     25  C   UNL A   1      47.805  24.721  37.797  1.00  0.00     0.261 C 
BRANCH  25  26
ATOM     26  O   UNL A   1      47.242  26.039  37.756  1.00  0.00    -0.460 OA
BRANCH  26  27
ATOM     27  C   UNL A   1      47.478  26.737  36.618  1.00  0.00     0.338 C 
ATOM     28  O   UNL A   1      48.419  26.606  35.853  1.00  0.00    -0.246 OA
BRANCH  27  29
ATOM     29  C   UNL A   1      46.268  27.522  36.301  1.00  0.00     0.060 A 
ATOM     30  C   UNL A   1      45.043  27.107  36.847  1.00  0.00     0.016 A 
ATOM     31  C   UNL A   1      46.342  28.661  35.497  1.00  0.00     0.016 A 
ATOM     32  C   UNL A   1      43.875  27.799  36.543  1.00  0.00     0.010 A 
ATOM     33  C   UNL A   1      45.172  29.345  35.183  1.00  0.00     0.010 A 
ATOM     34  C   UNL A   1      43.932  28.889  35.669  1.00  0.00    -0.014 A 
BRANCH  34  35
ATOM     35  C   UNL A   1      42.698  29.439  35.074  1.00  0.00     0.031 A 
ATOM     36  C   UNL A   1      42.299  28.942  33.714  1.00  0.00     0.074 A 
ATOM     37  C   UNL A   1      41.993  30.395  35.701  1.00  0.00     0.049 A 
ATOM     38  N   UNL A   1      41.376  29.387  32.906  1.00  0.00    -0.248 NA
ATOM     39  C   UNL A   1      43.066  27.800  33.188  1.00  0.00     0.031 C 
ATOM     40  C   UNL A   1      42.284  30.923  37.032  1.00  0.00     0.029 A 
ATOM     41  N   UNL A   1      40.911  31.121  35.274  1.00  0.00    -0.354 N 
ATOM     42  C   UNL A   1      41.474  28.604  31.762  1.00  0.00     0.074 A 
ATOM     43  C   UNL A   1      42.558  27.670  31.973  1.00  0.00     0.031 C 
ATOM     44  C   UNL A   1      41.425  31.921  37.298  1.00  0.00     0.029 A 
ATOM     45  C   UNL A   1      40.559  32.128  36.140  1.00  0.00     0.049 A 
ATOM     46  H   UNL A   1      40.434  30.938  34.433  1.00  0.00     0.167 HD
ATOM     47  C   UNL A   1      40.725  28.664  30.637  1.00  0.00     0.037 A 
ATOM     48  C   UNL A   1      39.671  33.131  35.987  1.00  0.00     0.037 A 
ATOM     49  C   UNL A   1      39.653  29.605  30.451  1.00  0.00     0.049 A 
ATOM     50  C   UNL A   1      38.874  33.212  34.712  1.00  0.00     0.074 A 
ATOM     51  C   UNL A   1      38.796  29.732  29.374  1.00  0.00     0.029 A 
ATOM     52  N   UNL A   1      39.305  30.594  31.362  1.00  0.00    -0.354 N 
ATOM     53  N   UNL A   1      38.939  32.443  33.650  1.00  0.00    -0.248 NA
ATOM     54  C   UNL A   1      37.881  34.290  34.611  1.00  0.00     0.031 C 
ATOM     55  C   UNL A   1      37.973  30.838  29.604  1.00  0.00     0.029 A 
ATOM     56  C   UNL A   1      38.267  31.358  30.856  1.00  0.00     0.049 A 
ATOM     57  H   UNL A   1      39.733  30.733  32.238  1.00  0.00     0.167 HD
ATOM     58  C   UNL A   1      37.977  32.924  32.767  1.00  0.00     0.074 A 
ATOM     59  C   UNL A   1      37.344  34.052  33.421  1.00  0.00     0.031 C 
ATOM     60  C   UNL A   1      37.644  32.471  31.533  1.00  0.00     0.037 A 
BRANCH  47  61
ATOM     61  C   UNL A   1      41.074  27.724  29.515  1.00  0.00     0.058 A 
ATOM     62  C   UNL A   1      40.271  26.618  29.188  1.00  0.00     0.135 A 
ATOM     63  C   UNL A   1      42.237  27.931  28.756  1.00  0.00     0.135 A 
ATOM     64  F   UNL A   1      39.157  26.359  29.892  1.00  0.00    -0.206 F 
ATOM     65  C   UNL A   1      40.631  25.730  28.179  1.00  0.00     0.059 A 
ATOM     66  C   UNL A   1      42.599  27.076  27.720  1.00  0.00     0.059 A 
ATOM     67  F   UNL A   1      43.045  28.970  29.025  1.00  0.00    -0.206 F 
ATOM     68  C   UNL A   1      41.800  25.966  27.453  1.00  0.00     0.060 A 
BRANCH  68  69
ATOM     69  S   UNL A   1      42.264  24.793  26.162  1.00  0.00     0.124 S 
ATOM     70  O   UNL A   1      42.055  25.590  24.957  1.00  0.00    -0.237 OA
ATOM     71  O   UNL A   1      43.655  24.499  26.494  1.00  0.00    -0.237 OA
ATOM     72  O   UNL A   1      41.329  23.689  26.353  1.00  0.00    -0.744 OA
ENDBRANCH  68  69
ENDBRANCH  47  61
BRANCH  48  73
ATOM     73  C   UNL A   1      39.520  34.142  37.066  1.00  0.00     0.058 A 
ATOM     74  C   UNL A   1      38.727  33.887  38.194  1.00  0.00     0.135 A 
ATOM     75  C   UNL A   1      40.215  35.362  37.019  1.00  0.00     0.135 A 
ATOM     76  F   UNL A   1      38.036  32.741  38.282  1.00  0.00    -0.206 F 
ATOM     77  C   UNL A   1      38.630  34.803  39.237  1.00  0.00     0.059 A 
ATOM     78  C   UNL A   1      40.156  36.281  38.061  1.00  0.00     0.059 A 
ATOM     79  F   UNL A   1      40.998  35.648  35.965  1.00  0.00    -0.206 F 
ATOM     80  C   UNL A   1      39.358  35.993  39.166  1.00  0.00     0.060 A 
BRANCH  80  81
ATOM     81  S   UNL A   1      39.290  37.131  40.567  1.00  0.00     0.124 S 
ATOM     82  O   UNL A   1      38.363  38.144  40.078  1.00  0.00    -0.237 OA
ATOM     83  O   UNL A   1      38.791  36.270  41.634  1.00  0.00    -0.237 OA
ATOM     84  O   UNL A   1      40.676  37.563  40.716  1.00  0.00    -0.744 OA
ENDBRANCH  80  81
ENDBRANCH  48  73
BRANCH  60  85
ATOM     85  C   UNL A   1      36.513  33.154  30.814  1.00  0.00     0.058 A 
ATOM     86  C   UNL A   1      35.179  33.008  31.221  1.00  0.00     0.135 A 
ATOM     87  C   UNL A   1      36.786  34.053  29.769  1.00  0.00     0.135 A 
ATOM     88  F   UNL A   1      34.862  32.155  32.208  1.00  0.00    -0.206 F 
ATOM     89  C   UNL A   1      34.153  33.729  30.616  1.00  0.00     0.059 A 
ATOM     90  C   UNL A   1      35.781  34.805  29.171  1.00  0.00     0.059 A 
ATOM     91  F   UNL A   1      38.048  34.236  29.347  1.00  0.00    -0.206 F 
ATOM     92  C   UNL A   1      34.467  34.635  29.601  1.00  0.00     0.060 A 
BRANCH  92  93
ATOM     93  S   UNL A   1      33.137  35.620  28.880  1.00  0.00     0.124 S 
ATOM     94  O   UNL A   1      32.424  36.069  30.070  1.00  0.00    -0.237 OA
ATOM     95  O   UNL A   1      33.873  36.651  28.153  1.00  0.00    -0.237 OA
ATOM     96  O   UNL A   1      32.420  34.663  28.042  1.00  0.00    -0.744 OA
ENDBRANCH  92  93
ENDBRANCH  60  85
ENDBRANCH  34  35
ENDBRANCH  27  29
ENDBRANCH  26  27
ENDBRANCH  25  26
ENDBRANCH  24  25
ENDBRANCH   1  24
TORSDOF 20
ENDMDL
