MODEL 1
REMARK VINA RESULT:     -11.1      0.000      0.000
REMARK SMILES O=C(N[C@@H](Cc1ccc(O)cc1)C(=O)N[C@@H](CO)C(=O)OCCOCCOC(=O)c1ccc(-c2c3nc(c(-c4c(F)cc(S(=O)(=O)[O-])cc4F)c4ccc([nH]4)c(-c4c(F)cc(S(=O)(=O)[O-])cc4F)c4nc(c(-c5c(F)cc(S(=O)(=O)[O-])cc5F)c5ccc2[nH]5)C=C4)C=C3)cc1)c1ccc(F)cc1
REMARK SMILES IDX 23 1 22 2 21 3 19 4 20 5 16 6 15 7 13 8 14 9 4 11 3 12 1 13
REMARK SMILES IDX 2 14 96 16 97 17 102 18 98 19 101 20 99 21 100 22 5 23 6 24
REMARK SMILES IDX 7 25 12 26 8 27 11 28 9 29 10 30 17 32 18 33 24 35 25 36
REMARK SMILES IDX 26 37 27 38 28 39 29 40 30 41 31 42 95 43 32 44 94 45 33 46
REMARK SMILES IDX 34 47 35 48 88 49 36 50 93 51 87 52 89 53 37 54 92 55 86 56
REMARK SMILES IDX 85 57 38 59 72 60 51 61 71 62 52 63 55 64 70 65 90 66 53 67
REMARK SMILES IDX 54 68 69 70 91 71 56 72 39 73 40 74 49 75 41 76 42 77 48 78
REMARK SMILES IDX 50 79 43 80 44 81 45 82 46 83 47 84 73 85 74 86 83 87 75 88
REMARK SMILES IDX 76 89 82 90 84 91 77 92 78 93 79 94 80 95 81 96 57 97 58 98
REMARK SMILES IDX 67 99 59 100 60 101 66 102 68 103 61 104 62 105 63 106
REMARK SMILES IDX 64 107 65 108
REMARK H PARENT 15 10 3 15 10 31 18 34 89 58 55 69
REMARK Flexibility Score: inf
ROOT
ATOM      1  C   UNL A   1      31.766  29.258  24.662  1.00  0.00     0.202 C 
ENDROOT
BRANCH   1   2
ATOM      2  C   UNL A   1      30.990  27.947  24.850  1.00  0.00     0.261 C 
BRANCH   2   3
ATOM      3  O   UNL A   1      31.712  26.946  25.579  1.00  0.00    -0.462 OA
BRANCH   3   4
ATOM      4  C   UNL A   1      30.965  25.888  26.011  1.00  0.00     0.331 C 
ATOM      5  O   UNL A   1      29.893  25.980  26.600  1.00  0.00    -0.250 OA
BRANCH   4   6
ATOM      6  C   UNL A   1      31.646  24.536  25.737  1.00  0.00     0.218 C 
BRANCH   6   7
ATOM      7  N   UNL A   1      31.837  23.681  26.913  1.00  0.00    -0.339 N 
ATOM      8  C   UNL A   1      32.762  22.725  27.194  1.00  0.00     0.243 C 
ATOM      9  O   UNL A   1      32.758  22.291  28.354  1.00  0.00    -0.273 OA
ATOM     10  H   UNL A   1      31.175  23.824  27.627  1.00  0.00     0.164 HD
BRANCH   8  11
ATOM     11  C   UNL A   1      33.817  22.170  26.196  1.00  0.00     0.176 C 
BRANCH  11  12
ATOM     12  N   UNL A   1      35.068  22.924  26.158  1.00  0.00    -0.340 N 
ATOM     13  O   UNL A   1      36.776  23.986  25.154  1.00  0.00    -0.269 OA
ATOM     14  C   UNL A   1      35.592  23.664  25.124  1.00  0.00     0.251 C 
ATOM     15  H   UNL A   1      35.607  22.900  26.980  1.00  0.00     0.164 HD
BRANCH  14  16
ATOM     16  C   UNL A   1      34.758  24.081  23.970  1.00  0.00     0.040 A 
ATOM     17  C   UNL A   1      34.293  23.144  23.036  1.00  0.00     0.017 A 
ATOM     18  C   UNL A   1      34.349  25.418  23.882  1.00  0.00     0.017 A 
ATOM     19  C   UNL A   1      33.464  23.556  21.990  1.00  0.00     0.040 A 
ATOM     20  C   UNL A   1      33.512  25.824  22.839  1.00  0.00     0.040 A 
ATOM     21  C   UNL A   1      33.080  24.891  21.902  1.00  0.00     0.123 A 
ATOM     22  F   UNL A   1      32.274  25.281  20.907  1.00  0.00    -0.207 F 
ENDBRANCH  14  16
ENDBRANCH  11  12
BRANCH  11  23
ATOM     23  C   UNL A   1      33.983  20.628  26.094  1.00  0.00     0.070 C 
BRANCH  23  24
ATOM     24  C   UNL A   1      33.543  19.840  24.881  1.00  0.00    -0.045 A 
ATOM     25  C   UNL A   1      32.668  20.448  23.962  1.00  0.00     0.007 A 
ATOM     26  C   UNL A   1      33.999  18.554  24.577  1.00  0.00     0.007 A 
ATOM     27  C   UNL A   1      32.074  19.720  22.931  1.00  0.00     0.046 A 
ATOM     28  C   UNL A   1      33.414  17.818  23.541  1.00  0.00     0.046 A 
ATOM     29  C   UNL A   1      32.418  18.392  22.767  1.00  0.00     0.115 A 
BRANCH  29  30
ATOM     30  O   UNL A   1      31.759  17.622  21.861  1.00  0.00    -0.508 OA
ATOM     31  H   UNL A   1      31.520  17.978  21.028  1.00  0.00     0.293 HD
ENDBRANCH  29  30
ENDBRANCH  23  24
ENDBRANCH  11  23
ENDBRANCH   8  11
ENDBRANCH   6   7
BRANCH   6  32
ATOM     32  C   UNL A   1      30.846  23.828  24.641  1.00  0.00     0.193 C 
BRANCH  32  33
ATOM     33  O   UNL A   1      29.954  24.719  23.979  1.00  0.00    -0.394 OA
ATOM     34  H   UNL A   1      30.368  25.047  23.165  1.00  0.00     0.210 HD
ENDBRANCH  32  33
ENDBRANCH   6  32
ENDBRANCH   4   6
ENDBRANCH   3   4
ENDBRANCH   2   3
ENDBRANCH   1   2
BRANCH   1  35
ATOM     35  O   UNL A   1      31.438  30.389  25.458  1.00  0.00    -0.374 OA
BRANCH  35  36
ATOM     36  C   UNL A   1      31.825  30.395  26.830  1.00  0.00     0.202 C 
BRANCH  36  37
ATOM     37  C   UNL A   1      33.212  29.921  27.260  1.00  0.00     0.261 C 
BRANCH  37  38
ATOM     38  O   UNL A   1      34.208  30.938  27.163  1.00  0.00    -0.460 OA
BRANCH  38  39
ATOM     39  C   UNL A   1      34.813  31.215  28.343  1.00  0.00     0.338 C 
ATOM     40  O   UNL A   1      34.346  31.815  29.298  1.00  0.00    -0.246 OA
BRANCH  39  41
ATOM     41  C   UNL A   1      36.076  30.471  28.408  1.00  0.00     0.060 A 
ATOM     42  C   UNL A   1      36.487  30.022  29.669  1.00  0.00     0.016 A 
ATOM     43  C   UNL A   1      36.855  30.259  27.271  1.00  0.00     0.016 A 
ATOM     44  C   UNL A   1      37.717  29.400  29.807  1.00  0.00     0.010 A 
ATOM     45  C   UNL A   1      38.101  29.650  27.414  1.00  0.00     0.010 A 
ATOM     46  C   UNL A   1      38.547  29.262  28.690  1.00  0.00    -0.014 A 
BRANCH  46  47
ATOM     47  C   UNL A   1      39.962  28.907  28.910  1.00  0.00     0.031 A 
ATOM     48  C   UNL A   1      40.860  29.940  29.528  1.00  0.00     0.074 A 
ATOM     49  C   UNL A   1      40.404  27.670  28.629  1.00  0.00     0.049 A 
ATOM     50  N   UNL A   1      42.128  29.861  29.830  1.00  0.00    -0.248 NA
ATOM     51  C   UNL A   1      40.244  31.240  29.851  1.00  0.00     0.031 C 
ATOM     52  C   UNL A   1      39.589  26.589  28.075  1.00  0.00     0.029 A 
ATOM     53  N   UNL A   1      41.646  27.117  28.778  1.00  0.00    -0.354 N 
ATOM     54  C   UNL A   1      42.462  31.095  30.374  1.00  0.00     0.074 A 
ATOM     55  C   UNL A   1      41.274  31.918  30.331  1.00  0.00     0.031 C 
ATOM     56  C   UNL A   1      40.361  25.499  27.922  1.00  0.00     0.029 A 
ATOM     57  C   UNL A   1      41.724  25.817  28.342  1.00  0.00     0.049 A 
ATOM     58  H   UNL A   1      42.411  27.605  29.162  1.00  0.00     0.167 HD
ATOM     59  C   UNL A   1      43.652  31.497  30.875  1.00  0.00     0.037 A 
ATOM     60  C   UNL A   1      42.785  24.992  28.278  1.00  0.00     0.037 A 
ATOM     61  C   UNL A   1      44.823  30.661  30.907  1.00  0.00     0.049 A 
ATOM     62  C   UNL A   1      44.116  25.484  28.782  1.00  0.00     0.074 A 
ATOM     63  C   UNL A   1      46.082  30.959  31.392  1.00  0.00     0.029 A 
ATOM     64  N   UNL A   1      44.875  29.360  30.424  1.00  0.00    -0.354 N 
ATOM     65  N   UNL A   1      44.420  26.649  29.308  1.00  0.00    -0.248 NA
ATOM     66  C   UNL A   1      45.247  24.551  28.691  1.00  0.00     0.031 C 
ATOM     67  C   UNL A   1      46.909  29.855  31.158  1.00  0.00     0.029 A 
ATOM     68  C   UNL A   1      46.152  28.849  30.579  1.00  0.00     0.049 A 
ATOM     69  H   UNL A   1      44.116  28.872  30.030  1.00  0.00     0.167 HD
ATOM     70  C   UNL A   1      45.769  26.579  29.636  1.00  0.00     0.074 A 
ATOM     71  C   UNL A   1      46.218  25.252  29.261  1.00  0.00     0.031 C 
ATOM     72  C   UNL A   1      46.568  27.521  30.199  1.00  0.00     0.037 A 
BRANCH  59  73
ATOM     73  C   UNL A   1      43.751  32.904  31.394  1.00  0.00     0.058 A 
ATOM     74  C   UNL A   1      43.542  33.211  32.749  1.00  0.00     0.135 A 
ATOM     75  C   UNL A   1      44.075  33.959  30.527  1.00  0.00     0.135 A 
ATOM     76  F   UNL A   1      43.204  32.246  33.618  1.00  0.00    -0.206 F 
ATOM     77  C   UNL A   1      43.631  34.518  33.219  1.00  0.00     0.059 A 
ATOM     78  C   UNL A   1      44.197  35.270  30.981  1.00  0.00     0.059 A 
ATOM     79  F   UNL A   1      44.274  33.723  29.220  1.00  0.00    -0.206 F 
ATOM     80  C   UNL A   1      43.960  35.540  32.327  1.00  0.00     0.060 A 
BRANCH  80  81
ATOM     81  S   UNL A   1      44.081  37.228  32.956  1.00  0.00     0.124 S 
ATOM     82  O   UNL A   1      45.369  37.192  33.642  1.00  0.00    -0.237 OA
ATOM     83  O   UNL A   1      44.037  38.020  31.732  1.00  0.00    -0.237 OA
ATOM     84  O   UNL A   1      42.912  37.353  33.823  1.00  0.00    -0.744 OA
ENDBRANCH  80  81
ENDBRANCH  59  73
BRANCH  60  85
ATOM     85  C   UNL A   1      42.631  23.626  27.709  1.00  0.00     0.058 A 
ATOM     86  C   UNL A   1      42.721  23.399  26.328  1.00  0.00     0.135 A 
ATOM     87  C   UNL A   1      42.400  22.518  28.539  1.00  0.00     0.135 A 
ATOM     88  F   UNL A   1      42.935  24.427  25.492  1.00  0.00    -0.206 F 
ATOM     89  C   UNL A   1      42.571  22.126  25.788  1.00  0.00     0.059 A 
ATOM     90  C   UNL A   1      42.273  21.232  28.027  1.00  0.00     0.059 A 
ATOM     91  F   UNL A   1      42.319  22.680  29.869  1.00  0.00    -0.206 F 
ATOM     92  C   UNL A   1      42.349  21.047  26.647  1.00  0.00     0.060 A 
BRANCH  92  93
ATOM     93  S   UNL A   1      42.199  19.393  25.939  1.00  0.00     0.124 S 
ATOM     94  O   UNL A   1      40.763  19.303  25.706  1.00  0.00    -0.237 OA
ATOM     95  O   UNL A   1      43.036  19.493  24.747  1.00  0.00    -0.237 OA
ATOM     96  O   UNL A   1      42.724  18.529  26.993  1.00  0.00    -0.744 OA
ENDBRANCH  92  93
ENDBRANCH  60  85
BRANCH  72  97
ATOM     97  C   UNL A   1      47.995  27.138  30.474  1.00  0.00     0.058 A 
ATOM     98  C   UNL A   1      49.034  27.476  29.593  1.00  0.00     0.135 A 
ATOM     99  C   UNL A   1      48.331  26.467  31.661  1.00  0.00     0.135 A 
ATOM    100  F   UNL A   1      48.765  28.113  28.443  1.00  0.00    -0.206 F 
ATOM    101  C   UNL A   1      50.355  27.134  29.865  1.00  0.00     0.059 A 
ATOM    102  C   UNL A   1      49.648  26.143  31.968  1.00  0.00     0.059 A 
ATOM    103  F   UNL A   1      47.376  26.134  32.544  1.00  0.00    -0.206 F 
ATOM    104  C   UNL A   1      50.651  26.468  31.056  1.00  0.00     0.060 A 
BRANCH 104 105
ATOM    105  S   UNL A   1      52.372  26.052  31.408  1.00  0.00     0.124 S 
ATOM    106  O   UNL A   1      52.233  24.752  32.055  1.00  0.00    -0.237 OA
ATOM    107  O   UNL A   1      52.969  26.038  30.075  1.00  0.00    -0.237 OA
ATOM    108  O   UNL A   1      52.814  27.142  32.274  1.00  0.00    -0.744 OA
ENDBRANCH 104 105
ENDBRANCH  72  97
ENDBRANCH  46  47
ENDBRANCH  39  41
ENDBRANCH  38  39
ENDBRANCH  37  38
ENDBRANCH  36  37
ENDBRANCH  35  36
ENDBRANCH   1  35
TORSDOF 26
ENDMDL
MODEL 2
REMARK VINA RESULT:     -11.0      2.387      3.057
REMARK SMILES O=C(N[C@@H](Cc1ccc(O)cc1)C(=O)N[C@@H](CO)C(=O)OCCOCCOC(=O)c1ccc(-c2c3nc(c(-c4c(F)cc(S(=O)(=O)[O-])cc4F)c4ccc([nH]4)c(-c4c(F)cc(S(=O)(=O)[O-])cc4F)c4nc(c(-c5c(F)cc(S(=O)(=O)[O-])cc5F)c5ccc2[nH]5)C=C4)C=C3)cc1)c1ccc(F)cc1
REMARK SMILES IDX 23 1 22 2 21 3 19 4 20 5 16 6 15 7 13 8 14 9 4 11 3 12 1 13
REMARK SMILES IDX 2 14 96 16 97 17 102 18 98 19 101 20 99 21 100 22 5 23 6 24
REMARK SMILES IDX 7 25 12 26 8 27 11 28 9 29 10 30 17 32 18 33 24 35 25 36
REMARK SMILES IDX 26 37 27 38 28 39 29 40 30 41 31 42 95 43 32 44 94 45 33 46
REMARK SMILES IDX 34 47 35 48 88 49 36 50 93 51 87 52 89 53 37 54 92 55 86 56
REMARK SMILES IDX 85 57 38 59 72 60 51 61 71 62 52 63 55 64 70 65 90 66 53 67
REMARK SMILES IDX 54 68 69 70 91 71 56 72 39 73 40 74 49 75 41 76 42 77 48 78
REMARK SMILES IDX 50 79 43 80 44 81 45 82 46 83 47 84 73 85 74 86 83 87 75 88
REMARK SMILES IDX 76 89 82 90 84 91 77 92 78 93 79 94 80 95 81 96 57 97 58 98
REMARK SMILES IDX 67 99 59 100 60 101 66 102 68 103 61 104 62 105 63 106
REMARK SMILES IDX 64 107 65 108
REMARK H PARENT 15 10 3 15 10 31 18 34 89 58 55 69
REMARK Flexibility Score: inf
ROOT
ATOM      1  C   UNL A   1      31.598  29.057  24.496  1.00  0.00     0.202 C 
ENDROOT
BRANCH   1   2
ATOM      2  C   UNL A   1      30.928  27.679  24.588  1.00  0.00     0.261 C 
BRANCH   2   3
ATOM      3  O   UNL A   1      31.576  26.779  25.495  1.00  0.00    -0.462 OA
BRANCH   3   4
ATOM      4  C   UNL A   1      30.831  25.702  25.881  1.00  0.00     0.331 C 
ATOM      5  O   UNL A   1      29.717  25.767  26.389  1.00  0.00    -0.250 OA
BRANCH   4   6
ATOM      6  C   UNL A   1      31.569  24.369  25.669  1.00  0.00     0.218 C 
BRANCH   6   7
ATOM      7  N   UNL A   1      31.840  23.602  26.889  1.00  0.00    -0.339 N 
ATOM      8  C   UNL A   1      32.814  22.702  27.192  1.00  0.00     0.243 C 
ATOM      9  O   UNL A   1      32.873  22.348  28.377  1.00  0.00    -0.273 OA
ATOM     10  H   UNL A   1      31.202  23.768  27.620  1.00  0.00     0.164 HD
BRANCH   8  11
ATOM     11  C   UNL A   1      33.848  22.121  26.188  1.00  0.00     0.176 C 
BRANCH  11  12
ATOM     12  N   UNL A   1      35.115  22.849  26.136  1.00  0.00    -0.340 N 
ATOM     13  O   UNL A   1      36.831  23.879  25.115  1.00  0.00    -0.269 OA
ATOM     14  C   UNL A   1      35.640  23.582  25.099  1.00  0.00     0.251 C 
ATOM     15  H   UNL A   1      35.664  22.809  26.951  1.00  0.00     0.164 HD
BRANCH  14  16
ATOM     16  C   UNL A   1      34.800  24.022  23.958  1.00  0.00     0.040 A 
ATOM     17  C   UNL A   1      34.325  23.103  23.011  1.00  0.00     0.017 A 
ATOM     18  C   UNL A   1      34.395  25.362  23.896  1.00  0.00     0.017 A 
ATOM     19  C   UNL A   1      33.490  23.536  21.978  1.00  0.00     0.040 A 
ATOM     20  C   UNL A   1      33.552  25.789  22.866  1.00  0.00     0.040 A 
ATOM     21  C   UNL A   1      33.111  24.874  21.916  1.00  0.00     0.123 A 
ATOM     22  F   UNL A   1      32.299  25.284  20.933  1.00  0.00    -0.207 F 
ENDBRANCH  14  16
ENDBRANCH  11  12
BRANCH  11  23
ATOM     23  C   UNL A   1      33.981  20.576  26.092  1.00  0.00     0.070 C 
BRANCH  23  24
ATOM     24  C   UNL A   1      33.541  19.794  24.875  1.00  0.00    -0.045 A 
ATOM     25  C   UNL A   1      32.684  20.415  23.948  1.00  0.00     0.007 A 
ATOM     26  C   UNL A   1      33.982  18.502  24.574  1.00  0.00     0.007 A 
ATOM     27  C   UNL A   1      32.089  19.696  22.912  1.00  0.00     0.046 A 
ATOM     28  C   UNL A   1      33.397  17.775  23.532  1.00  0.00     0.046 A 
ATOM     29  C   UNL A   1      32.416  18.363  22.749  1.00  0.00     0.115 A 
BRANCH  29  30
ATOM     30  O   UNL A   1      31.754  17.603  21.837  1.00  0.00    -0.508 OA
ATOM     31  H   UNL A   1      32.085  16.759  21.601  1.00  0.00     0.293 HD
ENDBRANCH  29  30
ENDBRANCH  23  24
ENDBRANCH  11  23
ENDBRANCH   8  11
ENDBRANCH   6   7
BRANCH   6  32
ATOM     32  C   UNL A   1      30.768  23.554  24.649  1.00  0.00     0.193 C 
BRANCH  32  33
ATOM     33  O   UNL A   1      30.099  24.391  23.712  1.00  0.00    -0.394 OA
ATOM     34  H   UNL A   1      30.736  25.005  23.314  1.00  0.00     0.210 HD
ENDBRANCH  32  33
ENDBRANCH   6  32
ENDBRANCH   4   6
ENDBRANCH   3   4
ENDBRANCH   2   3
ENDBRANCH   1   2
BRANCH   1  35
ATOM     35  O   UNL A   1      30.966  30.185  25.087  1.00  0.00    -0.374 OA
BRANCH  35  36
ATOM     36  C   UNL A   1      31.610  30.836  26.179  1.00  0.00     0.202 C 
BRANCH  36  37
ATOM     37  C   UNL A   1      32.559  30.075  27.101  1.00  0.00     0.261 C 
BRANCH  37  38
ATOM     38  O   UNL A   1      33.936  30.324  26.822  1.00  0.00    -0.460 OA
BRANCH  38  39
ATOM     39  C   UNL A   1      34.555  31.063  27.774  1.00  0.00     0.338 C 
ATOM     40  O   UNL A   1      34.110  32.025  28.378  1.00  0.00    -0.246 OA
BRANCH  39  41
ATOM     41  C   UNL A   1      35.797  30.384  28.159  1.00  0.00     0.060 A 
ATOM     42  C   UNL A   1      35.808  29.728  29.396  1.00  0.00     0.016 A 
ATOM     43  C   UNL A   1      36.932  30.430  27.349  1.00  0.00     0.016 A 
ATOM     44  C   UNL A   1      36.981  29.153  29.856  1.00  0.00     0.010 A 
ATOM     45  C   UNL A   1      38.117  29.868  27.823  1.00  0.00     0.010 A 
ATOM     46  C   UNL A   1      38.149  29.269  29.094  1.00  0.00    -0.014 A 
BRANCH  46  47
ATOM     47  C   UNL A   1      39.437  28.951  29.739  1.00  0.00     0.031 A 
ATOM     48  C   UNL A   1      39.828  29.734  30.959  1.00  0.00     0.074 A 
ATOM     49  C   UNL A   1      40.195  27.941  29.279  1.00  0.00     0.049 A 
ATOM     50  N   UNL A   1      40.896  29.630  31.702  1.00  0.00    -0.248 NA
ATOM     51  C   UNL A   1      38.884  30.775  31.405  1.00  0.00     0.031 C 
ATOM     52  C   UNL A   1      39.868  27.096  28.131  1.00  0.00     0.029 A 
ATOM     53  N   UNL A   1      41.392  27.455  29.729  1.00  0.00    -0.354 N 
ATOM     54  C   UNL A   1      40.756  30.589  32.698  1.00  0.00     0.074 A 
ATOM     55  C   UNL A   1      39.516  31.289  32.446  1.00  0.00     0.031 C 
ATOM     56  C   UNL A   1      40.852  26.196  27.962  1.00  0.00     0.029 A 
ATOM     57  C   UNL A   1      41.884  26.422  28.971  1.00  0.00     0.049 A 
ATOM     58  H   UNL A   1      41.856  27.812  30.522  1.00  0.00     0.167 HD
ATOM     59  C   UNL A   1      41.585  30.851  33.734  1.00  0.00     0.037 A 
ATOM     60  C   UNL A   1      43.046  25.752  29.078  1.00  0.00     0.037 A 
ATOM     61  C   UNL A   1      42.816  30.142  33.964  1.00  0.00     0.049 A 
ATOM     62  C   UNL A   1      43.985  26.105  30.203  1.00  0.00     0.074 A 
ATOM     63  C   UNL A   1      43.734  30.319  34.982  1.00  0.00     0.029 A 
ATOM     64  N   UNL A   1      43.302  29.124  33.155  1.00  0.00    -0.354 N 
ATOM     65  N   UNL A   1      43.837  27.005  31.148  1.00  0.00    -0.248 NA
ATOM     66  C   UNL A   1      45.241  25.350  30.281  1.00  0.00     0.031 C 
ATOM     67  C   UNL A   1      44.801  29.440  34.760  1.00  0.00     0.029 A 
ATOM     68  C   UNL A   1      44.519  28.677  33.638  1.00  0.00     0.049 A 
ATOM     69  H   UNL A   1      42.847  28.771  32.356  1.00  0.00     0.167 HD
ATOM     70  C   UNL A   1      44.969  26.905  31.949  1.00  0.00     0.074 A 
ATOM     71  C   UNL A   1      45.784  25.848  31.383  1.00  0.00     0.031 C 
ATOM     72  C   UNL A   1      45.307  27.618  33.054  1.00  0.00     0.037 A 
BRANCH  59  73
ATOM     73  C   UNL A   1      41.203  31.964  34.668  1.00  0.00     0.058 A 
ATOM     74  C   UNL A   1      40.383  31.745  35.788  1.00  0.00     0.135 A 
ATOM     75  C   UNL A   1      41.677  33.268  34.451  1.00  0.00     0.135 A 
ATOM     76  F   UNL A   1      39.880  30.524  36.030  1.00  0.00    -0.206 F 
ATOM     77  C   UNL A   1      40.030  32.783  36.645  1.00  0.00     0.059 A 
ATOM     78  C   UNL A   1      41.359  34.316  35.311  1.00  0.00     0.059 A 
ATOM     79  F   UNL A   1      42.454  33.536  33.390  1.00  0.00    -0.206 F 
ATOM     80  C   UNL A   1      40.525  34.065  36.398  1.00  0.00     0.060 A 
BRANCH  80  81
ATOM     81  S   UNL A   1      40.065  35.398  37.526  1.00  0.00     0.124 S 
ATOM     82  O   UNL A   1      38.856  34.858  38.139  1.00  0.00    -0.237 OA
ATOM     83  O   UNL A   1      41.232  35.486  38.396  1.00  0.00    -0.237 OA
ATOM     84  O   UNL A   1      39.861  36.539  36.638  1.00  0.00    -0.744 OA
ENDBRANCH  80  81
ENDBRANCH  59  73
BRANCH  60  85
ATOM     85  C   UNL A   1      43.387  24.692  28.092  1.00  0.00     0.058 A 
ATOM     86  C   UNL A   1      42.979  23.363  28.281  1.00  0.00     0.135 A 
ATOM     87  C   UNL A   1      44.121  24.991  26.934  1.00  0.00     0.135 A 
ATOM     88  F   UNL A   1      42.280  23.026  29.376  1.00  0.00    -0.206 F 
ATOM     89  C   UNL A   1      43.301  22.365  27.367  1.00  0.00     0.059 A 
ATOM     90  C   UNL A   1      44.433  24.017  25.991  1.00  0.00     0.059 A 
ATOM     91  F   UNL A   1      44.524  26.250  26.699  1.00  0.00    -0.206 F 
ATOM     92  C   UNL A   1      44.027  22.703  26.222  1.00  0.00     0.060 A 
BRANCH  92  93
ATOM     93  S   UNL A   1      44.402  21.409  25.021  1.00  0.00     0.124 S 
ATOM     94  O   UNL A   1      44.276  22.132  23.761  1.00  0.00    -0.237 OA
ATOM     95  O   UNL A   1      45.756  21.020  25.403  1.00  0.00    -0.237 OA
ATOM     96  O   UNL A   1      43.374  20.404  25.278  1.00  0.00    -0.744 OA
ENDBRANCH  92  93
ENDBRANCH  60  85
BRANCH  72  97
ATOM     97  C   UNL A   1      46.594  27.254  33.741  1.00  0.00     0.058 A 
ATOM     98  C   UNL A   1      46.646  26.265  34.734  1.00  0.00     0.135 A 
ATOM     99  C   UNL A   1      47.797  27.869  33.360  1.00  0.00     0.135 A 
ATOM    100  F   UNL A   1      45.523  25.650  35.137  1.00  0.00    -0.206 F 
ATOM    101  C   UNL A   1      47.844  25.920  35.351  1.00  0.00     0.059 A 
ATOM    102  C   UNL A   1      49.011  27.518  33.941  1.00  0.00     0.059 A 
ATOM    103  F   UNL A   1      47.804  28.811  32.404  1.00  0.00    -0.206 F 
ATOM    104  C   UNL A   1      49.022  26.553  34.946  1.00  0.00     0.060 A 
BRANCH 104 105
ATOM    105  S   UNL A   1      50.573  26.078  35.737  1.00  0.00     0.124 S 
ATOM    106  O   UNL A   1      51.226  25.324  34.672  1.00  0.00    -0.237 OA
ATOM    107  O   UNL A   1      51.170  27.371  36.058  1.00  0.00    -0.237 OA
ATOM    108  O   UNL A   1      50.140  25.292  36.889  1.00  0.00    -0.744 OA
ENDBRANCH 104 105
ENDBRANCH  72  97
ENDBRANCH  46  47
ENDBRANCH  39  41
ENDBRANCH  38  39
ENDBRANCH  37  38
ENDBRANCH  36  37
ENDBRANCH  35  36
ENDBRANCH   1  35
TORSDOF 26
ENDMDL
MODEL 3
REMARK VINA RESULT:     -10.7      2.839      3.956
REMARK SMILES O=C(N[C@@H](Cc1ccc(O)cc1)C(=O)N[C@@H](CO)C(=O)OCCOCCOC(=O)c1ccc(-c2c3nc(c(-c4c(F)cc(S(=O)(=O)[O-])cc4F)c4ccc([nH]4)c(-c4c(F)cc(S(=O)(=O)[O-])cc4F)c4nc(c(-c5c(F)cc(S(=O)(=O)[O-])cc5F)c5ccc2[nH]5)C=C4)C=C3)cc1)c1ccc(F)cc1
REMARK SMILES IDX 23 1 22 2 21 3 19 4 20 5 16 6 15 7 13 8 14 9 4 11 3 12 1 13
REMARK SMILES IDX 2 14 96 16 97 17 102 18 98 19 101 20 99 21 100 22 5 23 6 24
REMARK SMILES IDX 7 25 12 26 8 27 11 28 9 29 10 30 17 32 18 33 24 35 25 36
REMARK SMILES IDX 26 37 27 38 28 39 29 40 30 41 31 42 95 43 32 44 94 45 33 46
REMARK SMILES IDX 34 47 35 48 88 49 36 50 93 51 87 52 89 53 37 54 92 55 86 56
REMARK SMILES IDX 85 57 38 59 72 60 51 61 71 62 52 63 55 64 70 65 90 66 53 67
REMARK SMILES IDX 54 68 69 70 91 71 56 72 39 73 40 74 49 75 41 76 42 77 48 78
REMARK SMILES IDX 50 79 43 80 44 81 45 82 46 83 47 84 73 85 74 86 83 87 75 88
REMARK SMILES IDX 76 89 82 90 84 91 77 92 78 93 79 94 80 95 81 96 57 97 58 98
REMARK SMILES IDX 67 99 59 100 60 101 66 102 68 103 61 104 62 105 63 106
REMARK SMILES IDX 64 107 65 108
REMARK H PARENT 15 10 3 15 10 31 18 34 89 58 55 69
REMARK Flexibility Score: inf
ROOT
ATOM      1  C   UNL A   1      33.298  30.646  26.950  1.00  0.00     0.202 C 
ENDROOT
BRANCH   1   2
ATOM      2  C   UNL A   1      31.947  30.406  26.262  1.00  0.00     0.261 C 
BRANCH   2   3
ATOM      3  O   UNL A   1      32.030  29.576  25.096  1.00  0.00    -0.462 OA
BRANCH   3   4
ATOM      4  C   UNL A   1      30.900  29.532  24.331  1.00  0.00     0.331 C 
ATOM      5  O   UNL A   1      30.034  30.401  24.310  1.00  0.00    -0.250 OA
BRANCH   4   6
ATOM      6  C   UNL A   1      30.784  28.226  23.528  1.00  0.00     0.218 C 
BRANCH   6   7
ATOM      7  N   UNL A   1      29.759  27.288  24.000  1.00  0.00    -0.339 N 
ATOM      8  C   UNL A   1      29.830  26.219  24.837  1.00  0.00     0.243 C 
ATOM      9  O   UNL A   1      28.747  25.724  25.176  1.00  0.00    -0.273 OA
ATOM     10  H   UNL A   1      28.858  27.465  23.647  1.00  0.00     0.164 HD
BRANCH   8  11
ATOM     11  C   UNL A   1      31.140  25.606  25.406  1.00  0.00     0.176 C 
BRANCH  11  12
ATOM     12  N   UNL A   1      32.158  26.589  25.773  1.00  0.00    -0.340 N 
ATOM     13  O   UNL A   1      34.220  27.264  26.359  1.00  0.00    -0.269 OA
ATOM     14  C   UNL A   1      33.526  26.456  25.748  1.00  0.00     0.251 C 
ATOM     15  H   UNL A   1      31.820  27.461  26.076  1.00  0.00     0.164 HD
BRANCH  14  16
ATOM     16  C   UNL A   1      34.184  25.357  25.000  1.00  0.00     0.040 A 
ATOM     17  C   UNL A   1      33.841  25.079  23.669  1.00  0.00     0.017 A 
ATOM     18  C   UNL A   1      35.237  24.663  25.610  1.00  0.00     0.017 A 
ATOM     19  C   UNL A   1      34.516  24.075  22.971  1.00  0.00     0.040 A 
ATOM     20  C   UNL A   1      35.916  23.665  24.904  1.00  0.00     0.040 A 
ATOM     21  C   UNL A   1      35.547  23.378  23.594  1.00  0.00     0.123 A 
ATOM     22  F   UNL A   1      36.203  22.426  22.918  1.00  0.00    -0.207 F 
ENDBRANCH  14  16
ENDBRANCH  11  12
BRANCH  11  23
ATOM     23  C   UNL A   1      31.017  24.403  26.382  1.00  0.00     0.070 C 
BRANCH  23  24
ATOM     24  C   UNL A   1      31.826  23.135  26.218  1.00  0.00    -0.045 A 
ATOM     25  C   UNL A   1      32.640  22.711  27.284  1.00  0.00     0.007 A 
ATOM     26  C   UNL A   1      31.771  22.314  25.088  1.00  0.00     0.007 A 
ATOM     27  C   UNL A   1      33.552  21.668  27.133  1.00  0.00     0.046 A 
ATOM     28  C   UNL A   1      32.677  21.260  24.930  1.00  0.00     0.046 A 
ATOM     29  C   UNL A   1      33.595  20.986  25.932  1.00  0.00     0.115 A 
BRANCH  29  30
ATOM     30  O   UNL A   1      34.561  20.057  25.707  1.00  0.00    -0.508 OA
ATOM     31  H   UNL A   1      35.412  20.163  26.084  1.00  0.00     0.293 HD
ENDBRANCH  29  30
ENDBRANCH  23  24
ENDBRANCH  11  23
ENDBRANCH   8  11
ENDBRANCH   6   7
BRANCH   6  32
ATOM     32  C   UNL A   1      30.577  28.603  22.059  1.00  0.00     0.193 C 
BRANCH  32  33
ATOM     33  O   UNL A   1      31.238  29.820  21.728  1.00  0.00    -0.394 OA
ATOM     34  H   UNL A   1      31.240  30.408  22.499  1.00  0.00     0.210 HD
ENDBRANCH  32  33
ENDBRANCH   6  32
ENDBRANCH   4   6
ENDBRANCH   3   4
ENDBRANCH   2   3
ENDBRANCH   1   2
BRANCH   1  35
ATOM     35  O   UNL A   1      33.537  31.878  27.618  1.00  0.00    -0.374 OA
BRANCH  35  36
ATOM     36  C   UNL A   1      34.873  32.212  27.982  1.00  0.00     0.202 C 
BRANCH  36  37
ATOM     37  C   UNL A   1      35.282  32.337  29.449  1.00  0.00     0.261 C 
BRANCH  37  38
ATOM     38  O   UNL A   1      36.685  32.186  29.657  1.00  0.00    -0.460 OA
BRANCH  38  39
ATOM     39  C   UNL A   1      36.997  31.213  30.546  1.00  0.00     0.338 C 
ATOM     40  O   UNL A   1      36.373  30.884  31.542  1.00  0.00    -0.246 OA
BRANCH  39  41
ATOM     41  C   UNL A   1      38.110  30.424  30.005  1.00  0.00     0.060 A 
ATOM     42  C   UNL A   1      39.053  29.940  30.920  1.00  0.00     0.016 A 
ATOM     43  C   UNL A   1      38.248  30.206  28.634  1.00  0.00     0.016 A 
ATOM     44  C   UNL A   1      40.175  29.273  30.459  1.00  0.00     0.010 A 
ATOM     45  C   UNL A   1      39.388  29.552  28.170  1.00  0.00     0.010 A 
ATOM     46  C   UNL A   1      40.370  29.126  29.081  1.00  0.00    -0.014 A 
BRANCH  46  47
ATOM     47  C   UNL A   1      41.706  28.718  28.605  1.00  0.00     0.031 A 
ATOM     48  C   UNL A   1      42.783  29.762  28.549  1.00  0.00     0.074 A 
ATOM     49  C   UNL A   1      41.955  27.434  28.301  1.00  0.00     0.049 A 
ATOM     50  N   UNL A   1      44.030  29.646  28.181  1.00  0.00    -0.248 NA
ATOM     51  C   UNL A   1      42.404  31.124  28.968  1.00  0.00     0.031 C 
ATOM     52  C   UNL A   1      40.982  26.345  28.375  1.00  0.00     0.029 A 
ATOM     53  N   UNL A   1      43.108  26.832  27.875  1.00  0.00    -0.354 N 
ATOM     54  C   UNL A   1      44.583  30.913  28.320  1.00  0.00     0.074 A 
ATOM     55  C   UNL A   1      43.529  31.793  28.774  1.00  0.00     0.031 C 
ATOM     56  C   UNL A   1      41.581  25.202  27.996  1.00  0.00     0.029 A 
ATOM     57  C   UNL A   1      42.966  25.488  27.630  1.00  0.00     0.049 A 
ATOM     58  H   UNL A   1      43.958  27.315  27.756  1.00  0.00     0.167 HD
ATOM     59  C   UNL A   1      45.860  31.302  28.098  1.00  0.00     0.037 A 
ATOM     60  C   UNL A   1      43.856  24.601  27.148  1.00  0.00     0.037 A 
ATOM     61  C   UNL A   1      46.893  30.409  27.645  1.00  0.00     0.049 A 
ATOM     62  C   UNL A   1      45.255  25.071  26.847  1.00  0.00     0.074 A 
ATOM     63  C   UNL A   1      48.222  30.689  27.389  1.00  0.00     0.029 A 
ATOM     64  N   UNL A   1      46.706  29.061  27.372  1.00  0.00    -0.354 N 
ATOM     65  N   UNL A   1      45.773  26.269  26.994  1.00  0.00    -0.248 NA
ATOM     66  C   UNL A   1      46.193  24.071  26.321  1.00  0.00     0.031 C 
ATOM     67  C   UNL A   1      48.827  29.520  26.914  1.00  0.00     0.029 A 
ATOM     68  C   UNL A   1      47.890  28.499  26.929  1.00  0.00     0.049 A 
ATOM     69  H   UNL A   1      45.855  28.575  27.480  1.00  0.00     0.167 HD
ATOM     70  C   UNL A   1      47.103  26.160  26.607  1.00  0.00     0.074 A 
ATOM     71  C   UNL A   1      47.312  24.776  26.230  1.00  0.00     0.031 C 
ATOM     72  C   UNL A   1      48.069  27.114  26.565  1.00  0.00     0.037 A 
BRANCH  59  73
ATOM     73  C   UNL A   1      46.194  32.751  28.312  1.00  0.00     0.058 A 
ATOM     74  C   UNL A   1      46.084  33.698  27.281  1.00  0.00     0.135 A 
ATOM     75  C   UNL A   1      46.617  33.203  29.573  1.00  0.00     0.135 A 
ATOM     76  F   UNL A   1      45.710  33.318  26.049  1.00  0.00    -0.206 F 
ATOM     77  C   UNL A   1      46.400  35.038  27.488  1.00  0.00     0.059 A 
ATOM     78  C   UNL A   1      46.912  34.543  29.809  1.00  0.00     0.059 A 
ATOM     79  F   UNL A   1      46.750  32.339  30.591  1.00  0.00    -0.206 F 
ATOM     80  C   UNL A   1      46.813  35.450  28.756  1.00  0.00     0.060 A 
BRANCH  80  81
ATOM     81  S   UNL A   1      47.210  37.193  29.010  1.00  0.00     0.124 S 
ATOM     82  O   UNL A   1      46.753  37.399  30.380  1.00  0.00    -0.237 OA
ATOM     83  O   UNL A   1      48.656  37.214  28.814  1.00  0.00    -0.237 OA
ATOM     84  O   UNL A   1      46.430  37.874  27.980  1.00  0.00    -0.744 OA
ENDBRANCH  80  81
ENDBRANCH  59  73
BRANCH  60  85
ATOM     85  C   UNL A   1      43.448  23.190  26.914  1.00  0.00     0.058 A 
ATOM     86  C   UNL A   1      43.263  22.692  25.616  1.00  0.00     0.135 A 
ATOM     87  C   UNL A   1      43.244  22.309  27.987  1.00  0.00     0.135 A 
ATOM     88  F   UNL A   1      43.440  23.497  24.558  1.00  0.00    -0.206 F 
ATOM     89  C   UNL A   1      42.874  21.376  25.390  1.00  0.00     0.059 A 
ATOM     90  C   UNL A   1      42.881  20.981  27.786  1.00  0.00     0.059 A 
ATOM     91  F   UNL A   1      43.421  22.732  29.249  1.00  0.00    -0.206 F 
ATOM     92  C   UNL A   1      42.688  20.526  26.483  1.00  0.00     0.060 A 
BRANCH  92  93
ATOM     93  S   UNL A   1      42.226  18.809  26.176  1.00  0.00     0.124 S 
ATOM     94  O   UNL A   1      42.418  18.213  27.493  1.00  0.00    -0.237 OA
ATOM     95  O   UNL A   1      40.841  18.939  25.729  1.00  0.00    -0.237 OA
ATOM     96  O   UNL A   1      43.171  18.385  25.147  1.00  0.00    -0.744 OA
ENDBRANCH  92  93
ENDBRANCH  60  85
BRANCH  72  97
ATOM     97  C   UNL A   1      49.443  26.684  26.132  1.00  0.00     0.058 A 
ATOM     98  C   UNL A   1      49.875  26.820  24.805  1.00  0.00     0.135 A 
ATOM     99  C   UNL A   1      50.354  26.176  27.073  1.00  0.00     0.135 A 
ATOM    100  F   UNL A   1      49.042  27.297  23.867  1.00  0.00    -0.206 F 
ATOM    101  C   UNL A   1      51.155  26.437  24.417  1.00  0.00     0.059 A 
ATOM    102  C   UNL A   1      51.648  25.816  26.714  1.00  0.00     0.059 A 
ATOM    103  F   UNL A   1      49.994  26.039  28.359  1.00  0.00    -0.206 F 
ATOM    104  C   UNL A   1      52.034  25.936  25.380  1.00  0.00     0.060 A 
BRANCH 104 105
ATOM    105  S   UNL A   1      53.700  25.467  24.867  1.00  0.00     0.124 S 
ATOM    106  O   UNL A   1      53.572  24.019  24.748  1.00  0.00    -0.237 OA
ATOM    107  O   UNL A   1      53.859  26.196  23.613  1.00  0.00    -0.237 OA
ATOM    108  O   UNL A   1      54.538  25.935  25.967  1.00  0.00    -0.744 OA
ENDBRANCH 104 105
ENDBRANCH  72  97
ENDBRANCH  46  47
ENDBRANCH  39  41
ENDBRANCH  38  39
ENDBRANCH  37  38
ENDBRANCH  36  37
ENDBRANCH  35  36
ENDBRANCH   1  35
TORSDOF 26
ENDMDL
