MODEL 1
REMARK VINA RESULT:     -10.1      0.000      0.000
REMARK SMILES CN(CC(=O)N1C[C@@H](O)C[C@H]1C(=O)OCCOCCOC(=O)c1ccc(-c2c3nc(c(-c4c(F)cc(S(=O)(=O)[O-])cc4F)c4ccc([nH]4)c(-c4c(F)cc(S(=O)(=O)[O-])cc4F)c4nc(c(-c5c(F)cc(S(=O)(=O)[O-])cc5F)c5ccc2[nH]5)C=C4)C=C3)cc1)C(=O)c1cccs1
REMARK SMILES IDX 16 1 15 2 14 3 12 4 13 5 11 6 6 7 7 8 8 9 10 10 4 11 5 12
REMARK SMILES IDX 3 13 2 14 1 15 89 16 90 17 91 18 92 19 95 20 93 21 94 22
REMARK SMILES IDX 9 23 17 25 18 26 19 27 20 28 21 29 22 30 23 31 24 32 88 33
REMARK SMILES IDX 25 34 87 35 26 36 27 37 28 38 81 39 29 40 86 41 80 42 82 43
REMARK SMILES IDX 30 44 85 45 79 46 78 47 31 49 65 50 44 51 64 52 45 53 48 54
REMARK SMILES IDX 63 55 83 56 46 57 47 58 62 60 84 61 49 62 32 63 33 64 42 65
REMARK SMILES IDX 34 66 35 67 41 68 43 69 36 70 37 71 38 72 39 73 40 74 66 75
REMARK SMILES IDX 67 76 76 77 68 78 69 79 75 80 77 81 70 82 71 83 72 84 73 85
REMARK SMILES IDX 74 86 50 87 51 88 60 89 52 90 53 91 59 92 61 93 54 94 55 95
REMARK SMILES IDX 56 96 57 97 58 98
REMARK H PARENT 9 24 82 48 48 59
REMARK Flexibility Score: inf
ROOT
ATOM      1  C   UNL A   1      35.653  20.608  25.008  1.00  0.00     0.202 C 
ENDROOT
BRANCH   1   2
ATOM      2  C   UNL A   1      34.334  21.378  25.161  1.00  0.00     0.261 C 
BRANCH   2   3
ATOM      3  O   UNL A   1      34.332  22.427  26.150  1.00  0.00    -0.462 OA
BRANCH   3   4
ATOM      4  C   UNL A   1      34.234  23.688  25.639  1.00  0.00     0.329 C 
ATOM      5  O   UNL A   1      35.191  24.369  25.275  1.00  0.00    -0.250 OA
BRANCH   4   6
ATOM      6  C   UNL A   1      32.826  24.290  25.729  1.00  0.00     0.197 C 
ATOM      7  N   UNL A   1      31.782  24.010  24.718  1.00  0.00    -0.325 N 
ATOM      8  C   UNL A   1      30.757  23.168  25.302  1.00  0.00     0.152 C 
ATOM      9  C   UNL A   1      30.757  23.588  26.767  1.00  0.00     0.136 C 
ATOM     10  C   UNL A   1      32.238  23.771  27.055  1.00  0.00     0.070 C 
BRANCH   7  11
ATOM     11  C   UNL A   1      31.765  24.749  23.555  1.00  0.00     0.243 C 
ATOM     12  O   UNL A   1      30.849  24.556  22.740  1.00  0.00    -0.273 OA
BRANCH  11  13
ATOM     13  C   UNL A   1      32.943  25.651  23.088  1.00  0.00     0.219 C 
BRANCH  13  14
ATOM     14  N   UNL A   1      32.933  27.109  23.177  1.00  0.00    -0.332 N 
ATOM     15  C   UNL A   1      33.927  27.814  22.373  1.00  0.00     0.147 C 
BRANCH  14  16
ATOM     16  C   UNL A   1      31.893  27.901  23.701  1.00  0.00     0.264 C 
ATOM     17  O   UNL A   1      30.984  28.259  22.949  1.00  0.00    -0.268 OA
BRANCH  16  18
ATOM     18  C   UNL A   1      31.867  28.218  25.124  1.00  0.00     0.092 A 
ATOM     19  C   UNL A   1      31.385  27.526  26.217  1.00  0.00     0.025 A 
ATOM     20  S   UNL A   1      32.574  29.711  25.619  1.00  0.00    -0.139 S 
ATOM     21  C   UNL A   1      31.508  28.260  27.435  1.00  0.00     0.012 A 
ATOM     22  C   UNL A   1      32.155  29.458  27.253  1.00  0.00     0.065 A 
ENDBRANCH  16  18
ENDBRANCH  14  16
ENDBRANCH  13  14
ENDBRANCH  11  13
ENDBRANCH   7  11
BRANCH   9  23
ATOM     23  O   UNL A   1      30.160  22.643  27.630  1.00  0.00    -0.391 OA
ATOM     24  H   UNL A   1      29.287  22.963  27.906  1.00  0.00     0.211 HD
ENDBRANCH   9  23
ENDBRANCH   4   6
ENDBRANCH   3   4
ENDBRANCH   2   3
ENDBRANCH   1   2
BRANCH   1  25
ATOM     25  O   UNL A   1      36.797  21.098  25.696  1.00  0.00    -0.374 OA
BRANCH  25  26
ATOM     26  C   UNL A   1      38.047  21.065  25.010  1.00  0.00     0.202 C 
BRANCH  26  27
ATOM     27  C   UNL A   1      39.010  19.925  25.357  1.00  0.00     0.261 C 
BRANCH  27  28
ATOM     28  O   UNL A   1      39.944  20.262  26.405  1.00  0.00    -0.460 OA
BRANCH  28  29
ATOM     29  C   UNL A   1      41.228  19.932  26.123  1.00  0.00     0.338 C 
ATOM     30  O   UNL A   1      41.612  18.906  25.574  1.00  0.00    -0.246 OA
BRANCH  29  31
ATOM     31  C   UNL A   1      42.173  21.012  26.461  1.00  0.00     0.060 A 
ATOM     32  C   UNL A   1      42.128  21.506  27.769  1.00  0.00     0.016 A 
ATOM     33  C   UNL A   1      42.934  21.663  25.487  1.00  0.00     0.016 A 
ATOM     34  C   UNL A   1      42.780  22.696  28.086  1.00  0.00     0.010 A 
ATOM     35  C   UNL A   1      43.588  22.861  25.807  1.00  0.00     0.010 A 
ATOM     36  C   UNL A   1      43.470  23.409  27.095  1.00  0.00    -0.014 A 
BRANCH  36  37
ATOM     37  C   UNL A   1      43.937  24.784  27.405  1.00  0.00     0.031 A 
ATOM     38  C   UNL A   1      45.384  25.143  27.195  1.00  0.00     0.074 A 
ATOM     39  C   UNL A   1      43.057  25.726  27.788  1.00  0.00     0.049 A 
ATOM     40  N   UNL A   1      45.963  26.315  27.255  1.00  0.00    -0.248 NA
ATOM     41  C   UNL A   1      46.301  24.037  26.869  1.00  0.00     0.031 C 
ATOM     42  C   UNL A   1      41.633  25.502  28.031  1.00  0.00     0.029 A 
ATOM     43  N   UNL A   1      43.234  27.066  28.023  1.00  0.00    -0.354 N 
ATOM     44  C   UNL A   1      47.304  26.095  26.960  1.00  0.00     0.074 A 
ATOM     45  C   UNL A   1      47.462  24.669  26.763  1.00  0.00     0.031 C 
ATOM     46  C   UNL A   1      41.061  26.669  28.373  1.00  0.00     0.029 A 
ATOM     47  C   UNL A   1      42.076  27.720  28.372  1.00  0.00     0.049 A 
ATOM     48  H   UNL A   1      44.105  27.517  27.950  1.00  0.00     0.167 HD
ATOM     49  C   UNL A   1      48.308  26.997  26.846  1.00  0.00     0.037 A 
ATOM     50  C   UNL A   1      41.859  29.021  28.646  1.00  0.00     0.037 A 
ATOM     51  C   UNL A   1      48.152  28.415  27.047  1.00  0.00     0.049 A 
ATOM     52  C   UNL A   1      42.992  30.004  28.527  1.00  0.00     0.074 A 
ATOM     53  C   UNL A   1      49.103  29.413  26.926  1.00  0.00     0.029 A 
ATOM     54  N   UNL A   1      46.970  29.034  27.421  1.00  0.00    -0.354 N 
ATOM     55  N   UNL A   1      44.239  29.786  28.184  1.00  0.00    -0.248 NA
ATOM     56  C   UNL A   1      42.682  31.412  28.815  1.00  0.00     0.031 C 
ATOM     57  C   UNL A   1      48.501  30.634  27.258  1.00  0.00     0.029 A 
ATOM     58  C   UNL A   1      47.168  30.399  27.552  1.00  0.00     0.049 A 
ATOM     59  H   UNL A   1      46.112  28.572  27.571  1.00  0.00     0.167 HD
ATOM     60  C   UNL A   1      44.859  31.032  28.198  1.00  0.00     0.074 A 
ATOM     61  C   UNL A   1      43.845  31.999  28.568  1.00  0.00     0.031 C 
ATOM     62  C   UNL A   1      46.151  31.346  27.928  1.00  0.00     0.037 A 
BRANCH  49  63
ATOM     63  C   UNL A   1      49.672  26.476  26.488  1.00  0.00     0.058 A 
ATOM     64  C   UNL A   1      50.550  25.989  27.470  1.00  0.00     0.135 A 
ATOM     65  C   UNL A   1      50.093  26.429  25.151  1.00  0.00     0.135 A 
ATOM     66  F   UNL A   1      50.200  26.023  28.766  1.00  0.00    -0.206 F 
ATOM     67  C   UNL A   1      51.809  25.497  27.140  1.00  0.00     0.059 A 
ATOM     68  C   UNL A   1      51.341  25.923  24.796  1.00  0.00     0.059 A 
ATOM     69  F   UNL A   1      49.293  26.883  24.174  1.00  0.00    -0.206 F 
ATOM     70  C   UNL A   1      52.197  25.472  25.800  1.00  0.00     0.060 A 
BRANCH  70  71
ATOM     71  S   UNL A   1      53.833  24.830  25.384  1.00  0.00     0.124 S 
ATOM     72  O   UNL A   1      53.525  23.441  25.055  1.00  0.00    -0.237 OA
ATOM     73  O   UNL A   1      54.226  25.673  24.259  1.00  0.00    -0.237 OA
ATOM     74  O   UNL A   1      54.599  25.030  26.610  1.00  0.00    -0.744 OA
ENDBRANCH  70  71
ENDBRANCH  49  63
BRANCH  50  75
ATOM     75  C   UNL A   1      40.498  29.472  29.038  1.00  0.00     0.058 A 
ATOM     76  C   UNL A   1      39.479  29.614  28.086  1.00  0.00     0.135 A 
ATOM     77  C   UNL A   1      40.193  29.757  30.377  1.00  0.00     0.135 A 
ATOM     78  F   UNL A   1      39.728  29.359  26.793  1.00  0.00    -0.206 F 
ATOM     79  C   UNL A   1      38.202  30.032  28.446  1.00  0.00     0.059 A 
ATOM     80  C   UNL A   1      38.919  30.158  30.764  1.00  0.00     0.059 A 
ATOM     81  F   UNL A   1      41.133  29.622  31.325  1.00  0.00    -0.206 F 
ATOM     82  C   UNL A   1      37.931  30.300  29.789  1.00  0.00     0.060 A 
BRANCH  82  83
ATOM     83  S   UNL A   1      36.256  30.782  30.262  1.00  0.00     0.124 S 
ATOM     84  O   UNL A   1      36.435  32.195  30.574  1.00  0.00    -0.237 OA
ATOM     85  O   UNL A   1      35.496  30.485  29.052  1.00  0.00    -0.237 OA
ATOM     86  O   UNL A   1      35.970  29.913  31.399  1.00  0.00    -0.744 OA
ENDBRANCH  82  83
ENDBRANCH  50  75
BRANCH  62  87
ATOM     87  C   UNL A   1      46.533  32.797  28.012  1.00  0.00     0.058 A 
ATOM     88  C   UNL A   1      47.078  33.344  29.184  1.00  0.00     0.135 A 
ATOM     89  C   UNL A   1      46.378  33.643  26.902  1.00  0.00     0.135 A 
ATOM     90  F   UNL A   1      47.242  32.579  30.274  1.00  0.00    -0.206 F 
ATOM     91  C   UNL A   1      47.426  34.689  29.263  1.00  0.00     0.059 A 
ATOM     92  C   UNL A   1      46.739  34.986  26.952  1.00  0.00     0.059 A 
ATOM     93  F   UNL A   1      45.872  33.165  25.753  1.00  0.00    -0.206 F 
ATOM     94  C   UNL A   1      47.248  35.503  28.143  1.00  0.00     0.060 A 
BRANCH  94  95
ATOM     95  S   UNL A   1      47.710  37.245  28.250  1.00  0.00     0.124 S 
ATOM     96  O   UNL A   1      49.057  37.157  28.803  1.00  0.00    -0.237 OA
ATOM     97  O   UNL A   1      47.622  37.684  26.860  1.00  0.00    -0.237 OA
ATOM     98  O   UNL A   1      46.700  37.808  29.141  1.00  0.00    -0.744 OA
ENDBRANCH  94  95
ENDBRANCH  62  87
ENDBRANCH  36  37
ENDBRANCH  29  31
ENDBRANCH  28  29
ENDBRANCH  27  28
ENDBRANCH  26  27
ENDBRANCH  25  26
ENDBRANCH   1  25
TORSDOF 23
ENDMDL
MODEL 2
REMARK VINA RESULT:     -10.1      6.032      8.430
REMARK SMILES CN(CC(=O)N1C[C@@H](O)C[C@H]1C(=O)OCCOCCOC(=O)c1ccc(-c2c3nc(c(-c4c(F)cc(S(=O)(=O)[O-])cc4F)c4ccc([nH]4)c(-c4c(F)cc(S(=O)(=O)[O-])cc4F)c4nc(c(-c5c(F)cc(S(=O)(=O)[O-])cc5F)c5ccc2[nH]5)C=C4)C=C3)cc1)C(=O)c1cccs1
REMARK SMILES IDX 16 1 15 2 14 3 12 4 13 5 11 6 6 7 7 8 8 9 10 10 4 11 5 12
REMARK SMILES IDX 3 13 2 14 1 15 89 16 90 17 91 18 92 19 95 20 93 21 94 22
REMARK SMILES IDX 9 23 17 25 18 26 19 27 20 28 21 29 22 30 23 31 24 32 88 33
REMARK SMILES IDX 25 34 87 35 26 36 27 37 28 38 81 39 29 40 86 41 80 42 82 43
REMARK SMILES IDX 30 44 85 45 79 46 78 47 31 49 65 50 44 51 64 52 45 53 48 54
REMARK SMILES IDX 63 55 83 56 46 57 47 58 62 60 84 61 49 62 32 63 33 64 42 65
REMARK SMILES IDX 34 66 35 67 41 68 43 69 36 70 37 71 38 72 39 73 40 74 66 75
REMARK SMILES IDX 67 76 76 77 68 78 69 79 75 80 77 81 70 82 71 83 72 84 73 85
REMARK SMILES IDX 74 86 50 87 51 88 60 89 52 90 53 91 59 92 61 93 54 94 55 95
REMARK SMILES IDX 56 96 57 97 58 98
REMARK H PARENT 9 24 82 48 48 59
REMARK Flexibility Score: inf
ROOT
ATOM      1  C   UNL A   1      39.245  22.234  26.399  1.00  0.00     0.202 C 
ENDROOT
BRANCH   1   2
ATOM      2  C   UNL A   1      38.198  21.811  25.359  1.00  0.00     0.261 C 
BRANCH   2   3
ATOM      3  O   UNL A   1      36.826  21.839  25.802  1.00  0.00    -0.462 OA
BRANCH   3   4
ATOM      4  C   UNL A   1      36.050  22.773  25.184  1.00  0.00     0.329 C 
ATOM      5  O   UNL A   1      36.475  23.814  24.684  1.00  0.00    -0.250 OA
BRANCH   4   6
ATOM      6  C   UNL A   1      34.543  22.525  25.326  1.00  0.00     0.197 C 
ATOM      7  N   UNL A   1      33.701  22.105  24.183  1.00  0.00    -0.325 N 
ATOM      8  C   UNL A   1      33.289  20.728  24.368  1.00  0.00     0.152 C 
ATOM      9  C   UNL A   1      33.198  20.593  25.883  1.00  0.00     0.136 C 
ATOM     10  C   UNL A   1      34.406  21.387  26.355  1.00  0.00     0.070 C 
BRANCH   7  11
ATOM     11  C   UNL A   1      33.220  23.065  23.321  1.00  0.00     0.243 C 
ATOM     12  O   UNL A   1      33.961  23.480  22.417  1.00  0.00    -0.273 OA
BRANCH  11  13
ATOM     13  C   UNL A   1      31.883  23.831  23.541  1.00  0.00     0.219 C 
BRANCH  13  14
ATOM     14  N   UNL A   1      31.405  24.269  24.850  1.00  0.00    -0.332 N 
ATOM     15  C   UNL A   1      30.691  23.274  25.645  1.00  0.00     0.147 C 
BRANCH  14  16
ATOM     16  C   UNL A   1      31.820  25.425  25.540  1.00  0.00     0.264 C 
ATOM     17  O   UNL A   1      31.718  25.451  26.769  1.00  0.00    -0.268 OA
BRANCH  16  18
ATOM     18  C   UNL A   1      32.427  26.530  24.808  1.00  0.00     0.092 A 
ATOM     19  C   UNL A   1      33.740  26.821  24.493  1.00  0.00     0.025 A 
ATOM     20  S   UNL A   1      31.371  27.729  24.161  1.00  0.00    -0.139 S 
ATOM     21  C   UNL A   1      33.882  28.067  23.812  1.00  0.00     0.012 A 
ATOM     22  C   UNL A   1      32.668  28.655  23.552  1.00  0.00     0.065 A 
ENDBRANCH  16  18
ENDBRANCH  14  16
ENDBRANCH  13  14
ENDBRANCH  11  13
ENDBRANCH   7  11
BRANCH   9  23
ATOM     23  O   UNL A   1      33.230  19.257  26.339  1.00  0.00    -0.391 OA
ATOM     24  H   UNL A   1      32.343  18.993  26.631  1.00  0.00     0.211 HD
ENDBRANCH   9  23
ENDBRANCH   4   6
ENDBRANCH   3   4
ENDBRANCH   2   3
ENDBRANCH   1   2
BRANCH   1  25
ATOM     25  O   UNL A   1      40.602  21.883  26.163  1.00  0.00    -0.374 OA
BRANCH  25  26
ATOM     26  C   UNL A   1      41.415  21.582  27.296  1.00  0.00     0.202 C 
BRANCH  26  27
ATOM     27  C   UNL A   1      41.672  22.710  28.299  1.00  0.00     0.261 C 
BRANCH  27  28
ATOM     28  O   UNL A   1      42.722  23.612  27.892  1.00  0.00    -0.460 OA
BRANCH  28  29
ATOM     29  C   UNL A   1      42.306  24.604  27.066  1.00  0.00     0.338 C 
ATOM     30  O   UNL A   1      42.311  24.581  25.842  1.00  0.00    -0.246 OA
BRANCH  29  31
ATOM     31  C   UNL A   1      41.723  25.739  27.803  1.00  0.00     0.060 A 
ATOM     32  C   UNL A   1      42.579  26.803  28.109  1.00  0.00     0.016 A 
ATOM     33  C   UNL A   1      40.441  25.685  28.357  1.00  0.00     0.016 A 
ATOM     34  C   UNL A   1      42.185  27.771  29.030  1.00  0.00     0.010 A 
ATOM     35  C   UNL A   1      40.047  26.658  29.285  1.00  0.00     0.010 A 
ATOM     36  C   UNL A   1      40.937  27.676  29.664  1.00  0.00    -0.014 A 
BRANCH  36  37
ATOM     37  C   UNL A   1      40.654  28.575  30.811  1.00  0.00     0.031 A 
ATOM     38  C   UNL A   1      41.498  28.482  32.055  1.00  0.00     0.074 A 
ATOM     39  C   UNL A   1      39.708  29.526  30.708  1.00  0.00     0.049 A 
ATOM     40  N   UNL A   1      41.520  29.269  33.101  1.00  0.00    -0.248 NA
ATOM     41  C   UNL A   1      42.445  27.357  32.130  1.00  0.00     0.031 C 
ATOM     42  C   UNL A   1      38.824  29.714  29.559  1.00  0.00     0.029 A 
ATOM     43  N   UNL A   1      39.347  30.522  31.580  1.00  0.00    -0.354 N 
ATOM     44  C   UNL A   1      42.490  28.748  33.950  1.00  0.00     0.074 A 
ATOM     45  C   UNL A   1      43.004  27.552  33.317  1.00  0.00     0.031 C 
ATOM     46  C   UNL A   1      38.026  30.770  29.793  1.00  0.00     0.029 A 
ATOM     47  C   UNL A   1      38.343  31.331  31.104  1.00  0.00     0.049 A 
ATOM     48  H   UNL A   1      39.767  30.645  32.461  1.00  0.00     0.167 HD
ATOM     49  C   UNL A   1      42.925  29.229  35.139  1.00  0.00     0.037 A 
ATOM     50  C   UNL A   1      37.758  32.410  31.659  1.00  0.00     0.037 A 
ATOM     51  C   UNL A   1      42.409  30.417  35.772  1.00  0.00     0.049 A 
ATOM     52  C   UNL A   1      38.247  32.920  32.987  1.00  0.00     0.074 A 
ATOM     53  C   UNL A   1      42.805  31.002  36.962  1.00  0.00     0.029 A 
ATOM     54  N   UNL A   1      41.379  31.195  35.269  1.00  0.00    -0.354 N 
ATOM     55  N   UNL A   1      39.209  32.452  33.746  1.00  0.00    -0.248 NA
ATOM     56  C   UNL A   1      37.582  34.115  33.525  1.00  0.00     0.031 C 
ATOM     57  C   UNL A   1      41.991  32.117  37.194  1.00  0.00     0.029 A 
ATOM     58  C   UNL A   1      41.111  32.245  36.132  1.00  0.00     0.049 A 
ATOM     59  H   UNL A   1      40.905  31.027  34.422  1.00  0.00     0.167 HD
ATOM     60  C   UNL A   1      39.277  33.306  34.842  1.00  0.00     0.074 A 
ATOM     61  C   UNL A   1      38.270  34.327  34.640  1.00  0.00     0.031 C 
ATOM     62  C   UNL A   1      40.101  33.249  35.919  1.00  0.00     0.037 A 
BRANCH  49  63
ATOM     63  C   UNL A   1      44.016  28.468  35.839  1.00  0.00     0.058 A 
ATOM     64  C   UNL A   1      43.724  27.412  36.718  1.00  0.00     0.135 A 
ATOM     65  C   UNL A   1      45.366  28.772  35.604  1.00  0.00     0.135 A 
ATOM     66  F   UNL A   1      42.448  27.090  36.986  1.00  0.00    -0.206 F 
ATOM     67  C   UNL A   1      44.733  26.700  37.358  1.00  0.00     0.059 A 
ATOM     68  C   UNL A   1      46.392  28.059  36.220  1.00  0.00     0.059 A 
ATOM     69  F   UNL A   1      45.699  29.772  34.774  1.00  0.00    -0.206 F 
ATOM     70  C   UNL A   1      46.064  27.034  37.106  1.00  0.00     0.060 A 
BRANCH  70  71
ATOM     71  S   UNL A   1      47.364  26.101  37.943  1.00  0.00     0.124 S 
ATOM     72  O   UNL A   1      47.062  26.377  39.345  1.00  0.00    -0.237 OA
ATOM     73  O   UNL A   1      47.109  24.735  37.498  1.00  0.00    -0.237 OA
ATOM     74  O   UNL A   1      48.594  26.702  37.436  1.00  0.00    -0.744 OA
ENDBRANCH  70  71
ENDBRANCH  49  63
BRANCH  50  75
ATOM     75  C   UNL A   1      36.653  33.097  30.941  1.00  0.00     0.058 A 
ATOM     76  C   UNL A   1      35.312  32.829  31.247  1.00  0.00     0.135 A 
ATOM     77  C   UNL A   1      36.924  34.045  29.943  1.00  0.00     0.135 A 
ATOM     78  F   UNL A   1      35.005  31.925  32.189  1.00  0.00    -0.206 F 
ATOM     79  C   UNL A   1      34.272  33.472  30.581  1.00  0.00     0.059 A 
ATOM     80  C   UNL A   1      35.903  34.714  29.277  1.00  0.00     0.059 A 
ATOM     81  F   UNL A   1      38.194  34.343  29.626  1.00  0.00    -0.206 F 
ATOM     82  C   UNL A   1      34.579  34.415  29.598  1.00  0.00     0.060 A 
BRANCH  82  83
ATOM     83  S   UNL A   1      33.229  35.292  28.780  1.00  0.00     0.124 S 
ATOM     84  O   UNL A   1      32.520  35.864  29.918  1.00  0.00    -0.237 OA
ATOM     85  O   UNL A   1      33.945  36.239  27.931  1.00  0.00    -0.237 OA
ATOM     86  O   UNL A   1      32.528  34.230  28.065  1.00  0.00    -0.744 OA
ENDBRANCH  82  83
ENDBRANCH  50  75
BRANCH  62  87
ATOM     87  C   UNL A   1      39.950  34.331  36.952  1.00  0.00     0.058 A 
ATOM     88  C   UNL A   1      40.721  35.502  36.902  1.00  0.00     0.135 A 
ATOM     89  C   UNL A   1      39.008  34.207  37.985  1.00  0.00     0.135 A 
ATOM     90  F   UNL A   1      41.639  35.667  35.937  1.00  0.00    -0.206 F 
ATOM     91  C   UNL A   1      40.586  36.501  37.862  1.00  0.00     0.059 A 
ATOM     92  C   UNL A   1      38.842  35.202  38.943  1.00  0.00     0.059 A 
ATOM     93  F   UNL A   1      38.238  33.110  38.070  1.00  0.00    -0.206 F 
ATOM     94  C   UNL A   1      39.647  36.339  38.882  1.00  0.00     0.060 A 
BRANCH  94  95
ATOM     95  S   UNL A   1      39.471  37.642  40.119  1.00  0.00     0.124 S 
ATOM     96  O   UNL A   1      39.435  36.869  41.356  1.00  0.00    -0.237 OA
ATOM     97  O   UNL A   1      40.672  38.446  39.908  1.00  0.00    -0.237 OA
ATOM     98  O   UNL A   1      38.218  38.293  39.746  1.00  0.00    -0.744 OA
ENDBRANCH  94  95
ENDBRANCH  62  87
ENDBRANCH  36  37
ENDBRANCH  29  31
ENDBRANCH  28  29
ENDBRANCH  27  28
ENDBRANCH  26  27
ENDBRANCH  25  26
ENDBRANCH   1  25
TORSDOF 23
ENDMDL
MODEL 3
REMARK VINA RESULT:     -10.1      6.306     11.952
REMARK SMILES CN(CC(=O)N1C[C@@H](O)C[C@H]1C(=O)OCCOCCOC(=O)c1ccc(-c2c3nc(c(-c4c(F)cc(S(=O)(=O)[O-])cc4F)c4ccc([nH]4)c(-c4c(F)cc(S(=O)(=O)[O-])cc4F)c4nc(c(-c5c(F)cc(S(=O)(=O)[O-])cc5F)c5ccc2[nH]5)C=C4)C=C3)cc1)C(=O)c1cccs1
REMARK SMILES IDX 16 1 15 2 14 3 12 4 13 5 11 6 6 7 7 8 8 9 10 10 4 11 5 12
REMARK SMILES IDX 3 13 2 14 1 15 89 16 90 17 91 18 92 19 95 20 93 21 94 22
REMARK SMILES IDX 9 23 17 25 18 26 19 27 20 28 21 29 22 30 23 31 24 32 88 33
REMARK SMILES IDX 25 34 87 35 26 36 27 37 28 38 81 39 29 40 86 41 80 42 82 43
REMARK SMILES IDX 30 44 85 45 79 46 78 47 31 49 65 50 44 51 64 52 45 53 48 54
REMARK SMILES IDX 63 55 83 56 46 57 47 58 62 60 84 61 49 62 32 63 33 64 42 65
REMARK SMILES IDX 34 66 35 67 41 68 43 69 36 70 37 71 38 72 39 73 40 74 66 75
REMARK SMILES IDX 67 76 76 77 68 78 69 79 75 80 77 81 70 82 71 83 72 84 73 85
REMARK SMILES IDX 74 86 50 87 51 88 60 89 52 90 53 91 59 92 61 93 54 94 55 95
REMARK SMILES IDX 56 96 57 97 58 98
REMARK H PARENT 9 24 82 48 48 59
REMARK Flexibility Score: inf
ROOT
ATOM      1  C   UNL A   1      34.310  28.647  26.438  1.00  0.00     0.202 C 
ENDROOT
BRANCH   1   2
ATOM      2  C   UNL A   1      33.628  27.611  25.534  1.00  0.00     0.261 C 
BRANCH   2   3
ATOM      3  O   UNL A   1      33.379  26.323  26.134  1.00  0.00    -0.462 OA
BRANCH   3   4
ATOM      4  C   UNL A   1      33.290  25.292  25.246  1.00  0.00     0.329 C 
ATOM      5  O   UNL A   1      32.563  25.286  24.255  1.00  0.00    -0.250 OA
BRANCH   4   6
ATOM      6  C   UNL A   1      34.035  24.025  25.685  1.00  0.00     0.197 C 
ATOM      7  N   UNL A   1      33.898  22.739  24.965  1.00  0.00    -0.325 N 
ATOM      8  C   UNL A   1      35.132  22.442  24.265  1.00  0.00     0.152 C 
ATOM      9  C   UNL A   1      36.195  23.073  25.156  1.00  0.00     0.136 C 
ATOM     10  C   UNL A   1      35.534  24.371  25.588  1.00  0.00     0.070 C 
BRANCH   7  11
ATOM     11  C   UNL A   1      32.827  21.923  25.257  1.00  0.00     0.243 C 
ATOM     12  O   UNL A   1      31.919  22.365  25.977  1.00  0.00    -0.273 OA
BRANCH  11  13
ATOM     13  C   UNL A   1      32.787  20.402  24.930  1.00  0.00     0.219 C 
BRANCH  13  14
ATOM     14  N   UNL A   1      32.378  19.861  23.636  1.00  0.00    -0.332 N 
ATOM     15  C   UNL A   1      32.078  20.837  22.591  1.00  0.00     0.147 C 
BRANCH  14  16
ATOM     16  C   UNL A   1      32.537  18.530  23.206  1.00  0.00     0.264 C 
ATOM     17  O   UNL A   1      32.063  18.197  22.117  1.00  0.00    -0.268 OA
BRANCH  16  18
ATOM     18  C   UNL A   1      33.317  17.595  24.008  1.00  0.00     0.092 A 
ATOM     19  C   UNL A   1      34.660  17.276  24.013  1.00  0.00     0.025 A 
ATOM     20  S   UNL A   1      32.479  16.697  25.219  1.00  0.00    -0.139 S 
ATOM     21  C   UNL A   1      34.978  16.234  24.935  1.00  0.00     0.012 A 
ATOM     22  C   UNL A   1      33.885  15.842  25.669  1.00  0.00     0.065 A 
ENDBRANCH  16  18
ENDBRANCH  14  16
ENDBRANCH  13  14
ENDBRANCH  11  13
ENDBRANCH   7  11
BRANCH   9  23
ATOM     23  O   UNL A   1      37.427  23.296  24.503  1.00  0.00    -0.391 OA
ATOM     24  H   UNL A   1      38.152  23.227  25.145  1.00  0.00     0.211 HD
ENDBRANCH   9  23
ENDBRANCH   4   6
ENDBRANCH   3   4
ENDBRANCH   2   3
ENDBRANCH   1   2
BRANCH   1  25
ATOM     25  O   UNL A   1      33.482  29.517  27.200  1.00  0.00    -0.374 OA
BRANCH  25  26
ATOM     26  C   UNL A   1      34.002  30.802  27.535  1.00  0.00     0.202 C 
BRANCH  26  27
ATOM     27  C   UNL A   1      33.008  31.964  27.618  1.00  0.00     0.261 C 
BRANCH  27  28
ATOM     28  O   UNL A   1      33.615  33.255  27.398  1.00  0.00    -0.460 OA
BRANCH  28  29
ATOM     29  C   UNL A   1      33.503  34.102  28.451  1.00  0.00     0.338 C 
ATOM     30  O   UNL A   1      32.570  34.864  28.675  1.00  0.00    -0.246 OA
BRANCH  29  31
ATOM     31  C   UNL A   1      34.611  33.952  29.412  1.00  0.00     0.060 A 
ATOM     32  C   UNL A   1      35.896  34.255  28.949  1.00  0.00     0.016 A 
ATOM     33  C   UNL A   1      34.435  33.346  30.658  1.00  0.00     0.016 A 
ATOM     34  C   UNL A   1      37.011  33.879  29.695  1.00  0.00     0.010 A 
ATOM     35  C   UNL A   1      35.558  32.965  31.406  1.00  0.00     0.010 A 
ATOM     36  C   UNL A   1      36.851  33.185  30.903  1.00  0.00    -0.014 A 
BRANCH  36  37
ATOM     37  C   UNL A   1      38.050  32.585  31.541  1.00  0.00     0.031 A 
ATOM     38  C   UNL A   1      38.505  33.085  32.887  1.00  0.00     0.074 A 
ATOM     39  C   UNL A   1      38.674  31.544  30.963  1.00  0.00     0.049 A 
ATOM     40  N   UNL A   1      39.424  32.601  33.682  1.00  0.00    -0.248 NA
ATOM     41  C   UNL A   1      37.833  34.287  33.408  1.00  0.00     0.031 C 
ATOM     42  C   UNL A   1      38.332  30.972  29.661  1.00  0.00     0.029 A 
ATOM     43  N   UNL A   1      39.718  30.772  31.408  1.00  0.00    -0.354 N 
ATOM     44  C   UNL A   1      39.432  33.424  34.803  1.00  0.00     0.074 A 
ATOM     45  C   UNL A   1      38.455  34.465  34.566  1.00  0.00     0.031 C 
ATOM     46  C   UNL A   1      39.146  29.932  29.416  1.00  0.00     0.029 A 
ATOM     47  C   UNL A   1      40.064  29.764  30.540  1.00  0.00     0.049 A 
ATOM     48  H   UNL A   1      40.174  30.925  32.265  1.00  0.00     0.167 HD
ATOM     49  C   UNL A   1      40.173  33.314  35.932  1.00  0.00     0.037 A 
ATOM     50  C   UNL A   1      41.007  28.807  30.648  1.00  0.00     0.037 A 
ATOM     51  C   UNL A   1      41.148  32.280  36.165  1.00  0.00     0.049 A 
ATOM     52  C   UNL A   1      41.827  28.711  31.906  1.00  0.00     0.074 A 
ATOM     53  C   UNL A   1      41.927  32.066  37.290  1.00  0.00     0.029 A 
ATOM     54  N   UNL A   1      41.486  31.292  35.254  1.00  0.00    -0.354 N 
ATOM     55  N   UNL A   1      41.775  29.459  32.982  1.00  0.00    -0.248 NA
ATOM     56  C   UNL A   1      42.820  27.629  31.970  1.00  0.00     0.031 C 
ATOM     57  C   UNL A   1      42.759  30.967  37.044  1.00  0.00     0.029 A 
ATOM     58  C   UNL A   1      42.473  30.476  35.781  1.00  0.00     0.049 A 
ATOM     59  H   UNL A   1      41.082  31.185  34.361  1.00  0.00     0.167 HD
ATOM     60  C   UNL A   1      42.717  28.928  33.858  1.00  0.00     0.074 A 
ATOM     61  C   UNL A   1      43.310  27.787  33.192  1.00  0.00     0.031 C 
ATOM     62  C   UNL A   1      43.058  29.348  35.102  1.00  0.00     0.037 A 
BRANCH  49  63
ATOM     63  C   UNL A   1      39.956  34.342  37.006  1.00  0.00     0.058 A 
ATOM     64  C   UNL A   1      40.571  35.603  36.947  1.00  0.00     0.135 A 
ATOM     65  C   UNL A   1      39.100  34.081  38.087  1.00  0.00     0.135 A 
ATOM     66  F   UNL A   1      41.409  35.899  35.941  1.00  0.00    -0.206 F 
ATOM     67  C   UNL A   1      40.364  36.560  37.935  1.00  0.00     0.059 A 
ATOM     68  C   UNL A   1      38.863  35.031  39.078  1.00  0.00     0.059 A 
ATOM     69  F   UNL A   1      38.488  32.891  38.192  1.00  0.00    -0.206 F 
ATOM     70  C   UNL A   1      39.511  36.263  38.999  1.00  0.00     0.060 A 
BRANCH  70  71
ATOM     71  S   UNL A   1      39.249  37.514  40.275  1.00  0.00     0.124 S 
ATOM     72  O   UNL A   1      38.556  36.741  41.302  1.00  0.00    -0.237 OA
ATOM     73  O   UNL A   1      40.613  37.920  40.602  1.00  0.00    -0.237 OA
ATOM     74  O   UNL A   1      38.443  38.526  39.600  1.00  0.00    -0.744 OA
ENDBRANCH  70  71
ENDBRANCH  49  63
BRANCH  50  75
ATOM     75  C   UNL A   1      41.206  27.843  29.535  1.00  0.00     0.058 A 
ATOM     76  C   UNL A   1      42.319  27.934  28.687  1.00  0.00     0.135 A 
ATOM     77  C   UNL A   1      40.290  26.805  29.310  1.00  0.00     0.135 A 
ATOM     78  F   UNL A   1      43.217  28.915  28.861  1.00  0.00    -0.206 F 
ATOM     79  C   UNL A   1      42.514  27.033  27.645  1.00  0.00     0.059 A 
ATOM     80  C   UNL A   1      40.473  25.881  28.287  1.00  0.00     0.059 A 
ATOM     81  F   UNL A   1      39.217  26.671  30.104  1.00  0.00    -0.206 F 
ATOM     82  C   UNL A   1      41.585  26.008  27.454  1.00  0.00     0.060 A 
BRANCH  82  83
ATOM     83  S   UNL A   1      41.874  24.803  26.141  1.00  0.00     0.124 S 
ATOM     84  O   UNL A   1      40.758  23.886  26.333  1.00  0.00    -0.237 OA
ATOM     85  O   UNL A   1      41.821  25.633  24.942  1.00  0.00    -0.237 OA
ATOM     86  O   UNL A   1      43.195  24.270  26.464  1.00  0.00    -0.744 OA
ENDBRANCH  82  83
ENDBRANCH  50  75
BRANCH  62  87
ATOM     87  C   UNL A   1      44.113  28.558  35.825  1.00  0.00     0.058 A 
ATOM     88  C   UNL A   1      43.777  27.488  36.668  1.00  0.00     0.135 A 
ATOM     89  C   UNL A   1      45.474  28.856  35.652  1.00  0.00     0.135 A 
ATOM     90  F   UNL A   1      42.490  27.165  36.870  1.00  0.00    -0.206 F 
ATOM     91  C   UNL A   1      44.754  26.760  37.341  1.00  0.00     0.059 A 
ATOM     92  C   UNL A   1      46.468  28.129  36.299  1.00  0.00     0.059 A 
ATOM     93  F   UNL A   1      45.848  29.864  34.846  1.00  0.00    -0.206 F 
ATOM     94  C   UNL A   1      46.097  27.093  37.155  1.00  0.00     0.060 A 
BRANCH  94  95
ATOM     95  S   UNL A   1      47.359  26.139  38.025  1.00  0.00     0.124 S 
ATOM     96  O   UNL A   1      47.508  26.907  39.256  1.00  0.00    -0.237 OA
ATOM     97  O   UNL A   1      46.727  24.830  38.166  1.00  0.00    -0.237 OA
ATOM     98  O   UNL A   1      48.499  26.180  37.114  1.00  0.00    -0.744 OA
ENDBRANCH  94  95
ENDBRANCH  62  87
ENDBRANCH  36  37
ENDBRANCH  29  31
ENDBRANCH  28  29
ENDBRANCH  27  28
ENDBRANCH  26  27
ENDBRANCH  25  26
ENDBRANCH   1  25
TORSDOF 23
ENDMDL
