MODEL 1
REMARK VINA RESULT:     -10.6      0.000      0.000
REMARK SMILES N#C/C(=C\c1ccc(Oc2ccccc2Cl)c([N+](=O)[O-])c1)C(=O)OCCOCCOC(=O)c1ccc(-c2c3nc(c(-c4c(F)cc(S(=O)(=O)[O-])cc4F)c4ccc([nH]4)c(-c4c(F)cc(S(=O)(=O)[O-])cc4F)c4nc(c(-c5c(F)cc(S(=O)(=O)[O-])cc5F)c5ccc2[nH]5)C=C4)C=C3)cc1
REMARK SMILES IDX 27 1 26 2 25 3 24 4 22 5 23 6 3 7 4 8 2 9 1 10 5 11 6 12
REMARK SMILES IDX 21 13 7 14 17 15 8 16 18 17 19 18 20 19 9 20 10 21 11 22
REMARK SMILES IDX 15 23 12 24 14 25 16 26 13 27 28 28 29 29 30 30 31 31 32 32
REMARK SMILES IDX 33 33 34 34 98 35 35 36 97 37 36 38 37 39 38 40 91 41 39 42
REMARK SMILES IDX 96 43 90 44 92 45 40 46 95 47 89 48 88 49 41 51 75 52 54 53
REMARK SMILES IDX 74 54 55 55 58 56 73 57 93 58 56 59 57 60 72 62 94 63 59 64
REMARK SMILES IDX 42 65 43 66 52 67 44 68 45 69 51 70 53 71 46 72 47 73 48 74
REMARK SMILES IDX 49 75 50 76 76 77 77 78 86 79 78 80 79 81 85 82 87 83 80 84
REMARK SMILES IDX 81 85 82 86 83 87 84 88 60 89 61 90 70 91 62 92 63 93 69 94
REMARK SMILES IDX 71 95 64 96 65 97 66 98 67 99 68 100
REMARK H PARENT 92 50 58 61
REMARK Flexibility Score: inf
ROOT
ATOM      1  O   UNL A   1      42.121  20.527  26.701  1.00  0.00    -0.374 OA
ENDROOT
BRANCH   1   2
ATOM      2  C   UNL A   1      41.167  19.926  25.828  1.00  0.00     0.202 C 
BRANCH   2   3
ATOM      3  C   UNL A   1      39.690  19.997  26.218  1.00  0.00     0.261 C 
BRANCH   3   4
ATOM      4  O   UNL A   1      39.070  21.178  25.681  1.00  0.00    -0.459 OA
BRANCH   4   5
ATOM      5  C   UNL A   1      37.926  20.937  25.000  1.00  0.00     0.348 C 
ATOM      6  O   UNL A   1      37.533  19.845  24.615  1.00  0.00    -0.245 OA
BRANCH   5   7
ATOM      7  C   UNL A   1      37.097  22.152  24.876  1.00  0.00     0.138 C 
ATOM      8  C   UNL A   1      35.864  22.142  24.321  1.00  0.00     0.035 C 
BRANCH   7   9
ATOM      9  C   UNL A   1      37.549  23.297  25.768  1.00  0.00     0.107 C 
ATOM     10  N   UNL A   1      37.925  24.247  26.507  1.00  0.00    -0.192 NA
ENDBRANCH   7   9
BRANCH   8  11
ATOM     11  C   UNL A   1      34.853  23.184  24.613  1.00  0.00    -0.017 A 
ATOM     12  C   UNL A   1      34.779  24.308  23.781  1.00  0.00     0.012 A 
ATOM     13  C   UNL A   1      33.860  23.018  25.584  1.00  0.00     0.098 A 
ATOM     14  C   UNL A   1      33.707  25.207  23.884  1.00  0.00     0.055 A 
ATOM     15  C   UNL A   1      32.739  23.871  25.610  1.00  0.00     0.312 A 
ATOM     16  C   UNL A   1      32.653  24.998  24.788  1.00  0.00     0.204 A 
BRANCH  15  17
ATOM     17  N   UNL A   1      31.635  23.394  26.416  1.00  0.00     0.066 N 
ATOM     18  O   UNL A   1      31.674  23.634  27.630  1.00  0.00    -0.258 OA
ATOM     19  O   UNL A   1      30.697  22.847  25.819  1.00  0.00    -0.258 OA
ENDBRANCH  15  17
BRANCH  16  20
ATOM     20  O   UNL A   1      31.670  25.958  24.685  1.00  0.00    -0.449 OA
BRANCH  20  21
ATOM     21  C   UNL A   1      31.754  27.139  25.376  1.00  0.00     0.146 A 
ATOM     22  C   UNL A   1      31.476  27.065  26.746  1.00  0.00     0.049 A 
ATOM     23  C   UNL A   1      32.037  28.377  24.790  1.00  0.00     0.083 A 
ATOM     24  C   UNL A   1      31.580  28.202  27.545  1.00  0.00     0.004 A 
ATOM     25  C   UNL A   1      32.160  29.511  25.597  1.00  0.00     0.024 A 
ATOM     26  Cl  UNL A   1      32.254  28.558  23.088  1.00  0.00    -0.080 Cl
ATOM     27  C   UNL A   1      31.944  29.421  26.975  1.00  0.00     0.002 A 
ENDBRANCH  20  21
ENDBRANCH  16  20
ENDBRANCH   8  11
ENDBRANCH   5   7
ENDBRANCH   4   5
ENDBRANCH   3   4
ENDBRANCH   2   3
ENDBRANCH   1   2
BRANCH   1  28
ATOM     28  C   UNL A   1      43.145  21.353  26.157  1.00  0.00     0.202 C 
BRANCH  28  29
ATOM     29  C   UNL A   1      43.340  22.774  26.708  1.00  0.00     0.261 C 
BRANCH  29  30
ATOM     30  O   UNL A   1      42.168  23.599  26.644  1.00  0.00    -0.460 OA
BRANCH  30  31
ATOM     31  C   UNL A   1      42.410  24.862  26.212  1.00  0.00     0.338 C 
ATOM     32  O   UNL A   1      42.882  25.192  25.132  1.00  0.00    -0.246 OA
BRANCH  31  33
ATOM     33  C   UNL A   1      41.857  25.846  27.156  1.00  0.00     0.060 A 
ATOM     34  C   UNL A   1      42.429  27.126  27.164  1.00  0.00     0.016 A 
ATOM     35  C   UNL A   1      40.872  25.500  28.084  1.00  0.00     0.016 A 
ATOM     36  C   UNL A   1      42.047  28.054  28.129  1.00  0.00     0.010 A 
ATOM     37  C   UNL A   1      40.501  26.430  29.062  1.00  0.00     0.010 A 
ATOM     38  C   UNL A   1      41.112  27.697  29.109  1.00  0.00    -0.014 A 
BRANCH  38  39
ATOM     39  C   UNL A   1      40.894  28.600  30.264  1.00  0.00     0.031 A 
ATOM     40  C   UNL A   1      41.761  28.445  31.483  1.00  0.00     0.074 A 
ATOM     41  C   UNL A   1      39.959  29.565  30.211  1.00  0.00     0.049 A 
ATOM     42  N   UNL A   1      41.735  29.112  32.607  1.00  0.00    -0.248 NA
ATOM     43  C   UNL A   1      42.796  27.399  31.426  1.00  0.00     0.031 C 
ATOM     44  C   UNL A   1      39.088  29.836  29.068  1.00  0.00     0.029 A 
ATOM     45  N   UNL A   1      39.588  30.498  31.146  1.00  0.00    -0.354 N 
ATOM     46  C   UNL A   1      42.741  28.563  33.395  1.00  0.00     0.074 A 
ATOM     47  C   UNL A   1      43.344  27.493  32.630  1.00  0.00     0.031 C 
ATOM     48  C   UNL A   1      38.274  30.862  29.375  1.00  0.00     0.029 A 
ATOM     49  C   UNL A   1      38.550  31.301  30.742  1.00  0.00     0.049 A 
ATOM     50  H   UNL A   1      40.024  30.583  32.025  1.00  0.00     0.167 HD
ATOM     51  C   UNL A   1      43.129  28.923  34.641  1.00  0.00     0.037 A 
ATOM     52  C   UNL A   1      37.886  32.267  31.406  1.00  0.00     0.037 A 
ATOM     53  C   UNL A   1      42.532  29.995  35.395  1.00  0.00     0.049 A 
ATOM     54  C   UNL A   1      38.299  32.611  32.814  1.00  0.00     0.074 A 
ATOM     55  C   UNL A   1      42.875  30.459  36.652  1.00  0.00     0.029 A 
ATOM     56  N   UNL A   1      41.462  30.765  34.963  1.00  0.00    -0.354 N 
ATOM     57  N   UNL A   1      39.271  32.104  33.535  1.00  0.00    -0.248 NA
ATOM     58  C   UNL A   1      37.527  33.659  33.497  1.00  0.00     0.031 C 
ATOM     59  C   UNL A   1      41.985  31.479  37.001  1.00  0.00     0.029 A 
ATOM     60  C   UNL A   1      41.116  31.684  35.940  1.00  0.00     0.049 A 
ATOM     61  H   UNL A   1      41.016  30.673  34.091  1.00  0.00     0.167 HD
ATOM     62  C   UNL A   1      39.245  32.790  34.746  1.00  0.00     0.074 A 
ATOM     63  C   UNL A   1      38.166  33.752  34.656  1.00  0.00     0.031 C 
ATOM     64  C   UNL A   1      40.043  32.641  35.831  1.00  0.00     0.037 A 
BRANCH  51  65
ATOM     65  C   UNL A   1      44.236  28.136  35.282  1.00  0.00     0.058 A 
ATOM     66  C   UNL A   1      45.581  28.517  35.160  1.00  0.00     0.135 A 
ATOM     67  C   UNL A   1      43.944  27.003  36.058  1.00  0.00     0.135 A 
ATOM     68  F   UNL A   1      45.918  29.580  34.413  1.00  0.00    -0.206 F 
ATOM     69  C   UNL A   1      46.601  27.791  35.769  1.00  0.00     0.059 A 
ATOM     70  C   UNL A   1      44.943  26.275  36.696  1.00  0.00     0.059 A 
ATOM     71  F   UNL A   1      42.673  26.594  36.203  1.00  0.00    -0.206 F 
ATOM     72  C   UNL A   1      46.270  26.670  36.535  1.00  0.00     0.060 A 
BRANCH  72  73
ATOM     73  S   UNL A   1      47.601  25.743  37.326  1.00  0.00     0.124 S 
ATOM     74  O   UNL A   1      47.178  25.763  38.723  1.00  0.00    -0.237 OA
ATOM     75  O   UNL A   1      47.523  24.448  36.659  1.00  0.00    -0.237 OA
ATOM     76  O   UNL A   1      48.792  26.530  37.020  1.00  0.00    -0.744 OA
ENDBRANCH  72  73
ENDBRANCH  51  65
BRANCH  52  77
ATOM     77  C   UNL A   1      36.752  32.974  30.756  1.00  0.00     0.058 A 
ATOM     78  C   UNL A   1      35.423  32.621  31.033  1.00  0.00     0.135 A 
ATOM     79  C   UNL A   1      36.975  34.012  29.838  1.00  0.00     0.135 A 
ATOM     80  F   UNL A   1      35.160  31.628  31.896  1.00  0.00    -0.206 F 
ATOM     81  C   UNL A   1      34.355  33.260  30.412  1.00  0.00     0.059 A 
ATOM     82  C   UNL A   1      35.924  34.682  29.222  1.00  0.00     0.059 A 
ATOM     83  F   UNL A   1      38.228  34.395  29.548  1.00  0.00    -0.206 F 
ATOM     84  C   UNL A   1      34.617  34.291  29.508  1.00  0.00     0.060 A 
BRANCH  84  85
ATOM     85  S   UNL A   1      33.224  35.148  28.740  1.00  0.00     0.124 S 
ATOM     86  O   UNL A   1      33.901  36.222  28.023  1.00  0.00    -0.237 OA
ATOM     87  O   UNL A   1      32.635  34.099  27.914  1.00  0.00    -0.237 OA
ATOM     88  O   UNL A   1      32.416  35.562  29.883  1.00  0.00    -0.744 OA
ENDBRANCH  84  85
ENDBRANCH  52  77
BRANCH  64  89
ATOM     89  C   UNL A   1      39.807  33.559  36.998  1.00  0.00     0.058 A 
ATOM     90  C   UNL A   1      38.955  33.205  38.055  1.00  0.00     0.135 A 
ATOM     91  C   UNL A   1      40.486  34.785  37.084  1.00  0.00     0.135 A 
ATOM     92  F   UNL A   1      38.279  32.046  38.017  1.00  0.00    -0.206 F 
ATOM     93  C   UNL A   1      38.767  34.045  39.147  1.00  0.00     0.059 A 
ATOM     94  C   UNL A   1      40.332  35.630  38.179  1.00  0.00     0.059 A 
ATOM     95  F   UNL A   1      41.321  35.166  36.104  1.00  0.00    -0.206 F 
ATOM     96  C   UNL A   1      39.461  35.255  39.201  1.00  0.00     0.060 A 
BRANCH  96  97
ATOM     97  S   UNL A   1      39.235  36.322  40.641  1.00  0.00     0.124 S 
ATOM     98  O   UNL A   1      38.466  35.457  41.529  1.00  0.00    -0.237 OA
ATOM     99  O   UNL A   1      40.609  36.592  41.051  1.00  0.00    -0.237 OA
ATOM    100  O   UNL A   1      38.511  37.470  40.101  1.00  0.00    -0.744 OA
ENDBRANCH  96  97
ENDBRANCH  64  89
ENDBRANCH  38  39
ENDBRANCH  31  33
ENDBRANCH  30  31
ENDBRANCH  29  30
ENDBRANCH  28  29
ENDBRANCH   1  28
TORSDOF 22
ENDMDL
MODEL 2
REMARK VINA RESULT:     -10.5      4.857     12.467
REMARK SMILES N#C/C(=C\c1ccc(Oc2ccccc2Cl)c([N+](=O)[O-])c1)C(=O)OCCOCCOC(=O)c1ccc(-c2c3nc(c(-c4c(F)cc(S(=O)(=O)[O-])cc4F)c4ccc([nH]4)c(-c4c(F)cc(S(=O)(=O)[O-])cc4F)c4nc(c(-c5c(F)cc(S(=O)(=O)[O-])cc5F)c5ccc2[nH]5)C=C4)C=C3)cc1
REMARK SMILES IDX 27 1 26 2 25 3 24 4 22 5 23 6 3 7 4 8 2 9 1 10 5 11 6 12
REMARK SMILES IDX 21 13 7 14 17 15 8 16 18 17 19 18 20 19 9 20 10 21 11 22
REMARK SMILES IDX 15 23 12 24 14 25 16 26 13 27 28 28 29 29 30 30 31 31 32 32
REMARK SMILES IDX 33 33 34 34 98 35 35 36 97 37 36 38 37 39 38 40 91 41 39 42
REMARK SMILES IDX 96 43 90 44 92 45 40 46 95 47 89 48 88 49 41 51 75 52 54 53
REMARK SMILES IDX 74 54 55 55 58 56 73 57 93 58 56 59 57 60 72 62 94 63 59 64
REMARK SMILES IDX 42 65 43 66 52 67 44 68 45 69 51 70 53 71 46 72 47 73 48 74
REMARK SMILES IDX 49 75 50 76 76 77 77 78 86 79 78 80 79 81 85 82 87 83 80 84
REMARK SMILES IDX 81 85 82 86 83 87 84 88 60 89 61 90 70 91 62 92 63 93 69 94
REMARK SMILES IDX 71 95 64 96 65 97 66 98 67 99 68 100
REMARK H PARENT 92 50 58 61
REMARK Flexibility Score: inf
ROOT
ATOM      1  O   UNL A   1      34.798  32.924  31.094  1.00  0.00    -0.374 OA
ENDROOT
BRANCH   1   2
ATOM      2  C   UNL A   1      36.166  32.747  31.459  1.00  0.00     0.202 C 
BRANCH   2   3
ATOM      3  C   UNL A   1      36.482  31.816  32.631  1.00  0.00     0.261 C 
BRANCH   3   4
ATOM      4  O   UNL A   1      37.763  31.185  32.459  1.00  0.00    -0.459 OA
BRANCH   4   5
ATOM      5  C   UNL A   1      38.372  30.851  33.620  1.00  0.00     0.348 C 
ATOM      6  O   UNL A   1      38.018  31.185  34.742  1.00  0.00    -0.245 OA
BRANCH   5   7
ATOM      7  C   UNL A   1      39.474  29.892  33.403  1.00  0.00     0.138 C 
ATOM      8  C   UNL A   1      40.711  30.074  33.914  1.00  0.00     0.035 C 
BRANCH   7   9
ATOM      9  C   UNL A   1      39.012  28.525  32.925  1.00  0.00     0.107 C 
ATOM     10  N   UNL A   1      38.629  27.391  32.528  1.00  0.00    -0.192 NA
ENDBRANCH   7   9
BRANCH   8  11
ATOM     11  C   UNL A   1      41.656  28.953  34.127  1.00  0.00    -0.017 A 
ATOM     12  C   UNL A   1      42.682  28.747  33.198  1.00  0.00     0.012 A 
ATOM     13  C   UNL A   1      41.667  28.191  35.300  1.00  0.00     0.098 A 
ATOM     14  C   UNL A   1      43.723  27.845  33.467  1.00  0.00     0.055 A 
ATOM     15  C   UNL A   1      42.767  27.364  35.601  1.00  0.00     0.312 A 
ATOM     16  C   UNL A   1      43.798  27.146  34.683  1.00  0.00     0.204 A 
BRANCH  15  17
ATOM     17  N   UNL A   1      42.824  26.908  36.975  1.00  0.00     0.066 N 
ATOM     18  O   UNL A   1      42.037  26.012  37.308  1.00  0.00    -0.258 OA
ATOM     19  O   UNL A   1      43.705  27.398  37.695  1.00  0.00    -0.258 OA
ENDBRANCH  15  17
BRANCH  16  20
ATOM     20  O   UNL A   1      44.929  26.363  34.773  1.00  0.00    -0.449 OA
BRANCH  20  21
ATOM     21  C   UNL A   1      44.842  25.000  34.883  1.00  0.00     0.146 A 
ATOM     22  C   UNL A   1      45.160  24.468  36.139  1.00  0.00     0.049 A 
ATOM     23  C   UNL A   1      44.518  24.143  33.827  1.00  0.00     0.083 A 
ATOM     24  C   UNL A   1      45.058  23.096  36.365  1.00  0.00     0.004 A 
ATOM     25  C   UNL A   1      44.397  22.770  34.063  1.00  0.00     0.024 A 
ATOM     26  Cl  UNL A   1      44.248  24.723  32.225  1.00  0.00    -0.080 Cl
ATOM     27  C   UNL A   1      44.654  22.250  35.334  1.00  0.00     0.002 A 
ENDBRANCH  20  21
ENDBRANCH  16  20
ENDBRANCH   8  11
ENDBRANCH   5   7
ENDBRANCH   4   5
ENDBRANCH   3   4
ENDBRANCH   2   3
ENDBRANCH   1   2
BRANCH   1  28
ATOM     28  C   UNL A   1      34.473  33.714  29.956  1.00  0.00     0.202 C 
BRANCH  28  29
ATOM     29  C   UNL A   1      33.872  33.038  28.715  1.00  0.00     0.261 C 
BRANCH  29  30
ATOM     30  O   UNL A   1      34.812  32.277  27.943  1.00  0.00    -0.460 OA
BRANCH  30  31
ATOM     31  C   UNL A   1      34.622  30.935  28.017  1.00  0.00     0.338 C 
ATOM     32  O   UNL A   1      33.569  30.332  27.862  1.00  0.00    -0.246 OA
BRANCH  31  33
ATOM     33  C   UNL A   1      35.912  30.236  28.137  1.00  0.00     0.060 A 
ATOM     34  C   UNL A   1      36.280  29.773  29.408  1.00  0.00     0.016 A 
ATOM     35  C   UNL A   1      36.790  30.126  27.057  1.00  0.00     0.016 A 
ATOM     36  C   UNL A   1      37.546  29.234  29.613  1.00  0.00     0.010 A 
ATOM     37  C   UNL A   1      38.068  29.596  27.270  1.00  0.00     0.010 A 
ATOM     38  C   UNL A   1      38.462  29.181  28.555  1.00  0.00    -0.014 A 
BRANCH  38  39
ATOM     39  C   UNL A   1      39.875  28.832  28.837  1.00  0.00     0.031 A 
ATOM     40  C   UNL A   1      40.768  29.866  29.468  1.00  0.00     0.074 A 
ATOM     41  C   UNL A   1      40.343  27.601  28.567  1.00  0.00     0.049 A 
ATOM     42  N   UNL A   1      42.033  29.782  29.787  1.00  0.00    -0.248 NA
ATOM     43  C   UNL A   1      40.151  31.165  29.782  1.00  0.00     0.031 C 
ATOM     44  C   UNL A   1      39.560  26.506  27.994  1.00  0.00     0.029 A 
ATOM     45  N   UNL A   1      41.595  27.066  28.739  1.00  0.00    -0.354 N 
ATOM     46  C   UNL A   1      42.368  31.018  30.329  1.00  0.00     0.074 A 
ATOM     47  C   UNL A   1      41.180  31.841  30.277  1.00  0.00     0.031 C 
ATOM     48  C   UNL A   1      40.356  25.431  27.852  1.00  0.00     0.029 A 
ATOM     49  C   UNL A   1      41.705  25.770  28.300  1.00  0.00     0.049 A 
ATOM     50  H   UNL A   1      42.343  27.565  29.140  1.00  0.00     0.167 HD
ATOM     51  C   UNL A   1      43.557  31.425  30.832  1.00  0.00     0.037 A 
ATOM     52  C   UNL A   1      42.779  24.956  28.247  1.00  0.00     0.037 A 
ATOM     53  C   UNL A   1      44.735  30.599  30.891  1.00  0.00     0.049 A 
ATOM     54  C   UNL A   1      44.106  25.453  28.759  1.00  0.00     0.074 A 
ATOM     55  C   UNL A   1      45.979  30.909  31.410  1.00  0.00     0.029 A 
ATOM     56  N   UNL A   1      44.815  29.301  30.407  1.00  0.00    -0.354 N 
ATOM     57  N   UNL A   1      44.401  26.613  29.296  1.00  0.00    -0.248 NA
ATOM     58  C   UNL A   1      45.245  24.531  28.659  1.00  0.00     0.031 C 
ATOM     59  C   UNL A   1      46.826  29.816  31.201  1.00  0.00     0.029 A 
ATOM     60  C   UNL A   1      46.096  28.806  30.592  1.00  0.00     0.049 A 
ATOM     61  H   UNL A   1      44.073  28.806  29.994  1.00  0.00     0.167 HD
ATOM     62  C   UNL A   1      45.751  26.549  29.624  1.00  0.00     0.074 A 
ATOM     63  C   UNL A   1      46.214  25.234  29.231  1.00  0.00     0.031 C 
ATOM     64  C   UNL A   1      46.537  27.491  30.202  1.00  0.00     0.037 A 
BRANCH  51  65
ATOM     65  C   UNL A   1      43.655  32.838  31.335  1.00  0.00     0.058 A 
ATOM     66  C   UNL A   1      43.489  33.152  32.692  1.00  0.00     0.135 A 
ATOM     67  C   UNL A   1      43.954  33.886  30.450  1.00  0.00     0.135 A 
ATOM     68  F   UNL A   1      43.182  32.191  33.577  1.00  0.00    -0.206 F 
ATOM     69  C   UNL A   1      43.596  34.462  33.153  1.00  0.00     0.059 A 
ATOM     70  C   UNL A   1      44.090  35.199  30.891  1.00  0.00     0.059 A 
ATOM     71  F   UNL A   1      44.119  33.638  29.141  1.00  0.00    -0.206 F 
ATOM     72  C   UNL A   1      43.896  35.478  32.243  1.00  0.00     0.060 A 
BRANCH  72  73
ATOM     73  S   UNL A   1      44.041  37.170  32.856  1.00  0.00     0.124 S 
ATOM     74  O   UNL A   1      45.357  37.139  33.485  1.00  0.00    -0.237 OA
ATOM     75  O   UNL A   1      43.941  37.957  31.632  1.00  0.00    -0.237 OA
ATOM     76  O   UNL A   1      42.911  37.297  33.772  1.00  0.00    -0.744 OA
ENDBRANCH  72  73
ENDBRANCH  51  65
BRANCH  52  77
ATOM     77  C   UNL A   1      42.650  23.589  27.679  1.00  0.00     0.058 A 
ATOM     78  C   UNL A   1      42.770  23.364  26.299  1.00  0.00     0.135 A 
ATOM     79  C   UNL A   1      42.397  22.482  28.503  1.00  0.00     0.135 A 
ATOM     80  F   UNL A   1      43.001  24.392  25.470  1.00  0.00    -0.206 F 
ATOM     81  C   UNL A   1      42.627  22.092  25.754  1.00  0.00     0.059 A 
ATOM     82  C   UNL A   1      42.274  21.198  27.985  1.00  0.00     0.059 A 
ATOM     83  F   UNL A   1      42.285  22.644  29.831  1.00  0.00    -0.206 F 
ATOM     84  C   UNL A   1      42.380  21.014  26.607  1.00  0.00     0.060 A 
BRANCH  84  85
ATOM     85  S   UNL A   1      42.242  19.359  25.898  1.00  0.00     0.124 S 
ATOM     86  O   UNL A   1      40.805  19.251  25.681  1.00  0.00    -0.237 OA
ATOM     87  O   UNL A   1      43.065  19.469  24.697  1.00  0.00    -0.237 OA
ATOM     88  O   UNL A   1      42.790  18.501  26.945  1.00  0.00    -0.744 OA
ENDBRANCH  84  85
ENDBRANCH  52  77
BRANCH  64  89
ATOM     89  C   UNL A   1      47.970  27.126  30.477  1.00  0.00     0.058 A 
ATOM     90  C   UNL A   1      49.000  27.459  29.585  1.00  0.00     0.135 A 
ATOM     91  C   UNL A   1      48.319  26.482  31.675  1.00  0.00     0.135 A 
ATOM     92  F   UNL A   1      48.716  28.069  28.424  1.00  0.00    -0.206 F 
ATOM     93  C   UNL A   1      50.327  27.148  29.862  1.00  0.00     0.059 A 
ATOM     94  C   UNL A   1      49.643  26.183  31.983  1.00  0.00     0.059 A 
ATOM     95  F   UNL A   1      47.372  26.152  32.567  1.00  0.00    -0.206 F 
ATOM     96  C   UNL A   1      50.639  26.511  31.065  1.00  0.00     0.060 A 
BRANCH  96  97
ATOM     97  S   UNL A   1      52.369  26.142  31.428  1.00  0.00     0.124 S 
ATOM     98  O   UNL A   1      52.963  26.177  30.096  1.00  0.00    -0.237 OA
ATOM     99  O   UNL A   1      52.744  27.237  32.318  1.00  0.00    -0.237 OA
ATOM    100  O   UNL A   1      52.310  24.825  32.055  1.00  0.00    -0.744 OA
ENDBRANCH  96  97
ENDBRANCH  64  89
ENDBRANCH  38  39
ENDBRANCH  31  33
ENDBRANCH  30  31
ENDBRANCH  29  30
ENDBRANCH  28  29
ENDBRANCH   1  28
TORSDOF 22
ENDMDL
MODEL 3
REMARK VINA RESULT:     -10.3      6.207     11.913
REMARK SMILES N#C/C(=C\c1ccc(Oc2ccccc2Cl)c([N+](=O)[O-])c1)C(=O)OCCOCCOC(=O)c1ccc(-c2c3nc(c(-c4c(F)cc(S(=O)(=O)[O-])cc4F)c4ccc([nH]4)c(-c4c(F)cc(S(=O)(=O)[O-])cc4F)c4nc(c(-c5c(F)cc(S(=O)(=O)[O-])cc5F)c5ccc2[nH]5)C=C4)C=C3)cc1
REMARK SMILES IDX 27 1 26 2 25 3 24 4 22 5 23 6 3 7 4 8 2 9 1 10 5 11 6 12
REMARK SMILES IDX 21 13 7 14 17 15 8 16 18 17 19 18 20 19 9 20 10 21 11 22
REMARK SMILES IDX 15 23 12 24 14 25 16 26 13 27 28 28 29 29 30 30 31 31 32 32
REMARK SMILES IDX 33 33 34 34 98 35 35 36 97 37 36 38 37 39 38 40 91 41 39 42
REMARK SMILES IDX 96 43 90 44 92 45 40 46 95 47 89 48 88 49 41 51 75 52 54 53
REMARK SMILES IDX 74 54 55 55 58 56 73 57 93 58 56 59 57 60 72 62 94 63 59 64
REMARK SMILES IDX 42 65 43 66 52 67 44 68 45 69 51 70 53 71 46 72 47 73 48 74
REMARK SMILES IDX 49 75 50 76 76 77 77 78 86 79 78 80 79 81 85 82 87 83 80 84
REMARK SMILES IDX 81 85 82 86 83 87 84 88 60 89 61 90 70 91 62 92 63 93 69 94
REMARK SMILES IDX 71 95 64 96 65 97 66 98 67 99 68 100
REMARK H PARENT 92 50 58 61
REMARK Flexibility Score: inf
ROOT
ATOM      1  O   UNL A   1      33.721  33.617  30.419  1.00  0.00    -0.374 OA
ENDROOT
BRANCH   1   2
ATOM      2  C   UNL A   1      34.112  33.939  29.085  1.00  0.00     0.202 C 
BRANCH   2   3
ATOM      3  C   UNL A   1      33.320  33.317  27.934  1.00  0.00     0.261 C 
BRANCH   3   4
ATOM      4  O   UNL A   1      33.435  31.884  27.942  1.00  0.00    -0.459 OA
BRANCH   4   5
ATOM      5  C   UNL A   1      32.523  31.255  27.165  1.00  0.00     0.348 C 
ATOM      6  O   UNL A   1      31.587  31.782  26.582  1.00  0.00    -0.245 OA
BRANCH   5   7
ATOM      7  C   UNL A   1      32.860  29.830  26.972  1.00  0.00     0.138 C 
ATOM      8  C   UNL A   1      32.039  28.965  26.336  1.00  0.00     0.035 C 
BRANCH   7   9
ATOM      9  C   UNL A   1      34.334  29.515  27.170  1.00  0.00     0.107 C 
ATOM     10  N   UNL A   1      35.556  29.254  27.335  1.00  0.00    -0.192 NA
ENDBRANCH   7   9
BRANCH   8  11
ATOM     11  C   UNL A   1      32.529  27.713  25.716  1.00  0.00    -0.017 A 
ATOM     12  C   UNL A   1      32.617  26.558  26.502  1.00  0.00     0.012 A 
ATOM     13  C   UNL A   1      32.756  27.592  24.341  1.00  0.00     0.098 A 
ATOM     14  C   UNL A   1      32.865  25.307  25.915  1.00  0.00     0.055 A 
ATOM     15  C   UNL A   1      32.904  26.321  23.753  1.00  0.00     0.312 A 
ATOM     16  C   UNL A   1      32.996  25.159  24.525  1.00  0.00     0.204 A 
BRANCH  15  17
ATOM     17  N   UNL A   1      32.782  26.303  22.310  1.00  0.00     0.066 N 
ATOM     18  O   UNL A   1      33.821  26.150  21.655  1.00  0.00    -0.258 OA
ATOM     19  O   UNL A   1      31.637  26.369  21.841  1.00  0.00    -0.258 OA
ENDBRANCH  15  17
BRANCH  16  20
ATOM     20  O   UNL A   1      33.170  23.844  24.148  1.00  0.00    -0.449 OA
BRANCH  20  21
ATOM     21  C   UNL A   1      34.372  23.208  24.320  1.00  0.00     0.146 A 
ATOM     22  C   UNL A   1      35.376  23.544  23.406  1.00  0.00     0.049 A 
ATOM     23  C   UNL A   1      34.615  22.234  25.294  1.00  0.00     0.083 A 
ATOM     24  C   UNL A   1      36.649  22.986  23.525  1.00  0.00     0.004 A 
ATOM     25  C   UNL A   1      35.897  21.692  25.424  1.00  0.00     0.024 A 
ATOM     26  Cl  UNL A   1      33.381  21.678  26.363  1.00  0.00    -0.080 Cl
ATOM     27  C   UNL A   1      36.915  22.078  24.549  1.00  0.00     0.002 A 
ENDBRANCH  20  21
ENDBRANCH  16  20
ENDBRANCH   8  11
ENDBRANCH   5   7
ENDBRANCH   4   5
ENDBRANCH   3   4
ENDBRANCH   2   3
ENDBRANCH   1   2
BRANCH   1  28
ATOM     28  C   UNL A   1      34.630  32.925  31.268  1.00  0.00     0.202 C 
BRANCH  28  29
ATOM     29  C   UNL A   1      35.884  32.277  30.662  1.00  0.00     0.261 C 
BRANCH  29  30
ATOM     30  O   UNL A   1      36.658  31.505  31.591  1.00  0.00    -0.460 OA
BRANCH  30  31
ATOM     31  C   UNL A   1      36.996  30.273  31.131  1.00  0.00     0.338 C 
ATOM     32  O   UNL A   1      36.247  29.320  30.963  1.00  0.00    -0.246 OA
BRANCH  31  33
ATOM     33  C   UNL A   1      38.395  30.259  30.673  1.00  0.00     0.060 A 
ATOM     34  C   UNL A   1      38.623  30.353  29.293  1.00  0.00     0.016 A 
ATOM     35  C   UNL A   1      39.455  30.056  31.558  1.00  0.00     0.016 A 
ATOM     36  C   UNL A   1      39.911  30.202  28.788  1.00  0.00     0.010 A 
ATOM     37  C   UNL A   1      40.747  29.890  31.046  1.00  0.00     0.010 A 
ATOM     38  C   UNL A   1      40.974  29.928  29.658  1.00  0.00    -0.014 A 
BRANCH  38  39
ATOM     39  C   UNL A   1      42.286  29.533  29.094  1.00  0.00     0.031 A 
ATOM     40  C   UNL A   1      42.481  28.117  28.624  1.00  0.00     0.074 A 
ATOM     41  C   UNL A   1      43.278  30.434  28.972  1.00  0.00     0.049 A 
ATOM     42  N   UNL A   1      43.545  27.553  28.115  1.00  0.00    -0.248 NA
ATOM     43  C   UNL A   1      41.321  27.219  28.744  1.00  0.00     0.031 C 
ATOM     44  C   UNL A   1      43.191  31.842  29.355  1.00  0.00     0.029 A 
ATOM     45  N   UNL A   1      44.555  30.293  28.490  1.00  0.00    -0.354 N 
ATOM     46  C   UNL A   1      43.188  26.234  27.861  1.00  0.00     0.074 A 
ATOM     47  C   UNL A   1      41.817  26.074  28.293  1.00  0.00     0.031 C 
ATOM     48  C   UNL A   1      44.372  32.435  29.102  1.00  0.00     0.029 A 
ATOM     49  C   UNL A   1      45.302  31.444  28.565  1.00  0.00     0.049 A 
ATOM     50  H   UNL A   1      44.902  29.447  28.125  1.00  0.00     0.167 HD
ATOM     51  C   UNL A   1      43.935  25.247  27.312  1.00  0.00     0.037 A 
ATOM     52  C   UNL A   1      46.594  31.665  28.252  1.00  0.00     0.037 A 
ATOM     53  C   UNL A   1      45.297  25.414  26.875  1.00  0.00     0.049 A 
ATOM     54  C   UNL A   1      47.422  30.535  27.696  1.00  0.00     0.074 A 
ATOM     55  C   UNL A   1      46.128  24.484  26.276  1.00  0.00     0.029 A 
ATOM     56  N   UNL A   1      46.029  26.586  26.996  1.00  0.00    -0.354 N 
ATOM     57  N   UNL A   1      47.062  29.300  27.435  1.00  0.00    -0.248 NA
ATOM     58  C   UNL A   1      48.829  30.829  27.393  1.00  0.00     0.031 C 
ATOM     59  C   UNL A   1      47.378  25.079  26.076  1.00  0.00     0.029 A 
ATOM     60  C   UNL A   1      47.311  26.395  26.507  1.00  0.00     0.049 A 
ATOM     61  H   UNL A   1      45.688  27.428  27.373  1.00  0.00     0.167 HD
ATOM     62  C   UNL A   1      48.191  28.679  26.909  1.00  0.00     0.074 A 
ATOM     63  C   UNL A   1      49.242  29.675  26.884  1.00  0.00     0.031 C 
ATOM     64  C   UNL A   1      48.343  27.401  26.482  1.00  0.00     0.037 A 
BRANCH  51  65
ATOM     65  C   UNL A   1      43.306  23.890  27.176  1.00  0.00     0.058 A 
ATOM     66  C   UNL A   1      42.747  23.452  25.966  1.00  0.00     0.135 A 
ATOM     67  C   UNL A   1      43.296  23.001  28.263  1.00  0.00     0.135 A 
ATOM     68  F   UNL A   1      42.713  24.269  24.902  1.00  0.00    -0.206 F 
ATOM     69  C   UNL A   1      42.180  22.186  25.843  1.00  0.00     0.059 A 
ATOM     70  C   UNL A   1      42.756  21.723  28.157  1.00  0.00     0.059 A 
ATOM     71  F   UNL A   1      43.815  23.373  29.444  1.00  0.00    -0.206 F 
ATOM     72  C   UNL A   1      42.189  21.330  26.946  1.00  0.00     0.060 A 
BRANCH  72  73
ATOM     73  S   UNL A   1      41.458  19.689  26.771  1.00  0.00     0.124 S 
ATOM     74  O   UNL A   1      42.638  18.871  26.512  1.00  0.00    -0.237 OA
ATOM     75  O   UNL A   1      40.820  19.488  28.068  1.00  0.00    -0.237 OA
ATOM     76  O   UNL A   1      40.542  19.843  25.644  1.00  0.00    -0.744 OA
ENDBRANCH  72  73
ENDBRANCH  51  65
BRANCH  52  77
ATOM     77  C   UNL A   1      47.192  33.008  28.467  1.00  0.00     0.058 A 
ATOM     78  C   UNL A   1      47.815  33.338  29.680  1.00  0.00     0.135 A 
ATOM     79  C   UNL A   1      47.147  33.991  27.466  1.00  0.00     0.135 A 
ATOM     80  F   UNL A   1      47.874  32.435  30.671  1.00  0.00    -0.206 F 
ATOM     81  C   UNL A   1      48.357  34.600  29.900  1.00  0.00     0.059 A 
ATOM     82  C   UNL A   1      47.702  35.251  27.654  1.00  0.00     0.059 A 
ATOM     83  F   UNL A   1      46.572  33.719  26.284  1.00  0.00    -0.206 F 
ATOM     84  C   UNL A   1      48.296  35.550  28.879  1.00  0.00     0.060 A 
BRANCH  84  85
ATOM     85  S   UNL A   1      49.044  37.172  29.154  1.00  0.00     0.124 S 
ATOM     86  O   UNL A   1      49.020  37.262  30.609  1.00  0.00    -0.237 OA
ATOM     87  O   UNL A   1      50.360  37.010  28.544  1.00  0.00    -0.237 OA
ATOM     88  O   UNL A   1      48.142  38.078  28.449  1.00  0.00    -0.744 OA
ENDBRANCH  84  85
ENDBRANCH  52  77
BRANCH  64  89
ATOM     89  C   UNL A   1      49.682  27.012  25.919  1.00  0.00     0.058 A 
ATOM     90  C   UNL A   1      49.946  27.067  24.542  1.00  0.00     0.135 A 
ATOM     91  C   UNL A   1      50.728  26.633  26.775  1.00  0.00     0.135 A 
ATOM     92  F   UNL A   1      48.977  27.418  23.682  1.00  0.00    -0.206 F 
ATOM     93  C   UNL A   1      51.197  26.737  24.030  1.00  0.00     0.059 A 
ATOM     94  C   UNL A   1      51.994  26.322  26.287  1.00  0.00     0.059 A 
ATOM     95  F   UNL A   1      50.530  26.575  28.101  1.00  0.00    -0.206 F 
ATOM     96  C   UNL A   1      52.215  26.367  24.911  1.00  0.00     0.060 A 
BRANCH  96  97
ATOM     97  S   UNL A   1      53.844  25.975  24.238  1.00  0.00     0.124 S 
ATOM     98  O   UNL A   1      54.020  24.596  24.681  1.00  0.00    -0.237 OA
ATOM     99  O   UNL A   1      53.645  26.160  22.804  1.00  0.00    -0.237 OA
ATOM    100  O   UNL A   1      54.719  26.956  24.875  1.00  0.00    -0.744 OA
ENDBRANCH  96  97
ENDBRANCH  64  89
ENDBRANCH  38  39
ENDBRANCH  31  33
ENDBRANCH  30  31
ENDBRANCH  29  30
ENDBRANCH  28  29
ENDBRANCH   1  28
TORSDOF 22
ENDMDL
