MODEL 1
REMARK VINA RESULT:      -9.4      0.000      0.000
REMARK SMILES C[C@H]1CCC[C@H](C(C)(C)C(=O)OCCOCCOC(=O)c2ccc(-c3c4nc(c(-c5c(F)cc(S(=O)(=O)[O-])cc5F)c5ccc([nH]5)c(-c5c(F)cc(S(=O)(=O)[O-])cc5F)c5nc(c(-c6c(F)cc(S(=O)(=O)[O-])cc6F)c6ccc3[nH]6)C=C5)C=C4)cc2)C1
REMARK SMILES IDX 16 1 15 2 14 3 13 4 12 5 10 6 11 7 7 8 8 9 9 10 6 11 1 12
REMARK SMILES IDX 2 13 3 14 87 15 4 16 5 17 17 18 18 19 19 20 20 21 21 22
REMARK SMILES IDX 22 23 86 24 23 25 85 26 24 27 25 28 26 29 79 30 27 31 84 32
REMARK SMILES IDX 78 33 80 34 28 35 83 36 77 37 76 38 29 40 63 41 42 42 62 43
REMARK SMILES IDX 43 44 46 45 61 46 81 47 44 48 45 49 60 51 82 52 47 53 30 54
REMARK SMILES IDX 31 55 40 56 32 57 33 58 39 59 41 60 34 61 35 62 36 63 37 64
REMARK SMILES IDX 38 65 64 66 65 67 74 68 66 69 67 70 73 71 75 72 68 73 69 74
REMARK SMILES IDX 70 75 71 76 72 77 48 78 49 79 58 80 50 81 51 82 57 83 59 84
REMARK SMILES IDX 52 85 53 86 54 87 55 88 56 89
REMARK H PARENT 80 39 46 50
REMARK Flexibility Score: inf
ROOT
ATOM      1  C   UNL A   1      41.264  20.287  26.617  1.00  0.00     0.202 C 
ENDROOT
BRANCH   1   2
ATOM      2  O   UNL A   1      41.917  19.696  25.500  1.00  0.00    -0.374 OA
BRANCH   2   3
ATOM      3  C   UNL A   1      42.909  18.703  25.786  1.00  0.00     0.202 C 
BRANCH   3   4
ATOM      4  C   UNL A   1      44.248  18.807  25.052  1.00  0.00     0.261 C 
BRANCH   4   5
ATOM      5  O   UNL A   1      44.385  20.093  24.411  1.00  0.00    -0.463 OA
BRANCH   5   6
ATOM      6  C   UNL A   1      45.407  20.874  24.856  1.00  0.00     0.311 C 
ATOM      7  O   UNL A   1      46.406  20.416  25.388  1.00  0.00    -0.252 OA
BRANCH   6   8
ATOM      8  C   UNL A   1      45.113  22.380  24.730  1.00  0.00     0.065 C 
ATOM      9  C   UNL A   1      44.558  22.516  23.292  1.00  0.00     0.024 C 
ATOM     10  C   UNL A   1      46.406  23.231  24.786  1.00  0.00     0.024 C 
BRANCH   8  11
ATOM     11  C   UNL A   1      44.046  22.955  25.764  1.00  0.00     0.006 C 
ATOM     12  C   UNL A   1      43.501  26.756  25.086  1.00  0.00     0.007 C 
ATOM     13  C   UNL A   1      44.201  25.485  25.571  1.00  0.00    -0.014 C 
ATOM     14  C   UNL A   1      44.700  25.653  27.002  1.00  0.00     0.003 C 
ATOM     15  C   UNL A   1      43.317  24.261  25.392  1.00  0.00     0.008 C 
ATOM     16  C   UNL A   1      45.126  24.367  27.708  1.00  0.00     0.001 C 
ATOM     17  C   UNL A   1      44.472  23.057  27.244  1.00  0.00     0.005 C 
ENDBRANCH   8  11
ENDBRANCH   6   8
ENDBRANCH   5   6
ENDBRANCH   4   5
ENDBRANCH   3   4
ENDBRANCH   2   3
ENDBRANCH   1   2
BRANCH   1  18
ATOM     18  C   UNL A   1      40.031  21.161  26.379  1.00  0.00     0.261 C 
BRANCH  18  19
ATOM     19  O   UNL A   1      40.345  22.545  26.484  1.00  0.00    -0.460 OA
BRANCH  19  20
ATOM     20  C   UNL A   1      39.267  23.338  26.279  1.00  0.00     0.338 C 
ATOM     21  O   UNL A   1      38.219  23.040  25.730  1.00  0.00    -0.246 OA
BRANCH  20  22
ATOM     22  C   UNL A   1      39.457  24.574  27.047  1.00  0.00     0.060 A 
ATOM     23  C   UNL A   1      40.191  25.592  26.424  1.00  0.00     0.016 A 
ATOM     24  C   UNL A   1      38.895  24.753  28.314  1.00  0.00     0.016 A 
ATOM     25  C   UNL A   1      40.424  26.779  27.099  1.00  0.00     0.010 A 
ATOM     26  C   UNL A   1      39.147  25.938  28.999  1.00  0.00     0.010 A 
ATOM     27  C   UNL A   1      39.952  26.927  28.408  1.00  0.00    -0.014 A 
BRANCH  27  28
ATOM     28  C   UNL A   1      40.522  28.007  29.233  1.00  0.00     0.031 A 
ATOM     29  C   UNL A   1      39.665  29.216  29.475  1.00  0.00     0.074 A 
ATOM     30  C   UNL A   1      41.731  27.870  29.799  1.00  0.00     0.049 A 
ATOM     31  N   UNL A   1      39.928  30.294  30.161  1.00  0.00    -0.248 NA
ATOM     32  C   UNL A   1      38.325  29.207  28.858  1.00  0.00     0.031 C 
ATOM     33  C   UNL A   1      42.602  26.703  29.657  1.00  0.00     0.029 A 
ATOM     34  N   UNL A   1      42.432  28.720  30.608  1.00  0.00    -0.354 N 
ATOM     35  C   UNL A   1      38.795  31.090  30.055  1.00  0.00     0.074 A 
ATOM     36  C   UNL A   1      37.853  30.392  29.212  1.00  0.00     0.031 C 
ATOM     37  C   UNL A   1      43.732  26.919  30.353  1.00  0.00     0.029 A 
ATOM     38  C   UNL A   1      43.672  28.246  30.959  1.00  0.00     0.049 A 
ATOM     39  H   UNL A   1      42.081  29.590  30.911  1.00  0.00     0.167 HD
ATOM     40  C   UNL A   1      38.563  32.295  30.624  1.00  0.00     0.037 A 
ATOM     41  C   UNL A   1      44.649  28.838  31.672  1.00  0.00     0.037 A 
ATOM     42  C   UNL A   1      39.520  32.970  31.457  1.00  0.00     0.049 A 
ATOM     43  C   UNL A   1      44.394  30.212  32.237  1.00  0.00     0.074 A 
ATOM     44  C   UNL A   1      39.401  34.192  32.091  1.00  0.00     0.029 A 
ATOM     45  N   UNL A   1      40.783  32.478  31.763  1.00  0.00    -0.354 N 
ATOM     46  N   UNL A   1      43.314  30.955  32.143  1.00  0.00    -0.248 NA
ATOM     47  C   UNL A   1      45.482  30.827  33.006  1.00  0.00     0.031 C 
ATOM     48  C   UNL A   1      40.613  34.464  32.735  1.00  0.00     0.029 A 
ATOM     49  C   UNL A   1      41.464  33.384  32.556  1.00  0.00     0.049 A 
ATOM     50  H   UNL A   1      41.139  31.611  31.461  1.00  0.00     0.167 HD
ATOM     51  C   UNL A   1      43.583  32.112  32.866  1.00  0.00     0.074 A 
ATOM     52  C   UNL A   1      44.923  31.964  33.399  1.00  0.00     0.031 C 
ATOM     53  C   UNL A   1      42.798  33.200  33.074  1.00  0.00     0.037 A 
BRANCH  40  54
ATOM     54  C   UNL A   1      37.249  32.965  30.329  1.00  0.00     0.058 A 
ATOM     55  C   UNL A   1      36.146  32.852  31.191  1.00  0.00     0.135 A 
ATOM     56  C   UNL A   1      37.095  33.742  29.170  1.00  0.00     0.135 A 
ATOM     57  F   UNL A   1      36.227  32.099  32.300  1.00  0.00    -0.206 F 
ATOM     58  C   UNL A   1      34.932  33.469  30.904  1.00  0.00     0.059 A 
ATOM     59  C   UNL A   1      35.899  34.392  28.878  1.00  0.00     0.059 A 
ATOM     60  F   UNL A   1      38.112  33.873  28.304  1.00  0.00    -0.206 F 
ATOM     61  C   UNL A   1      34.819  34.239  29.745  1.00  0.00     0.060 A 
BRANCH  61  62
ATOM     62  S   UNL A   1      33.243  35.045  29.394  1.00  0.00     0.124 S 
ATOM     63  O   UNL A   1      32.664  34.138  28.407  1.00  0.00    -0.237 OA
ATOM     64  O   UNL A   1      32.598  35.051  30.704  1.00  0.00    -0.237 OA
ATOM     65  O   UNL A   1      33.635  36.356  28.887  1.00  0.00    -0.744 OA
ENDBRANCH  61  62
ENDBRANCH  40  54
BRANCH  41  66
ATOM     66  C   UNL A   1      45.948  28.143  31.875  1.00  0.00     0.058 A 
ATOM     67  C   UNL A   1      47.001  28.283  30.960  1.00  0.00     0.135 A 
ATOM     68  C   UNL A   1      46.166  27.334  33.002  1.00  0.00     0.135 A 
ATOM     69  F   UNL A   1      46.842  29.040  29.865  1.00  0.00    -0.206 F 
ATOM     70  C   UNL A   1      48.218  27.634  31.146  1.00  0.00     0.059 A 
ATOM     71  C   UNL A   1      47.382  26.698  33.224  1.00  0.00     0.059 A 
ATOM     72  F   UNL A   1      45.195  27.178  33.916  1.00  0.00    -0.206 F 
ATOM     73  C   UNL A   1      48.401  26.846  32.284  1.00  0.00     0.060 A 
BRANCH  73  74
ATOM     74  S   UNL A   1      50.000  26.047  32.538  1.00  0.00     0.124 S 
ATOM     75  O   UNL A   1      50.509  26.771  33.696  1.00  0.00    -0.237 OA
ATOM     76  O   UNL A   1      49.615  24.658  32.769  1.00  0.00    -0.237 OA
ATOM     77  O   UNL A   1      50.701  26.294  31.281  1.00  0.00    -0.744 OA
ENDBRANCH  73  74
ENDBRANCH  41  66
BRANCH  53  78
ATOM     78  C   UNL A   1      43.353  34.294  33.941  1.00  0.00     0.058 A 
ATOM     79  C   UNL A   1      44.020  35.403  33.399  1.00  0.00     0.135 A 
ATOM     80  C   UNL A   1      43.159  34.259  35.333  1.00  0.00     0.135 A 
ATOM     81  F   UNL A   1      44.234  35.481  32.075  1.00  0.00    -0.206 F 
ATOM     82  C   UNL A   1      44.499  36.427  34.207  1.00  0.00     0.059 A 
ATOM     83  C   UNL A   1      43.601  35.288  36.156  1.00  0.00     0.059 A 
ATOM     84  F   UNL A   1      42.515  33.227  35.901  1.00  0.00    -0.206 F 
ATOM     85  C   UNL A   1      44.281  36.362  35.585  1.00  0.00     0.060 A 
BRANCH  85  86
ATOM     86  S   UNL A   1      44.879  37.714  36.618  1.00  0.00     0.124 S 
ATOM     87  O   UNL A   1      46.325  37.575  36.477  1.00  0.00    -0.237 OA
ATOM     88  O   UNL A   1      44.291  38.884  35.972  1.00  0.00    -0.237 OA
ATOM     89  O   UNL A   1      44.344  37.399  37.938  1.00  0.00    -0.744 OA
ENDBRANCH  85  86
ENDBRANCH  53  78
ENDBRANCH  27  28
ENDBRANCH  20  22
ENDBRANCH  19  20
ENDBRANCH  18  19
ENDBRANCH   1  18
TORSDOF 18
ENDMDL
MODEL 2
REMARK VINA RESULT:      -9.3      3.011      9.032
REMARK SMILES C[C@H]1CCC[C@H](C(C)(C)C(=O)OCCOCCOC(=O)c2ccc(-c3c4nc(c(-c5c(F)cc(S(=O)(=O)[O-])cc5F)c5ccc([nH]5)c(-c5c(F)cc(S(=O)(=O)[O-])cc5F)c5nc(c(-c6c(F)cc(S(=O)(=O)[O-])cc6F)c6ccc3[nH]6)C=C5)C=C4)cc2)C1
REMARK SMILES IDX 16 1 15 2 14 3 13 4 12 5 10 6 11 7 7 8 8 9 9 10 6 11 1 12
REMARK SMILES IDX 2 13 3 14 87 15 4 16 5 17 17 18 18 19 19 20 20 21 21 22
REMARK SMILES IDX 22 23 86 24 23 25 85 26 24 27 25 28 26 29 79 30 27 31 84 32
REMARK SMILES IDX 78 33 80 34 28 35 83 36 77 37 76 38 29 40 63 41 42 42 62 43
REMARK SMILES IDX 43 44 46 45 61 46 81 47 44 48 45 49 60 51 82 52 47 53 30 54
REMARK SMILES IDX 31 55 40 56 32 57 33 58 39 59 41 60 34 61 35 62 36 63 37 64
REMARK SMILES IDX 38 65 64 66 65 67 74 68 66 69 67 70 73 71 75 72 68 73 69 74
REMARK SMILES IDX 70 75 71 76 72 77 48 78 49 79 58 80 50 81 51 82 57 83 59 84
REMARK SMILES IDX 52 85 53 86 54 87 55 88 56 89
REMARK H PARENT 80 39 46 50
REMARK Flexibility Score: inf
ROOT
ATOM      1  C   UNL A   1      39.000  21.988  26.062  1.00  0.00     0.202 C 
ENDROOT
BRANCH   1   2
ATOM      2  O   UNL A   1      40.362  21.747  26.396  1.00  0.00    -0.374 OA
BRANCH   2   3
ATOM      3  C   UNL A   1      40.741  20.382  26.603  1.00  0.00     0.202 C 
BRANCH   3   4
ATOM      4  C   UNL A   1      42.174  19.982  26.247  1.00  0.00     0.261 C 
BRANCH   4   5
ATOM      5  O   UNL A   1      42.738  20.894  25.281  1.00  0.00    -0.463 OA
BRANCH   5   6
ATOM      6  C   UNL A   1      44.092  21.025  25.304  1.00  0.00     0.311 C 
ATOM      7  O   UNL A   1      44.847  20.069  25.397  1.00  0.00    -0.252 OA
BRANCH   6   8
ATOM      8  C   UNL A   1      44.555  22.493  25.327  1.00  0.00     0.065 C 
ATOM      9  C   UNL A   1      44.924  22.773  23.851  1.00  0.00     0.024 C 
ATOM     10  C   UNL A   1      45.854  22.680  26.150  1.00  0.00     0.024 C 
BRANCH   8  11
ATOM     11  C   UNL A   1      43.460  23.545  25.807  1.00  0.00     0.006 C 
ATOM     12  C   UNL A   1      44.807  27.163  25.254  1.00  0.00     0.007 C 
ATOM     13  C   UNL A   1      44.659  25.785  25.902  1.00  0.00    -0.014 C 
ATOM     14  C   UNL A   1      44.489  25.912  27.413  1.00  0.00     0.003 C 
ATOM     15  C   UNL A   1      43.549  24.979  25.247  1.00  0.00     0.008 C 
ATOM     16  C   UNL A   1      44.016  24.651  28.132  1.00  0.00     0.001 C 
ATOM     17  C   UNL A   1      43.183  23.646  27.322  1.00  0.00     0.005 C 
ENDBRANCH   8  11
ENDBRANCH   6   8
ENDBRANCH   5   6
ENDBRANCH   4   5
ENDBRANCH   3   4
ENDBRANCH   2   3
ENDBRANCH   1   2
BRANCH   1  18
ATOM     18  C   UNL A   1      38.511  23.432  25.939  1.00  0.00     0.261 C 
BRANCH  18  19
ATOM     19  O   UNL A   1      38.916  24.217  27.056  1.00  0.00    -0.460 OA
BRANCH  19  20
ATOM     20  C   UNL A   1      39.838  25.151  26.727  1.00  0.00     0.338 C 
ATOM     21  O   UNL A   1      40.283  25.398  25.617  1.00  0.00    -0.246 OA
BRANCH  20  22
ATOM     22  C   UNL A   1      40.055  26.010  27.897  1.00  0.00     0.060 A 
ATOM     23  C   UNL A   1      39.202  25.809  28.989  1.00  0.00     0.016 A 
ATOM     24  C   UNL A   1      41.091  26.948  27.944  1.00  0.00     0.016 A 
ATOM     25  C   UNL A   1      39.339  26.598  30.119  1.00  0.00     0.010 A 
ATOM     26  C   UNL A   1      41.215  27.754  29.072  1.00  0.00     0.010 A 
ATOM     27  C   UNL A   1      40.307  27.609  30.135  1.00  0.00    -0.014 A 
BRANCH  27  28
ATOM     28  C   UNL A   1      40.191  28.665  31.157  1.00  0.00     0.031 A 
ATOM     29  C   UNL A   1      41.113  28.586  32.340  1.00  0.00     0.074 A 
ATOM     30  C   UNL A   1      39.340  29.689  30.988  1.00  0.00     0.049 A 
ATOM     31  N   UNL A   1      41.212  29.384  33.367  1.00  0.00    -0.248 NA
ATOM     32  C   UNL A   1      42.054  27.450  32.366  1.00  0.00     0.031 C 
ATOM     33  C   UNL A   1      38.449  29.866  29.841  1.00  0.00     0.029 A 
ATOM     34  N   UNL A   1      39.089  30.773  31.783  1.00  0.00    -0.354 N 
ATOM     35  C   UNL A   1      42.218  28.847  34.161  1.00  0.00     0.074 A 
ATOM     36  C   UNL A   1      42.676  27.638  33.518  1.00  0.00     0.031 C 
ATOM     37  C   UNL A   1      37.739  30.994  30.015  1.00  0.00     0.029 A 
ATOM     38  C   UNL A   1      38.104  31.595  31.295  1.00  0.00     0.049 A 
ATOM     39  H   UNL A   1      39.569  30.947  32.626  1.00  0.00     0.167 HD
ATOM     40  C   UNL A   1      42.718  29.332  35.319  1.00  0.00     0.037 A 
ATOM     41  C   UNL A   1      37.554  32.696  31.840  1.00  0.00     0.037 A 
ATOM     42  C   UNL A   1      42.240  30.539  35.940  1.00  0.00     0.049 A 
ATOM     43  C   UNL A   1      38.079  33.179  33.168  1.00  0.00     0.074 A 
ATOM     44  C   UNL A   1      42.667  31.132  37.112  1.00  0.00     0.029 A 
ATOM     45  N   UNL A   1      41.216  31.330  35.435  1.00  0.00    -0.354 N 
ATOM     46  N   UNL A   1      39.041  32.673  33.908  1.00  0.00    -0.248 NA
ATOM     47  C   UNL A   1      37.454  34.380  33.733  1.00  0.00     0.031 C 
ATOM     48  C   UNL A   1      41.864  32.253  37.345  1.00  0.00     0.029 A 
ATOM     49  C   UNL A   1      40.978  32.393  36.287  1.00  0.00     0.049 A 
ATOM     50  H   UNL A   1      40.731  31.158  34.596  1.00  0.00     0.167 HD
ATOM     51  C   UNL A   1      39.154  33.511  35.012  1.00  0.00     0.074 A 
ATOM     52  C   UNL A   1      38.170  34.562  34.835  1.00  0.00     0.031 C 
ATOM     53  C   UNL A   1      39.992  33.426  36.076  1.00  0.00     0.037 A 
BRANCH  40  54
ATOM     54  C   UNL A   1      43.801  28.540  35.999  1.00  0.00     0.058 A 
ATOM     55  C   UNL A   1      45.160  28.862  35.857  1.00  0.00     0.135 A 
ATOM     56  C   UNL A   1      43.470  27.447  36.817  1.00  0.00     0.135 A 
ATOM     57  F   UNL A   1      45.536  29.879  35.065  1.00  0.00    -0.206 F 
ATOM     58  C   UNL A   1      46.154  28.116  36.483  1.00  0.00     0.059 A 
ATOM     59  C   UNL A   1      44.446  26.706  37.476  1.00  0.00     0.059 A 
ATOM     60  F   UNL A   1      42.188  27.087  36.978  1.00  0.00    -0.206 F 
ATOM     61  C   UNL A   1      45.787  27.040  37.294  1.00  0.00     0.060 A 
BRANCH  61  62
ATOM     62  S   UNL A   1      47.087  26.092  38.111  1.00  0.00     0.124 S 
ATOM     63  O   UNL A   1      47.696  27.107  38.966  1.00  0.00    -0.237 OA
ATOM     64  O   UNL A   1      46.327  25.055  38.803  1.00  0.00    -0.237 OA
ATOM     65  O   UNL A   1      47.915  25.624  37.004  1.00  0.00    -0.744 OA
ENDBRANCH  61  62
ENDBRANCH  40  54
BRANCH  41  66
ATOM     66  C   UNL A   1      36.445  33.399  31.142  1.00  0.00     0.058 A 
ATOM     67  C   UNL A   1      35.141  33.396  31.657  1.00  0.00     0.135 A 
ATOM     68  C   UNL A   1      36.673  34.101  29.948  1.00  0.00     0.135 A 
ATOM     69  F   UNL A   1      34.870  32.735  32.792  1.00  0.00    -0.206 F 
ATOM     70  C   UNL A   1      34.099  34.051  31.007  1.00  0.00     0.059 A 
ATOM     71  C   UNL A   1      35.655  34.787  29.294  1.00  0.00     0.059 A 
ATOM     72  F   UNL A   1      37.906  34.146  29.419  1.00  0.00    -0.206 F 
ATOM     73  C   UNL A   1      34.367  34.747  29.827  1.00  0.00     0.060 A 
BRANCH  73  74
ATOM     74  S   UNL A   1      33.017  35.633  29.017  1.00  0.00     0.124 S 
ATOM     75  O   UNL A   1      33.729  36.737  28.385  1.00  0.00    -0.237 OA
ATOM     76  O   UNL A   1      32.482  34.617  28.117  1.00  0.00    -0.237 OA
ATOM     77  O   UNL A   1      32.143  35.999  30.128  1.00  0.00    -0.744 OA
ENDBRANCH  73  74
ENDBRANCH  41  66
BRANCH  53  78
ATOM     78  C   UNL A   1      39.907  34.514  37.108  1.00  0.00     0.058 A 
ATOM     79  C   UNL A   1      40.649  35.700  36.997  1.00  0.00     0.135 A 
ATOM     80  C   UNL A   1      39.023  34.390  38.193  1.00  0.00     0.135 A 
ATOM     81  F   UNL A   1      41.511  35.865  35.980  1.00  0.00    -0.206 F 
ATOM     82  C   UNL A   1      40.537  36.716  37.939  1.00  0.00     0.059 A 
ATOM     83  C   UNL A   1      38.871  35.407  39.128  1.00  0.00     0.059 A 
ATOM     84  F   UNL A   1      38.280  33.282  38.338  1.00  0.00    -0.206 F 
ATOM     85  C   UNL A   1      39.642  36.561  39.000  1.00  0.00     0.060 A 
BRANCH  85  86
ATOM     86  S   UNL A   1      39.482  37.901  40.197  1.00  0.00     0.124 S 
ATOM     87  O   UNL A   1      38.313  38.611  39.689  1.00  0.00    -0.237 OA
ATOM     88  O   UNL A   1      39.289  37.179  41.451  1.00  0.00    -0.237 OA
ATOM     89  O   UNL A   1      40.749  38.615  40.081  1.00  0.00    -0.744 OA
ENDBRANCH  85  86
ENDBRANCH  53  78
ENDBRANCH  27  28
ENDBRANCH  20  22
ENDBRANCH  19  20
ENDBRANCH  18  19
ENDBRANCH   1  18
TORSDOF 18
ENDMDL
MODEL 3
REMARK VINA RESULT:      -9.2      3.873     10.612
REMARK SMILES C[C@H]1CCC[C@H](C(C)(C)C(=O)OCCOCCOC(=O)c2ccc(-c3c4nc(c(-c5c(F)cc(S(=O)(=O)[O-])cc5F)c5ccc([nH]5)c(-c5c(F)cc(S(=O)(=O)[O-])cc5F)c5nc(c(-c6c(F)cc(S(=O)(=O)[O-])cc6F)c6ccc3[nH]6)C=C5)C=C4)cc2)C1
REMARK SMILES IDX 16 1 15 2 14 3 13 4 12 5 10 6 11 7 7 8 8 9 9 10 6 11 1 12
REMARK SMILES IDX 2 13 3 14 87 15 4 16 5 17 17 18 18 19 19 20 20 21 21 22
REMARK SMILES IDX 22 23 86 24 23 25 85 26 24 27 25 28 26 29 79 30 27 31 84 32
REMARK SMILES IDX 78 33 80 34 28 35 83 36 77 37 76 38 29 40 63 41 42 42 62 43
REMARK SMILES IDX 43 44 46 45 61 46 81 47 44 48 45 49 60 51 82 52 47 53 30 54
REMARK SMILES IDX 31 55 40 56 32 57 33 58 39 59 41 60 34 61 35 62 36 63 37 64
REMARK SMILES IDX 38 65 64 66 65 67 74 68 66 69 67 70 73 71 75 72 68 73 69 74
REMARK SMILES IDX 70 75 71 76 72 77 48 78 49 79 58 80 50 81 51 82 57 83 59 84
REMARK SMILES IDX 52 85 53 86 54 87 55 88 56 89
REMARK H PARENT 80 39 46 50
REMARK Flexibility Score: inf
ROOT
ATOM      1  C   UNL A   1      32.753  29.686  25.623  1.00  0.00     0.202 C 
ENDROOT
BRANCH   1   2
ATOM      2  O   UNL A   1      31.399  29.346  25.352  1.00  0.00    -0.374 OA
BRANCH   2   3
ATOM      3  C   UNL A   1      31.148  28.627  24.139  1.00  0.00     0.202 C 
BRANCH   3   4
ATOM      4  C   UNL A   1      30.278  27.371  24.227  1.00  0.00     0.261 C 
BRANCH   4   5
ATOM      5  O   UNL A   1      31.077  26.179  24.067  1.00  0.00    -0.463 OA
BRANCH   5   6
ATOM      6  C   UNL A   1      31.775  25.779  25.165  1.00  0.00     0.311 C 
ATOM      7  O   UNL A   1      31.293  25.768  26.287  1.00  0.00    -0.252 OA
BRANCH   6   8
ATOM      8  C   UNL A   1      33.251  25.466  24.859  1.00  0.00     0.065 C 
ATOM      9  C   UNL A   1      34.020  26.388  25.835  1.00  0.00     0.024 C 
ATOM     10  C   UNL A   1      33.654  25.904  23.429  1.00  0.00     0.024 C 
BRANCH   8  11
ATOM     11  C   UNL A   1      33.691  23.955  25.103  1.00  0.00     0.006 C 
ATOM     12  C   UNL A   1      37.454  23.849  26.122  1.00  0.00     0.007 C 
ATOM     13  C   UNL A   1      36.231  23.992  25.214  1.00  0.00    -0.014 C 
ATOM     14  C   UNL A   1      36.387  23.144  23.955  1.00  0.00     0.003 C 
ATOM     15  C   UNL A   1      34.943  23.702  25.967  1.00  0.00     0.008 C 
ATOM     16  C   UNL A   1      35.117  22.948  23.130  1.00  0.00     0.001 C 
ATOM     17  C   UNL A   1      33.774  23.029  23.870  1.00  0.00     0.005 C 
ENDBRANCH   8  11
ENDBRANCH   6   8
ENDBRANCH   5   6
ENDBRANCH   4   5
ENDBRANCH   3   4
ENDBRANCH   2   3
ENDBRANCH   1   2
BRANCH   1  18
ATOM     18  C   UNL A   1      33.101  30.336  26.964  1.00  0.00     0.261 C 
BRANCH  18  19
ATOM     19  O   UNL A   1      34.228  29.712  27.569  1.00  0.00    -0.460 OA
BRANCH  19  20
ATOM     20  C   UNL A   1      34.997  30.587  28.258  1.00  0.00     0.338 C 
ATOM     21  O   UNL A   1      34.630  31.576  28.872  1.00  0.00    -0.246 OA
BRANCH  20  22
ATOM     22  C   UNL A   1      36.349  30.024  28.363  1.00  0.00     0.060 A 
ATOM     23  C   UNL A   1      36.741  29.567  29.626  1.00  0.00     0.016 A 
ATOM     24  C   UNL A   1      37.187  29.901  27.251  1.00  0.00     0.016 A 
ATOM     25  C   UNL A   1      38.010  29.041  29.801  1.00  0.00     0.010 A 
ATOM     26  C   UNL A   1      38.469  29.391  27.431  1.00  0.00     0.010 A 
ATOM     27  C   UNL A   1      38.893  29.009  28.715  1.00  0.00    -0.014 A 
BRANCH  27  28
ATOM     28  C   UNL A   1      40.327  28.814  28.993  1.00  0.00     0.031 A 
ATOM     29  C   UNL A   1      40.924  27.481  28.641  1.00  0.00     0.074 A 
ATOM     30  C   UNL A   1      41.074  29.820  29.474  1.00  0.00     0.049 A 
ATOM     31  N   UNL A   1      42.150  27.059  28.781  1.00  0.00    -0.248 NA
ATOM     32  C   UNL A   1      40.009  26.487  28.047  1.00  0.00     0.031 C 
ATOM     33  C   UNL A   1      40.581  31.161  29.790  1.00  0.00     0.029 A 
ATOM     34  N   UNL A   1      42.407  29.868  29.777  1.00  0.00    -0.354 N 
ATOM     35  C   UNL A   1      42.154  25.756  28.301  1.00  0.00     0.074 A 
ATOM     36  C   UNL A   1      40.804  25.440  27.896  1.00  0.00     0.031 C 
ATOM     37  C   UNL A   1      41.603  31.899  30.255  1.00  0.00     0.029 A 
ATOM     38  C   UNL A   1      42.807  31.074  30.297  1.00  0.00     0.049 A 
ATOM     39  H   UNL A   1      43.020  29.109  29.637  1.00  0.00     0.167 HD
ATOM     40  C   UNL A   1      43.200  24.905  28.199  1.00  0.00     0.037 A 
ATOM     41  C   UNL A   1      44.011  31.449  30.769  1.00  0.00     0.037 A 
ATOM     42  C   UNL A   1      44.535  25.244  28.613  1.00  0.00     0.049 A 
ATOM     43  C   UNL A   1      45.146  30.459  30.711  1.00  0.00     0.074 A 
ATOM     44  C   UNL A   1      45.677  24.469  28.559  1.00  0.00     0.029 A 
ATOM     45  N   UNL A   1      44.900  26.464  29.169  1.00  0.00    -0.354 N 
ATOM     46  N   UNL A   1      45.146  29.231  30.243  1.00  0.00    -0.248 NA
ATOM     47  C   UNL A   1      46.442  30.902  31.236  1.00  0.00     0.031 C 
ATOM     48  C   UNL A   1      46.722  25.201  29.133  1.00  0.00     0.029 A 
ATOM     49  C   UNL A   1      46.246  26.454  29.487  1.00  0.00     0.049 A 
ATOM     50  H   UNL A   1      44.290  27.223  29.314  1.00  0.00     0.167 HD
ATOM     51  C   UNL A   1      46.448  28.766  30.392  1.00  0.00     0.074 A 
ATOM     52  C   UNL A   1      47.208  29.849  30.984  1.00  0.00     0.031 C 
ATOM     53  C   UNL A   1      46.972  27.556  30.071  1.00  0.00     0.037 A 
BRANCH  40  54
ATOM     54  C   UNL A   1      42.930  23.527  27.659  1.00  0.00     0.058 A 
ATOM     55  C   UNL A   1      42.539  22.466  28.491  1.00  0.00     0.135 A 
ATOM     56  C   UNL A   1      43.052  23.270  26.285  1.00  0.00     0.135 A 
ATOM     57  F   UNL A   1      42.433  22.647  29.817  1.00  0.00    -0.206 F 
ATOM     58  C   UNL A   1      42.301  21.192  27.982  1.00  0.00     0.059 A 
ATOM     59  C   UNL A   1      42.789  22.012  25.750  1.00  0.00     0.059 A 
ATOM     60  F   UNL A   1      43.435  24.244  25.446  1.00  0.00    -0.206 F 
ATOM     61  C   UNL A   1      42.426  20.976  26.608  1.00  0.00     0.060 A 
BRANCH  61  62
ATOM     62  S   UNL A   1      42.098  19.323  25.961  1.00  0.00     0.124 S 
ATOM     63  O   UNL A   1      40.654  19.372  25.752  1.00  0.00    -0.237 OA
ATOM     64  O   UNL A   1      42.913  19.296  24.750  1.00  0.00    -0.237 OA
ATOM     65  O   UNL A   1      42.547  18.442  27.035  1.00  0.00    -0.744 OA
ENDBRANCH  61  62
ENDBRANCH  40  54
BRANCH  41  66
ATOM     66  C   UNL A   1      44.194  32.808  31.345  1.00  0.00     0.058 A 
ATOM     67  C   UNL A   1      44.530  33.904  30.537  1.00  0.00     0.135 A 
ATOM     68  C   UNL A   1      44.021  33.040  32.719  1.00  0.00     0.135 A 
ATOM     69  F   UNL A   1      44.713  33.734  29.219  1.00  0.00    -0.206 F 
ATOM     70  C   UNL A   1      44.704  35.177  31.072  1.00  0.00     0.059 A 
ATOM     71  C   UNL A   1      44.162  34.308  33.273  1.00  0.00     0.059 A 
ATOM     72  F   UNL A   1      43.686  32.028  33.535  1.00  0.00    -0.206 F 
ATOM     73  C   UNL A   1      44.513  35.370  32.441  1.00  0.00     0.060 A 
BRANCH  73  74
ATOM     74  S   UNL A   1      44.695  37.035  33.115  1.00  0.00     0.124 S 
ATOM     75  O   UNL A   1      43.551  37.718  32.523  1.00  0.00    -0.237 OA
ATOM     76  O   UNL A   1      44.622  36.792  34.553  1.00  0.00    -0.237 OA
ATOM     77  O   UNL A   1      46.005  37.454  32.624  1.00  0.00    -0.744 OA
ENDBRANCH  73  74
ENDBRANCH  41  66
BRANCH  53  78
ATOM     78  C   UNL A   1      48.441  27.354  30.317  1.00  0.00     0.058 A 
ATOM     79  C   UNL A   1      48.923  26.824  31.523  1.00  0.00     0.135 A 
ATOM     80  C   UNL A   1      49.372  27.641  29.305  1.00  0.00     0.135 A 
ATOM     81  F   UNL A   1      48.074  26.537  32.523  1.00  0.00    -0.206 F 
ATOM     82  C   UNL A   1      50.281  26.608  31.728  1.00  0.00     0.059 A 
ATOM     83  C   UNL A   1      50.731  27.403  29.477  1.00  0.00     0.059 A 
ATOM     84  F   UNL A   1      48.961  28.137  28.127  1.00  0.00    -0.206 F 
ATOM     85  C   UNL A   1      51.177  26.898  30.696  1.00  0.00     0.060 A 
BRANCH  85  86
ATOM     86  S   UNL A   1      52.933  26.583  30.964  1.00  0.00     0.124 S 
ATOM     87  O   UNL A   1      53.414  26.417  29.597  1.00  0.00    -0.237 OA
ATOM     88  O   UNL A   1      53.368  27.798  31.645  1.00  0.00    -0.237 OA
ATOM     89  O   UNL A   1      52.942  25.375  31.784  1.00  0.00    -0.744 OA
ENDBRANCH  85  86
ENDBRANCH  53  78
ENDBRANCH  27  28
ENDBRANCH  20  22
ENDBRANCH  19  20
ENDBRANCH  18  19
ENDBRANCH   1  18
TORSDOF 18
ENDMDL
