MODEL 1
REMARK VINA RESULT:     -11.0      0.000      0.000
REMARK SMILES CC1=C(C#N)C(=O)N(C)C(=O)/C1=C\Nc1ccc(C(=O)OCCOCCOC(=O)c2ccc(-c3c4nc(c(-c5c(F)cc(S(=O)(=O)[O-])cc5F)c5ccc([nH]5)c(-c5c(F)cc(S(=O)(=O)[O-])cc5F)c5nc(c(-c6c(F)cc(S(=O)(=O)[O-])cc6F)c6ccc3[nH]6)C=C5)C=C4)cc2)c(O)c1
REMARK SMILES IDX 24 1 23 2 22 3 21 4 19 5 20 6 18 7 15 8 16 9 98 10 17 11
REMARK SMILES IDX 96 12 14 13 13 15 1 16 2 17 3 18 12 19 6 20 10 21 7 22 8 23
REMARK SMILES IDX 11 24 9 25 4 26 5 27 97 28 25 30 26 31 27 32 28 33 29 34
REMARK SMILES IDX 30 35 31 36 95 37 32 38 94 39 33 40 34 41 35 42 88 43 36 44
REMARK SMILES IDX 93 45 87 46 89 47 37 48 92 49 86 50 85 51 38 53 72 54 51 55
REMARK SMILES IDX 71 56 52 57 55 58 70 59 90 60 53 61 54 62 69 64 91 65 56 66
REMARK SMILES IDX 39 67 40 68 49 69 41 70 42 71 48 72 50 73 43 74 44 75 45 76
REMARK SMILES IDX 46 77 47 78 73 79 74 80 83 81 75 82 76 83 82 84 84 85 77 86
REMARK SMILES IDX 78 87 79 88 80 89 81 90 57 91 58 92 67 93 59 94 60 95 66 96
REMARK SMILES IDX 68 97 61 98 62 99 63 100 64 101 65 102
REMARK H PARENT 14 14 97 29 89 52 55 63
REMARK Flexibility Score: inf
ROOT
ATOM      1  O   UNL A   1      35.354  34.131  33.244  1.00  0.00    -0.374 OA
ENDROOT
BRANCH   1   2
ATOM      2  C   UNL A   1      34.892  35.070  32.277  1.00  0.00     0.202 C 
BRANCH   2   3
ATOM      3  C   UNL A   1      34.177  34.554  31.023  1.00  0.00     0.261 C 
BRANCH   3   4
ATOM      4  O   UNL A   1      35.079  34.300  29.934  1.00  0.00    -0.460 OA
BRANCH   4   5
ATOM      5  C   UNL A   1      34.507  34.410  28.707  1.00  0.00     0.341 C 
ATOM      6  O   UNL A   1      34.450  35.415  28.017  1.00  0.00    -0.246 OA
BRANCH   5   7
ATOM      7  C   UNL A   1      34.107  33.077  28.206  1.00  0.00     0.101 A 
ATOM      8  C   UNL A   1      33.632  30.501  27.178  1.00  0.00     0.042 A 
ATOM      9  C   UNL A   1      34.730  30.735  28.008  1.00  0.00     0.027 A 
ATOM     10  C   UNL A   1      32.723  31.548  26.954  1.00  0.00     0.073 A 
ATOM     11  C   UNL A   1      34.984  32.020  28.491  1.00  0.00     0.022 A 
ATOM     12  C   UNL A   1      32.941  32.820  27.488  1.00  0.00     0.132 A 
BRANCH   8  13
ATOM     13  N   UNL A   1      33.389  29.259  26.576  1.00  0.00    -0.361 N 
ATOM     14  H   UNL A   1      33.126  28.537  27.192  1.00  0.00     0.166 HD
BRANCH  13  15
ATOM     15  C   UNL A   1      33.462  28.901  25.250  1.00  0.00     0.097 C 
ATOM     16  C   UNL A   1      34.067  28.322  22.390  1.00  0.00     0.047 C 
ATOM     17  C   UNL A   1      33.129  27.474  23.229  1.00  0.00    -0.013 C 
ATOM     18  C   UNL A   1      32.532  26.381  22.704  1.00  0.00     0.121 C 
ATOM     19  C   UNL A   1      32.910  27.831  24.636  1.00  0.00     0.060 C 
ATOM     20  C   UNL A   1      31.617  25.533  23.513  1.00  0.00     0.271 C 
ATOM     21  C   UNL A   1      32.011  26.959  25.483  1.00  0.00     0.262 C 
ATOM     22  O   UNL A   1      31.077  24.553  23.002  1.00  0.00    -0.268 OA
ATOM     23  N   UNL A   1      31.413  25.890  24.836  1.00  0.00    -0.277 N 
ATOM     24  O   UNL A   1      31.826  27.194  26.678  1.00  0.00    -0.269 OA
ATOM     25  C   UNL A   1      30.517  25.039  25.604  1.00  0.00     0.157 C 
BRANCH  18  26
ATOM     26  C   UNL A   1      32.762  25.955  21.363  1.00  0.00     0.105 C 
ATOM     27  N   UNL A   1      32.992  25.569  20.290  1.00  0.00    -0.192 NA
ENDBRANCH  18  26
ENDBRANCH  13  15
ENDBRANCH   8  13
BRANCH  12  28
ATOM     28  O   UNL A   1      31.964  33.746  27.254  1.00  0.00    -0.507 OA
ATOM     29  H   UNL A   1      31.177  33.494  26.812  1.00  0.00     0.293 HD
ENDBRANCH  12  28
ENDBRANCH   5   7
ENDBRANCH   4   5
ENDBRANCH   3   4
ENDBRANCH   2   3
ENDBRANCH   1   2
BRANCH   1  30
ATOM     30  C   UNL A   1      35.153  32.741  33.003  1.00  0.00     0.202 C 
BRANCH  30  31
ATOM     31  C   UNL A   1      36.362  31.820  32.793  1.00  0.00     0.261 C 
BRANCH  31  32
ATOM     32  O   UNL A   1      36.678  31.577  31.414  1.00  0.00    -0.460 OA
BRANCH  32  33
ATOM     33  C   UNL A   1      37.003  30.288  31.139  1.00  0.00     0.338 C 
ATOM     34  O   UNL A   1      36.260  29.321  31.153  1.00  0.00    -0.246 OA
BRANCH  33  35
ATOM     35  C   UNL A   1      38.378  30.227  30.612  1.00  0.00     0.060 A 
ATOM     36  C   UNL A   1      38.552  30.246  29.222  1.00  0.00     0.016 A 
ATOM     37  C   UNL A   1      39.471  30.080  31.467  1.00  0.00     0.016 A 
ATOM     38  C   UNL A   1      39.822  30.079  28.678  1.00  0.00     0.010 A 
ATOM     39  C   UNL A   1      40.742  29.905  30.916  1.00  0.00     0.010 A 
ATOM     40  C   UNL A   1      40.921  29.871  29.520  1.00  0.00    -0.014 A 
BRANCH  40  41
ATOM     41  C   UNL A   1      42.239  29.505  28.947  1.00  0.00     0.031 A 
ATOM     42  C   UNL A   1      42.466  28.096  28.469  1.00  0.00     0.074 A 
ATOM     43  C   UNL A   1      43.220  30.421  28.852  1.00  0.00     0.049 A 
ATOM     44  N   UNL A   1      43.558  27.544  28.010  1.00  0.00    -0.248 NA
ATOM     45  C   UNL A   1      41.308  27.188  28.525  1.00  0.00     0.031 C 
ATOM     46  C   UNL A   1      43.104  31.823  29.247  1.00  0.00     0.029 A 
ATOM     47  N   UNL A   1      44.512  30.302  28.405  1.00  0.00    -0.354 N 
ATOM     48  C   UNL A   1      43.226  26.221  27.733  1.00  0.00     0.074 A 
ATOM     49  C   UNL A   1      41.840  26.047  28.111  1.00  0.00     0.031 C 
ATOM     50  C   UNL A   1      44.282  32.435  29.035  1.00  0.00     0.029 A 
ATOM     51  C   UNL A   1      45.246  31.457  28.534  1.00  0.00     0.049 A 
ATOM     52  H   UNL A   1      44.878  29.469  28.028  1.00  0.00     0.167 HD
ATOM     53  C   UNL A   1      44.005  25.247  27.206  1.00  0.00     0.037 A 
ATOM     54  C   UNL A   1      46.553  31.691  28.302  1.00  0.00     0.037 A 
ATOM     55  C   UNL A   1      45.386  25.434  26.838  1.00  0.00     0.049 A 
ATOM     56  C   UNL A   1      47.421  30.570  27.789  1.00  0.00     0.074 A 
ATOM     57  C   UNL A   1      46.257  24.517  26.275  1.00  0.00     0.029 A 
ATOM     58  N   UNL A   1      46.102  26.611  27.006  1.00  0.00    -0.354 N 
ATOM     59  N   UNL A   1      47.089  29.332  27.506  1.00  0.00    -0.248 NA
ATOM     60  C   UNL A   1      48.839  30.878  27.562  1.00  0.00     0.031 C 
ATOM     61  C   UNL A   1      47.516  25.116  26.170  1.00  0.00     0.029 A 
ATOM     62  C   UNL A   1      47.412  26.433  26.592  1.00  0.00     0.049 A 
ATOM     63  H   UNL A   1      45.733  27.449  27.368  1.00  0.00     0.167 HD
ATOM     64  C   UNL A   1      48.250  28.726  27.035  1.00  0.00     0.074 A 
ATOM     65  C   UNL A   1      49.286  29.735  27.060  1.00  0.00     0.031 C 
ATOM     66  C   UNL A   1      48.437  27.449  26.614  1.00  0.00     0.037 A 
BRANCH  53  67
ATOM     67  C   UNL A   1      43.397  23.881  27.026  1.00  0.00     0.058 A 
ATOM     68  C   UNL A   1      43.190  23.008  28.107  1.00  0.00     0.135 A 
ATOM     69  C   UNL A   1      42.976  23.453  25.755  1.00  0.00     0.135 A 
ATOM     70  F   UNL A   1      43.586  23.355  29.342  1.00  0.00    -0.206 F 
ATOM     71  C   UNL A   1      42.617  21.752  27.930  1.00  0.00     0.059 A 
ATOM     72  C   UNL A   1      42.368  22.217  25.561  1.00  0.00     0.059 A 
ATOM     73  F   UNL A   1      43.148  24.245  24.684  1.00  0.00    -0.206 F 
ATOM     74  C   UNL A   1      42.207  21.366  26.653  1.00  0.00     0.060 A 
BRANCH  74  75
ATOM     75  S   UNL A   1      41.460  19.737  26.444  1.00  0.00     0.124 S 
ATOM     76  O   UNL A   1      42.215  19.213  25.310  1.00  0.00    -0.237 OA
ATOM     77  O   UNL A   1      41.730  19.104  27.732  1.00  0.00    -0.237 OA
ATOM     78  O   UNL A   1      40.056  20.036  26.177  1.00  0.00    -0.744 OA
ENDBRANCH  74  75
ENDBRANCH  53  67
BRANCH  54  79
ATOM     79  C   UNL A   1      47.124  33.040  28.564  1.00  0.00     0.058 A 
ATOM     80  C   UNL A   1      47.119  34.034  27.575  1.00  0.00     0.135 A 
ATOM     81  C   UNL A   1      47.684  33.364  29.811  1.00  0.00     0.135 A 
ATOM     82  F   UNL A   1      46.606  33.772  26.363  1.00  0.00    -0.206 F 
ATOM     83  C   UNL A   1      47.660  35.295  27.804  1.00  0.00     0.059 A 
ATOM     84  C   UNL A   1      48.201  34.628  30.076  1.00  0.00     0.059 A 
ATOM     85  F   UNL A   1      47.705  32.454  30.796  1.00  0.00    -0.206 F 
ATOM     86  C   UNL A   1      48.193  35.584  29.062  1.00  0.00     0.060 A 
BRANCH  86  87
ATOM     87  S   UNL A   1      48.843  37.242  29.363  1.00  0.00     0.124 S 
ATOM     88  O   UNL A   1      47.793  38.079  28.792  1.00  0.00    -0.237 OA
ATOM     89  O   UNL A   1      48.958  37.261  30.817  1.00  0.00    -0.237 OA
ATOM     90  O   UNL A   1      50.112  37.242  28.641  1.00  0.00    -0.744 OA
ENDBRANCH  86  87
ENDBRANCH  54  79
BRANCH  66  91
ATOM     91  C   UNL A   1      49.804  27.075  26.100  1.00  0.00     0.058 A 
ATOM     92  C   UNL A   1      50.786  26.517  26.932  1.00  0.00     0.135 A 
ATOM     93  C   UNL A   1      50.110  27.222  24.736  1.00  0.00     0.135 A 
ATOM     94  F   UNL A   1      50.552  26.359  28.244  1.00  0.00    -0.206 F 
ATOM     95  C   UNL A   1      52.033  26.142  26.436  1.00  0.00     0.059 A 
ATOM     96  C   UNL A   1      51.335  26.820  24.213  1.00  0.00     0.059 A 
ATOM     97  F   UNL A   1      49.206  27.741  23.891  1.00  0.00    -0.206 F 
ATOM     98  C   UNL A   1      52.294  26.292  25.073  1.00  0.00     0.060 A 
BRANCH  98  99
ATOM     99  S   UNL A   1      53.899  25.761  24.439  1.00  0.00     0.124 S 
ATOM    100  O   UNL A   1      53.817  24.312  24.604  1.00  0.00    -0.237 OA
ATOM    101  O   UNL A   1      53.865  26.245  23.063  1.00  0.00    -0.237 OA
ATOM    102  O   UNL A   1      54.853  26.438  25.313  1.00  0.00    -0.744 OA
ENDBRANCH  98  99
ENDBRANCH  66  91
ENDBRANCH  40  41
ENDBRANCH  33  35
ENDBRANCH  32  33
ENDBRANCH  31  32
ENDBRANCH  30  31
ENDBRANCH   1  30
TORSDOF 21
ENDMDL
MODEL 2
REMARK VINA RESULT:     -11.0      6.700     12.295
REMARK SMILES CC1=C(C#N)C(=O)N(C)C(=O)/C1=C\Nc1ccc(C(=O)OCCOCCOC(=O)c2ccc(-c3c4nc(c(-c5c(F)cc(S(=O)(=O)[O-])cc5F)c5ccc([nH]5)c(-c5c(F)cc(S(=O)(=O)[O-])cc5F)c5nc(c(-c6c(F)cc(S(=O)(=O)[O-])cc6F)c6ccc3[nH]6)C=C5)C=C4)cc2)c(O)c1
REMARK SMILES IDX 24 1 23 2 22 3 21 4 19 5 20 6 18 7 15 8 16 9 98 10 17 11
REMARK SMILES IDX 96 12 14 13 13 15 1 16 2 17 3 18 12 19 6 20 10 21 7 22 8 23
REMARK SMILES IDX 11 24 9 25 4 26 5 27 97 28 25 30 26 31 27 32 28 33 29 34
REMARK SMILES IDX 30 35 31 36 95 37 32 38 94 39 33 40 34 41 35 42 88 43 36 44
REMARK SMILES IDX 93 45 87 46 89 47 37 48 92 49 86 50 85 51 38 53 72 54 51 55
REMARK SMILES IDX 71 56 52 57 55 58 70 59 90 60 53 61 54 62 69 64 91 65 56 66
REMARK SMILES IDX 39 67 40 68 49 69 41 70 42 71 48 72 50 73 43 74 44 75 45 76
REMARK SMILES IDX 46 77 47 78 73 79 74 80 83 81 75 82 76 83 82 84 84 85 77 86
REMARK SMILES IDX 78 87 79 88 80 89 81 90 57 91 58 92 67 93 59 94 60 95 66 96
REMARK SMILES IDX 68 97 61 98 62 99 63 100 64 101 65 102
REMARK H PARENT 14 14 97 29 89 52 55 63
REMARK Flexibility Score: inf
ROOT
ATOM      1  O   UNL A   1      38.182  22.135  25.144  1.00  0.00    -0.374 OA
ENDROOT
BRANCH   1   2
ATOM      2  C   UNL A   1      36.849  21.868  25.572  1.00  0.00     0.202 C 
BRANCH   2   3
ATOM      3  C   UNL A   1      35.908  21.100  24.638  1.00  0.00     0.261 C 
BRANCH   3   4
ATOM      4  O   UNL A   1      35.270  19.987  25.285  1.00  0.00    -0.460 OA
BRANCH   4   5
ATOM      5  C   UNL A   1      33.969  19.817  24.934  1.00  0.00     0.341 C 
ATOM      6  O   UNL A   1      33.460  18.801  24.490  1.00  0.00    -0.246 OA
BRANCH   5   7
ATOM      7  C   UNL A   1      33.171  20.995  25.340  1.00  0.00     0.101 A 
ATOM      8  C   UNL A   1      31.698  23.340  25.839  1.00  0.00     0.042 A 
ATOM      9  C   UNL A   1      31.509  22.631  24.652  1.00  0.00     0.027 A 
ATOM     10  C   UNL A   1      32.557  22.805  26.812  1.00  0.00     0.073 A 
ATOM     11  C   UNL A   1      32.264  21.486  24.390  1.00  0.00     0.022 A 
ATOM     12  C   UNL A   1      33.266  21.625  26.580  1.00  0.00     0.132 A 
BRANCH   8  13
ATOM     13  N   UNL A   1      31.051  24.554  26.107  1.00  0.00    -0.361 N 
ATOM     14  H   UNL A   1      31.192  24.915  27.012  1.00  0.00     0.166 HD
BRANCH  13  15
ATOM     15  C   UNL A   1      30.247  25.316  25.291  1.00  0.00     0.097 C 
ATOM     16  C   UNL A   1      28.158  26.878  23.852  1.00  0.00     0.047 C 
ATOM     17  C   UNL A   1      29.639  27.192  23.761  1.00  0.00    -0.013 C 
ATOM     18  C   UNL A   1      30.080  28.234  23.021  1.00  0.00     0.121 C 
ATOM     19  C   UNL A   1      30.590  26.375  24.524  1.00  0.00     0.060 C 
ATOM     20  C   UNL A   1      31.527  28.563  22.928  1.00  0.00     0.271 C 
ATOM     21  C   UNL A   1      32.061  26.716  24.469  1.00  0.00     0.262 C 
ATOM     22  O   UNL A   1      31.897  29.509  22.234  1.00  0.00    -0.268 OA
ATOM     23  N   UNL A   1      32.411  27.775  23.645  1.00  0.00    -0.277 N 
ATOM     24  O   UNL A   1      32.895  26.085  25.121  1.00  0.00    -0.269 OA
ATOM     25  C   UNL A   1      33.820  28.123  23.538  1.00  0.00     0.157 C 
BRANCH  18  26
ATOM     26  C   UNL A   1      29.192  29.098  22.315  1.00  0.00     0.105 C 
ATOM     27  N   UNL A   1      28.510  29.808  21.695  1.00  0.00    -0.192 NA
ENDBRANCH  18  26
ENDBRANCH  13  15
ENDBRANCH   8  13
BRANCH  12  28
ATOM     28  O   UNL A   1      34.028  21.166  27.616  1.00  0.00    -0.507 OA
ATOM     29  H   UNL A   1      34.037  21.629  28.431  1.00  0.00     0.293 HD
ENDBRANCH  12  28
ENDBRANCH   5   7
ENDBRANCH   4   5
ENDBRANCH   3   4
ENDBRANCH   2   3
ENDBRANCH   1   2
BRANCH   1  30
ATOM     30  C   UNL A   1      39.260  21.816  26.019  1.00  0.00     0.202 C 
BRANCH  30  31
ATOM     31  C   UNL A   1      39.959  22.933  26.807  1.00  0.00     0.261 C 
BRANCH  31  32
ATOM     32  O   UNL A   1      39.456  24.247  26.527  1.00  0.00    -0.460 OA
BRANCH  32  33
ATOM     33  C   UNL A   1      40.422  25.181  26.335  1.00  0.00     0.338 C 
ATOM     34  O   UNL A   1      41.008  25.432  25.295  1.00  0.00    -0.246 OA
BRANCH  33  35
ATOM     35  C   UNL A   1      40.546  26.019  27.541  1.00  0.00     0.060 A 
ATOM     36  C   UNL A   1      39.550  25.914  28.520  1.00  0.00     0.016 A 
ATOM     37  C   UNL A   1      41.583  26.943  27.672  1.00  0.00     0.016 A 
ATOM     38  C   UNL A   1      39.565  26.764  29.622  1.00  0.00     0.010 A 
ATOM     39  C   UNL A   1      41.591  27.799  28.775  1.00  0.00     0.010 A 
ATOM     40  C   UNL A   1      40.566  27.737  29.739  1.00  0.00    -0.014 A 
BRANCH  40  41
ATOM     41  C   UNL A   1      40.482  28.765  30.805  1.00  0.00     0.031 A 
ATOM     42  C   UNL A   1      41.389  28.658  32.001  1.00  0.00     0.074 A 
ATOM     43  C   UNL A   1      39.608  29.782  30.703  1.00  0.00     0.049 A 
ATOM     44  N   UNL A   1      41.429  29.398  33.078  1.00  0.00    -0.248 NA
ATOM     45  C   UNL A   1      42.377  27.567  31.982  1.00  0.00     0.031 C 
ATOM     46  C   UNL A   1      38.707  30.010  29.575  1.00  0.00     0.029 A 
ATOM     47  N   UNL A   1      39.328  30.808  31.571  1.00  0.00    -0.354 N 
ATOM     48  C   UNL A   1      42.434  28.856  33.872  1.00  0.00     0.074 A 
ATOM     49  C   UNL A   1      42.954  27.705  33.168  1.00  0.00     0.031 C 
ATOM     50  C   UNL A   1      37.964  31.101  29.824  1.00  0.00     0.029 A 
ATOM     51  C   UNL A   1      38.304  31.621  31.146  1.00  0.00     0.049 A 
ATOM     52  H   UNL A   1      39.813  30.947  32.416  1.00  0.00     0.167 HD
ATOM     53  C   UNL A   1      42.885  29.287  35.075  1.00  0.00     0.037 A 
ATOM     54  C   UNL A   1      37.692  32.650  31.767  1.00  0.00     0.037 A 
ATOM     55  C   UNL A   1      42.355  30.435  35.767  1.00  0.00     0.049 A 
ATOM     56  C   UNL A   1      38.158  33.063  33.140  1.00  0.00     0.074 A 
ATOM     57  C   UNL A   1      42.758  30.968  36.980  1.00  0.00     0.029 A 
ATOM     58  N   UNL A   1      41.302  31.219  35.318  1.00  0.00    -0.354 N 
ATOM     59  N   UNL A   1      39.128  32.561  33.868  1.00  0.00    -0.248 NA
ATOM     60  C   UNL A   1      37.451  34.183  33.773  1.00  0.00     0.031 C 
ATOM     61  C   UNL A   1      41.903  32.027  37.297  1.00  0.00     0.029 A 
ATOM     62  C   UNL A   1      41.018  32.208  36.245  1.00  0.00     0.049 A 
ATOM     63  H   UNL A   1      40.827  31.091  34.466  1.00  0.00     0.167 HD
ATOM     64  C   UNL A   1      39.167  33.327  35.030  1.00  0.00     0.074 A 
ATOM     65  C   UNL A   1      38.134  34.332  34.900  1.00  0.00     0.031 C 
ATOM     66  C   UNL A   1      39.989  33.211  36.103  1.00  0.00     0.037 A 
BRANCH  53  67
ATOM     67  C   UNL A   1      43.984  28.498  35.737  1.00  0.00     0.058 A 
ATOM     68  C   UNL A   1      45.342  28.792  35.530  1.00  0.00     0.135 A 
ATOM     69  C   UNL A   1      43.673  27.456  36.627  1.00  0.00     0.135 A 
ATOM     70  F   UNL A   1      45.702  29.766  34.679  1.00  0.00    -0.206 F 
ATOM     71  C   UNL A   1      46.349  28.063  36.155  1.00  0.00     0.059 A 
ATOM     72  C   UNL A   1      44.662  26.737  37.291  1.00  0.00     0.059 A 
ATOM     73  F   UNL A   1      42.392  27.128  36.863  1.00  0.00    -0.206 F 
ATOM     74  C   UNL A   1      45.999  27.038  37.036  1.00  0.00     0.060 A 
BRANCH  74  75
ATOM     75  S   UNL A   1      47.319  26.109  37.843  1.00  0.00     0.124 S 
ATOM     76  O   UNL A   1      46.603  24.918  38.293  1.00  0.00    -0.237 OA
ATOM     77  O   UNL A   1      48.266  25.903  36.752  1.00  0.00    -0.237 OA
ATOM     78  O   UNL A   1      47.770  27.005  38.903  1.00  0.00    -0.744 OA
ENDBRANCH  74  75
ENDBRANCH  53  67
BRANCH  54  79
ATOM     79  C   UNL A   1      36.562  33.353  31.101  1.00  0.00     0.058 A 
ATOM     80  C   UNL A   1      35.246  33.209  31.565  1.00  0.00     0.135 A 
ATOM     81  C   UNL A   1      36.774  34.184  29.989  1.00  0.00     0.135 A 
ATOM     82  F   UNL A   1      34.987  32.418  32.616  1.00  0.00    -0.206 F 
ATOM     83  C   UNL A   1      34.179  33.852  30.943  1.00  0.00     0.059 A 
ATOM     84  C   UNL A   1      35.729  34.863  29.371  1.00  0.00     0.059 A 
ATOM     85  F   UNL A   1      38.015  34.364  29.511  1.00  0.00    -0.206 F 
ATOM     86  C   UNL A   1      34.433  34.682  29.851  1.00  0.00     0.060 A 
BRANCH  86  87
ATOM     87  S   UNL A   1      33.047  35.552  29.088  1.00  0.00     0.124 S 
ATOM     88  O   UNL A   1      33.727  36.635  28.388  1.00  0.00    -0.237 OA
ATOM     89  O   UNL A   1      32.464  34.512  28.246  1.00  0.00    -0.237 OA
ATOM     90  O   UNL A   1      32.232  35.954  30.230  1.00  0.00    -0.744 OA
ENDBRANCH  86  87
ENDBRANCH  54  79
BRANCH  66  91
ATOM     91  C   UNL A   1      39.843  34.223  37.210  1.00  0.00     0.058 A 
ATOM     92  C   UNL A   1      40.343  35.529  37.098  1.00  0.00     0.135 A 
ATOM     93  C   UNL A   1      39.134  33.894  38.379  1.00  0.00     0.135 A 
ATOM     94  F   UNL A   1      41.034  35.898  36.008  1.00  0.00    -0.206 F 
ATOM     95  C   UNL A   1      40.169  36.465  38.115  1.00  0.00     0.059 A 
ATOM     96  C   UNL A   1      38.916  34.824  39.390  1.00  0.00     0.059 A 
ATOM     97  F   UNL A   1      38.624  32.662  38.537  1.00  0.00    -0.206 F 
ATOM     98  C   UNL A   1      39.448  36.104  39.254  1.00  0.00     0.060 A 
BRANCH  98  99
ATOM     99  S   UNL A   1      39.194  37.342  40.543  1.00  0.00     0.124 S 
ATOM    100  O   UNL A   1      38.641  36.533  41.625  1.00  0.00    -0.237 OA
ATOM    101  O   UNL A   1      40.545  37.849  40.757  1.00  0.00    -0.237 OA
ATOM    102  O   UNL A   1      38.264  38.288  39.931  1.00  0.00    -0.744 OA
ENDBRANCH  98  99
ENDBRANCH  66  91
ENDBRANCH  40  41
ENDBRANCH  33  35
ENDBRANCH  32  33
ENDBRANCH  31  32
ENDBRANCH  30  31
ENDBRANCH   1  30
TORSDOF 21
ENDMDL
MODEL 3
REMARK VINA RESULT:     -10.6      0.545      8.025
REMARK SMILES CC1=C(C#N)C(=O)N(C)C(=O)/C1=C\Nc1ccc(C(=O)OCCOCCOC(=O)c2ccc(-c3c4nc(c(-c5c(F)cc(S(=O)(=O)[O-])cc5F)c5ccc([nH]5)c(-c5c(F)cc(S(=O)(=O)[O-])cc5F)c5nc(c(-c6c(F)cc(S(=O)(=O)[O-])cc6F)c6ccc3[nH]6)C=C5)C=C4)cc2)c(O)c1
REMARK SMILES IDX 24 1 23 2 22 3 21 4 19 5 20 6 18 7 15 8 16 9 98 10 17 11
REMARK SMILES IDX 96 12 14 13 13 15 1 16 2 17 3 18 12 19 6 20 10 21 7 22 8 23
REMARK SMILES IDX 11 24 9 25 4 26 5 27 97 28 25 30 26 31 27 32 28 33 29 34
REMARK SMILES IDX 30 35 31 36 95 37 32 38 94 39 33 40 34 41 35 42 88 43 36 44
REMARK SMILES IDX 93 45 87 46 89 47 37 48 92 49 86 50 85 51 38 53 72 54 51 55
REMARK SMILES IDX 71 56 52 57 55 58 70 59 90 60 53 61 54 62 69 64 91 65 56 66
REMARK SMILES IDX 39 67 40 68 49 69 41 70 42 71 48 72 50 73 43 74 44 75 45 76
REMARK SMILES IDX 46 77 47 78 73 79 74 80 83 81 75 82 76 83 82 84 84 85 77 86
REMARK SMILES IDX 78 87 79 88 80 89 81 90 57 91 58 92 67 93 59 94 60 95 66 96
REMARK SMILES IDX 68 97 61 98 62 99 63 100 64 101 65 102
REMARK H PARENT 14 14 97 29 89 52 55 63
REMARK Flexibility Score: inf
ROOT
ATOM      1  O   UNL A   1      35.638  34.401  33.184  1.00  0.00    -0.374 OA
ENDROOT
BRANCH   1   2
ATOM      2  C   UNL A   1      35.396  35.122  31.979  1.00  0.00     0.202 C 
BRANCH   2   3
ATOM      3  C   UNL A   1      34.375  34.573  30.976  1.00  0.00     0.261 C 
BRANCH   3   4
ATOM      4  O   UNL A   1      34.989  33.841  29.904  1.00  0.00    -0.460 OA
BRANCH   4   5
ATOM      5  C   UNL A   1      34.321  33.928  28.725  1.00  0.00     0.341 C 
ATOM      6  O   UNL A   1      34.073  34.948  28.101  1.00  0.00    -0.246 OA
BRANCH   5   7
ATOM      7  C   UNL A   1      34.081  32.578  28.170  1.00  0.00     0.101 A 
ATOM      8  C   UNL A   1      33.913  30.005  27.042  1.00  0.00     0.042 A 
ATOM      9  C   UNL A   1      34.972  30.333  27.890  1.00  0.00     0.027 A 
ATOM     10  C   UNL A   1      32.891  30.948  26.849  1.00  0.00     0.073 A 
ATOM     11  C   UNL A   1      35.074  31.619  28.423  1.00  0.00     0.022 A 
ATOM     12  C   UNL A   1      32.956  32.215  27.432  1.00  0.00     0.132 A 
BRANCH   8  13
ATOM     13  N   UNL A   1      33.819  28.768  26.392  1.00  0.00    -0.361 N 
ATOM     14  H   UNL A   1      33.800  27.982  26.984  1.00  0.00     0.166 HD
BRANCH  13  15
ATOM     15  C   UNL A   1      33.748  28.489  25.047  1.00  0.00     0.097 C 
ATOM     16  C   UNL A   1      34.025  28.115  22.103  1.00  0.00     0.047 C 
ATOM     17  C   UNL A   1      33.256  27.157  22.994  1.00  0.00    -0.013 C 
ATOM     18  C   UNL A   1      32.668  26.056  22.477  1.00  0.00     0.121 C 
ATOM     19  C   UNL A   1      33.193  27.419  24.437  1.00  0.00     0.060 C 
ATOM     20  C   UNL A   1      31.919  25.101  23.335  1.00  0.00     0.271 C 
ATOM     21  C   UNL A   1      32.465  26.440  25.329  1.00  0.00     0.262 C 
ATOM     22  O   UNL A   1      31.382  24.114  22.831  1.00  0.00    -0.268 OA
ATOM     23  N   UNL A   1      31.859  25.368  24.692  1.00  0.00    -0.277 N 
ATOM     24  O   UNL A   1      32.416  26.594  26.550  1.00  0.00    -0.269 OA
ATOM     25  C   UNL A   1      31.123  24.414  25.507  1.00  0.00     0.157 C 
BRANCH  18  26
ATOM     26  C   UNL A   1      32.755  25.723  21.092  1.00  0.00     0.105 C 
ATOM     27  N   UNL A   1      32.887  25.451  19.969  1.00  0.00    -0.192 NA
ENDBRANCH  18  26
ENDBRANCH  13  15
ENDBRANCH   8  13
BRANCH  12  28
ATOM     28  O   UNL A   1      31.880  33.030  27.224  1.00  0.00    -0.507 OA
ATOM     29  H   UNL A   1      31.576  33.189  26.352  1.00  0.00     0.293 HD
ENDBRANCH  12  28
ENDBRANCH   5   7
ENDBRANCH   4   5
ENDBRANCH   3   4
ENDBRANCH   2   3
ENDBRANCH   1   2
BRANCH   1  30
ATOM     30  C   UNL A   1      35.177  33.056  33.283  1.00  0.00     0.202 C 
BRANCH  30  31
ATOM     31  C   UNL A   1      36.169  31.895  33.127  1.00  0.00     0.261 C 
BRANCH  31  32
ATOM     32  O   UNL A   1      36.743  31.791  31.816  1.00  0.00    -0.460 OA
BRANCH  32  33
ATOM     33  C   UNL A   1      36.922  30.515  31.390  1.00  0.00     0.338 C 
ATOM     34  O   UNL A   1      36.080  29.635  31.321  1.00  0.00    -0.246 OA
BRANCH  33  35
ATOM     35  C   UNL A   1      38.272  30.371  30.816  1.00  0.00     0.060 A 
ATOM     36  C   UNL A   1      38.377  29.982  29.474  1.00  0.00     0.016 A 
ATOM     37  C   UNL A   1      39.411  30.543  31.601  1.00  0.00     0.016 A 
ATOM     38  C   UNL A   1      39.629  29.725  28.920  1.00  0.00     0.010 A 
ATOM     39  C   UNL A   1      40.664  30.277  31.045  1.00  0.00     0.010 A 
ATOM     40  C   UNL A   1      40.778  29.836  29.712  1.00  0.00    -0.014 A 
BRANCH  40  41
ATOM     41  C   UNL A   1      42.089  29.384  29.187  1.00  0.00     0.031 A 
ATOM     42  C   UNL A   1      43.211  30.378  29.055  1.00  0.00     0.074 A 
ATOM     43  C   UNL A   1      42.276  28.098  28.835  1.00  0.00     0.049 A 
ATOM     44  N   UNL A   1      44.405  30.216  28.550  1.00  0.00    -0.248 NA
ATOM     45  C   UNL A   1      42.945  31.738  29.552  1.00  0.00     0.031 C 
ATOM     46  C   UNL A   1      41.276  27.039  28.954  1.00  0.00     0.029 A 
ATOM     47  N   UNL A   1      43.370  27.471  28.294  1.00  0.00    -0.354 N 
ATOM     48  C   UNL A   1      45.032  31.454  28.655  1.00  0.00     0.074 A 
ATOM     49  C   UNL A   1      44.071  32.364  29.239  1.00  0.00     0.031 C 
ATOM     50  C   UNL A   1      41.799  25.892  28.488  1.00  0.00     0.029 A 
ATOM     51  C   UNL A   1      43.151  26.147  27.996  1.00  0.00     0.049 A 
ATOM     52  H   UNL A   1      44.228  27.926  28.134  1.00  0.00     0.167 HD
ATOM     53  C   UNL A   1      46.294  31.794  28.302  1.00  0.00     0.037 A 
ATOM     54  C   UNL A   1      43.942  25.251  27.372  1.00  0.00     0.037 A 
ATOM     55  C   UNL A   1      47.240  30.877  27.718  1.00  0.00     0.049 A 
ATOM     56  C   UNL A   1      45.315  25.673  26.917  1.00  0.00     0.074 A 
ATOM     57  C   UNL A   1      48.552  31.117  27.346  1.00  0.00     0.029 A 
ATOM     58  N   UNL A   1      46.975  29.550  27.409  1.00  0.00    -0.354 N 
ATOM     59  N   UNL A   1      45.906  26.838  27.047  1.00  0.00    -0.248 NA
ATOM     60  C   UNL A   1      46.131  24.660  26.235  1.00  0.00     0.031 C 
ATOM     61  C   UNL A   1      49.055  29.958  26.747  1.00  0.00     0.029 A 
ATOM     62  C   UNL A   1      48.086  28.970  26.818  1.00  0.00     0.049 A 
ATOM     63  H   UNL A   1      46.123  29.090  27.583  1.00  0.00     0.167 HD
ATOM     64  C   UNL A   1      47.174  26.686  26.493  1.00  0.00     0.074 A 
ATOM     65  C   UNL A   1      47.267  25.314  26.040  1.00  0.00     0.031 C 
ATOM     66  C   UNL A   1      48.171  27.598  26.376  1.00  0.00     0.037 A 
BRANCH  53  67
ATOM     67  C   UNL A   1      46.720  33.225  28.507  1.00  0.00     0.058 A 
ATOM     68  C   UNL A   1      46.544  34.203  27.514  1.00  0.00     0.135 A 
ATOM     69  C   UNL A   1      47.274  33.633  29.732  1.00  0.00     0.135 A 
ATOM     70  F   UNL A   1      46.035  33.870  26.317  1.00  0.00    -0.206 F 
ATOM     71  C   UNL A   1      46.932  35.525  27.717  1.00  0.00     0.059 A 
ATOM     72  C   UNL A   1      47.635  34.955  29.970  1.00  0.00     0.059 A 
ATOM     73  F   UNL A   1      47.466  32.741  30.718  1.00  0.00    -0.206 F 
ATOM     74  C   UNL A   1      47.474  35.892  28.950  1.00  0.00     0.060 A 
BRANCH  74  75
ATOM     75  S   UNL A   1      47.963  37.611  29.198  1.00  0.00     0.124 S 
ATOM     76  O   UNL A   1      49.011  37.474  30.205  1.00  0.00    -0.237 OA
ATOM     77  O   UNL A   1      48.413  38.001  27.865  1.00  0.00    -0.237 OA
ATOM     78  O   UNL A   1      46.735  38.254  29.656  1.00  0.00    -0.744 OA
ENDBRANCH  74  75
ENDBRANCH  53  67
BRANCH  54  79
ATOM     79  C   UNL A   1      43.448  23.868  27.129  1.00  0.00     0.058 A 
ATOM     80  C   UNL A   1      42.784  23.535  25.939  1.00  0.00     0.135 A 
ATOM     81  C   UNL A   1      43.633  22.850  28.079  1.00  0.00     0.135 A 
ATOM     82  F   UNL A   1      42.572  24.473  25.004  1.00  0.00    -0.206 F 
ATOM     83  C   UNL A   1      42.308  22.249  25.705  1.00  0.00     0.059 A 
ATOM     84  C   UNL A   1      43.196  21.549  27.854  1.00  0.00     0.059 A 
ATOM     85  F   UNL A   1      44.271  23.112  29.230  1.00  0.00    -0.206 F 
ATOM     86  C   UNL A   1      42.525  21.261  26.666  1.00  0.00     0.060 A 
BRANCH  86  87
ATOM     87  S   UNL A   1      41.950  19.584  26.326  1.00  0.00     0.124 S 
ATOM     88  O   UNL A   1      42.355  18.881  27.538  1.00  0.00    -0.237 OA
ATOM     89  O   UNL A   1      40.515  19.786  26.153  1.00  0.00    -0.237 OA
ATOM     90  O   UNL A   1      42.675  19.219  25.113  1.00  0.00    -0.744 OA
ENDBRANCH  86  87
ENDBRANCH  54  79
BRANCH  66  91
ATOM     91  C   UNL A   1      49.474  27.138  25.775  1.00  0.00     0.058 A 
ATOM     92  C   UNL A   1      49.768  27.305  24.413  1.00  0.00     0.135 A 
ATOM     93  C   UNL A   1      50.470  26.575  26.592  1.00  0.00     0.135 A 
ATOM     94  F   UNL A   1      48.853  27.831  23.583  1.00  0.00    -0.206 F 
ATOM     95  C   UNL A   1      50.990  26.908  23.877  1.00  0.00     0.059 A 
ATOM     96  C   UNL A   1      51.712  26.205  26.085  1.00  0.00     0.059 A 
ATOM     97  F   UNL A   1      50.249  26.399  27.904  1.00  0.00    -0.206 F 
ATOM     98  C   UNL A   1      51.959  26.365  24.724  1.00  0.00     0.060 A 
BRANCH  98  99
ATOM     99  S   UNL A   1      53.554  25.895  24.021  1.00  0.00     0.124 S 
ATOM    100  O   UNL A   1      54.430  26.933  24.558  1.00  0.00    -0.237 OA
ATOM    101  O   UNL A   1      53.750  24.556  24.565  1.00  0.00    -0.237 OA
ATOM    102  O   UNL A   1      53.323  25.954  22.581  1.00  0.00    -0.744 OA
ENDBRANCH  98  99
ENDBRANCH  66  91
ENDBRANCH  40  41
ENDBRANCH  33  35
ENDBRANCH  32  33
ENDBRANCH  31  32
ENDBRANCH  30  31
ENDBRANCH   1  30
TORSDOF 21
ENDMDL
