MODEL 1
REMARK VINA RESULT:      -9.3      0.000      0.000
REMARK SMILES CC[C@@H](CNC(=O)NCc1c(C)noc1C)C(=O)OCCOCCOC(=O)c1ccc(-c2c3nc(c(-c4c(F)cc(S(=O)(=O)[O-])cc4F)c4ccc([nH]4)c(-c4c(F)cc(S(=O)(=O)[O-])cc4F)c4nc(c(-c5c(F)cc(S(=O)(=O)[O-])cc5F)c5ccc2[nH]5)C=C4)C=C3)cc1
REMARK SMILES IDX 21 1 20 2 19 3 17 4 18 5 3 6 2 7 1 8 4 9 5 10 6 11 7 13 8 14
REMARK SMILES IDX 9 16 10 17 11 18 15 19 12 20 13 21 14 22 16 23 22 24 23 25
REMARK SMILES IDX 24 26 25 27 26 28 27 29 28 30 29 31 93 32 30 33 92 34 31 35
REMARK SMILES IDX 32 36 33 37 86 38 34 39 91 40 85 41 87 42 35 43 90 44 84 45
REMARK SMILES IDX 83 46 36 48 70 49 49 50 69 51 50 52 53 53 68 54 88 55 51 56
REMARK SMILES IDX 52 57 67 59 89 60 54 61 37 62 38 63 47 64 39 65 40 66 46 67
REMARK SMILES IDX 48 68 41 69 42 70 43 71 44 72 45 73 71 74 72 75 81 76 73 77
REMARK SMILES IDX 74 78 80 79 82 80 75 81 76 82 77 83 78 84 79 85 55 86 56 87
REMARK SMILES IDX 65 88 57 89 58 90 64 91 66 92 59 93 60 94 61 95 62 96 63 97
REMARK H PARENT 5 12 8 15 87 47 53 58
REMARK Flexibility Score: inf
ROOT
ATOM      1  C   UNL A   1      38.974  21.833  26.162  1.00  0.00     0.202 C 
ENDROOT
BRANCH   1   2
ATOM      2  C   UNL A   1      37.904  21.832  25.068  1.00  0.00     0.261 C 
BRANCH   2   3
ATOM      3  O   UNL A   1      37.361  23.141  24.827  1.00  0.00    -0.463 OA
BRANCH   3   4
ATOM      4  C   UNL A   1      36.059  23.186  24.446  1.00  0.00     0.310 C 
ATOM      5  O   UNL A   1      35.578  22.574  23.498  1.00  0.00    -0.252 OA
BRANCH   4   6
ATOM      6  C   UNL A   1      35.227  24.116  25.306  1.00  0.00     0.118 C 
BRANCH   6   7
ATOM      7  C   UNL A   1      34.037  24.756  24.574  1.00  0.00     0.014 C 
ATOM      8  C   UNL A   1      33.942  26.257  24.828  1.00  0.00     0.005 C 
ENDBRANCH   6   7
BRANCH   6   9
ATOM      9  C   UNL A   1      34.852  23.420  26.612  1.00  0.00     0.133 C 
BRANCH   9  10
ATOM     10  N   UNL A   1      33.448  23.486  26.945  1.00  0.00    -0.337 N 
ATOM     11  C   UNL A   1      32.427  22.626  26.889  1.00  0.00     0.315 C 
ATOM     12  H   UNL A   1      33.183  24.367  27.295  1.00  0.00     0.165 HD
ATOM     13  O   UNL A   1      31.330  23.031  27.277  1.00  0.00    -0.249 OA
ATOM     14  N   UNL A   1      32.499  21.374  26.441  1.00  0.00    -0.334 N 
ATOM     15  H   UNL A   1      31.643  20.900  26.550  1.00  0.00     0.165 HD
BRANCH  14  16
ATOM     16  C   UNL A   1      33.502  20.525  25.838  1.00  0.00     0.159 C 
BRANCH  16  17
ATOM     17  C   UNL A   1      32.922  19.827  24.665  1.00  0.00     0.037 A 
ATOM     18  C   UNL A   1      32.740  18.432  24.439  1.00  0.00     0.086 A 
ATOM     19  C   UNL A   1      32.462  20.398  23.495  1.00  0.00     0.138 A 
ATOM     20  C   UNL A   1      33.052  17.288  25.327  1.00  0.00     0.071 C 
ATOM     21  N   UNL A   1      32.223  18.192  23.228  1.00  0.00    -0.085 NA
ATOM     22  O   UNL A   1      32.044  19.428  22.644  1.00  0.00    -0.361 OA
ATOM     23  C   UNL A   1      32.356  21.786  23.009  1.00  0.00     0.091 C 
ENDBRANCH  16  17
ENDBRANCH  14  16
ENDBRANCH   9  10
ENDBRANCH   6   9
ENDBRANCH   4   6
ENDBRANCH   3   4
ENDBRANCH   2   3
ENDBRANCH   1   2
BRANCH   1  24
ATOM     24  O   UNL A   1      40.221  21.214  25.850  1.00  0.00    -0.374 OA
BRANCH  24  25
ATOM     25  C   UNL A   1      40.540  19.989  26.505  1.00  0.00     0.202 C 
BRANCH  25  26
ATOM     26  C   UNL A   1      41.912  19.366  26.214  1.00  0.00     0.261 C 
BRANCH  26  27
ATOM     27  O   UNL A   1      42.502  19.845  24.993  1.00  0.00    -0.460 OA
BRANCH  27  28
ATOM     28  C   UNL A   1      43.858  19.790  24.971  1.00  0.00     0.338 C 
ATOM     29  O   UNL A   1      44.546  18.810  24.719  1.00  0.00    -0.246 OA
BRANCH  28  30
ATOM     30  C   UNL A   1      44.445  21.132  25.130  1.00  0.00     0.060 A 
ATOM     31  C   UNL A   1      45.081  21.412  26.347  1.00  0.00     0.016 A 
ATOM     32  C   UNL A   1      44.279  22.134  24.171  1.00  0.00     0.016 A 
ATOM     33  C   UNL A   1      45.498  22.709  26.636  1.00  0.00     0.010 A 
ATOM     34  C   UNL A   1      44.692  23.439  24.466  1.00  0.00     0.010 A 
ATOM     35  C   UNL A   1      45.265  23.740  25.716  1.00  0.00    -0.014 A 
BRANCH  35  36
ATOM     36  C   UNL A   1      45.481  25.147  26.137  1.00  0.00     0.031 A 
ATOM     37  C   UNL A   1      46.864  25.735  26.040  1.00  0.00     0.074 A 
ATOM     38  C   UNL A   1      44.452  25.907  26.551  1.00  0.00     0.049 A 
ATOM     39  N   UNL A   1      47.280  26.933  26.354  1.00  0.00    -0.248 NA
ATOM     40  C   UNL A   1      47.918  24.850  25.516  1.00  0.00     0.031 C 
ATOM     41  C   UNL A   1      43.063  25.464  26.653  1.00  0.00     0.029 A 
ATOM     42  N   UNL A   1      44.420  27.216  26.966  1.00  0.00    -0.354 N 
ATOM     43  C   UNL A   1      48.640  26.951  26.069  1.00  0.00     0.074 A 
ATOM     44  C   UNL A   1      48.986  25.631  25.585  1.00  0.00     0.031 C 
ATOM     45  C   UNL A   1      42.314  26.481  27.112  1.00  0.00     0.029 A 
ATOM     46  C   UNL A   1      43.174  27.638  27.361  1.00  0.00     0.049 A 
ATOM     47  H   UNL A   1      45.215  27.796  26.978  1.00  0.00     0.167 HD
ATOM     48  C   UNL A   1      49.519  27.974  26.189  1.00  0.00     0.037 A 
ATOM     49  C   UNL A   1      42.776  28.815  27.881  1.00  0.00     0.037 A 
ATOM     50  C   UNL A   1      49.173  29.285  26.672  1.00  0.00     0.049 A 
ATOM     51  C   UNL A   1      43.782  29.922  28.060  1.00  0.00     0.074 A 
ATOM     52  C   UNL A   1      49.991  30.392  26.824  1.00  0.00     0.029 A 
ATOM     53  N   UNL A   1      47.905  29.666  27.087  1.00  0.00    -0.354 N 
ATOM     54  N   UNL A   1      45.062  29.929  27.772  1.00  0.00    -0.248 NA
ATOM     55  C   UNL A   1      43.290  31.185  28.632  1.00  0.00     0.031 C 
ATOM     56  C   UNL A   1      49.226  31.430  27.368  1.00  0.00     0.029 A 
ATOM     57  C   UNL A   1      47.922  30.984  27.512  1.00  0.00     0.049 A 
ATOM     58  H   UNL A   1      47.111  29.086  27.079  1.00  0.00     0.167 HD
ATOM     59  C   UNL A   1      45.522  31.198  28.107  1.00  0.00     0.074 A 
ATOM     60  C   UNL A   1      44.382  31.936  28.609  1.00  0.00     0.031 C 
ATOM     61  C   UNL A   1      46.776  31.708  28.007  1.00  0.00     0.037 A 
BRANCH  48  62
ATOM     62  C   UNL A   1      50.950  27.707  25.811  1.00  0.00     0.058 A 
ATOM     63  C   UNL A   1      51.892  27.267  26.754  1.00  0.00     0.135 A 
ATOM     64  C   UNL A   1      51.381  27.874  24.485  1.00  0.00     0.135 A 
ATOM     65  F   UNL A   1      51.537  27.108  28.040  1.00  0.00    -0.206 F 
ATOM     66  C   UNL A   1      53.216  27.027  26.403  1.00  0.00     0.059 A 
ATOM     67  C   UNL A   1      52.694  27.617  24.105  1.00  0.00     0.059 A 
ATOM     68  F   UNL A   1      50.521  28.295  23.543  1.00  0.00    -0.206 F 
ATOM     69  C   UNL A   1      53.609  27.210  25.075  1.00  0.00     0.060 A 
BRANCH  69  70
ATOM     70  S   UNL A   1      55.333  26.902  24.633  1.00  0.00     0.124 S 
ATOM     71  O   UNL A   1      56.035  27.737  25.602  1.00  0.00    -0.237 OA
ATOM     72  O   UNL A   1      55.455  25.461  24.833  1.00  0.00    -0.237 OA
ATOM     73  O   UNL A   1      55.412  27.348  23.245  1.00  0.00    -0.744 OA
ENDBRANCH  69  70
ENDBRANCH  48  62
BRANCH  49  74
ATOM     74  C   UNL A   1      41.357  29.004  28.281  1.00  0.00     0.058 A 
ATOM     75  C   UNL A   1      40.973  29.009  29.629  1.00  0.00     0.135 A 
ATOM     76  C   UNL A   1      40.355  29.194  27.316  1.00  0.00     0.135 A 
ATOM     77  F   UNL A   1      41.894  28.818  30.588  1.00  0.00    -0.206 F 
ATOM     78  C   UNL A   1      39.647  29.185  30.008  1.00  0.00     0.059 A 
ATOM     79  C   UNL A   1      39.026  29.397  27.670  1.00  0.00     0.059 A 
ATOM     80  F   UNL A   1      40.672  29.205  26.010  1.00  0.00    -0.206 F 
ATOM     81  C   UNL A   1      38.680  29.382  29.021  1.00  0.00     0.060 A 
BRANCH  81  82
ATOM     82  S   UNL A   1      36.968  29.662  29.526  1.00  0.00     0.124 S 
ATOM     83  O   UNL A   1      36.879  28.844  30.730  1.00  0.00    -0.237 OA
ATOM     84  O   UNL A   1      36.942  31.107  29.733  1.00  0.00    -0.237 OA
ATOM     85  O   UNL A   1      36.198  29.187  28.381  1.00  0.00    -0.744 OA
ENDBRANCH  81  82
ENDBRANCH  49  74
BRANCH  61  86
ATOM     86  C   UNL A   1      46.979  33.139  28.421  1.00  0.00     0.058 A 
ATOM     87  C   UNL A   1      46.805  34.199  27.519  1.00  0.00     0.135 A 
ATOM     88  C   UNL A   1      47.297  33.455  29.752  1.00  0.00     0.135 A 
ATOM     89  F   UNL A   1      46.504  33.951  26.235  1.00  0.00    -0.206 F 
ATOM     90  C   UNL A   1      46.959  35.523  27.917  1.00  0.00     0.059 A 
ATOM     91  C   UNL A   1      47.434  34.772  30.177  1.00  0.00     0.059 A 
ATOM     92  F   UNL A   1      47.464  32.478  30.658  1.00  0.00    -0.206 F 
ATOM     93  C   UNL A   1      47.273  35.801  29.249  1.00  0.00     0.060 A 
BRANCH  93  94
ATOM     94  S   UNL A   1      47.437  37.524  29.763  1.00  0.00     0.124 S 
ATOM     95  O   UNL A   1      47.570  38.202  28.478  1.00  0.00    -0.237 OA
ATOM     96  O   UNL A   1      46.186  37.759  30.477  1.00  0.00    -0.237 OA
ATOM     97  O   UNL A   1      48.635  37.517  30.597  1.00  0.00    -0.744 OA
ENDBRANCH  93  94
ENDBRANCH  61  86
ENDBRANCH  35  36
ENDBRANCH  28  30
ENDBRANCH  27  28
ENDBRANCH  26  27
ENDBRANCH  25  26
ENDBRANCH  24  25
ENDBRANCH   1  24
TORSDOF 22
ENDMDL
MODEL 2
REMARK VINA RESULT:      -8.9      6.274     16.917
REMARK SMILES CC[C@@H](CNC(=O)NCc1c(C)noc1C)C(=O)OCCOCCOC(=O)c1ccc(-c2c3nc(c(-c4c(F)cc(S(=O)(=O)[O-])cc4F)c4ccc([nH]4)c(-c4c(F)cc(S(=O)(=O)[O-])cc4F)c4nc(c(-c5c(F)cc(S(=O)(=O)[O-])cc5F)c5ccc2[nH]5)C=C4)C=C3)cc1
REMARK SMILES IDX 21 1 20 2 19 3 17 4 18 5 3 6 2 7 1 8 4 9 5 10 6 11 7 13 8 14
REMARK SMILES IDX 9 16 10 17 11 18 15 19 12 20 13 21 14 22 16 23 22 24 23 25
REMARK SMILES IDX 24 26 25 27 26 28 27 29 28 30 29 31 93 32 30 33 92 34 31 35
REMARK SMILES IDX 32 36 33 37 86 38 34 39 91 40 85 41 87 42 35 43 90 44 84 45
REMARK SMILES IDX 83 46 36 48 70 49 49 50 69 51 50 52 53 53 68 54 88 55 51 56
REMARK SMILES IDX 52 57 67 59 89 60 54 61 37 62 38 63 47 64 39 65 40 66 46 67
REMARK SMILES IDX 48 68 41 69 42 70 43 71 44 72 45 73 71 74 72 75 81 76 73 77
REMARK SMILES IDX 74 78 80 79 82 80 75 81 76 82 77 83 78 84 79 85 55 86 56 87
REMARK SMILES IDX 65 88 57 89 58 90 64 91 66 92 59 93 60 94 61 95 62 96 63 97
REMARK H PARENT 5 12 8 15 87 47 53 58
REMARK Flexibility Score: inf
ROOT
ATOM      1  C   UNL A   1      46.622  40.780  24.626  1.00  0.00     0.202 C 
ENDROOT
BRANCH   1   2
ATOM      2  C   UNL A   1      45.826  42.069  24.846  1.00  0.00     0.261 C 
BRANCH   2   3
ATOM      3  O   UNL A   1      45.857  42.938  23.702  1.00  0.00    -0.463 OA
BRANCH   3   4
ATOM      4  C   UNL A   1      46.792  43.922  23.726  1.00  0.00     0.310 C 
ATOM      5  O   UNL A   1      47.205  44.480  24.737  1.00  0.00    -0.252 OA
BRANCH   4   6
ATOM      6  C   UNL A   1      47.276  44.307  22.342  1.00  0.00     0.118 C 
BRANCH   6   7
ATOM      7  C   UNL A   1      48.394  43.406  21.792  1.00  0.00     0.014 C 
ATOM      8  C   UNL A   1      47.845  42.176  21.078  1.00  0.00     0.005 C 
ENDBRANCH   6   7
BRANCH   6   9
ATOM      9  C   UNL A   1      46.085  44.465  21.400  1.00  0.00     0.133 C 
BRANCH   9  10
ATOM     10  N   UNL A   1      45.914  45.796  20.866  1.00  0.00    -0.337 N 
ATOM     11  C   UNL A   1      45.181  46.329  19.886  1.00  0.00     0.315 C 
ATOM     12  H   UNL A   1      46.466  46.464  21.333  1.00  0.00     0.165 HD
ATOM     13  O   UNL A   1      45.279  47.543  19.707  1.00  0.00    -0.249 OA
ATOM     14  N   UNL A   1      44.360  45.652  19.084  1.00  0.00    -0.334 N 
ATOM     15  H   UNL A   1      43.871  46.252  18.476  1.00  0.00     0.165 HD
BRANCH  14  16
ATOM     16  C   UNL A   1      43.996  44.269  18.871  1.00  0.00     0.159 C 
BRANCH  16  17
ATOM     17  C   UNL A   1      42.522  44.123  18.955  1.00  0.00     0.037 A 
ATOM     18  C   UNL A   1      41.506  44.711  18.147  1.00  0.00     0.086 A 
ATOM     19  C   UNL A   1      41.806  43.401  19.889  1.00  0.00     0.138 A 
ATOM     20  C   UNL A   1      41.638  45.606  16.976  1.00  0.00     0.071 C 
ATOM     21  N   UNL A   1      40.283  44.373  18.573  1.00  0.00    -0.085 NA
ATOM     22  O   UNL A   1      40.477  43.547  19.659  1.00  0.00    -0.361 OA
ATOM     23  C   UNL A   1      42.184  42.557  21.037  1.00  0.00     0.091 C 
ENDBRANCH  16  17
ENDBRANCH  14  16
ENDBRANCH   9  10
ENDBRANCH   6   9
ENDBRANCH   4   6
ENDBRANCH   3   4
ENDBRANCH   2   3
ENDBRANCH   1   2
BRANCH   1  24
ATOM     24  O   UNL A   1      46.577  39.805  25.665  1.00  0.00    -0.374 OA
BRANCH  24  25
ATOM     25  C   UNL A   1      47.606  39.831  26.651  1.00  0.00     0.202 C 
BRANCH  25  26
ATOM     26  C   UNL A   1      47.335  39.112  27.979  1.00  0.00     0.261 C 
BRANCH  26  27
ATOM     27  O   UNL A   1      47.052  37.710  27.814  1.00  0.00    -0.460 OA
BRANCH  27  28
ATOM     28  C   UNL A   1      46.844  37.045  28.978  1.00  0.00     0.338 C 
ATOM     29  O   UNL A   1      46.545  37.535  30.059  1.00  0.00    -0.246 OA
BRANCH  28  30
ATOM     30  C   UNL A   1      46.858  35.586  28.763  1.00  0.00     0.060 A 
ATOM     31  C   UNL A   1      46.486  35.123  27.495  1.00  0.00     0.016 A 
ATOM     32  C   UNL A   1      47.109  34.686  29.801  1.00  0.00     0.016 A 
ATOM     33  C   UNL A   1      46.302  33.760  27.274  1.00  0.00     0.010 A 
ATOM     34  C   UNL A   1      46.917  33.317  29.580  1.00  0.00     0.010 A 
ATOM     35  C   UNL A   1      46.472  32.852  28.328  1.00  0.00    -0.014 A 
BRANCH  35  36
ATOM     36  C   UNL A   1      46.031  31.446  28.149  1.00  0.00     0.031 A 
ATOM     37  C   UNL A   1      44.608  31.079  28.483  1.00  0.00     0.074 A 
ATOM     38  C   UNL A   1      46.866  30.520  27.647  1.00  0.00     0.049 A 
ATOM     39  N   UNL A   1      44.012  29.918  28.407  1.00  0.00    -0.248 NA
ATOM     40  C   UNL A   1      43.745  32.169  28.965  1.00  0.00     0.031 C 
ATOM     41  C   UNL A   1      48.253  30.761  27.252  1.00  0.00     0.029 A 
ATOM     42  N   UNL A   1      46.668  29.187  27.387  1.00  0.00    -0.354 N 
ATOM     43  C   UNL A   1      42.706  30.134  28.832  1.00  0.00     0.074 A 
ATOM     44  C   UNL A   1      42.605  31.531  29.194  1.00  0.00     0.031 C 
ATOM     45  C   UNL A   1      48.786  29.610  26.808  1.00  0.00     0.029 A 
ATOM     46  C   UNL A   1      47.787  28.547  26.912  1.00  0.00     0.049 A 
ATOM     47  H   UNL A   1      45.807  28.734  27.527  1.00  0.00     0.167 HD
ATOM     48  C   UNL A   1      41.681  29.251  28.903  1.00  0.00     0.037 A 
ATOM     49  C   UNL A   1      47.988  27.248  26.614  1.00  0.00     0.037 A 
ATOM     50  C   UNL A   1      41.784  27.861  28.544  1.00  0.00     0.049 A 
ATOM     51  C   UNL A   1      46.851  26.272  26.755  1.00  0.00     0.074 A 
ATOM     52  C   UNL A   1      40.800  26.887  28.575  1.00  0.00     0.029 A 
ATOM     53  N   UNL A   1      42.941  27.244  28.091  1.00  0.00    -0.354 N 
ATOM     54  N   UNL A   1      45.616  26.493  27.144  1.00  0.00    -0.248 NA
ATOM     55  C   UNL A   1      47.129  24.868  26.416  1.00  0.00     0.031 C 
ATOM     56  C   UNL A   1      41.373  25.674  28.180  1.00  0.00     0.029 A 
ATOM     57  C   UNL A   1      42.702  25.900  27.858  1.00  0.00     0.049 A 
ATOM     58  H   UNL A   1      43.805  27.696  27.955  1.00  0.00     0.167 HD
ATOM     59  C   UNL A   1      44.968  25.264  27.075  1.00  0.00     0.074 A 
ATOM     60  C   UNL A   1      45.942  24.305  26.597  1.00  0.00     0.031 C 
ATOM     61  C   UNL A   1      43.682  24.957  27.378  1.00  0.00     0.037 A 
BRANCH  48  62
ATOM     62  C   UNL A   1      40.361  29.761  29.413  1.00  0.00     0.058 A 
ATOM     63  C   UNL A   1      39.271  29.972  28.554  1.00  0.00     0.135 A 
ATOM     64  C   UNL A   1      40.177  30.023  30.779  1.00  0.00     0.135 A 
ATOM     65  F   UNL A   1      39.398  29.754  27.234  1.00  0.00    -0.206 F 
ATOM     66  C   UNL A   1      38.054  30.450  29.027  1.00  0.00     0.059 A 
ATOM     67  C   UNL A   1      38.961  30.479  31.280  1.00  0.00     0.059 A 
ATOM     68  F   UNL A   1      41.188  29.840  31.645  1.00  0.00    -0.206 F 
ATOM     69  C   UNL A   1      37.910  30.705  30.393  1.00  0.00     0.060 A 
BRANCH  69  70
ATOM     70  S   UNL A   1      36.327  31.332  30.994  1.00  0.00     0.124 S 
ATOM     71  O   UNL A   1      35.525  31.313  29.774  1.00  0.00    -0.237 OA
ATOM     72  O   UNL A   1      35.963  30.345  32.006  1.00  0.00    -0.237 OA
ATOM     73  O   UNL A   1      36.659  32.657  31.507  1.00  0.00    -0.744 OA
ENDBRANCH  69  70
ENDBRANCH  48  62
BRANCH  49  74
ATOM     74  C   UNL A   1      49.329  26.794  26.160  1.00  0.00     0.058 A 
ATOM     75  C   UNL A   1      49.729  26.923  24.823  1.00  0.00     0.135 A 
ATOM     76  C   UNL A   1      50.242  26.227  27.063  1.00  0.00     0.135 A 
ATOM     77  F   UNL A   1      48.886  27.448  23.919  1.00  0.00    -0.206 F 
ATOM     78  C   UNL A   1      50.982  26.499  24.393  1.00  0.00     0.059 A 
ATOM     79  C   UNL A   1      51.510  25.817  26.663  1.00  0.00     0.059 A 
ATOM     80  F   UNL A   1      49.910  26.086  28.357  1.00  0.00    -0.206 F 
ATOM     81  C   UNL A   1      51.868  25.950  25.322  1.00  0.00     0.060 A 
BRANCH  81  82
ATOM     82  S   UNL A   1      53.512  25.451  24.764  1.00  0.00     0.124 S 
ATOM     83  O   UNL A   1      53.443  25.753  23.340  1.00  0.00    -0.237 OA
ATOM     84  O   UNL A   1      54.381  26.313  25.559  1.00  0.00    -0.237 OA
ATOM     85  O   UNL A   1      53.566  24.033  25.108  1.00  0.00    -0.744 OA
ENDBRANCH  81  82
ENDBRANCH  49  74
BRANCH  61  86
ATOM     86  C   UNL A   1      43.242  23.533  27.177  1.00  0.00     0.058 A 
ATOM     87  C   UNL A   1      42.903  23.039  25.909  1.00  0.00     0.135 A 
ATOM     88  C   UNL A   1      43.213  22.639  28.260  1.00  0.00     0.135 A 
ATOM     89  F   UNL A   1      42.910  23.853  24.842  1.00  0.00    -0.206 F 
ATOM     90  C   UNL A   1      42.530  21.711  25.723  1.00  0.00     0.059 A 
ATOM     91  C   UNL A   1      42.867  21.302  28.093  1.00  0.00     0.059 A 
ATOM     92  F   UNL A   1      43.540  23.059  29.493  1.00  0.00    -0.206 F 
ATOM     93  C   UNL A   1      42.516  20.849  26.821  1.00  0.00     0.060 A 
BRANCH  93  94
ATOM     94  S   UNL A   1      42.065  19.120  26.563  1.00  0.00     0.124 S 
ATOM     95  O   UNL A   1      40.897  19.247  25.698  1.00  0.00    -0.237 OA
ATOM     96  O   UNL A   1      43.263  18.573  25.934  1.00  0.00    -0.237 OA
ATOM     97  O   UNL A   1      41.797  18.634  27.913  1.00  0.00    -0.744 OA
ENDBRANCH  93  94
ENDBRANCH  61  86
ENDBRANCH  35  36
ENDBRANCH  28  30
ENDBRANCH  27  28
ENDBRANCH  26  27
ENDBRANCH  25  26
ENDBRANCH  24  25
ENDBRANCH   1  24
TORSDOF 22
ENDMDL
MODEL 3
REMARK VINA RESULT:      -8.7      6.246     14.789
REMARK SMILES CC[C@@H](CNC(=O)NCc1c(C)noc1C)C(=O)OCCOCCOC(=O)c1ccc(-c2c3nc(c(-c4c(F)cc(S(=O)(=O)[O-])cc4F)c4ccc([nH]4)c(-c4c(F)cc(S(=O)(=O)[O-])cc4F)c4nc(c(-c5c(F)cc(S(=O)(=O)[O-])cc5F)c5ccc2[nH]5)C=C4)C=C3)cc1
REMARK SMILES IDX 21 1 20 2 19 3 17 4 18 5 3 6 2 7 1 8 4 9 5 10 6 11 7 13 8 14
REMARK SMILES IDX 9 16 10 17 11 18 15 19 12 20 13 21 14 22 16 23 22 24 23 25
REMARK SMILES IDX 24 26 25 27 26 28 27 29 28 30 29 31 93 32 30 33 92 34 31 35
REMARK SMILES IDX 32 36 33 37 86 38 34 39 91 40 85 41 87 42 35 43 90 44 84 45
REMARK SMILES IDX 83 46 36 48 70 49 49 50 69 51 50 52 53 53 68 54 88 55 51 56
REMARK SMILES IDX 52 57 67 59 89 60 54 61 37 62 38 63 47 64 39 65 40 66 46 67
REMARK SMILES IDX 48 68 41 69 42 70 43 71 44 72 45 73 71 74 72 75 81 76 73 77
REMARK SMILES IDX 74 78 80 79 82 80 75 81 76 82 77 83 78 84 79 85 55 86 56 87
REMARK SMILES IDX 65 88 57 89 58 90 64 91 66 92 59 93 60 94 61 95 62 96 63 97
REMARK H PARENT 5 12 8 15 87 47 53 58
REMARK Flexibility Score: inf
ROOT
ATOM      1  C   UNL A   1      46.665  40.675  25.324  1.00  0.00     0.202 C 
ENDROOT
BRANCH   1   2
ATOM      2  C   UNL A   1      46.293  41.607  24.168  1.00  0.00     0.261 C 
BRANCH   2   3
ATOM      3  O   UNL A   1      47.418  42.358  23.682  1.00  0.00    -0.463 OA
BRANCH   3   4
ATOM      4  C   UNL A   1      47.211  43.078  22.549  1.00  0.00     0.310 C 
ATOM      5  O   UNL A   1      47.756  42.870  21.470  1.00  0.00    -0.252 OA
BRANCH   4   6
ATOM      6  C   UNL A   1      46.236  44.220  22.750  1.00  0.00     0.118 C 
BRANCH   6   7
ATOM      7  C   UNL A   1      46.892  45.541  23.183  1.00  0.00     0.014 C 
ATOM      8  C   UNL A   1      48.412  45.435  23.250  1.00  0.00     0.005 C 
ENDBRANCH   6   7
BRANCH   6   9
ATOM      9  C   UNL A   1      45.328  44.349  21.529  1.00  0.00     0.133 C 
BRANCH   9  10
ATOM     10  N   UNL A   1      45.489  45.579  20.788  1.00  0.00    -0.337 N 
ATOM     11  C   UNL A   1      45.127  45.999  19.573  1.00  0.00     0.315 C 
ATOM     12  H   UNL A   1      45.979  46.265  21.296  1.00  0.00     0.165 HD
ATOM     13  O   UNL A   1      45.432  47.151  19.263  1.00  0.00    -0.249 OA
ATOM     14  N   UNL A   1      44.469  45.272  18.672  1.00  0.00    -0.334 N 
ATOM     15  H   UNL A   1      44.249  45.800  17.871  1.00  0.00     0.165 HD
BRANCH  14  16
ATOM     16  C   UNL A   1      43.994  43.910  18.557  1.00  0.00     0.159 C 
BRANCH  16  17
ATOM     17  C   UNL A   1      42.529  43.875  18.787  1.00  0.00     0.037 A 
ATOM     18  C   UNL A   1      41.475  44.428  18.004  1.00  0.00     0.086 A 
ATOM     19  C   UNL A   1      41.865  43.319  19.862  1.00  0.00     0.138 A 
ATOM     20  C   UNL A   1      41.546  45.167  16.723  1.00  0.00     0.071 C 
ATOM     21  N   UNL A   1      40.281  44.226  18.572  1.00  0.00    -0.085 NA
ATOM     22  O   UNL A   1      40.531  43.524  19.733  1.00  0.00    -0.361 OA
ATOM     23  C   UNL A   1      42.302  42.594  21.070  1.00  0.00     0.091 C 
ENDBRANCH  16  17
ENDBRANCH  14  16
ENDBRANCH   9  10
ENDBRANCH   6   9
ENDBRANCH   4   6
ENDBRANCH   3   4
ENDBRANCH   2   3
ENDBRANCH   1   2
BRANCH   1  24
ATOM     24  O   UNL A   1      45.798  40.669  26.457  1.00  0.00    -0.374 OA
BRANCH  24  25
ATOM     25  C   UNL A   1      46.085  39.756  27.513  1.00  0.00     0.202 C 
BRANCH  25  26
ATOM     26  C   UNL A   1      45.885  38.261  27.231  1.00  0.00     0.261 C 
BRANCH  26  27
ATOM     27  O   UNL A   1      45.943  37.450  28.418  1.00  0.00    -0.460 OA
BRANCH  27  28
ATOM     28  C   UNL A   1      47.159  36.900  28.657  1.00  0.00     0.338 C 
ATOM     29  O   UNL A   1      48.152  37.476  29.082  1.00  0.00    -0.246 OA
BRANCH  28  30
ATOM     30  C   UNL A   1      47.119  35.436  28.499  1.00  0.00     0.060 A 
ATOM     31  C   UNL A   1      46.916  34.937  27.205  1.00  0.00     0.016 A 
ATOM     32  C   UNL A   1      47.157  34.569  29.594  1.00  0.00     0.016 A 
ATOM     33  C   UNL A   1      46.688  33.578  27.007  1.00  0.00     0.010 A 
ATOM     34  C   UNL A   1      46.920  33.204  29.394  1.00  0.00     0.010 A 
ATOM     35  C   UNL A   1      46.643  32.709  28.106  1.00  0.00    -0.014 A 
BRANCH  35  36
ATOM     36  C   UNL A   1      46.151  31.322  27.910  1.00  0.00     0.031 A 
ATOM     37  C   UNL A   1      47.121  30.259  27.463  1.00  0.00     0.074 A 
ATOM     38  C   UNL A   1      44.873  31.000  28.177  1.00  0.00     0.049 A 
ATOM     39  N   UNL A   1      46.910  28.991  27.228  1.00  0.00    -0.248 NA
ATOM     40  C   UNL A   1      48.514  30.687  27.257  1.00  0.00     0.031 C 
ATOM     41  C   UNL A   1      43.849  31.931  28.649  1.00  0.00     0.029 A 
ATOM     42  N   UNL A   1      44.218  29.798  28.083  1.00  0.00    -0.354 N 
ATOM     43  C   UNL A   1      48.139  28.467  26.845  1.00  0.00     0.074 A 
ATOM     44  C   UNL A   1      49.085  29.562  26.850  1.00  0.00     0.031 C 
ATOM     45  C   UNL A   1      42.691  31.267  28.796  1.00  0.00     0.029 A 
ATOM     46  C   UNL A   1      42.884  29.871  28.402  1.00  0.00     0.049 A 
ATOM     47  H   UNL A   1      44.662  28.962  27.814  1.00  0.00     0.167 HD
ATOM     48  C   UNL A   1      48.455  27.188  26.528  1.00  0.00     0.037 A 
ATOM     49  C   UNL A   1      41.924  28.927  28.363  1.00  0.00     0.037 A 
ATOM     50  C   UNL A   1      47.512  26.101  26.523  1.00  0.00     0.049 A 
ATOM     51  C   UNL A   1      42.284  27.523  27.952  1.00  0.00     0.074 A 
ATOM     52  C   UNL A   1      47.735  24.767  26.223  1.00  0.00     0.029 A 
ATOM     53  N   UNL A   1      46.164  26.220  26.827  1.00  0.00    -0.354 N 
ATOM     54  N   UNL A   1      43.454  27.038  27.607  1.00  0.00    -0.248 NA
ATOM     55  C   UNL A   1      41.196  26.534  27.928  1.00  0.00     0.031 C 
ATOM     56  C   UNL A   1      46.515  24.089  26.307  1.00  0.00     0.029 A 
ATOM     57  C   UNL A   1      45.539  24.990  26.703  1.00  0.00     0.049 A 
ATOM     58  H   UNL A   1      45.717  27.056  27.092  1.00  0.00     0.167 HD
ATOM     59  C   UNL A   1      43.246  25.688  27.346  1.00  0.00     0.074 A 
ATOM     60  C   UNL A   1      41.842  25.429  27.584  1.00  0.00     0.031 C 
ATOM     61  C   UNL A   1      44.138  24.747  26.948  1.00  0.00     0.037 A 
BRANCH  48  62
ATOM     62  C   UNL A   1      49.879  26.901  26.138  1.00  0.00     0.058 A 
ATOM     63  C   UNL A   1      50.337  27.094  24.826  1.00  0.00     0.135 A 
ATOM     64  C   UNL A   1      50.802  26.447  27.093  1.00  0.00     0.135 A 
ATOM     65  F   UNL A   1      49.491  27.511  23.869  1.00  0.00    -0.206 F 
ATOM     66  C   UNL A   1      51.653  26.822  24.467  1.00  0.00     0.059 A 
ATOM     67  C   UNL A   1      52.129  26.191  26.764  1.00  0.00     0.059 A 
ATOM     68  F   UNL A   1      50.416  26.244  28.364  1.00  0.00    -0.206 F 
ATOM     69  C   UNL A   1      52.541  26.366  25.443  1.00  0.00     0.060 A 
BRANCH  69  70
ATOM     70  S   UNL A   1      54.245  26.009  24.963  1.00  0.00     0.124 S 
ATOM     71  O   UNL A   1      54.150  26.043  23.507  1.00  0.00    -0.237 OA
ATOM     72  O   UNL A   1      54.980  27.111  25.576  1.00  0.00    -0.237 OA
ATOM     73  O   UNL A   1      54.494  24.694  25.546  1.00  0.00    -0.744 OA
ENDBRANCH  69  70
ENDBRANCH  48  62
BRANCH  49  74
ATOM     74  C   UNL A   1      40.523  29.281  28.713  1.00  0.00     0.058 A 
ATOM     75  C   UNL A   1      40.120  29.424  30.048  1.00  0.00     0.135 A 
ATOM     76  C   UNL A   1      39.561  29.493  27.713  1.00  0.00     0.135 A 
ATOM     77  F   UNL A   1      41.001  29.219  31.040  1.00  0.00    -0.206 F 
ATOM     78  C   UNL A   1      38.811  29.755  30.381  1.00  0.00     0.059 A 
ATOM     79  C   UNL A   1      38.252  29.848  28.020  1.00  0.00     0.059 A 
ATOM     80  F   UNL A   1      39.899  29.374  26.419  1.00  0.00    -0.206 F 
ATOM     81  C   UNL A   1      37.884  29.969  29.359  1.00  0.00     0.060 A 
BRANCH  81  82
ATOM     82  S   UNL A   1      36.200  30.449  29.801  1.00  0.00     0.124 S 
ATOM     83  O   UNL A   1      36.301  31.904  29.807  1.00  0.00    -0.237 OA
ATOM     84  O   UNL A   1      35.419  29.868  28.713  1.00  0.00    -0.237 OA
ATOM     85  O   UNL A   1      36.003  29.824  31.105  1.00  0.00    -0.744 OA
ENDBRANCH  81  82
ENDBRANCH  49  74
BRANCH  61  86
ATOM     86  C   UNL A   1      43.632  23.342  26.769  1.00  0.00     0.058 A 
ATOM     87  C   UNL A   1      43.419  22.792  25.496  1.00  0.00     0.135 A 
ATOM     88  C   UNL A   1      43.412  22.518  27.885  1.00  0.00     0.135 A 
ATOM     89  F   UNL A   1      43.610  23.538  24.396  1.00  0.00    -0.206 F 
ATOM     90  C   UNL A   1      42.984  21.480  25.335  1.00  0.00     0.059 A 
ATOM     91  C   UNL A   1      43.001  21.196  27.747  1.00  0.00     0.059 A 
ATOM     92  F   UNL A   1      43.613  22.992  29.125  1.00  0.00    -0.206 F 
ATOM     93  C   UNL A   1      42.778  20.689  26.467  1.00  0.00     0.060 A 
BRANCH  93  94
ATOM     94  S   UNL A   1      42.248  18.977  26.246  1.00  0.00     0.124 S 
ATOM     95  O   UNL A   1      40.869  19.152  25.805  1.00  0.00    -0.237 OA
ATOM     96  O   UNL A   1      43.180  18.488  25.234  1.00  0.00    -0.237 OA
ATOM     97  O   UNL A   1      42.415  18.396  27.575  1.00  0.00    -0.744 OA
ENDBRANCH  93  94
ENDBRANCH  61  86
ENDBRANCH  35  36
ENDBRANCH  28  30
ENDBRANCH  27  28
ENDBRANCH  26  27
ENDBRANCH  25  26
ENDBRANCH  24  25
ENDBRANCH   1  24
TORSDOF 22
ENDMDL
