MODEL 1
REMARK VINA RESULT:     -10.3      0.000      0.000
REMARK SMILES Cc1c(N)cccc1SCc1cc(C(=O)OCCOCCOC(=O)c2ccc(-c3c4nc(c(-c5c(F)cc(S(=O)(=O)[O-])cc5F)c5ccc([nH]5)c(-c5c(F)cc(S(=O)(=O)[O-])cc5F)c5nc(c(-c6c(F)cc(S(=O)(=O)[O-])cc6F)c6ccc3[nH]6)C=C5)C=C4)cc2)no1
REMARK SMILES IDX 18 1 17 2 16 3 14 4 15 5 13 6 11 7 12 8 92 9 91 10 10 11
REMARK SMILES IDX 9 12 8 13 1 14 2 15 3 16 5 17 7 18 6 19 4 20 19 23 20 24
REMARK SMILES IDX 21 25 22 26 23 27 24 28 25 29 26 30 90 31 27 32 89 33 28 34
REMARK SMILES IDX 29 35 30 36 83 37 31 38 88 39 82 40 84 41 32 42 87 43 81 44
REMARK SMILES IDX 80 45 33 47 67 48 46 49 66 50 47 51 50 52 65 53 85 54 48 55
REMARK SMILES IDX 49 56 64 58 86 59 51 60 34 61 35 62 44 63 36 64 37 65 43 66
REMARK SMILES IDX 45 67 38 68 39 69 40 70 41 71 42 72 68 73 69 74 78 75 70 76
REMARK SMILES IDX 71 77 77 78 79 79 72 80 73 81 74 82 75 83 76 84 52 85 53 86
REMARK SMILES IDX 62 87 54 88 55 89 61 90 63 91 56 92 57 93 58 94 59 95 60 96
REMARK H PARENT 4 21 4 22 84 46 50 57
REMARK Flexibility Score: inf
ROOT
ATOM      1  C   UNL A   1      34.361  34.272  31.013  1.00  0.00     0.202 C 
ENDROOT
BRANCH   1   2
ATOM      2  C   UNL A   1      34.800  34.462  29.559  1.00  0.00     0.261 C 
BRANCH   2   3
ATOM      3  O   UNL A   1      34.541  33.259  28.816  1.00  0.00    -0.458 OA
BRANCH   3   4
ATOM      4  C   UNL A   1      33.363  33.213  28.125  1.00  0.00     0.360 C 
ATOM      5  O   UNL A   1      32.623  34.174  27.946  1.00  0.00    -0.244 OA
BRANCH   4   6
ATOM      6  C   UNL A   1      33.153  31.893  27.532  1.00  0.00     0.191 A 
ATOM      7  C   UNL A   1      33.468  29.896  26.612  1.00  0.00     0.147 A 
ATOM      8  C   UNL A   1      34.076  30.815  27.435  1.00  0.00     0.085 A 
ATOM      9  O   UNL A   1      32.219  30.355  26.311  1.00  0.00    -0.360 OA
ATOM     10  N   UNL A   1      32.015  31.588  26.888  1.00  0.00    -0.072 NA
BRANCH   7  11
ATOM     11  C   UNL A   1      33.829  28.640  25.914  1.00  0.00     0.153 C 
BRANCH  11  12
ATOM     12  S   UNL A   1      32.807  27.161  26.156  1.00  0.00    -0.118 SA
BRANCH  12  13
ATOM     13  C   UNL A   1      31.490  27.233  24.936  1.00  0.00     0.013 A 
ATOM     14  C   UNL A   1      29.924  25.494  25.971  1.00  0.00     0.048 C 
ATOM     15  C   UNL A   1      30.262  26.532  24.934  1.00  0.00    -0.015 A 
ATOM     16  C   UNL A   1      29.312  26.817  23.920  1.00  0.00     0.035 A 
ATOM     17  C   UNL A   1      29.624  27.731  22.905  1.00  0.00     0.026 A 
ATOM     18  C   UNL A   1      31.786  28.104  23.869  1.00  0.00     0.015 A 
ATOM     19  C   UNL A   1      30.866  28.346  22.857  1.00  0.00     0.003 A 
BRANCH  16  20
ATOM     20  N   UNL A   1      28.007  26.337  23.971  1.00  0.00    -0.398 N 
ATOM     21  H   UNL A   1      27.598  25.938  23.170  1.00  0.00     0.156 HD
ATOM     22  H   UNL A   1      27.493  26.395  24.809  1.00  0.00     0.156 HD
ENDBRANCH  16  20
ENDBRANCH  12  13
ENDBRANCH  11  12
ENDBRANCH   7  11
ENDBRANCH   4   6
ENDBRANCH   3   4
ENDBRANCH   2   3
ENDBRANCH   1   2
BRANCH   1  23
ATOM     23  O   UNL A   1      34.357  32.892  31.385  1.00  0.00    -0.374 OA
BRANCH  23  24
ATOM     24  C   UNL A   1      35.124  32.573  32.549  1.00  0.00     0.202 C 
BRANCH  24  25
ATOM     25  C   UNL A   1      36.535  32.084  32.214  1.00  0.00     0.261 C 
BRANCH  25  26
ATOM     26  O   UNL A   1      36.564  31.493  30.903  1.00  0.00    -0.460 OA
BRANCH  26  27
ATOM     27  C   UNL A   1      36.953  30.196  30.857  1.00  0.00     0.338 C 
ATOM     28  O   UNL A   1      36.261  29.211  31.050  1.00  0.00    -0.246 OA
BRANCH  27  29
ATOM     29  C   UNL A   1      38.345  30.126  30.367  1.00  0.00     0.060 A 
ATOM     30  C   UNL A   1      38.551  30.079  28.982  1.00  0.00     0.016 A 
ATOM     31  C   UNL A   1      39.432  30.083  31.244  1.00  0.00     0.016 A 
ATOM     32  C   UNL A   1      39.844  29.965  28.470  1.00  0.00     0.010 A 
ATOM     33  C   UNL A   1      40.726  29.971  30.730  1.00  0.00     0.010 A 
ATOM     34  C   UNL A   1      40.936  29.885  29.343  1.00  0.00    -0.014 A 
BRANCH  34  35
ATOM     35  C   UNL A   1      42.282  29.532  28.834  1.00  0.00     0.031 A 
ATOM     36  C   UNL A   1      42.519  28.118  28.377  1.00  0.00     0.074 A 
ATOM     37  C   UNL A   1      43.278  30.436  28.793  1.00  0.00     0.049 A 
ATOM     38  N   UNL A   1      43.635  27.534  28.032  1.00  0.00    -0.248 NA
ATOM     39  C   UNL A   1      41.335  27.245  28.314  1.00  0.00     0.031 C 
ATOM     40  C   UNL A   1      43.159  31.846  29.160  1.00  0.00     0.029 A 
ATOM     41  N   UNL A   1      44.594  30.291  28.435  1.00  0.00    -0.354 N 
ATOM     42  C   UNL A   1      43.294  26.220  27.735  1.00  0.00     0.074 A 
ATOM     43  C   UNL A   1      41.871  26.088  27.957  1.00  0.00     0.031 C 
ATOM     44  C   UNL A   1      44.361  32.434  29.024  1.00  0.00     0.029 A 
ATOM     45  C   UNL A   1      45.339  31.434  28.594  1.00  0.00     0.049 A 
ATOM     46  H   UNL A   1      44.970  29.447  28.094  1.00  0.00     0.167 HD
ATOM     47  C   UNL A   1      44.094  25.214  27.313  1.00  0.00     0.037 A 
ATOM     48  C   UNL A   1      46.662  31.640  28.436  1.00  0.00     0.037 A 
ATOM     49  C   UNL A   1      45.504  25.355  27.075  1.00  0.00     0.049 A 
ATOM     50  C   UNL A   1      47.544  30.497  28.002  1.00  0.00     0.074 A 
ATOM     51  C   UNL A   1      46.404  24.396  26.646  1.00  0.00     0.029 A 
ATOM     52  N   UNL A   1      46.217  26.531  27.238  1.00  0.00    -0.354 N 
ATOM     53  N   UNL A   1      47.211  29.256  27.736  1.00  0.00    -0.248 NA
ATOM     54  C   UNL A   1      48.980  30.777  27.851  1.00  0.00     0.031 C 
ATOM     55  C   UNL A   1      47.669  24.987  26.575  1.00  0.00     0.029 A 
ATOM     56  C   UNL A   1      47.549  26.324  26.926  1.00  0.00     0.049 A 
ATOM     57  H   UNL A   1      45.833  27.390  27.533  1.00  0.00     0.167 HD
ATOM     58  C   UNL A   1      48.388  28.618  27.354  1.00  0.00     0.074 A 
ATOM     59  C   UNL A   1      49.443  29.607  27.428  1.00  0.00     0.031 C 
ATOM     60  C   UNL A   1      48.576  27.333  26.974  1.00  0.00     0.037 A 
BRANCH  47  61
ATOM     61  C   UNL A   1      43.461  23.871  27.108  1.00  0.00     0.058 A 
ATOM     62  C   UNL A   1      43.226  22.996  28.180  1.00  0.00     0.135 A 
ATOM     63  C   UNL A   1      43.076  23.456  25.823  1.00  0.00     0.135 A 
ATOM     64  F   UNL A   1      43.596  23.337  29.424  1.00  0.00    -0.206 F 
ATOM     65  C   UNL A   1      42.656  21.743  27.981  1.00  0.00     0.059 A 
ATOM     66  C   UNL A   1      42.485  22.217  25.603  1.00  0.00     0.059 A 
ATOM     67  F   UNL A   1      43.287  24.255  24.764  1.00  0.00    -0.206 F 
ATOM     68  C   UNL A   1      42.294  21.360  26.688  1.00  0.00     0.060 A 
BRANCH  68  69
ATOM     69  S   UNL A   1      41.567  19.728  26.439  1.00  0.00     0.124 S 
ATOM     70  O   UNL A   1      42.299  19.262  25.264  1.00  0.00    -0.237 OA
ATOM     71  O   UNL A   1      41.881  19.048  27.691  1.00  0.00    -0.237 OA
ATOM     72  O   UNL A   1      40.152  20.016  26.223  1.00  0.00    -0.744 OA
ENDBRANCH  68  69
ENDBRANCH  47  61
BRANCH  48  73
ATOM     73  C   UNL A   1      47.242  32.983  28.705  1.00  0.00     0.058 A 
ATOM     74  C   UNL A   1      47.352  33.939  27.685  1.00  0.00     0.135 A 
ATOM     75  C   UNL A   1      47.696  33.335  29.984  1.00  0.00     0.135 A 
ATOM     76  F   UNL A   1      46.942  33.645  26.442  1.00  0.00    -0.206 F 
ATOM     77  C   UNL A   1      47.901  35.196  27.921  1.00  0.00     0.059 A 
ATOM     78  C   UNL A   1      48.231  34.591  30.251  1.00  0.00     0.059 A 
ATOM     79  F   UNL A   1      47.601  32.458  30.996  1.00  0.00    -0.206 F 
ATOM     80  C   UNL A   1      48.336  35.513  29.210  1.00  0.00     0.060 A 
BRANCH  80  81
ATOM     81  S   UNL A   1      48.994  37.165  29.524  1.00  0.00     0.124 S 
ATOM     82  O   UNL A   1      47.787  37.896  29.890  1.00  0.00    -0.237 OA
ATOM     83  O   UNL A   1      49.946  36.920  30.603  1.00  0.00    -0.237 OA
ATOM     84  O   UNL A   1      49.594  37.532  28.244  1.00  0.00    -0.744 OA
ENDBRANCH  80  81
ENDBRANCH  48  73
BRANCH  60  85
ATOM     85  C   UNL A   1      49.955  26.917  26.551  1.00  0.00     0.058 A 
ATOM     86  C   UNL A   1      50.873  26.377  27.463  1.00  0.00     0.135 A 
ATOM     87  C   UNL A   1      50.316  26.954  25.193  1.00  0.00     0.135 A 
ATOM     88  F   UNL A   1      50.575  26.325  28.770  1.00  0.00    -0.206 F 
ATOM     89  C   UNL A   1      52.103  25.882  27.043  1.00  0.00     0.059 A 
ATOM     90  C   UNL A   1      51.533  26.448  24.750  1.00  0.00     0.059 A 
ATOM     91  F   UNL A   1      49.466  27.454  24.282  1.00  0.00    -0.206 F 
ATOM     92  C   UNL A   1      52.420  25.913  25.683  1.00  0.00     0.060 A 
BRANCH  92  93
ATOM     93  S   UNL A   1      53.983  25.189  25.137  1.00  0.00     0.124 S 
ATOM     94  O   UNL A   1      53.559  23.859  24.714  1.00  0.00    -0.237 OA
ATOM     95  O   UNL A   1      54.392  26.095  24.068  1.00  0.00    -0.237 OA
ATOM     96  O   UNL A   1      54.814  25.232  26.337  1.00  0.00    -0.744 OA
ENDBRANCH  92  93
ENDBRANCH  60  85
ENDBRANCH  34  35
ENDBRANCH  27  29
ENDBRANCH  26  27
ENDBRANCH  25  26
ENDBRANCH  24  25
ENDBRANCH  23  24
ENDBRANCH   1  23
TORSDOF 21
ENDMDL
MODEL 2
REMARK VINA RESULT:     -10.2      3.292      9.563
REMARK SMILES Cc1c(N)cccc1SCc1cc(C(=O)OCCOCCOC(=O)c2ccc(-c3c4nc(c(-c5c(F)cc(S(=O)(=O)[O-])cc5F)c5ccc([nH]5)c(-c5c(F)cc(S(=O)(=O)[O-])cc5F)c5nc(c(-c6c(F)cc(S(=O)(=O)[O-])cc6F)c6ccc3[nH]6)C=C5)C=C4)cc2)no1
REMARK SMILES IDX 18 1 17 2 16 3 14 4 15 5 13 6 11 7 12 8 92 9 91 10 10 11
REMARK SMILES IDX 9 12 8 13 1 14 2 15 3 16 5 17 7 18 6 19 4 20 19 23 20 24
REMARK SMILES IDX 21 25 22 26 23 27 24 28 25 29 26 30 90 31 27 32 89 33 28 34
REMARK SMILES IDX 29 35 30 36 83 37 31 38 88 39 82 40 84 41 32 42 87 43 81 44
REMARK SMILES IDX 80 45 33 47 67 48 46 49 66 50 47 51 50 52 65 53 85 54 48 55
REMARK SMILES IDX 49 56 64 58 86 59 51 60 34 61 35 62 44 63 36 64 37 65 43 66
REMARK SMILES IDX 45 67 38 68 39 69 40 70 41 71 42 72 68 73 69 74 78 75 70 76
REMARK SMILES IDX 71 77 77 78 79 79 72 80 73 81 74 82 75 83 76 84 52 85 53 86
REMARK SMILES IDX 62 87 54 88 55 89 61 90 63 91 56 92 57 93 58 94 59 95 60 96
REMARK H PARENT 4 21 4 22 84 46 50 57
REMARK Flexibility Score: inf
ROOT
ATOM      1  C   UNL A   1      35.282  23.273  25.123  1.00  0.00     0.202 C 
ENDROOT
BRANCH   1   2
ATOM      2  C   UNL A   1      34.814  22.312  26.219  1.00  0.00     0.261 C 
BRANCH   2   3
ATOM      3  O   UNL A   1      33.381  22.209  26.190  1.00  0.00    -0.458 OA
BRANCH   3   4
ATOM      4  C   UNL A   1      32.712  22.725  27.265  1.00  0.00     0.360 C 
ATOM      5  O   UNL A   1      32.803  22.298  28.411  1.00  0.00    -0.244 OA
BRANCH   4   6
ATOM      6  C   UNL A   1      31.957  23.920  26.891  1.00  0.00     0.191 A 
ATOM      7  C   UNL A   1      31.346  26.021  26.509  1.00  0.00     0.147 A 
ATOM      8  C   UNL A   1      32.458  25.213  26.577  1.00  0.00     0.085 A 
ATOM      9  O   UNL A   1      30.242  25.239  26.681  1.00  0.00    -0.360 OA
ATOM     10  N   UNL A   1      30.615  23.933  26.907  1.00  0.00    -0.072 NA
BRANCH   7  11
ATOM     11  C   UNL A   1      31.045  27.468  26.404  1.00  0.00     0.153 C 
BRANCH  11  12
ATOM     12  S   UNL A   1      32.015  28.499  25.270  1.00  0.00    -0.118 SA
BRANCH  12  13
ATOM     13  C   UNL A   1      33.132  29.477  26.282  1.00  0.00     0.013 A 
ATOM     14  C   UNL A   1      31.693  31.582  26.502  1.00  0.00     0.048 C 
ATOM     15  C   UNL A   1      32.921  30.769  26.817  1.00  0.00    -0.015 A 
ATOM     16  C   UNL A   1      33.899  31.320  27.683  1.00  0.00     0.035 A 
ATOM     17  C   UNL A   1      35.081  30.615  27.943  1.00  0.00     0.026 A 
ATOM     18  C   UNL A   1      34.356  28.825  26.526  1.00  0.00     0.015 A 
ATOM     19  C   UNL A   1      35.328  29.390  27.342  1.00  0.00     0.003 A 
BRANCH  16  20
ATOM     20  N   UNL A   1      33.671  32.481  28.418  1.00  0.00    -0.398 N 
ATOM     21  H   UNL A   1      32.751  32.806  28.549  1.00  0.00     0.156 HD
ATOM     22  H   UNL A   1      34.429  32.974  28.806  1.00  0.00     0.156 HD
ENDBRANCH  16  20
ENDBRANCH  12  13
ENDBRANCH  11  12
ENDBRANCH   7  11
ENDBRANCH   4   6
ENDBRANCH   3   4
ENDBRANCH   2   3
ENDBRANCH   1   2
BRANCH   1  23
ATOM     23  O   UNL A   1      36.394  22.744  24.398  1.00  0.00    -0.374 OA
BRANCH  23  24
ATOM     24  C   UNL A   1      36.664  21.359  24.624  1.00  0.00     0.202 C 
BRANCH  24  25
ATOM     25  C   UNL A   1      38.061  21.113  25.199  1.00  0.00     0.261 C 
BRANCH  25  26
ATOM     26  O   UNL A   1      38.399  22.135  26.153  1.00  0.00    -0.460 OA
BRANCH  26  27
ATOM     27  C   UNL A   1      39.687  22.137  26.573  1.00  0.00     0.338 C 
ATOM     28  O   UNL A   1      40.504  21.240  26.454  1.00  0.00    -0.246 OA
BRANCH  27  29
ATOM     29  C   UNL A   1      40.030  23.484  27.073  1.00  0.00     0.060 A 
ATOM     30  C   UNL A   1      39.638  24.589  26.306  1.00  0.00     0.016 A 
ATOM     31  C   UNL A   1      40.745  23.668  28.261  1.00  0.00     0.016 A 
ATOM     32  C   UNL A   1      39.980  25.879  26.710  1.00  0.00     0.010 A 
ATOM     33  C   UNL A   1      41.084  24.960  28.666  1.00  0.00     0.010 A 
ATOM     34  C   UNL A   1      40.726  26.070  27.880  1.00  0.00    -0.014 A 
BRANCH  34  35
ATOM     35  C   UNL A   1      41.294  27.400  28.202  1.00  0.00     0.031 A 
ATOM     36  C   UNL A   1      42.774  27.601  28.024  1.00  0.00     0.074 A 
ATOM     37  C   UNL A   1      40.521  28.403  28.658  1.00  0.00     0.049 A 
ATOM     38  N   UNL A   1      43.521  28.615  28.372  1.00  0.00    -0.248 NA
ATOM     39  C   UNL A   1      43.510  26.501  27.377  1.00  0.00     0.031 C 
ATOM     40  C   UNL A   1      39.069  28.347  28.825  1.00  0.00     0.029 A 
ATOM     41  N   UNL A   1      40.861  29.664  29.079  1.00  0.00    -0.354 N 
ATOM     42  C   UNL A   1      44.817  28.266  28.009  1.00  0.00     0.074 A 
ATOM     43  C   UNL A   1      44.757  26.942  27.431  1.00  0.00     0.031 C 
ATOM     44  C   UNL A   1      38.645  29.519  29.331  1.00  0.00     0.029 A 
ATOM     45  C   UNL A   1      39.797  30.392  29.555  1.00  0.00     0.049 A 
ATOM     46  H   UNL A   1      41.780  30.014  29.043  1.00  0.00     0.167 HD
ATOM     47  C   UNL A   1      45.954  28.987  28.143  1.00  0.00     0.037 A 
ATOM     48  C   UNL A   1      39.764  31.612  30.128  1.00  0.00     0.037 A 
ATOM     49  C   UNL A   1      46.006  30.310  28.700  1.00  0.00     0.049 A 
ATOM     50  C   UNL A   1      41.047  32.383  30.304  1.00  0.00     0.074 A 
ATOM     51  C   UNL A   1      47.110  31.125  28.880  1.00  0.00     0.029 A 
ATOM     52  N   UNL A   1      44.906  31.016  29.159  1.00  0.00    -0.354 N 
ATOM     53  N   UNL A   1      42.268  32.038  29.968  1.00  0.00    -0.248 NA
ATOM     54  C   UNL A   1      40.953  33.706  30.940  1.00  0.00     0.031 C 
ATOM     55  C   UNL A   1      46.679  32.316  29.474  1.00  0.00     0.029 A 
ATOM     56  C   UNL A   1      45.302  32.254  29.631  1.00  0.00     0.049 A 
ATOM     57  H   UNL A   1      43.978  30.684  29.153  1.00  0.00     0.167 HD
ATOM     58  C   UNL A   1      43.079  33.113  30.319  1.00  0.00     0.074 A 
ATOM     59  C   UNL A   1      42.214  34.118  30.900  1.00  0.00     0.031 C 
ATOM     60  C   UNL A   1      44.418  33.254  30.173  1.00  0.00     0.037 A 
BRANCH  47  61
ATOM     61  C   UNL A   1      47.234  28.342  27.701  1.00  0.00     0.058 A 
ATOM     62  C   UNL A   1      47.693  28.447  26.379  1.00  0.00     0.135 A 
ATOM     63  C   UNL A   1      48.015  27.616  28.615  1.00  0.00     0.135 A 
ATOM     64  F   UNL A   1      46.970  29.111  25.463  1.00  0.00    -0.206 F 
ATOM     65  C   UNL A   1      48.870  27.830  25.971  1.00  0.00     0.059 A 
ATOM     66  C   UNL A   1      49.206  27.009  28.233  1.00  0.00     0.059 A 
ATOM     67  F   UNL A   1      47.613  27.481  29.889  1.00  0.00    -0.206 F 
ATOM     68  C   UNL A   1      49.617  27.108  26.904  1.00  0.00     0.060 A 
BRANCH  68  69
ATOM     69  S   UNL A   1      51.138  26.302  26.361  1.00  0.00     0.124 S 
ATOM     70  O   UNL A   1      50.860  26.087  24.944  1.00  0.00    -0.237 OA
ATOM     71  O   UNL A   1      52.152  27.306  26.661  1.00  0.00    -0.237 OA
ATOM     72  O   UNL A   1      51.192  25.095  27.180  1.00  0.00    -0.744 OA
ENDBRANCH  68  69
ENDBRANCH  47  61
BRANCH  48  73
ATOM     73  C   UNL A   1      38.471  32.179  30.594  1.00  0.00     0.058 A 
ATOM     74  C   UNL A   1      37.707  33.013  29.766  1.00  0.00     0.135 A 
ATOM     75  C   UNL A   1      37.974  31.897  31.876  1.00  0.00     0.135 A 
ATOM     76  F   UNL A   1      38.146  33.321  28.536  1.00  0.00    -0.206 F 
ATOM     77  C   UNL A   1      36.500  33.557  30.193  1.00  0.00     0.059 A 
ATOM     78  C   UNL A   1      36.762  32.412  32.320  1.00  0.00     0.059 A 
ATOM     79  F   UNL A   1      38.664  31.094  32.702  1.00  0.00    -0.206 F 
ATOM     80  C   UNL A   1      36.034  33.249  31.474  1.00  0.00     0.060 A 
BRANCH  80  81
ATOM     81  S   UNL A   1      34.439  33.910  32.003  1.00  0.00     0.124 S 
ATOM     82  O   UNL A   1      34.851  34.981  32.903  1.00  0.00    -0.237 OA
ATOM     83  O   UNL A   1      33.843  34.330  30.739  1.00  0.00    -0.237 OA
ATOM     84  O   UNL A   1      33.798  32.761  32.637  1.00  0.00    -0.744 OA
ENDBRANCH  80  81
ENDBRANCH  48  73
BRANCH  60  85
ATOM     85  C   UNL A   1      45.039  34.556  30.588  1.00  0.00     0.058 A 
ATOM     86  C   UNL A   1      45.140  35.639  29.703  1.00  0.00     0.135 A 
ATOM     87  C   UNL A   1      45.433  34.754  31.922  1.00  0.00     0.135 A 
ATOM     88  F   UNL A   1      44.782  35.496  28.417  1.00  0.00    -0.206 F 
ATOM     89  C   UNL A   1      45.605  36.879  30.128  1.00  0.00     0.059 A 
ATOM     90  C   UNL A   1      45.883  35.990  32.372  1.00  0.00     0.059 A 
ATOM     91  F   UNL A   1      45.345  33.749  32.808  1.00  0.00    -0.206 F 
ATOM     92  C   UNL A   1      45.965  37.048  31.467  1.00  0.00     0.060 A 
BRANCH  92  93
ATOM     93  S   UNL A   1      46.485  38.684  32.028  1.00  0.00     0.124 S 
ATOM     94  O   UNL A   1      45.317  39.493  31.700  1.00  0.00    -0.237 OA
ATOM     95  O   UNL A   1      46.727  38.466  33.451  1.00  0.00    -0.237 OA
ATOM     96  O   UNL A   1      47.679  38.952  31.231  1.00  0.00    -0.744 OA
ENDBRANCH  92  93
ENDBRANCH  60  85
ENDBRANCH  34  35
ENDBRANCH  27  29
ENDBRANCH  26  27
ENDBRANCH  25  26
ENDBRANCH  24  25
ENDBRANCH  23  24
ENDBRANCH   1  23
TORSDOF 21
ENDMDL
MODEL 3
REMARK VINA RESULT:     -10.2      5.349     10.085
REMARK SMILES Cc1c(N)cccc1SCc1cc(C(=O)OCCOCCOC(=O)c2ccc(-c3c4nc(c(-c5c(F)cc(S(=O)(=O)[O-])cc5F)c5ccc([nH]5)c(-c5c(F)cc(S(=O)(=O)[O-])cc5F)c5nc(c(-c6c(F)cc(S(=O)(=O)[O-])cc6F)c6ccc3[nH]6)C=C5)C=C4)cc2)no1
REMARK SMILES IDX 18 1 17 2 16 3 14 4 15 5 13 6 11 7 12 8 92 9 91 10 10 11
REMARK SMILES IDX 9 12 8 13 1 14 2 15 3 16 5 17 7 18 6 19 4 20 19 23 20 24
REMARK SMILES IDX 21 25 22 26 23 27 24 28 25 29 26 30 90 31 27 32 89 33 28 34
REMARK SMILES IDX 29 35 30 36 83 37 31 38 88 39 82 40 84 41 32 42 87 43 81 44
REMARK SMILES IDX 80 45 33 47 67 48 46 49 66 50 47 51 50 52 65 53 85 54 48 55
REMARK SMILES IDX 49 56 64 58 86 59 51 60 34 61 35 62 44 63 36 64 37 65 43 66
REMARK SMILES IDX 45 67 38 68 39 69 40 70 41 71 42 72 68 73 69 74 78 75 70 76
REMARK SMILES IDX 71 77 77 78 79 79 72 80 73 81 74 82 75 83 76 84 52 85 53 86
REMARK SMILES IDX 62 87 54 88 55 89 61 90 63 91 56 92 57 93 58 94 59 95 60 96
REMARK H PARENT 4 21 4 22 84 46 50 57
REMARK Flexibility Score: inf
ROOT
ATOM      1  C   UNL A   1      32.579  28.198  23.440  1.00  0.00     0.202 C 
ENDROOT
BRANCH   1   2
ATOM      2  C   UNL A   1      31.265  27.622  22.906  1.00  0.00     0.261 C 
BRANCH   2   3
ATOM      3  O   UNL A   1      30.222  27.822  23.876  1.00  0.00    -0.458 OA
BRANCH   3   4
ATOM      4  C   UNL A   1      29.487  26.722  24.214  1.00  0.00     0.360 C 
ATOM      5  O   UNL A   1      28.353  26.491  23.807  1.00  0.00    -0.244 OA
BRANCH   4   6
ATOM      6  C   UNL A   1      30.267  25.800  25.037  1.00  0.00     0.191 A 
ATOM      7  C   UNL A   1      31.294  23.994  25.825  1.00  0.00     0.147 A 
ATOM      8  C   UNL A   1      30.873  24.572  24.650  1.00  0.00     0.085 A 
ATOM      9  O   UNL A   1      31.038  24.866  26.843  1.00  0.00    -0.360 OA
ATOM     10  N   UNL A   1      30.412  25.992  26.358  1.00  0.00    -0.072 NA
BRANCH   7  11
ATOM     11  C   UNL A   1      31.837  22.691  26.275  1.00  0.00     0.153 C 
BRANCH  11  12
ATOM     12  S   UNL A   1      33.301  22.005  25.453  1.00  0.00    -0.118 SA
BRANCH  12  13
ATOM     13  C   UNL A   1      32.854  20.363  24.878  1.00  0.00     0.013 A 
ATOM     14  C   UNL A   1      32.124  20.980  22.505  1.00  0.00     0.048 C 
ATOM     15  C   UNL A   1      32.402  19.979  23.595  1.00  0.00    -0.015 A 
ATOM     16  C   UNL A   1      32.204  18.601  23.321  1.00  0.00     0.035 A 
ATOM     17  C   UNL A   1      32.392  17.653  24.335  1.00  0.00     0.026 A 
ATOM     18  C   UNL A   1      32.980  19.383  25.883  1.00  0.00     0.015 A 
ATOM     19  C   UNL A   1      32.743  18.041  25.618  1.00  0.00     0.003 A 
BRANCH  16  20
ATOM     20  N   UNL A   1      31.973  18.127  22.033  1.00  0.00    -0.398 N 
ATOM     21  H   UNL A   1      31.076  17.815  21.777  1.00  0.00     0.156 HD
ATOM     22  H   UNL A   1      32.708  18.105  21.378  1.00  0.00     0.156 HD
ENDBRANCH  16  20
ENDBRANCH  12  13
ENDBRANCH  11  12
ENDBRANCH   7  11
ENDBRANCH   4   6
ENDBRANCH   3   4
ENDBRANCH   2   3
ENDBRANCH   1   2
BRANCH   1  23
ATOM     23  O   UNL A   1      32.354  29.329  24.284  1.00  0.00    -0.374 OA
BRANCH  23  24
ATOM     24  C   UNL A   1      32.985  29.266  25.565  1.00  0.00     0.202 C 
BRANCH  24  25
ATOM     25  C   UNL A   1      32.685  30.490  26.434  1.00  0.00     0.261 C 
BRANCH  25  26
ATOM     26  O   UNL A   1      33.514  30.486  27.610  1.00  0.00    -0.460 OA
BRANCH  26  27
ATOM     27  C   UNL A   1      34.411  31.498  27.694  1.00  0.00     0.338 C 
ATOM     28  O   UNL A   1      34.195  32.690  27.552  1.00  0.00    -0.246 OA
BRANCH  27  29
ATOM     29  C   UNL A   1      35.707  30.958  28.154  1.00  0.00     0.060 A 
ATOM     30  C   UNL A   1      35.764  29.604  28.511  1.00  0.00     0.016 A 
ATOM     31  C   UNL A   1      36.844  31.764  28.260  1.00  0.00     0.016 A 
ATOM     32  C   UNL A   1      36.952  29.058  28.997  1.00  0.00     0.010 A 
ATOM     33  C   UNL A   1      38.033  31.216  28.744  1.00  0.00     0.010 A 
ATOM     34  C   UNL A   1      38.087  29.867  29.139  1.00  0.00    -0.014 A 
BRANCH  34  35
ATOM     35  C   UNL A   1      39.279  29.370  29.864  1.00  0.00     0.031 A 
ATOM     36  C   UNL A   1      39.673  30.064  31.139  1.00  0.00     0.074 A 
ATOM     37  C   UNL A   1      40.008  28.340  29.396  1.00  0.00     0.049 A 
ATOM     38  N   UNL A   1      40.746  29.911  31.869  1.00  0.00    -0.248 NA
ATOM     39  C   UNL A   1      38.733  31.075  31.651  1.00  0.00     0.031 C 
ATOM     40  C   UNL A   1      39.699  27.557  28.201  1.00  0.00     0.029 A 
ATOM     41  N   UNL A   1      41.170  27.788  29.871  1.00  0.00    -0.354 N 
ATOM     42  C   UNL A   1      40.623  30.822  32.911  1.00  0.00     0.074 A 
ATOM     43  C   UNL A   1      39.381  31.535  32.710  1.00  0.00     0.031 C 
ATOM     44  C   UNL A   1      40.662  26.634  28.026  1.00  0.00     0.029 A 
ATOM     45  C   UNL A   1      41.669  26.785  29.076  1.00  0.00     0.049 A 
ATOM     46  H   UNL A   1      41.606  28.082  30.703  1.00  0.00     0.167 HD
ATOM     47  C   UNL A   1      41.467  31.042  33.945  1.00  0.00     0.037 A 
ATOM     48  C   UNL A   1      42.820  26.088  29.173  1.00  0.00     0.037 A 
ATOM     49  C   UNL A   1      42.691  30.318  34.152  1.00  0.00     0.049 A 
ATOM     50  C   UNL A   1      43.767  26.375  30.310  1.00  0.00     0.074 A 
ATOM     51  C   UNL A   1      43.617  30.466  35.169  1.00  0.00     0.029 A 
ATOM     52  N   UNL A   1      43.154  29.303  33.330  1.00  0.00    -0.354 N 
ATOM     53  N   UNL A   1      43.645  27.247  31.283  1.00  0.00    -0.248 NA
ATOM     54  C   UNL A   1      45.009  25.589  30.363  1.00  0.00     0.031 C 
ATOM     55  C   UNL A   1      44.656  29.556  34.946  1.00  0.00     0.029 A 
ATOM     56  C   UNL A   1      44.357  28.818  33.811  1.00  0.00     0.049 A 
ATOM     57  H   UNL A   1      42.695  28.975  32.522  1.00  0.00     0.167 HD
ATOM     58  C   UNL A   1      44.775  27.092  32.080  1.00  0.00     0.074 A 
ATOM     59  C   UNL A   1      45.573  26.046  31.474  1.00  0.00     0.031 C 
ATOM     60  C   UNL A   1      45.118  27.752  33.211  1.00  0.00     0.037 A 
BRANCH  47  61
ATOM     61  C   UNL A   1      41.103  32.129  34.912  1.00  0.00     0.058 A 
ATOM     62  C   UNL A   1      41.593  33.436  34.770  1.00  0.00     0.135 A 
ATOM     63  C   UNL A   1      40.244  31.860  35.990  1.00  0.00     0.135 A 
ATOM     64  F   UNL A   1      42.435  33.737  33.769  1.00  0.00    -0.206 F 
ATOM     65  C   UNL A   1      41.267  34.435  35.681  1.00  0.00     0.059 A 
ATOM     66  C   UNL A   1      39.888  32.848  36.901  1.00  0.00     0.059 A 
ATOM     67  F   UNL A   1      39.755  30.623  36.172  1.00  0.00    -0.206 F 
ATOM     68  C   UNL A   1      40.418  34.130  36.747  1.00  0.00     0.060 A 
BRANCH  68  69
ATOM     69  S   UNL A   1      40.011  35.429  37.931  1.00  0.00     0.124 S 
ATOM     70  O   UNL A   1      38.745  34.942  38.470  1.00  0.00    -0.237 OA
ATOM     71  O   UNL A   1      41.146  35.389  38.847  1.00  0.00    -0.237 OA
ATOM     72  O   UNL A   1      39.920  36.627  37.101  1.00  0.00    -0.744 OA
ENDBRANCH  68  69
ENDBRANCH  47  61
BRANCH  48  73
ATOM     73  C   UNL A   1      43.152  25.058  28.153  1.00  0.00     0.058 A 
ATOM     74  C   UNL A   1      43.740  25.413  26.931  1.00  0.00     0.135 A 
ATOM     75  C   UNL A   1      42.888  23.699  28.381  1.00  0.00     0.135 A 
ATOM     76  F   UNL A   1      44.000  26.702  26.662  1.00  0.00    -0.206 F 
ATOM     77  C   UNL A   1      44.047  24.460  25.965  1.00  0.00     0.059 A 
ATOM     78  C   UNL A   1      43.203  22.725  27.441  1.00  0.00     0.059 A 
ATOM     79  F   UNL A   1      42.337  23.307  29.542  1.00  0.00    -0.206 F 
ATOM     80  C   UNL A   1      43.776  23.116  26.231  1.00  0.00     0.060 A 
BRANCH  80  81
ATOM     81  S   UNL A   1      44.229  21.876  24.998  1.00  0.00     0.124 S 
ATOM     82  O   UNL A   1      43.915  22.572  23.755  1.00  0.00    -0.237 OA
ATOM     83  O   UNL A   1      45.647  21.668  25.275  1.00  0.00    -0.237 OA
ATOM     84  O   UNL A   1      43.363  20.748  25.330  1.00  0.00    -0.744 OA
ENDBRANCH  80  81
ENDBRANCH  48  73
BRANCH  60  85
ATOM     85  C   UNL A   1      46.379  27.340  33.913  1.00  0.00     0.058 A 
ATOM     86  C   UNL A   1      47.605  27.969  33.654  1.00  0.00     0.135 A 
ATOM     87  C   UNL A   1      46.332  26.382  34.940  1.00  0.00     0.135 A 
ATOM     88  F   UNL A   1      47.701  28.887  32.680  1.00  0.00    -0.206 F 
ATOM     89  C   UNL A   1      48.743  27.667  34.394  1.00  0.00     0.059 A 
ATOM     90  C   UNL A   1      47.453  26.078  35.704  1.00  0.00     0.059 A 
ATOM     91  F   UNL A   1      45.178  25.760  35.230  1.00  0.00    -0.206 F 
ATOM     92  C   UNL A   1      48.655  26.727  35.424  1.00  0.00     0.060 A 
BRANCH  92  93
ATOM     93  S   UNL A   1      50.117  26.404  36.434  1.00  0.00     0.124 S 
ATOM     94  O   UNL A   1      50.563  25.121  35.904  1.00  0.00    -0.237 OA
ATOM     95  O   UNL A   1      50.970  27.548  36.128  1.00  0.00    -0.237 OA
ATOM     96  O   UNL A   1      49.589  26.373  37.795  1.00  0.00    -0.744 OA
ENDBRANCH  92  93
ENDBRANCH  60  85
ENDBRANCH  34  35
ENDBRANCH  27  29
ENDBRANCH  26  27
ENDBRANCH  25  26
ENDBRANCH  24  25
ENDBRANCH  23  24
ENDBRANCH   1  23
TORSDOF 21
ENDMDL
