MODEL 1
REMARK VINA RESULT:      -9.7      0.000      0.000
REMARK SMILES C[C@@H](C(=O)OCCOCCOC(=O)c1ccc(-c2c3nc(c(-c4c(F)cc(S(=O)(=O)[O-])cc4F)c4ccc([nH]4)c(-c4c(F)cc(S(=O)(=O)[O-])cc4F)c4nc(c(-c5c(F)cc(S(=O)(=O)[O-])cc5F)c5ccc2[nH]5)C=C4)C=C3)cc1)c1cccn(C(F)F)c1=O
REMARK SMILES IDX 9 1 8 2 7 3 6 4 5 5 3 6 4 7 2 8 1 9 80 10 81 11 88 12 82 13
REMARK SMILES IDX 84 14 89 15 83 16 85 17 86 18 87 19 10 20 11 21 12 22 13 23
REMARK SMILES IDX 14 24 15 25 79 26 16 27 78 28 17 29 18 30 19 31 72 32 20 33
REMARK SMILES IDX 77 34 71 35 73 36 21 37 76 38 70 39 69 40 22 42 56 43 35 44
REMARK SMILES IDX 55 45 36 46 39 47 54 48 74 49 37 50 38 51 53 53 75 54 40 55
REMARK SMILES IDX 23 56 24 57 33 58 25 59 26 60 32 61 34 62 27 63 28 64 29 65
REMARK SMILES IDX 30 66 31 67 57 68 58 69 67 70 59 71 60 72 66 73 68 74 61 75
REMARK SMILES IDX 62 76 63 77 64 78 65 79 41 80 42 81 51 82 43 83 44 84 50 85
REMARK SMILES IDX 52 86 45 87 46 88 47 89 48 90 49 91
REMARK H PARENT 73 41 39 52
REMARK Flexibility Score: inf
ROOT
ATOM      1  C   UNL A   1      34.768  34.198  27.639  1.00  0.00     0.202 C 
ENDROOT
BRANCH   1   2
ATOM      2  O   UNL A   1      34.889  35.357  28.465  1.00  0.00    -0.374 OA
BRANCH   2   3
ATOM      3  C   UNL A   1      33.881  36.364  28.335  1.00  0.00     0.202 C 
BRANCH   3   4
ATOM      4  C   UNL A   1      32.894  36.472  29.503  1.00  0.00     0.261 C 
BRANCH   4   5
ATOM      5  O   UNL A   1      33.282  37.544  30.376  1.00  0.00    -0.463 OA
BRANCH   5   6
ATOM      6  C   UNL A   1      33.159  37.315  31.711  1.00  0.00     0.313 C 
ATOM      7  O   UNL A   1      33.241  38.185  32.572  1.00  0.00    -0.252 OA
BRANCH   6   8
ATOM      8  C   UNL A   1      32.740  35.868  32.014  1.00  0.00     0.132 C 
ATOM      9  C   UNL A   1      31.409  35.784  32.780  1.00  0.00     0.025 C 
BRANCH   8  10
ATOM     10  C   UNL A   1      33.868  35.098  32.701  1.00  0.00     0.032 A 
ATOM     11  C   UNL A   1      34.506  35.460  33.834  1.00  0.00     0.012 A 
ATOM     12  C   UNL A   1      34.322  33.825  32.028  1.00  0.00     0.259 A 
ATOM     13  C   UNL A   1      35.571  34.675  34.402  1.00  0.00     0.019 A 
ATOM     14  N   UNL A   1      35.309  33.096  32.671  1.00  0.00    -0.258 N 
ATOM     15  O   UNL A   1      33.814  33.469  30.968  1.00  0.00    -0.269 OA
ATOM     16  C   UNL A   1      35.934  33.529  33.821  1.00  0.00     0.095 A 
BRANCH  14  17
ATOM     17  C   UNL A   1      35.731  31.862  32.059  1.00  0.00     0.451 C 
ATOM     18  F   UNL A   1      36.678  32.123  31.118  1.00  0.00    -0.185 F 
ATOM     19  F   UNL A   1      36.335  31.070  32.988  1.00  0.00    -0.185 F 
ENDBRANCH  14  17
ENDBRANCH   8  10
ENDBRANCH   6   8
ENDBRANCH   5   6
ENDBRANCH   4   5
ENDBRANCH   3   4
ENDBRANCH   2   3
ENDBRANCH   1   2
BRANCH   1  20
ATOM     20  C   UNL A   1      35.502  32.932  28.096  1.00  0.00     0.261 C 
BRANCH  20  21
ATOM     21  O   UNL A   1      34.601  31.859  28.427  1.00  0.00    -0.460 OA
BRANCH  21  22
ATOM     22  C   UNL A   1      34.788  30.725  27.711  1.00  0.00     0.338 C 
ATOM     23  O   UNL A   1      34.110  30.329  26.770  1.00  0.00    -0.246 OA
BRANCH  22  24
ATOM     24  C   UNL A   1      36.056  30.077  28.090  1.00  0.00     0.060 A 
ATOM     25  C   UNL A   1      36.102  29.438  29.335  1.00  0.00     0.016 A 
ATOM     26  C   UNL A   1      37.201  30.165  27.294  1.00  0.00     0.016 A 
ATOM     27  C   UNL A   1      37.307  28.930  29.815  1.00  0.00     0.010 A 
ATOM     28  C   UNL A   1      38.412  29.662  27.782  1.00  0.00     0.010 A 
ATOM     29  C   UNL A   1      38.478  29.075  29.060  1.00  0.00    -0.014 A 
BRANCH  29  30
ATOM     30  C   UNL A   1      39.785  28.740  29.677  1.00  0.00     0.031 A 
ATOM     31  C   UNL A   1      40.223  29.484  30.911  1.00  0.00     0.074 A 
ATOM     32  C   UNL A   1      40.553  27.759  29.172  1.00  0.00     0.049 A 
ATOM     33  N   UNL A   1      41.324  29.360  31.606  1.00  0.00    -0.248 NA
ATOM     34  C   UNL A   1      39.293  30.499  31.430  1.00  0.00     0.031 C 
ATOM     35  C   UNL A   1      40.220  26.944  28.004  1.00  0.00     0.029 A 
ATOM     36  N   UNL A   1      41.775  27.282  29.577  1.00  0.00    -0.354 N 
ATOM     37  C   UNL A   1      41.223  30.282  32.641  1.00  0.00     0.074 A 
ATOM     38  C   UNL A   1      39.967  30.979  32.466  1.00  0.00     0.031 C 
ATOM     39  C   UNL A   1      41.220  26.074  27.780  1.00  0.00     0.029 A 
ATOM     40  C   UNL A   1      42.275  26.289  28.770  1.00  0.00     0.049 A 
ATOM     41  H   UNL A   1      42.248  27.621  30.372  1.00  0.00     0.167 HD
ATOM     42  C   UNL A   1      42.093  30.518  33.653  1.00  0.00     0.037 A 
ATOM     43  C   UNL A   1      43.455  25.641  28.814  1.00  0.00     0.037 A 
ATOM     44  C   UNL A   1      43.342  29.825  33.823  1.00  0.00     0.049 A 
ATOM     45  C   UNL A   1      44.435  25.963  29.912  1.00  0.00     0.074 A 
ATOM     46  C   UNL A   1      44.288  29.985  34.822  1.00  0.00     0.029 A 
ATOM     47  N   UNL A   1      43.826  28.844  32.969  1.00  0.00    -0.354 N 
ATOM     48  N   UNL A   1      44.318  26.823  30.897  1.00  0.00    -0.248 NA
ATOM     49  C   UNL A   1      45.706  25.224  29.909  1.00  0.00     0.031 C 
ATOM     50  C   UNL A   1      45.362  29.131  34.548  1.00  0.00     0.029 A 
ATOM     51  C   UNL A   1      45.065  28.405  33.405  1.00  0.00     0.049 A 
ATOM     52  H   UNL A   1      43.358  28.509  32.171  1.00  0.00     0.167 HD
ATOM     53  C   UNL A   1      45.487  26.712  31.642  1.00  0.00     0.074 A 
ATOM     54  C   UNL A   1      46.295  25.693  31.001  1.00  0.00     0.031 C 
ATOM     55  C   UNL A   1      45.857  27.388  32.758  1.00  0.00     0.037 A 
BRANCH  42  56
ATOM     56  C   UNL A   1      41.730  31.592  34.642  1.00  0.00     0.058 A 
ATOM     57  C   UNL A   1      40.895  31.332  35.740  1.00  0.00     0.135 A 
ATOM     58  C   UNL A   1      42.240  32.892  34.499  1.00  0.00     0.135 A 
ATOM     59  F   UNL A   1      40.365  30.111  35.913  1.00  0.00    -0.206 F 
ATOM     60  C   UNL A   1      40.555  32.332  36.647  1.00  0.00     0.059 A 
ATOM     61  C   UNL A   1      41.933  33.901  35.408  1.00  0.00     0.059 A 
ATOM     62  F   UNL A   1      43.041  33.195  33.466  1.00  0.00    -0.206 F 
ATOM     63  C   UNL A   1      41.077  33.615  36.470  1.00  0.00     0.060 A 
BRANCH  63  64
ATOM     64  S   UNL A   1      40.620  34.903  37.649  1.00  0.00     0.124 S 
ATOM     65  O   UNL A   1      39.727  35.731  36.844  1.00  0.00    -0.237 OA
ATOM     66  O   UNL A   1      39.984  34.140  38.718  1.00  0.00    -0.237 OA
ATOM     67  O   UNL A   1      41.900  35.515  37.996  1.00  0.00    -0.744 OA
ENDBRANCH  63  64
ENDBRANCH  42  56
BRANCH  43  68
ATOM     68  C   UNL A   1      43.781  24.629  27.775  1.00  0.00     0.058 A 
ATOM     69  C   UNL A   1      44.419  24.991  26.581  1.00  0.00     0.135 A 
ATOM     70  C   UNL A   1      43.468  23.273  27.965  1.00  0.00     0.135 A 
ATOM     71  F   UNL A   1      44.728  26.277  26.349  1.00  0.00    -0.206 F 
ATOM     72  C   UNL A   1      44.732  24.048  25.607  1.00  0.00     0.059 A 
ATOM     73  C   UNL A   1      43.792  22.308  27.017  1.00  0.00     0.059 A 
ATOM     74  F   UNL A   1      42.865  22.873  29.095  1.00  0.00    -0.206 F 
ATOM     75  C   UNL A   1      44.418  22.708  25.836  1.00  0.00     0.060 A 
BRANCH  75  76
ATOM     76  S   UNL A   1      44.881  21.482  24.593  1.00  0.00     0.124 S 
ATOM     77  O   UNL A   1      44.035  20.354  24.961  1.00  0.00    -0.237 OA
ATOM     78  O   UNL A   1      44.535  22.163  23.348  1.00  0.00    -0.237 OA
ATOM     79  O   UNL A   1      46.312  21.301  24.820  1.00  0.00    -0.744 OA
ENDBRANCH  75  76
ENDBRANCH  43  68
BRANCH  55  80
ATOM     80  C   UNL A   1      47.180  27.033  33.379  1.00  0.00     0.058 A 
ATOM     81  C   UNL A   1      47.301  25.991  34.311  1.00  0.00     0.135 A 
ATOM     82  C   UNL A   1      48.350  27.708  32.995  1.00  0.00     0.135 A 
ATOM     83  F   UNL A   1      46.213  25.318  34.717  1.00  0.00    -0.206 F 
ATOM     84  C   UNL A   1      48.533  25.644  34.857  1.00  0.00     0.059 A 
ATOM     85  C   UNL A   1      49.596  27.362  33.508  1.00  0.00     0.059 A 
ATOM     86  F   UNL A   1      48.292  28.706  32.098  1.00  0.00    -0.206 F 
ATOM     87  C   UNL A   1      49.675  26.336  34.449  1.00  0.00     0.060 A 
BRANCH  87  88
ATOM     88  S   UNL A   1      51.274  25.853  35.138  1.00  0.00     0.124 S 
ATOM     89  O   UNL A   1      51.594  24.676  34.338  1.00  0.00    -0.237 OA
ATOM     90  O   UNL A   1      52.094  27.033  34.886  1.00  0.00    -0.237 OA
ATOM     91  O   UNL A   1      50.973  25.595  36.543  1.00  0.00    -0.744 OA
ENDBRANCH  87  88
ENDBRANCH  55  80
ENDBRANCH  29  30
ENDBRANCH  22  24
ENDBRANCH  21  22
ENDBRANCH  20  21
ENDBRANCH   1  20
TORSDOF 19
ENDMDL
MODEL 2
REMARK VINA RESULT:      -9.6      0.535      8.405
REMARK SMILES C[C@@H](C(=O)OCCOCCOC(=O)c1ccc(-c2c3nc(c(-c4c(F)cc(S(=O)(=O)[O-])cc4F)c4ccc([nH]4)c(-c4c(F)cc(S(=O)(=O)[O-])cc4F)c4nc(c(-c5c(F)cc(S(=O)(=O)[O-])cc5F)c5ccc2[nH]5)C=C4)C=C3)cc1)c1cccn(C(F)F)c1=O
REMARK SMILES IDX 9 1 8 2 7 3 6 4 5 5 3 6 4 7 2 8 1 9 80 10 81 11 88 12 82 13
REMARK SMILES IDX 84 14 89 15 83 16 85 17 86 18 87 19 10 20 11 21 12 22 13 23
REMARK SMILES IDX 14 24 15 25 79 26 16 27 78 28 17 29 18 30 19 31 72 32 20 33
REMARK SMILES IDX 77 34 71 35 73 36 21 37 76 38 70 39 69 40 22 42 56 43 35 44
REMARK SMILES IDX 55 45 36 46 39 47 54 48 74 49 37 50 38 51 53 53 75 54 40 55
REMARK SMILES IDX 23 56 24 57 33 58 25 59 26 60 32 61 34 62 27 63 28 64 29 65
REMARK SMILES IDX 30 66 31 67 57 68 58 69 67 70 59 71 60 72 66 73 68 74 61 75
REMARK SMILES IDX 62 76 63 77 64 78 65 79 41 80 42 81 51 82 43 83 44 84 50 85
REMARK SMILES IDX 52 86 45 87 46 88 47 89 48 90 49 91
REMARK H PARENT 73 41 39 52
REMARK Flexibility Score: inf
ROOT
ATOM      1  C   UNL A   1      34.704  34.118  27.626  1.00  0.00     0.202 C 
ENDROOT
BRANCH   1   2
ATOM      2  O   UNL A   1      34.787  35.224  28.527  1.00  0.00    -0.374 OA
BRANCH   2   3
ATOM      3  C   UNL A   1      33.826  36.272  28.369  1.00  0.00     0.202 C 
BRANCH   3   4
ATOM      4  C   UNL A   1      32.887  36.498  29.560  1.00  0.00     0.261 C 
BRANCH   4   5
ATOM      5  O   UNL A   1      33.428  37.507  30.427  1.00  0.00    -0.463 OA
BRANCH   5   6
ATOM      6  C   UNL A   1      33.216  37.339  31.760  1.00  0.00     0.313 C 
ATOM      7  O   UNL A   1      33.278  38.242  32.588  1.00  0.00    -0.252 OA
BRANCH   6   8
ATOM      8  C   UNL A   1      32.726  35.921  32.095  1.00  0.00     0.132 C 
ATOM      9  C   UNL A   1      31.402  35.920  32.877  1.00  0.00     0.025 C 
BRANCH   8  10
ATOM     10  C   UNL A   1      33.821  35.106  32.782  1.00  0.00     0.032 A 
ATOM     11  C   UNL A   1      34.417  35.401  33.956  1.00  0.00     0.012 A 
ATOM     12  C   UNL A   1      34.293  33.867  32.060  1.00  0.00     0.259 A 
ATOM     13  C   UNL A   1      35.454  34.578  34.522  1.00  0.00     0.019 A 
ATOM     14  N   UNL A   1      35.248  33.096  32.700  1.00  0.00    -0.258 N 
ATOM     15  O   UNL A   1      33.824  33.572  30.963  1.00  0.00    -0.269 OA
ATOM     16  C   UNL A   1      35.831  33.461  33.895  1.00  0.00     0.095 A 
BRANCH  14  17
ATOM     17  C   UNL A   1      35.686  31.893  32.039  1.00  0.00     0.451 C 
ATOM     18  F   UNL A   1      36.605  32.207  31.087  1.00  0.00    -0.185 F 
ATOM     19  F   UNL A   1      36.331  31.087  32.929  1.00  0.00    -0.185 F 
ENDBRANCH  14  17
ENDBRANCH   8  10
ENDBRANCH   6   8
ENDBRANCH   5   6
ENDBRANCH   4   5
ENDBRANCH   3   4
ENDBRANCH   2   3
ENDBRANCH   1   2
BRANCH   1  20
ATOM     20  C   UNL A   1      35.417  32.824  28.036  1.00  0.00     0.261 C 
BRANCH  20  21
ATOM     21  O   UNL A   1      34.500  31.749  28.307  1.00  0.00    -0.460 OA
BRANCH  21  22
ATOM     22  C   UNL A   1      34.785  30.590  27.668  1.00  0.00     0.338 C 
ATOM     23  O   UNL A   1      34.178  30.104  26.720  1.00  0.00    -0.246 OA
BRANCH  22  24
ATOM     24  C   UNL A   1      36.067  30.039  28.142  1.00  0.00     0.060 A 
ATOM     25  C   UNL A   1      36.076  29.432  29.405  1.00  0.00     0.016 A 
ATOM     26  C   UNL A   1      37.252  30.187  27.417  1.00  0.00     0.016 A 
ATOM     27  C   UNL A   1      37.279  29.019  29.972  1.00  0.00     0.010 A 
ATOM     28  C   UNL A   1      38.461  29.779  27.993  1.00  0.00     0.010 A 
ATOM     29  C   UNL A   1      38.484  29.227  29.288  1.00  0.00    -0.014 A 
BRANCH  29  30
ATOM     30  C   UNL A   1      39.768  28.997  29.994  1.00  0.00     0.031 A 
ATOM     31  C   UNL A   1      40.695  27.922  29.494  1.00  0.00     0.074 A 
ATOM     32  C   UNL A   1      40.124  29.763  31.040  1.00  0.00     0.049 A 
ATOM     33  N   UNL A   1      41.858  27.546  29.961  1.00  0.00    -0.248 NA
ATOM     34  C   UNL A   1      40.253  27.173  28.307  1.00  0.00     0.031 C 
ATOM     35  C   UNL A   1      39.328  30.858  31.593  1.00  0.00     0.029 A 
ATOM     36  N   UNL A   1      41.249  29.734  31.826  1.00  0.00    -0.354 N 
ATOM     37  C   UNL A   1      42.285  26.517  29.130  1.00  0.00     0.074 A 
ATOM     38  C   UNL A   1      41.243  26.307  28.148  1.00  0.00     0.031 C 
ATOM     39  C   UNL A   1      39.986  31.389  32.638  1.00  0.00     0.029 A 
ATOM     40  C   UNL A   1      41.234  30.656  32.844  1.00  0.00     0.049 A 
ATOM     41  H   UNL A   1      41.995  29.110  31.675  1.00  0.00     0.167 HD
ATOM     42  C   UNL A   1      43.445  25.818  29.175  1.00  0.00     0.037 A 
ATOM     43  C   UNL A   1      42.117  30.872  33.839  1.00  0.00     0.037 A 
ATOM     44  C   UNL A   1      44.478  26.029  30.154  1.00  0.00     0.049 A 
ATOM     45  C   UNL A   1      43.372  30.042  33.907  1.00  0.00     0.074 A 
ATOM     46  C   UNL A   1      45.694  25.380  30.278  1.00  0.00     0.029 A 
ATOM     47  N   UNL A   1      44.414  26.954  31.186  1.00  0.00    -0.354 N 
ATOM     48  N   UNL A   1      43.773  29.085  33.102  1.00  0.00    -0.248 NA
ATOM     49  C   UNL A   1      44.298  30.322  35.014  1.00  0.00     0.031 C 
ATOM     50  C   UNL A   1      46.347  25.882  31.409  1.00  0.00     0.029 A 
ATOM     51  C   UNL A   1      45.558  26.879  31.963  1.00  0.00     0.049 A 
ATOM     52  H   UNL A   1      43.665  27.574  31.344  1.00  0.00     0.167 HD
ATOM     53  C   UNL A   1      45.005  28.666  33.592  1.00  0.00     0.074 A 
ATOM     54  C   UNL A   1      45.290  29.481  34.756  1.00  0.00     0.031 C 
ATOM     55  C   UNL A   1      45.829  27.698  33.119  1.00  0.00     0.037 A 
BRANCH  42  56
ATOM     56  C   UNL A   1      43.645  24.741  28.144  1.00  0.00     0.058 A 
ATOM     57  C   UNL A   1      44.285  24.999  26.922  1.00  0.00     0.135 A 
ATOM     58  C   UNL A   1      43.208  23.430  28.392  1.00  0.00     0.135 A 
ATOM     59  F   UNL A   1      44.706  26.239  26.627  1.00  0.00    -0.206 F 
ATOM     60  C   UNL A   1      44.459  24.000  25.968  1.00  0.00     0.059 A 
ATOM     61  C   UNL A   1      43.394  22.410  27.462  1.00  0.00     0.059 A 
ATOM     62  F   UNL A   1      42.588  23.130  29.544  1.00  0.00    -0.206 F 
ATOM     63  C   UNL A   1      44.007  22.710  26.247  1.00  0.00     0.060 A 
BRANCH  63  64
ATOM     64  S   UNL A   1      44.232  21.426  24.996  1.00  0.00     0.124 S 
ATOM     65  O   UNL A   1      44.080  22.193  23.763  1.00  0.00    -0.237 OA
ATOM     66  O   UNL A   1      45.581  20.945  25.280  1.00  0.00    -0.237 OA
ATOM     67  O   UNL A   1      43.158  20.481  25.283  1.00  0.00    -0.744 OA
ENDBRANCH  63  64
ENDBRANCH  42  56
BRANCH  43  68
ATOM     68  C   UNL A   1      41.837  31.914  34.862  1.00  0.00     0.058 A 
ATOM     69  C   UNL A   1      42.324  33.221  34.721  1.00  0.00     0.135 A 
ATOM     70  C   UNL A   1      41.063  31.623  35.996  1.00  0.00     0.135 A 
ATOM     71  F   UNL A   1      43.078  33.545  33.659  1.00  0.00    -0.206 F 
ATOM     72  C   UNL A   1      42.061  34.203  35.671  1.00  0.00     0.059 A 
ATOM     73  C   UNL A   1      40.766  32.593  36.948  1.00  0.00     0.059 A 
ATOM     74  F   UNL A   1      40.565  30.389  36.173  1.00  0.00    -0.206 F 
ATOM     75  C   UNL A   1      41.277  33.879  36.780  1.00  0.00     0.060 A 
BRANCH  75  76
ATOM     76  S   UNL A   1      40.890  35.176  37.977  1.00  0.00     0.124 S 
ATOM     77  O   UNL A   1      39.792  35.870  37.316  1.00  0.00    -0.237 OA
ATOM     78  O   UNL A   1      40.536  34.401  39.163  1.00  0.00    -0.237 OA
ATOM     79  O   UNL A   1      42.142  35.921  38.078  1.00  0.00    -0.744 OA
ENDBRANCH  75  76
ENDBRANCH  43  68
BRANCH  55  80
ATOM     80  C   UNL A   1      47.132  27.481  33.838  1.00  0.00     0.058 A 
ATOM     81  C   UNL A   1      48.292  28.193  33.494  1.00  0.00     0.135 A 
ATOM     82  C   UNL A   1      47.206  26.590  34.921  1.00  0.00     0.135 A 
ATOM     83  F   UNL A   1      48.276  29.053  32.463  1.00  0.00    -0.206 F 
ATOM     84  C   UNL A   1      49.486  28.014  34.185  1.00  0.00     0.059 A 
ATOM     85  C   UNL A   1      48.383  26.414  35.642  1.00  0.00     0.059 A 
ATOM     86  F   UNL A   1      46.124  25.893  35.298  1.00  0.00    -0.206 F 
ATOM     87  C   UNL A   1      49.521  27.121  35.259  1.00  0.00     0.060 A 
BRANCH  87  88
ATOM     88  S   UNL A   1      51.068  26.923  36.171  1.00  0.00     0.124 S 
ATOM     89  O   UNL A   1      51.421  25.544  35.852  1.00  0.00    -0.237 OA
ATOM     90  O   UNL A   1      51.918  27.949  35.575  1.00  0.00    -0.237 OA
ATOM     91  O   UNL A   1      50.679  27.168  37.556  1.00  0.00    -0.744 OA
ENDBRANCH  87  88
ENDBRANCH  55  80
ENDBRANCH  29  30
ENDBRANCH  22  24
ENDBRANCH  21  22
ENDBRANCH  20  21
ENDBRANCH   1  20
TORSDOF 19
ENDMDL
MODEL 3
REMARK VINA RESULT:      -9.5      4.367     11.770
REMARK SMILES C[C@@H](C(=O)OCCOCCOC(=O)c1ccc(-c2c3nc(c(-c4c(F)cc(S(=O)(=O)[O-])cc4F)c4ccc([nH]4)c(-c4c(F)cc(S(=O)(=O)[O-])cc4F)c4nc(c(-c5c(F)cc(S(=O)(=O)[O-])cc5F)c5ccc2[nH]5)C=C4)C=C3)cc1)c1cccn(C(F)F)c1=O
REMARK SMILES IDX 9 1 8 2 7 3 6 4 5 5 3 6 4 7 2 8 1 9 80 10 81 11 88 12 82 13
REMARK SMILES IDX 84 14 89 15 83 16 85 17 86 18 87 19 10 20 11 21 12 22 13 23
REMARK SMILES IDX 14 24 15 25 79 26 16 27 78 28 17 29 18 30 19 31 72 32 20 33
REMARK SMILES IDX 77 34 71 35 73 36 21 37 76 38 70 39 69 40 22 42 56 43 35 44
REMARK SMILES IDX 55 45 36 46 39 47 54 48 74 49 37 50 38 51 53 53 75 54 40 55
REMARK SMILES IDX 23 56 24 57 33 58 25 59 26 60 32 61 34 62 27 63 28 64 29 65
REMARK SMILES IDX 30 66 31 67 57 68 58 69 67 70 59 71 60 72 66 73 68 74 61 75
REMARK SMILES IDX 62 76 63 77 64 78 65 79 41 80 42 81 51 82 43 83 44 84 50 85
REMARK SMILES IDX 52 86 45 87 46 88 47 89 48 90 49 91
REMARK H PARENT 73 41 39 52
REMARK Flexibility Score: inf
ROOT
ATOM      1  C   UNL A   1      41.874  20.849  27.503  1.00  0.00     0.202 C 
ENDROOT
BRANCH   1   2
ATOM      2  O   UNL A   1      40.501  20.638  27.169  1.00  0.00    -0.374 OA
BRANCH   2   3
ATOM      3  C   UNL A   1      40.212  19.654  26.171  1.00  0.00     0.202 C 
BRANCH   3   4
ATOM      4  C   UNL A   1      38.898  19.850  25.407  1.00  0.00     0.261 C 
BRANCH   4   5
ATOM      5  O   UNL A   1      38.594  21.250  25.302  1.00  0.00    -0.463 OA
BRANCH   5   6
ATOM      6  C   UNL A   1      37.299  21.573  25.046  1.00  0.00     0.313 C 
ATOM      7  O   UNL A   1      36.376  20.764  25.029  1.00  0.00    -0.252 OA
BRANCH   6   8
ATOM      8  C   UNL A   1      37.089  23.091  24.943  1.00  0.00     0.132 C 
ATOM      9  C   UNL A   1      37.950  23.879  25.944  1.00  0.00     0.025 C 
BRANCH   8  10
ATOM     10  C   UNL A   1      35.606  23.452  25.025  1.00  0.00     0.032 A 
ATOM     11  C   UNL A   1      34.911  23.715  26.152  1.00  0.00     0.012 A 
ATOM     12  C   UNL A   1      34.848  23.490  23.720  1.00  0.00     0.259 A 
ATOM     13  C   UNL A   1      33.506  24.032  26.133  1.00  0.00     0.019 A 
ATOM     14  N   UNL A   1      33.516  23.865  23.782  1.00  0.00    -0.258 N 
ATOM     15  O   UNL A   1      35.413  23.211  22.666  1.00  0.00    -0.269 OA
ATOM     16  C   UNL A   1      32.857  24.106  24.969  1.00  0.00     0.095 A 
BRANCH  14  17
ATOM     17  C   UNL A   1      32.786  23.937  22.542  1.00  0.00     0.451 C 
ATOM     18  F   UNL A   1      32.311  22.704  22.221  1.00  0.00    -0.185 F 
ATOM     19  F   UNL A   1      31.689  24.731  22.698  1.00  0.00    -0.185 F 
ENDBRANCH  14  17
ENDBRANCH   8  10
ENDBRANCH   6   8
ENDBRANCH   5   6
ENDBRANCH   4   5
ENDBRANCH   3   4
ENDBRANCH   2   3
ENDBRANCH   1   2
BRANCH   1  20
ATOM     20  C   UNL A   1      42.434  22.262  27.308  1.00  0.00     0.261 C 
BRANCH  20  21
ATOM     21  O   UNL A   1      41.492  23.286  27.676  1.00  0.00    -0.460 OA
BRANCH  21  22
ATOM     22  C   UNL A   1      41.616  24.442  26.983  1.00  0.00     0.338 C 
ATOM     23  O   UNL A   1      41.876  24.560  25.791  1.00  0.00    -0.246 OA
BRANCH  22  24
ATOM     24  C   UNL A   1      41.214  25.591  27.814  1.00  0.00     0.060 A 
ATOM     25  C   UNL A   1      42.120  26.653  27.922  1.00  0.00     0.016 A 
ATOM     26  C   UNL A   1      40.022  25.596  28.544  1.00  0.00     0.016 A 
ATOM     27  C   UNL A   1      41.864  27.702  28.801  1.00  0.00     0.010 A 
ATOM     28  C   UNL A   1      39.772  26.648  29.434  1.00  0.00     0.010 A 
ATOM     29  C   UNL A   1      40.709  27.686  29.594  1.00  0.00    -0.014 A 
BRANCH  29  30
ATOM     30  C   UNL A   1      40.563  28.681  30.685  1.00  0.00     0.031 A 
ATOM     31  C   UNL A   1      41.454  28.576  31.894  1.00  0.00     0.074 A 
ATOM     32  C   UNL A   1      39.680  29.689  30.581  1.00  0.00     0.049 A 
ATOM     33  N   UNL A   1      41.492  29.329  32.962  1.00  0.00    -0.248 NA
ATOM     34  C   UNL A   1      42.432  27.477  31.895  1.00  0.00     0.031 C 
ATOM     35  C   UNL A   1      38.789  29.917  29.444  1.00  0.00     0.029 A 
ATOM     36  N   UNL A   1      39.385  30.711  31.449  1.00  0.00    -0.354 N 
ATOM     37  C   UNL A   1      42.494  28.796  33.765  1.00  0.00     0.074 A 
ATOM     38  C   UNL A   1      43.018  27.637  33.073  1.00  0.00     0.031 C 
ATOM     39  C   UNL A   1      38.038  31.005  29.691  1.00  0.00     0.029 A 
ATOM     40  C   UNL A   1      38.376  31.533  31.012  1.00  0.00     0.049 A 
ATOM     41  H   UNL A   1      39.854  30.841  32.306  1.00  0.00     0.167 HD
ATOM     42  C   UNL A   1      42.944  29.238  34.964  1.00  0.00     0.037 A 
ATOM     43  C   UNL A   1      37.780  32.580  31.615  1.00  0.00     0.037 A 
ATOM     44  C   UNL A   1      42.420  30.389  35.650  1.00  0.00     0.049 A 
ATOM     45  C   UNL A   1      38.254  33.018  32.976  1.00  0.00     0.074 A 
ATOM     46  C   UNL A   1      42.815  30.924  36.864  1.00  0.00     0.029 A 
ATOM     47  N   UNL A   1      41.378  31.180  35.186  1.00  0.00    -0.354 N 
ATOM     48  N   UNL A   1      39.216  32.516  33.715  1.00  0.00    -0.248 NA
ATOM     49  C   UNL A   1      37.567  34.165  33.585  1.00  0.00     0.031 C 
ATOM     50  C   UNL A   1      41.985  32.012  37.154  1.00  0.00     0.029 A 
ATOM     51  C   UNL A   1      41.103  32.185  36.099  1.00  0.00     0.049 A 
ATOM     52  H   UNL A   1      40.904  31.047  34.334  1.00  0.00     0.167 HD
ATOM     53  C   UNL A   1      39.265  33.300  34.863  1.00  0.00     0.074 A 
ATOM     54  C   UNL A   1      38.242  34.317  34.716  1.00  0.00     0.031 C 
ATOM     55  C   UNL A   1      40.083  33.192  35.939  1.00  0.00     0.037 A 
BRANCH  42  56
ATOM     56  C   UNL A   1      44.047  28.454  35.622  1.00  0.00     0.058 A 
ATOM     57  C   UNL A   1      43.775  27.409  36.519  1.00  0.00     0.135 A 
ATOM     58  C   UNL A   1      45.391  28.739  35.335  1.00  0.00     0.135 A 
ATOM     59  F   UNL A   1      42.508  27.107  36.842  1.00  0.00    -0.206 F 
ATOM     60  C   UNL A   1      44.799  26.693  37.132  1.00  0.00     0.059 A 
ATOM     61  C   UNL A   1      46.431  28.019  35.918  1.00  0.00     0.059 A 
ATOM     62  F   UNL A   1      45.706  29.729  34.485  1.00  0.00    -0.206 F 
ATOM     63  C   UNL A   1      46.124  27.008  36.827  1.00  0.00     0.060 A 
BRANCH  63  64
ATOM     64  S   UNL A   1      47.442  26.076  37.635  1.00  0.00     0.124 S 
ATOM     65  O   UNL A   1      47.692  26.894  38.819  1.00  0.00    -0.237 OA
ATOM     66  O   UNL A   1      46.809  24.784  37.880  1.00  0.00    -0.237 OA
ATOM     67  O   UNL A   1      48.512  26.069  36.642  1.00  0.00    -0.744 OA
ENDBRANCH  63  64
ENDBRANCH  42  56
BRANCH  43  68
ATOM     68  C   UNL A   1      36.656  33.281  30.938  1.00  0.00     0.058 A 
ATOM     69  C   UNL A   1      36.880  34.127  29.843  1.00  0.00     0.135 A 
ATOM     70  C   UNL A   1      35.332  33.106  31.370  1.00  0.00     0.135 A 
ATOM     71  F   UNL A   1      38.131  34.335  29.401  1.00  0.00    -0.206 F 
ATOM     72  C   UNL A   1      35.833  34.780  29.201  1.00  0.00     0.059 A 
ATOM     73  C   UNL A   1      34.266  33.730  30.730  1.00  0.00     0.059 A 
ATOM     74  F   UNL A   1      35.063  32.299  32.408  1.00  0.00    -0.206 F 
ATOM     75  C   UNL A   1      34.528  34.572  29.650  1.00  0.00     0.060 A 
BRANCH  75  76
ATOM     76  S   UNL A   1      33.170  35.378  28.774  1.00  0.00     0.124 S 
ATOM     77  O   UNL A   1      33.881  36.370  27.977  1.00  0.00    -0.237 OA
ATOM     78  O   UNL A   1      32.580  34.266  28.034  1.00  0.00    -0.237 OA
ATOM     79  O   UNL A   1      32.343  35.909  29.854  1.00  0.00    -0.744 OA
ENDBRANCH  75  76
ENDBRANCH  43  68
BRANCH  55  80
ATOM     80  C   UNL A   1      39.931  34.212  37.033  1.00  0.00     0.058 A 
ATOM     81  C   UNL A   1      40.517  35.484  36.942  1.00  0.00     0.135 A 
ATOM     82  C   UNL A   1      39.144  33.933  38.161  1.00  0.00     0.135 A 
ATOM     83  F   UNL A   1      41.284  35.801  35.886  1.00  0.00    -0.206 F 
ATOM     84  C   UNL A   1      40.346  36.437  37.941  1.00  0.00     0.059 A 
ATOM     85  C   UNL A   1      38.938  34.879  39.161  1.00  0.00     0.059 A 
ATOM     86  F   UNL A   1      38.552  32.736  38.293  1.00  0.00    -0.206 F 
ATOM     87  C   UNL A   1      39.553  36.125  39.047  1.00  0.00     0.060 A 
BRANCH  87  88
ATOM     88  S   UNL A   1      39.309  37.381  40.322  1.00  0.00     0.124 S 
ATOM     89  O   UNL A   1      38.491  38.361  39.614  1.00  0.00    -0.237 OA
ATOM     90  O   UNL A   1      38.632  36.633  41.376  1.00  0.00    -0.237 OA
ATOM     91  O   UNL A   1      40.668  37.810  40.640  1.00  0.00    -0.744 OA
ENDBRANCH  87  88
ENDBRANCH  55  80
ENDBRANCH  29  30
ENDBRANCH  22  24
ENDBRANCH  21  22
ENDBRANCH  20  21
ENDBRANCH   1  20
TORSDOF 19
ENDMDL
