MODEL 1
REMARK VINA RESULT:     -11.9      0.000      0.000
REMARK SMILES Cc1ccc2cc(C[N@H+]3CC[NH2+][C@H](C(=O)OCCOCCOC(=O)c4ccc(-c5c6nc(c(-c7c(F)cc(S(=O)(=O)[O-])cc7F)c7ccc([nH]7)c(-c7c(F)cc(S(=O)(=O)[O-])cc7F)c7nc(c(-c8c(F)cc(S(=O)(=O)[O-])cc8F)c8ccc5[nH]8)C=C7)C=C6)cc4)C3)c(N3CCOCC3)nc2c1
REMARK SMILES IDX 19 1 18 2 17 3 16 4 14 5 15 6 13 7 9 8 10 9 91 10 11 12
REMARK SMILES IDX 12 13 8 16 7 17 1 18 2 19 3 20 101 21 4 22 100 23 5 24 99 25
REMARK SMILES IDX 6 26 92 27 93 28 94 29 98 30 95 31 97 32 96 33 20 34 21 35
REMARK SMILES IDX 22 36 23 37 24 38 25 39 26 40 90 41 27 42 89 43 28 44 29 45
REMARK SMILES IDX 30 46 83 47 31 48 88 49 82 50 84 51 32 52 87 53 81 54 80 55
REMARK SMILES IDX 33 57 67 58 46 59 66 60 47 61 50 62 65 63 85 64 48 65 49 66
REMARK SMILES IDX 64 68 86 69 51 70 34 71 35 72 44 73 36 74 37 75 43 76 45 77
REMARK SMILES IDX 38 78 39 79 40 80 41 81 42 82 68 83 69 84 78 85 70 86 71 87
REMARK SMILES IDX 77 88 79 89 72 90 73 91 74 92 75 93 76 94 52 95 53 96 62 97
REMARK SMILES IDX 54 98 55 99 61 100 63 101 56 102 57 103 58 104 59 105 60 106
REMARK H PARENT 9 11 12 14 12 15 84 56 50 67
REMARK Flexibility Score: inf
ROOT
ATOM      1  O   UNL A   1      39.154  22.004  25.691  1.00  0.00    -0.374 OA
ENDROOT
BRANCH   1   2
ATOM      2  C   UNL A   1      38.305  20.901  25.366  1.00  0.00     0.202 C 
BRANCH   2   3
ATOM      3  C   UNL A   1      36.816  21.237  25.363  1.00  0.00     0.261 C 
BRANCH   3   4
ATOM      4  O   UNL A   1      36.577  22.297  24.428  1.00  0.00    -0.459 OA
BRANCH   4   5
ATOM      5  C   UNL A   1      36.136  23.471  24.957  1.00  0.00     0.371 C 
ATOM      6  O   UNL A   1      36.761  24.181  25.735  1.00  0.00    -0.245 OA
BRANCH   5   7
ATOM      7  C   UNL A   1      34.749  23.806  24.411  1.00  0.00     0.348 C 
ATOM      8  N   UNL A   1      33.232  23.069  22.457  1.00  0.00    -0.321 N 
ATOM      9  C   UNL A   1      33.157  24.500  22.133  1.00  0.00     0.324 C 
ATOM     10  C   UNL A   1      34.401  22.772  23.301  1.00  0.00     0.341 C 
ATOM     11  H   UNL A   1      33.410  22.573  21.584  1.00  0.00     0.348 HD
ATOM     12  C   UNL A   1      33.429  25.470  23.305  1.00  0.00     0.323 C 
ATOM     13  N   UNL A   1      34.723  25.215  23.952  1.00  0.00    -0.325 N 
ATOM     14  H   UNL A   1      34.839  25.839  24.750  1.00  0.00     0.347 HD
ATOM     15  H   UNL A   1      35.484  25.382  23.292  1.00  0.00     0.347 HD
BRANCH   8  16
ATOM     16  C   UNL A   1      31.955  22.440  22.835  1.00  0.00     0.303 C 
BRANCH  16  17
ATOM     17  C   UNL A   1      32.014  21.117  23.565  1.00  0.00     0.049 A 
ATOM     18  C   UNL A   1      34.157  15.242  25.289  1.00  0.00     0.044 C 
ATOM     19  C   UNL A   1      33.674  16.515  24.657  1.00  0.00    -0.049 A 
ATOM     20  C   UNL A   1      33.714  16.637  23.273  1.00  0.00     0.004 A 
ATOM     21  C   UNL A   1      33.147  17.574  25.419  1.00  0.00     0.032 A 
ATOM     22  C   UNL A   1      33.193  17.763  22.659  1.00  0.00     0.010 A 
ATOM     23  C   UNL A   1      32.690  18.759  24.833  1.00  0.00     0.073 A 
ATOM     24  C   UNL A   1      32.684  18.810  23.431  1.00  0.00     0.001 A 
ATOM     25  N   UNL A   1      32.308  19.824  25.577  1.00  0.00    -0.230 NA
ATOM     26  C   UNL A   1      32.250  19.971  22.809  1.00  0.00     0.023 A 
ATOM     27  C   UNL A   1      31.999  20.996  24.963  1.00  0.00     0.138 A 
BRANCH  27  28
ATOM     28  N   UNL A   1      31.767  22.108  25.747  1.00  0.00    -0.352 N 
ATOM     29  C   UNL A   1      30.392  22.447  26.119  1.00  0.00     0.146 C 
ATOM     30  C   UNL A   1      32.755  22.494  26.756  1.00  0.00     0.146 C 
ATOM     31  C   UNL A   1      30.330  23.968  26.343  1.00  0.00     0.181 C 
ATOM     32  C   UNL A   1      32.613  24.013  26.993  1.00  0.00     0.181 C 
ATOM     33  O   UNL A   1      31.268  24.388  27.354  1.00  0.00    -0.378 OA
ENDBRANCH  27  28
ENDBRANCH  16  17
ENDBRANCH   8  16
ENDBRANCH   5   7
ENDBRANCH   4   5
ENDBRANCH   3   4
ENDBRANCH   2   3
ENDBRANCH   1   2
BRANCH   1  34
ATOM     34  C   UNL A   1      40.194  21.723  26.630  1.00  0.00     0.202 C 
BRANCH  34  35
ATOM     35  C   UNL A   1      41.576  22.274  26.250  1.00  0.00     0.261 C 
BRANCH  35  36
ATOM     36  O   UNL A   1      41.975  23.337  27.137  1.00  0.00    -0.460 OA
BRANCH  36  37
ATOM     37  C   UNL A   1      42.090  24.568  26.581  1.00  0.00     0.338 C 
ATOM     38  O   UNL A   1      42.234  24.824  25.398  1.00  0.00    -0.246 OA
BRANCH  37  39
ATOM     39  C   UNL A   1      41.765  25.586  27.607  1.00  0.00     0.060 A 
ATOM     40  C   UNL A   1      40.600  25.521  28.371  1.00  0.00     0.016 A 
ATOM     41  C   UNL A   1      42.659  26.652  27.780  1.00  0.00     0.016 A 
ATOM     42  C   UNL A   1      40.334  26.523  29.312  1.00  0.00     0.010 A 
ATOM     43  C   UNL A   1      42.398  27.644  28.729  1.00  0.00     0.010 A 
ATOM     44  C   UNL A   1      41.242  27.581  29.517  1.00  0.00    -0.014 A 
BRANCH  44  45
ATOM     45  C   UNL A   1      41.066  28.515  30.663  1.00  0.00     0.031 A 
ATOM     46  C   UNL A   1      41.918  28.443  31.899  1.00  0.00     0.074 A 
ATOM     47  C   UNL A   1      40.071  29.420  30.587  1.00  0.00     0.049 A 
ATOM     48  N   UNL A   1      41.872  29.195  32.969  1.00  0.00    -0.248 NA
ATOM     49  C   UNL A   1      42.944  27.391  31.948  1.00  0.00     0.031 C 
ATOM     50  C   UNL A   1      39.151  29.560  29.456  1.00  0.00     0.029 A 
ATOM     51  N   UNL A   1      39.664  30.391  31.467  1.00  0.00    -0.354 N 
ATOM     52  C   UNL A   1      42.868  28.724  33.816  1.00  0.00     0.074 A 
ATOM     53  C   UNL A   1      43.473  27.586  33.150  1.00  0.00     0.031 C 
ATOM     54  C   UNL A   1      38.313  30.579  29.693  1.00  0.00     0.029 A 
ATOM     55  C   UNL A   1      38.602  31.135  31.011  1.00  0.00     0.049 A 
ATOM     56  H   UNL A   1      40.092  30.540  32.341  1.00  0.00     0.167 HD
ATOM     57  C   UNL A   1      43.252  29.205  35.026  1.00  0.00     0.037 A 
ATOM     58  C   UNL A   1      37.927  32.149  31.586  1.00  0.00     0.037 A 
ATOM     59  C   UNL A   1      42.633  30.329  35.688  1.00  0.00     0.049 A 
ATOM     60  C   UNL A   1      38.340  32.631  32.946  1.00  0.00     0.074 A 
ATOM     61  C   UNL A   1      42.978  30.908  36.899  1.00  0.00     0.029 A 
ATOM     62  N   UNL A   1      41.540  31.039  35.210  1.00  0.00    -0.354 N 
ATOM     63  N   UNL A   1      39.324  32.210  33.704  1.00  0.00    -0.248 NA
ATOM     64  C   UNL A   1      37.554  33.726  33.530  1.00  0.00     0.031 C 
ATOM     65  C   UNL A   1      42.062  31.929  37.178  1.00  0.00     0.029 A 
ATOM     66  C   UNL A   1      41.181  32.028  36.114  1.00  0.00     0.049 A 
ATOM     67  H   UNL A   1      41.086  30.864  34.354  1.00  0.00     0.167 HD
ATOM     68  C   UNL A   1      39.289  33.003  34.846  1.00  0.00     0.074 A 
ATOM     69  C   UNL A   1      38.197  33.939  34.671  1.00  0.00     0.031 C 
ATOM     70  C   UNL A   1      40.089  32.956  35.939  1.00  0.00     0.037 A 
BRANCH  57  71
ATOM     71  C   UNL A   1      44.406  28.531  35.723  1.00  0.00     0.058 A 
ATOM     72  C   UNL A   1      45.732  28.925  35.488  1.00  0.00     0.135 A 
ATOM     73  C   UNL A   1      44.181  27.540  36.694  1.00  0.00     0.135 A 
ATOM     74  F   UNL A   1      46.008  29.862  34.568  1.00  0.00    -0.206 F 
ATOM     75  C   UNL A   1      46.796  28.347  36.176  1.00  0.00     0.059 A 
ATOM     76  C   UNL A   1      45.228  26.968  37.413  1.00  0.00     0.059 A 
ATOM     77  F   UNL A   1      42.933  27.129  36.965  1.00  0.00    -0.206 F 
ATOM     78  C   UNL A   1      46.535  27.371  37.139  1.00  0.00     0.060 A 
BRANCH  78  79
ATOM     79  S   UNL A   1      47.928  26.643  38.025  1.00  0.00     0.124 S 
ATOM     80  O   UNL A   1      47.260  25.640  38.847  1.00  0.00    -0.237 OA
ATOM     81  O   UNL A   1      48.750  26.124  36.936  1.00  0.00    -0.237 OA
ATOM     82  O   UNL A   1      48.498  27.772  38.754  1.00  0.00    -0.744 OA
ENDBRANCH  78  79
ENDBRANCH  57  71
BRANCH  58  83
ATOM     83  C   UNL A   1      36.806  32.791  30.850  1.00  0.00     0.058 A 
ATOM     84  C   UNL A   1      35.474  32.506  31.182  1.00  0.00     0.135 A 
ATOM     85  C   UNL A   1      37.042  33.733  29.835  1.00  0.00     0.135 A 
ATOM     86  F   UNL A   1      35.200  31.609  32.142  1.00  0.00    -0.206 F 
ATOM     87  C   UNL A   1      34.414  33.126  30.532  1.00  0.00     0.059 A 
ATOM     88  C   UNL A   1      35.999  34.387  29.190  1.00  0.00     0.059 A 
ATOM     89  F   UNL A   1      38.300  34.053  29.494  1.00  0.00    -0.206 F 
ATOM     90  C   UNL A   1      34.687  34.072  29.542  1.00  0.00     0.060 A 
BRANCH  90  91
ATOM     91  S   UNL A   1      33.300  34.915  28.751  1.00  0.00     0.124 S 
ATOM     92  O   UNL A   1      32.437  35.198  29.893  1.00  0.00    -0.237 OA
ATOM     93  O   UNL A   1      33.954  36.069  28.143  1.00  0.00    -0.237 OA
ATOM     94  O   UNL A   1      32.794  33.920  27.809  1.00  0.00    -0.744 OA
ENDBRANCH  90  91
ENDBRANCH  58  83
BRANCH  70  95
ATOM     95  C   UNL A   1      39.831  33.955  37.035  1.00  0.00     0.058 A 
ATOM     96  C   UNL A   1      38.976  33.666  38.110  1.00  0.00     0.135 A 
ATOM     97  C   UNL A   1      40.492  35.195  37.043  1.00  0.00     0.135 A 
ATOM     98  F   UNL A   1      38.311  32.501  38.150  1.00  0.00    -0.206 F 
ATOM     99  C   UNL A   1      38.771  34.575  39.143  1.00  0.00     0.059 A 
ATOM    100  C   UNL A   1      40.325  36.108  38.081  1.00  0.00     0.059 A 
ATOM    101  F   UNL A   1      41.327  35.522  36.044  1.00  0.00    -0.206 F 
ATOM    102  C   UNL A   1      39.455  35.792  39.123  1.00  0.00     0.060 A 
BRANCH 102 103
ATOM    103  S   UNL A   1      39.208  36.943  40.491  1.00  0.00     0.124 S 
ATOM    104  O   UNL A   1      38.458  38.015  39.845  1.00  0.00    -0.237 OA
ATOM    105  O   UNL A   1      38.459  36.132  41.447  1.00  0.00    -0.237 OA
ATOM    106  O   UNL A   1      40.567  37.288  40.898  1.00  0.00    -0.744 OA
ENDBRANCH 102 103
ENDBRANCH  70  95
ENDBRANCH  44  45
ENDBRANCH  37  39
ENDBRANCH  36  37
ENDBRANCH  35  36
ENDBRANCH  34  35
ENDBRANCH   1  34
TORSDOF 20
ENDMDL
MODEL 2
REMARK VINA RESULT:     -11.9      6.163     11.663
REMARK SMILES Cc1ccc2cc(C[N@H+]3CC[NH2+][C@H](C(=O)OCCOCCOC(=O)c4ccc(-c5c6nc(c(-c7c(F)cc(S(=O)(=O)[O-])cc7F)c7ccc([nH]7)c(-c7c(F)cc(S(=O)(=O)[O-])cc7F)c7nc(c(-c8c(F)cc(S(=O)(=O)[O-])cc8F)c8ccc5[nH]8)C=C7)C=C6)cc4)C3)c(N3CCOCC3)nc2c1
REMARK SMILES IDX 19 1 18 2 17 3 16 4 14 5 15 6 13 7 9 8 10 9 91 10 11 12
REMARK SMILES IDX 12 13 8 16 7 17 1 18 2 19 3 20 101 21 4 22 100 23 5 24 99 25
REMARK SMILES IDX 6 26 92 27 93 28 94 29 98 30 95 31 97 32 96 33 20 34 21 35
REMARK SMILES IDX 22 36 23 37 24 38 25 39 26 40 90 41 27 42 89 43 28 44 29 45
REMARK SMILES IDX 30 46 83 47 31 48 88 49 82 50 84 51 32 52 87 53 81 54 80 55
REMARK SMILES IDX 33 57 67 58 46 59 66 60 47 61 50 62 65 63 85 64 48 65 49 66
REMARK SMILES IDX 64 68 86 69 51 70 34 71 35 72 44 73 36 74 37 75 43 76 45 77
REMARK SMILES IDX 38 78 39 79 40 80 41 81 42 82 68 83 69 84 78 85 70 86 71 87
REMARK SMILES IDX 77 88 79 89 72 90 73 91 74 92 75 93 76 94 52 95 53 96 62 97
REMARK SMILES IDX 54 98 55 99 61 100 63 101 56 102 57 103 58 104 59 105 60 106
REMARK H PARENT 9 11 12 14 12 15 84 56 50 67
REMARK Flexibility Score: inf
ROOT
ATOM      1  O   UNL A   1      33.946  33.009  29.791  1.00  0.00    -0.374 OA
ENDROOT
BRANCH   1   2
ATOM      2  C   UNL A   1      34.010  33.114  28.367  1.00  0.00     0.202 C 
BRANCH   2   3
ATOM      3  C   UNL A   1      34.368  31.811  27.657  1.00  0.00     0.261 C 
BRANCH   3   4
ATOM      4  O   UNL A   1      33.305  30.868  27.845  1.00  0.00    -0.459 OA
BRANCH   4   5
ATOM      5  C   UNL A   1      32.377  30.809  26.850  1.00  0.00     0.371 C 
ATOM      6  O   UNL A   1      31.586  31.698  26.559  1.00  0.00    -0.245 OA
BRANCH   5   7
ATOM      7  C   UNL A   1      32.483  29.475  26.112  1.00  0.00     0.348 C 
ATOM      8  N   UNL A   1      32.965  27.005  26.682  1.00  0.00    -0.321 N 
ATOM      9  C   UNL A   1      34.000  27.092  25.643  1.00  0.00     0.324 C 
ATOM     10  C   UNL A   1      32.585  28.340  27.171  1.00  0.00     0.341 C 
ATOM     11  H   UNL A   1      33.387  26.545  27.489  1.00  0.00     0.348 HD
ATOM     12  C   UNL A   1      33.789  28.186  24.573  1.00  0.00     0.323 C 
ATOM     13  N   UNL A   1      33.622  29.521  25.166  1.00  0.00    -0.325 N 
ATOM     14  H   UNL A   1      33.432  30.203  24.431  1.00  0.00     0.347 HD
ATOM     15  H   UNL A   1      34.474  29.796  25.656  1.00  0.00     0.347 HD
BRANCH   8  16
ATOM     16  C   UNL A   1      31.873  26.055  26.407  1.00  0.00     0.303 C 
BRANCH  16  17
ATOM     17  C   UNL A   1      32.175  24.884  25.500  1.00  0.00     0.049 A 
ATOM     18  C   UNL A   1      32.599  18.728  23.497  1.00  0.00     0.044 C 
ATOM     19  C   UNL A   1      32.620  20.073  24.164  1.00  0.00    -0.049 A 
ATOM     20  C   UNL A   1      33.057  20.165  25.481  1.00  0.00     0.004 A 
ATOM     21  C   UNL A   1      32.248  21.249  23.487  1.00  0.00     0.032 A 
ATOM     22  C   UNL A   1      33.172  21.402  26.090  1.00  0.00     0.010 A 
ATOM     23  C   UNL A   1      32.272  22.504  24.103  1.00  0.00     0.073 A 
ATOM     24  C   UNL A   1      32.787  22.559  25.407  1.00  0.00     0.001 A 
ATOM     25  N   UNL A   1      31.788  23.611  23.492  1.00  0.00    -0.230 NA
ATOM     26  C   UNL A   1      32.818  23.782  26.060  1.00  0.00     0.023 A 
ATOM     27  C   UNL A   1      31.713  24.780  24.180  1.00  0.00     0.138 A 
BRANCH  27  28
ATOM     28  N   UNL A   1      31.071  25.850  23.590  1.00  0.00    -0.352 N 
ATOM     29  C   UNL A   1      31.517  26.315  22.275  1.00  0.00     0.146 C 
ATOM     30  C   UNL A   1      29.639  26.046  23.821  1.00  0.00     0.146 C 
ATOM     31  C   UNL A   1      31.180  27.813  22.170  1.00  0.00     0.181 C 
ATOM     32  C   UNL A   1      29.337  27.550  23.643  1.00  0.00     0.181 C 
ATOM     33  O   UNL A   1      29.771  28.047  22.361  1.00  0.00    -0.378 OA
ENDBRANCH  27  28
ENDBRANCH  16  17
ENDBRANCH   8  16
ENDBRANCH   5   7
ENDBRANCH   4   5
ENDBRANCH   3   4
ENDBRANCH   2   3
ENDBRANCH   1   2
BRANCH   1  34
ATOM     34  C   UNL A   1      34.689  33.992  30.514  1.00  0.00     0.202 C 
BRANCH  34  35
ATOM     35  C   UNL A   1      35.811  33.432  31.402  1.00  0.00     0.261 C 
BRANCH  35  36
ATOM     36  O   UNL A   1      36.716  32.611  30.640  1.00  0.00    -0.460 OA
BRANCH  36  37
ATOM     37  C   UNL A   1      36.830  31.320  31.038  1.00  0.00     0.338 C 
ATOM     38  O   UNL A   1      35.974  30.646  31.586  1.00  0.00    -0.246 OA
BRANCH  37  39
ATOM     39  C   UNL A   1      38.084  30.759  30.484  1.00  0.00     0.060 A 
ATOM     40  C   UNL A   1      38.289  30.621  29.111  1.00  0.00     0.016 A 
ATOM     41  C   UNL A   1      39.071  30.338  31.386  1.00  0.00     0.016 A 
ATOM     42  C   UNL A   1      39.486  30.065  28.644  1.00  0.00     0.010 A 
ATOM     43  C   UNL A   1      40.269  29.796  30.918  1.00  0.00     0.010 A 
ATOM     44  C   UNL A   1      40.497  29.668  29.541  1.00  0.00    -0.014 A 
BRANCH  44  45
ATOM     45  C   UNL A   1      41.846  29.287  29.039  1.00  0.00     0.031 A 
ATOM     46  C   UNL A   1      42.979  30.270  28.947  1.00  0.00     0.074 A 
ATOM     47  C   UNL A   1      42.021  28.021  28.613  1.00  0.00     0.049 A 
ATOM     48  N   UNL A   1      44.204  30.070  28.530  1.00  0.00    -0.248 NA
ATOM     49  C   UNL A   1      42.706  31.652  29.366  1.00  0.00     0.031 C 
ATOM     50  C   UNL A   1      40.984  26.986  28.615  1.00  0.00     0.029 A 
ATOM     51  N   UNL A   1      43.123  27.385  28.101  1.00  0.00    -0.354 N 
ATOM     52  C   UNL A   1      44.856  31.291  28.647  1.00  0.00     0.074 A 
ATOM     53  C   UNL A   1      43.874  32.240  29.133  1.00  0.00     0.031 C 
ATOM     54  C   UNL A   1      41.508  25.838  28.162  1.00  0.00     0.029 A 
ATOM     55  C   UNL A   1      42.901  26.063  27.793  1.00  0.00     0.049 A 
ATOM     56  H   UNL A   1      43.990  27.832  27.966  1.00  0.00     0.167 HD
ATOM     57  C   UNL A   1      46.155  31.588  28.388  1.00  0.00     0.037 A 
ATOM     58  C   UNL A   1      43.721  25.133  27.268  1.00  0.00     0.037 A 
ATOM     59  C   UNL A   1      47.123  30.639  27.889  1.00  0.00     0.049 A 
ATOM     60  C   UNL A   1      45.141  25.499  26.945  1.00  0.00     0.074 A 
ATOM     61  C   UNL A   1      48.470  30.842  27.631  1.00  0.00     0.029 A 
ATOM     62  N   UNL A   1      46.854  29.318  27.560  1.00  0.00    -0.354 N 
ATOM     63  N   UNL A   1      45.755  26.645  27.120  1.00  0.00    -0.248 NA
ATOM     64  C   UNL A   1      45.980  24.448  26.356  1.00  0.00     0.031 C 
ATOM     65  C   UNL A   1      49.000  29.663  27.097  1.00  0.00     0.029 A 
ATOM     66  C   UNL A   1      48.001  28.705  27.076  1.00  0.00     0.049 A 
ATOM     67  H   UNL A   1      45.977  28.881  27.657  1.00  0.00     0.167 HD
ATOM     68  C   UNL A   1      47.059  26.446  26.682  1.00  0.00     0.074 A 
ATOM     69  C   UNL A   1      47.150  25.067  26.251  1.00  0.00     0.031 C 
ATOM     70  C   UNL A   1      48.086  27.330  26.641  1.00  0.00     0.037 A 
BRANCH  57  71
ATOM     71  C   UNL A   1      46.625  32.996  28.648  1.00  0.00     0.058 A 
ATOM     72  C   UNL A   1      46.558  33.984  27.652  1.00  0.00     0.135 A 
ATOM     73  C   UNL A   1      47.068  33.385  29.924  1.00  0.00     0.135 A 
ATOM     74  F   UNL A   1      46.148  33.670  26.414  1.00  0.00    -0.206 F 
ATOM     75  C   UNL A   1      46.932  35.301  27.906  1.00  0.00     0.059 A 
ATOM     76  C   UNL A   1      47.421  34.702  30.207  1.00  0.00     0.059 A 
ATOM     77  F   UNL A   1      47.146  32.485  30.916  1.00  0.00    -0.206 F 
ATOM     78  C   UNL A   1      47.360  35.652  29.188  1.00  0.00     0.060 A 
BRANCH  78  79
ATOM     79  S   UNL A   1      47.830  37.367  29.496  1.00  0.00     0.124 S 
ATOM     80  O   UNL A   1      48.533  37.703  28.262  1.00  0.00    -0.237 OA
ATOM     81  O   UNL A   1      46.536  38.014  29.684  1.00  0.00    -0.237 OA
ATOM     82  O   UNL A   1      48.667  37.284  30.689  1.00  0.00    -0.744 OA
ENDBRANCH  78  79
ENDBRANCH  57  71
BRANCH  58  83
ATOM     83  C   UNL A   1      43.213  23.753  27.046  1.00  0.00     0.058 A 
ATOM     84  C   UNL A   1      42.919  23.297  25.753  1.00  0.00     0.135 A 
ATOM     85  C   UNL A   1      43.056  22.852  28.111  1.00  0.00     0.135 A 
ATOM     86  F   UNL A   1      43.050  24.124  24.704  1.00  0.00    -0.206 F 
ATOM     87  C   UNL A   1      42.481  21.998  25.522  1.00  0.00     0.059 A 
ATOM     88  C   UNL A   1      42.647  21.540  27.902  1.00  0.00     0.059 A 
ATOM     89  F   UNL A   1      43.342  23.235  29.365  1.00  0.00    -0.206 F 
ATOM     90  C   UNL A   1      42.356  21.124  26.603  1.00  0.00     0.060 A 
BRANCH  90  91
ATOM     91  S   UNL A   1      41.847  19.422  26.279  1.00  0.00     0.124 S 
ATOM     92  O   UNL A   1      42.621  19.106  25.084  1.00  0.00    -0.237 OA
ATOM     93  O   UNL A   1      42.257  18.746  27.505  1.00  0.00    -0.237 OA
ATOM     94  O   UNL A   1      40.403  19.534  26.085  1.00  0.00    -0.744 OA
ENDBRANCH  90  91
ENDBRANCH  58  83
BRANCH  70  95
ATOM     95  C   UNL A   1      49.411  26.836  26.126  1.00  0.00     0.058 A 
ATOM     96  C   UNL A   1      49.806  27.039  24.794  1.00  0.00     0.135 A 
ATOM     97  C   UNL A   1      50.323  26.203  26.987  1.00  0.00     0.135 A 
ATOM     98  F   UNL A   1      48.971  27.629  23.924  1.00  0.00    -0.206 F 
ATOM     99  C   UNL A   1      51.048  26.617  24.330  1.00  0.00     0.059 A 
ATOM    100  C   UNL A   1      51.583  25.799  26.553  1.00  0.00     0.059 A 
ATOM    101  F   UNL A   1      50.001  25.989  28.273  1.00  0.00    -0.206 F 
ATOM    102  C   UNL A   1      51.933  26.003  25.219  1.00  0.00     0.060 A 
BRANCH 102 103
ATOM    103  S   UNL A   1      53.556  25.498  24.610  1.00  0.00     0.124 S 
ATOM    104  O   UNL A   1      53.502  25.944  23.222  1.00  0.00    -0.237 OA
ATOM    105  O   UNL A   1      54.459  26.244  25.481  1.00  0.00    -0.237 OA
ATOM    106  O   UNL A   1      53.559  24.051  24.804  1.00  0.00    -0.744 OA
ENDBRANCH 102 103
ENDBRANCH  70  95
ENDBRANCH  44  45
ENDBRANCH  37  39
ENDBRANCH  36  37
ENDBRANCH  35  36
ENDBRANCH  34  35
ENDBRANCH   1  34
TORSDOF 20
ENDMDL
MODEL 3
REMARK VINA RESULT:     -11.5      2.510      9.053
REMARK SMILES Cc1ccc2cc(C[N@H+]3CC[NH2+][C@H](C(=O)OCCOCCOC(=O)c4ccc(-c5c6nc(c(-c7c(F)cc(S(=O)(=O)[O-])cc7F)c7ccc([nH]7)c(-c7c(F)cc(S(=O)(=O)[O-])cc7F)c7nc(c(-c8c(F)cc(S(=O)(=O)[O-])cc8F)c8ccc5[nH]8)C=C7)C=C6)cc4)C3)c(N3CCOCC3)nc2c1
REMARK SMILES IDX 19 1 18 2 17 3 16 4 14 5 15 6 13 7 9 8 10 9 91 10 11 12
REMARK SMILES IDX 12 13 8 16 7 17 1 18 2 19 3 20 101 21 4 22 100 23 5 24 99 25
REMARK SMILES IDX 6 26 92 27 93 28 94 29 98 30 95 31 97 32 96 33 20 34 21 35
REMARK SMILES IDX 22 36 23 37 24 38 25 39 26 40 90 41 27 42 89 43 28 44 29 45
REMARK SMILES IDX 30 46 83 47 31 48 88 49 82 50 84 51 32 52 87 53 81 54 80 55
REMARK SMILES IDX 33 57 67 58 46 59 66 60 47 61 50 62 65 63 85 64 48 65 49 66
REMARK SMILES IDX 64 68 86 69 51 70 34 71 35 72 44 73 36 74 37 75 43 76 45 77
REMARK SMILES IDX 38 78 39 79 40 80 41 81 42 82 68 83 69 84 78 85 70 86 71 87
REMARK SMILES IDX 77 88 79 89 72 90 73 91 74 92 75 93 76 94 52 95 53 96 62 97
REMARK SMILES IDX 54 98 55 99 61 100 63 101 56 102 57 103 58 104 59 105 60 106
REMARK H PARENT 9 11 12 14 12 15 84 56 50 67
REMARK Flexibility Score: inf
ROOT
ATOM      1  O   UNL A   1      36.665  23.724  24.811  1.00  0.00    -0.374 OA
ENDROOT
BRANCH   1   2
ATOM      2  C   UNL A   1      36.460  22.494  24.112  1.00  0.00     0.202 C 
BRANCH   2   3
ATOM      3  C   UNL A   1      35.291  21.664  24.635  1.00  0.00     0.261 C 
BRANCH   3   4
ATOM      4  O   UNL A   1      34.189  22.535  24.922  1.00  0.00    -0.459 OA
BRANCH   4   5
ATOM      5  C   UNL A   1      33.374  22.832  23.873  1.00  0.00     0.371 C 
ATOM      6  O   UNL A   1      32.979  22.036  23.029  1.00  0.00    -0.245 OA
BRANCH   5   7
ATOM      7  C   UNL A   1      32.983  24.308  23.912  1.00  0.00     0.348 C 
ATOM      8  N   UNL A   1      31.214  25.849  22.836  1.00  0.00    -0.321 N 
ATOM      9  C   UNL A   1      32.357  26.678  22.430  1.00  0.00     0.324 C 
ATOM     10  C   UNL A   1      31.635  24.475  23.152  1.00  0.00     0.341 C 
ATOM     11  H   UNL A   1      30.608  25.753  22.021  1.00  0.00     0.348 HD
ATOM     12  C   UNL A   1      33.636  26.525  23.283  1.00  0.00     0.323 C 
ATOM     13  N   UNL A   1      34.088  25.129  23.365  1.00  0.00    -0.325 N 
ATOM     14  H   UNL A   1      34.901  25.066  23.979  1.00  0.00     0.347 HD
ATOM     15  H   UNL A   1      34.351  24.791  22.439  1.00  0.00     0.347 HD
BRANCH   8  16
ATOM     16  C   UNL A   1      30.268  26.491  23.765  1.00  0.00     0.303 C 
BRANCH  16  17
ATOM     17  C   UNL A   1      30.779  27.643  24.600  1.00  0.00     0.049 A 
ATOM     18  C   UNL A   1      34.979  31.390  27.826  1.00  0.00     0.044 C 
ATOM     19  C   UNL A   1      34.104  30.336  27.214  1.00  0.00    -0.049 A 
ATOM     20  C   UNL A   1      34.354  29.000  27.504  1.00  0.00     0.004 A 
ATOM     21  C   UNL A   1      33.014  30.660  26.384  1.00  0.00     0.032 A 
ATOM     22  C   UNL A   1      33.509  28.014  27.024  1.00  0.00     0.010 A 
ATOM     23  C   UNL A   1      32.192  29.681  25.816  1.00  0.00     0.073 A 
ATOM     24  C   UNL A   1      32.438  28.352  26.193  1.00  0.00     0.001 A 
ATOM     25  N   UNL A   1      31.229  29.989  24.915  1.00  0.00    -0.230 NA
ATOM     26  C   UNL A   1      31.654  27.349  25.643  1.00  0.00     0.023 A 
ATOM     27  C   UNL A   1      30.547  28.992  24.293  1.00  0.00     0.138 A 
BRANCH  27  28
ATOM     28  N   UNL A   1      29.686  29.326  23.267  1.00  0.00    -0.352 N 
ATOM     29  C   UNL A   1      30.239  29.704  21.964  1.00  0.00     0.146 C 
ATOM     30  C   UNL A   1      28.385  28.662  23.176  1.00  0.00     0.146 C 
ATOM     31  C   UNL A   1      29.228  30.644  21.284  1.00  0.00     0.181 C 
ATOM     32  C   UNL A   1      27.424  29.613  22.432  1.00  0.00     0.181 C 
ATOM     33  O   UNL A   1      27.938  30.016  21.147  1.00  0.00    -0.378 OA
ENDBRANCH  27  28
ENDBRANCH  16  17
ENDBRANCH   8  16
ENDBRANCH   5   7
ENDBRANCH   4   5
ENDBRANCH   3   4
ENDBRANCH   2   3
ENDBRANCH   1   2
BRANCH   1  34
ATOM     34  C   UNL A   1      37.299  23.608  26.087  1.00  0.00     0.202 C 
BRANCH  34  35
ATOM     35  C   UNL A   1      38.775  23.186  26.040  1.00  0.00     0.261 C 
BRANCH  35  36
ATOM     36  O   UNL A   1      39.541  23.859  27.058  1.00  0.00    -0.460 OA
BRANCH  36  37
ATOM     37  C   UNL A   1      40.182  24.990  26.673  1.00  0.00     0.338 C 
ATOM     38  O   UNL A   1      40.465  25.318  25.533  1.00  0.00    -0.246 OA
BRANCH  37  39
ATOM     39  C   UNL A   1      40.276  25.903  27.835  1.00  0.00     0.060 A 
ATOM     40  C   UNL A   1      41.331  26.804  27.985  1.00  0.00     0.016 A 
ATOM     41  C   UNL A   1      39.277  25.825  28.815  1.00  0.00     0.016 A 
ATOM     42  C   UNL A   1      41.379  27.630  29.115  1.00  0.00     0.010 A 
ATOM     43  C   UNL A   1      39.320  26.657  29.936  1.00  0.00     0.010 A 
ATOM     44  C   UNL A   1      40.362  27.581  30.090  1.00  0.00    -0.014 A 
BRANCH  44  45
ATOM     45  C   UNL A   1      40.300  28.605  31.168  1.00  0.00     0.031 A 
ATOM     46  C   UNL A   1      39.366  29.780  31.110  1.00  0.00     0.074 A 
ATOM     47  C   UNL A   1      41.155  28.479  32.202  1.00  0.00     0.049 A 
ATOM     48  N   UNL A   1      39.209  30.745  31.981  1.00  0.00    -0.248 NA
ATOM     49  C   UNL A   1      38.505  29.896  29.924  1.00  0.00     0.031 C 
ATOM     50  C   UNL A   1      42.138  27.403  32.350  1.00  0.00     0.029 A 
ATOM     51  N   UNL A   1      41.338  29.251  33.321  1.00  0.00    -0.354 N 
ATOM     52  C   UNL A   1      38.224  31.578  31.463  1.00  0.00     0.074 A 
ATOM     53  C   UNL A   1      37.852  31.026  30.175  1.00  0.00     0.031 C 
ATOM     54  C   UNL A   1      42.794  27.562  33.508  1.00  0.00     0.029 A 
ATOM     55  C   UNL A   1      42.315  28.775  34.163  1.00  0.00     0.049 A 
ATOM     56  H   UNL A   1      40.820  30.069  33.503  1.00  0.00     0.167 HD
ATOM     57  C   UNL A   1      37.672  32.686  32.018  1.00  0.00     0.037 A 
ATOM     58  C   UNL A   1      42.783  29.257  35.330  1.00  0.00     0.037 A 
ATOM     59  C   UNL A   1      38.060  33.237  33.295  1.00  0.00     0.049 A 
ATOM     60  C   UNL A   1      42.188  30.513  35.899  1.00  0.00     0.074 A 
ATOM     61  C   UNL A   1      37.532  34.338  33.952  1.00  0.00     0.029 A 
ATOM     62  N   UNL A   1      39.074  32.746  34.105  1.00  0.00    -0.354 N 
ATOM     63  N   UNL A   1      41.215  31.252  35.422  1.00  0.00    -0.248 NA
ATOM     64  C   UNL A   1      42.753  31.001  37.164  1.00  0.00     0.031 C 
ATOM     65  C   UNL A   1      38.261  34.543  35.128  1.00  0.00     0.029 A 
ATOM     66  C   UNL A   1      39.205  33.536  35.237  1.00  0.00     0.049 A 
ATOM     67  H   UNL A   1      39.620  31.952  33.903  1.00  0.00     0.167 HD
ATOM     68  C   UNL A   1      41.036  32.282  36.340  1.00  0.00     0.074 A 
ATOM     69  C   UNL A   1      41.990  32.060  37.408  1.00  0.00     0.031 C 
ATOM     70  C   UNL A   1      40.161  33.315  36.297  1.00  0.00     0.037 A 
BRANCH  57  71
ATOM     71  C   UNL A   1      36.574  33.386  31.258  1.00  0.00     0.058 A 
ATOM     72  C   UNL A   1      36.852  34.165  30.124  1.00  0.00     0.135 A 
ATOM     73  C   UNL A   1      35.225  33.211  31.615  1.00  0.00     0.135 A 
ATOM     74  F   UNL A   1      38.121  34.371  29.738  1.00  0.00    -0.206 F 
ATOM     75  C   UNL A   1      35.835  34.761  29.383  1.00  0.00     0.059 A 
ATOM     76  C   UNL A   1      34.192  33.777  30.873  1.00  0.00     0.059 A 
ATOM     77  F   UNL A   1      34.900  32.472  32.687  1.00  0.00    -0.206 F 
ATOM     78  C   UNL A   1      34.508  34.559  29.763  1.00  0.00     0.060 A 
BRANCH  78  79
ATOM     79  S   UNL A   1      33.206  35.335  28.782  1.00  0.00     0.124 S 
ATOM     80  O   UNL A   1      32.435  36.025  29.812  1.00  0.00    -0.237 OA
ATOM     81  O   UNL A   1      33.968  36.193  27.880  1.00  0.00    -0.237 OA
ATOM     82  O   UNL A   1      32.533  34.204  28.150  1.00  0.00    -0.744 OA
ENDBRANCH  78  79
ENDBRANCH  57  71
BRANCH  58  83
ATOM     83  C   UNL A   1      43.856  28.521  36.049  1.00  0.00     0.058 A 
ATOM     84  C   UNL A   1      43.549  27.430  36.873  1.00  0.00     0.135 A 
ATOM     85  C   UNL A   1      45.209  28.863  35.891  1.00  0.00     0.135 A 
ATOM     86  F   UNL A   1      42.269  27.070  37.059  1.00  0.00    -0.206 F 
ATOM     87  C   UNL A   1      44.542  26.706  37.522  1.00  0.00     0.059 A 
ATOM     88  C   UNL A   1      46.222  28.136  36.505  1.00  0.00     0.059 A 
ATOM     89  F   UNL A   1      45.556  29.888  35.096  1.00  0.00    -0.206 F 
ATOM     90  C   UNL A   1      45.877  27.061  37.325  1.00  0.00     0.060 A 
BRANCH  90  91
ATOM     91  S   UNL A   1      47.158  26.072  38.124  1.00  0.00     0.124 S 
ATOM     92  O   UNL A   1      46.622  25.928  39.472  1.00  0.00    -0.237 OA
ATOM     93  O   UNL A   1      47.161  24.863  37.305  1.00  0.00    -0.237 OA
ATOM     94  O   UNL A   1      48.352  26.905  38.004  1.00  0.00    -0.744 OA
ENDBRANCH  90  91
ENDBRANCH  58  83
BRANCH  70  95
ATOM     95  C   UNL A   1      40.175  34.288  37.447  1.00  0.00     0.058 A 
ATOM     96  C   UNL A   1      40.997  35.426  37.440  1.00  0.00     0.135 A 
ATOM     97  C   UNL A   1      39.314  34.112  38.543  1.00  0.00     0.135 A 
ATOM     98  F   UNL A   1      41.846  35.639  36.423  1.00  0.00    -0.206 F 
ATOM     99  C   UNL A   1      40.978  36.344  38.485  1.00  0.00     0.059 A 
ATOM    100  C   UNL A   1      39.256  35.033  39.585  1.00  0.00     0.059 A 
ATOM    101  F   UNL A   1      38.500  33.045  38.599  1.00  0.00    -0.206 F 
ATOM    102  C   UNL A   1      40.099  36.143  39.551  1.00  0.00     0.060 A 
BRANCH 102 103
ATOM    103  S   UNL A   1      40.059  37.366  40.878  1.00  0.00     0.124 S 
ATOM    104  O   UNL A   1      41.389  37.213  41.461  1.00  0.00    -0.237 OA
ATOM    105  O   UNL A   1      39.826  38.608  40.148  1.00  0.00    -0.237 OA
ATOM    106  O   UNL A   1      38.952  36.921  41.720  1.00  0.00    -0.744 OA
ENDBRANCH 102 103
ENDBRANCH  70  95
ENDBRANCH  44  45
ENDBRANCH  37  39
ENDBRANCH  36  37
ENDBRANCH  35  36
ENDBRANCH  34  35
ENDBRANCH   1  34
TORSDOF 20
ENDMDL
