MODEL 1
REMARK VINA RESULT:     -10.5      0.000      0.000
REMARK SMILES N#C[C@@]1([C@@H](O)C(=O)OCCOCCOC(=O)c2ccc(-c3c4nc(c(-c5c(F)cc(S(=O)(=O)[O-])cc5F)c5ccc([nH]5)c(-c5c(F)cc(S(=O)(=O)[O-])cc5F)c5nc(c(-c6c(F)cc(S(=O)(=O)[O-])cc6F)c6ccc3[nH]6)C=C5)C=C4)cc2)CCCc2ccccc21
REMARK SMILES IDX 12 1 11 2 10 3 9 4 8 5 6 6 7 7 4 8 3 9 83 10 91 11 84 12
REMARK SMILES IDX 86 13 90 14 85 15 87 16 89 17 88 18 2 19 1 20 5 21 13 23
REMARK SMILES IDX 14 24 15 25 16 26 17 27 18 28 82 29 19 30 81 31 20 32 21 33
REMARK SMILES IDX 22 34 75 35 23 36 80 37 74 38 76 39 24 40 79 41 73 42 72 43
REMARK SMILES IDX 25 45 59 46 38 47 58 48 39 49 42 50 57 51 77 52 40 53 41 54
REMARK SMILES IDX 56 56 78 57 43 58 26 59 27 60 36 61 28 62 29 63 35 64 37 65
REMARK SMILES IDX 30 66 31 67 32 68 33 69 34 70 60 71 61 72 70 73 62 74 63 75
REMARK SMILES IDX 69 76 71 77 64 78 65 79 66 80 67 81 68 82 44 83 45 84 54 85
REMARK SMILES IDX 46 86 47 87 53 88 55 89 48 90 49 91 50 92 51 93 52 94
REMARK H PARENT 5 22 76 44 42 55
REMARK Flexibility Score: inf
ROOT
ATOM      1  C   UNL A   1      37.382  22.931  25.012  1.00  0.00     0.202 C 
ENDROOT
BRANCH   1   2
ATOM      2  O   UNL A   1      36.396  23.954  24.888  1.00  0.00    -0.374 OA
BRANCH   2   3
ATOM      3  C   UNL A   1      35.103  23.664  25.412  1.00  0.00     0.202 C 
BRANCH   3   4
ATOM      4  C   UNL A   1      33.920  23.938  24.481  1.00  0.00     0.261 C 
BRANCH   4   5
ATOM      5  O   UNL A   1      34.087  25.145  23.702  1.00  0.00    -0.461 OA
BRANCH   5   6
ATOM      6  C   UNL A   1      32.985  25.637  23.076  1.00  0.00     0.337 C 
ATOM      7  O   UNL A   1      33.021  26.372  22.094  1.00  0.00    -0.249 OA
BRANCH   6   8
ATOM      8  C   UNL A   1      31.673  25.306  23.802  1.00  0.00     0.248 C 
BRANCH   8   9
ATOM      9  C   UNL A   1      30.827  26.430  24.502  1.00  0.00     0.119 C 
ATOM     10  C   UNL A   1      29.693  27.006  23.613  1.00  0.00     0.031 C 
ATOM     11  C   UNL A   1      31.715  27.530  25.133  1.00  0.00    -0.021 A 
ATOM     12  C   UNL A   1      30.076  28.284  22.890  1.00  0.00     0.007 C 
ATOM     13  C   UNL A   1      31.573  28.893  24.800  1.00  0.00    -0.043 A 
ATOM     14  C   UNL A   1      32.638  27.196  26.151  1.00  0.00     0.006 A 
ATOM     15  C   UNL A   1      30.494  29.369  23.866  1.00  0.00     0.036 C 
ATOM     16  C   UNL A   1      32.369  29.862  25.440  1.00  0.00     0.004 A 
ATOM     17  C   UNL A   1      33.396  28.171  26.801  1.00  0.00     0.000 A 
ATOM     18  C   UNL A   1      33.276  29.503  26.433  1.00  0.00     0.000 A 
BRANCH   9  19
ATOM     19  C   UNL A   1      30.117  25.746  25.641  1.00  0.00     0.077 C 
ATOM     20  N   UNL A   1      29.573  25.252  26.537  1.00  0.00    -0.197 NA
ENDBRANCH   9  19
ENDBRANCH   8   9
BRANCH   8  21
ATOM     21  O   UNL A   1      30.863  24.571  22.864  1.00  0.00    -0.380 OA
ATOM     22  H   UNL A   1      30.257  23.989  23.348  1.00  0.00     0.211 HD
ENDBRANCH   8  21
ENDBRANCH   6   8
ENDBRANCH   5   6
ENDBRANCH   4   5
ENDBRANCH   3   4
ENDBRANCH   2   3
ENDBRANCH   1   2
BRANCH   1  23
ATOM     23  C   UNL A   1      38.405  23.124  26.147  1.00  0.00     0.261 C 
BRANCH  23  24
ATOM     24  O   UNL A   1      38.846  24.496  26.266  1.00  0.00    -0.460 OA
BRANCH  24  25
ATOM     25  C   UNL A   1      40.166  24.692  26.515  1.00  0.00     0.338 C 
ATOM     26  O   UNL A   1      41.093  24.297  25.829  1.00  0.00    -0.246 OA
BRANCH  25  27
ATOM     27  C   UNL A   1      40.341  25.665  27.632  1.00  0.00     0.060 A 
ATOM     28  C   UNL A   1      41.395  26.579  27.703  1.00  0.00     0.016 A 
ATOM     29  C   UNL A   1      39.391  25.640  28.661  1.00  0.00     0.016 A 
ATOM     30  C   UNL A   1      41.488  27.463  28.797  1.00  0.00     0.010 A 
ATOM     31  C   UNL A   1      39.467  26.544  29.730  1.00  0.00     0.010 A 
ATOM     32  C   UNL A   1      40.506  27.483  29.809  1.00  0.00    -0.014 A 
BRANCH  32  33
ATOM     33  C   UNL A   1      40.468  28.552  30.862  1.00  0.00     0.031 A 
ATOM     34  C   UNL A   1      41.334  28.503  32.100  1.00  0.00     0.074 A 
ATOM     35  C   UNL A   1      39.562  29.549  30.756  1.00  0.00     0.049 A 
ATOM     36  N   UNL A   1      41.346  29.311  33.135  1.00  0.00    -0.248 NA
ATOM     37  C   UNL A   1      42.304  27.403  32.195  1.00  0.00     0.031 C 
ATOM     38  C   UNL A   1      38.625  29.719  29.644  1.00  0.00     0.029 A 
ATOM     39  N   UNL A   1      39.267  30.598  31.598  1.00  0.00    -0.354 N 
ATOM     40  C   UNL A   1      42.319  28.823  34.002  1.00  0.00     0.074 A 
ATOM     41  C   UNL A   1      42.844  27.618  33.389  1.00  0.00     0.031 C 
ATOM     42  C   UNL A   1      37.882  30.815  29.858  1.00  0.00     0.029 A 
ATOM     43  C   UNL A   1      38.242  31.400  31.147  1.00  0.00     0.049 A 
ATOM     44  H   UNL A   1      39.743  30.759  32.444  1.00  0.00     0.167 HD
ATOM     45  C   UNL A   1      42.748  29.332  35.187  1.00  0.00     0.037 A 
ATOM     46  C   UNL A   1      37.638  32.472  31.700  1.00  0.00     0.037 A 
ATOM     47  C   UNL A   1      42.226  30.526  35.810  1.00  0.00     0.049 A 
ATOM     48  C   UNL A   1      38.087  32.984  33.041  1.00  0.00     0.074 A 
ATOM     49  C   UNL A   1      42.638  31.129  36.989  1.00  0.00     0.029 A 
ATOM     50  N   UNL A   1      41.175  31.292  35.327  1.00  0.00    -0.354 N 
ATOM     51  N   UNL A   1      39.049  32.539  33.813  1.00  0.00    -0.248 NA
ATOM     52  C   UNL A   1      37.368  34.145  33.588  1.00  0.00     0.031 C 
ATOM     53  C   UNL A   1      41.798  32.215  37.252  1.00  0.00     0.029 A 
ATOM     54  C   UNL A   1      40.905  32.337  36.201  1.00  0.00     0.049 A 
ATOM     55  H   UNL A   1      40.692  31.121  34.487  1.00  0.00     0.167 HD
ATOM     56  C   UNL A   1      39.066  33.380  34.923  1.00  0.00     0.074 A 
ATOM     57  C   UNL A   1      38.030  34.369  34.715  1.00  0.00     0.031 C 
ATOM     58  C   UNL A   1      39.874  33.330  36.011  1.00  0.00     0.037 A 
BRANCH  45  59
ATOM     59  C   UNL A   1      43.857  28.604  35.910  1.00  0.00     0.058 A 
ATOM     60  C   UNL A   1      43.591  27.520  36.763  1.00  0.00     0.135 A 
ATOM     61  C   UNL A   1      45.205  28.940  35.690  1.00  0.00     0.135 A 
ATOM     62  F   UNL A   1      42.324  27.151  37.010  1.00  0.00    -0.206 F 
ATOM     63  C   UNL A   1      44.614  26.822  37.398  1.00  0.00     0.059 A 
ATOM     64  C   UNL A   1      46.246  28.234  36.289  1.00  0.00     0.059 A 
ATOM     65  F   UNL A   1      45.524  29.956  34.873  1.00  0.00    -0.206 F 
ATOM     66  C   UNL A   1      45.939  27.187  37.156  1.00  0.00     0.060 A 
BRANCH  66  67
ATOM     67  S   UNL A   1      47.248  26.278  38.005  1.00  0.00     0.124 S 
ATOM     68  O   UNL A   1      47.218  24.999  37.300  1.00  0.00    -0.237 OA
ATOM     69  O   UNL A   1      48.419  27.112  37.752  1.00  0.00    -0.237 OA
ATOM     70  O   UNL A   1      46.794  26.237  39.391  1.00  0.00    -0.744 OA
ENDBRANCH  66  67
ENDBRANCH  45  59
BRANCH  46  71
ATOM     71  C   UNL A   1      36.544  33.157  30.957  1.00  0.00     0.058 A 
ATOM     72  C   UNL A   1      35.204  32.979  31.332  1.00  0.00     0.135 A 
ATOM     73  C   UNL A   1      36.812  34.030  29.890  1.00  0.00     0.135 A 
ATOM     74  F   UNL A   1      34.893  32.142  32.333  1.00  0.00    -0.206 F 
ATOM     75  C   UNL A   1      34.170  33.644  30.681  1.00  0.00     0.059 A 
ATOM     76  C   UNL A   1      35.799  34.731  29.245  1.00  0.00     0.059 A 
ATOM     77  F   UNL A   1      38.079  34.242  29.498  1.00  0.00    -0.206 F 
ATOM     78  C   UNL A   1      34.480  34.531  29.649  1.00  0.00     0.060 A 
BRANCH  78  79
ATOM     79  S   UNL A   1      33.134  35.453  28.875  1.00  0.00     0.124 S 
ATOM     80  O   UNL A   1      32.432  35.984  30.038  1.00  0.00    -0.237 OA
ATOM     81  O   UNL A   1      33.862  36.428  28.069  1.00  0.00    -0.237 OA
ATOM     82  O   UNL A   1      32.417  34.433  28.117  1.00  0.00    -0.744 OA
ENDBRANCH  78  79
ENDBRANCH  46  71
BRANCH  58  83
ATOM     83  C   UNL A   1      39.698  34.384  37.077  1.00  0.00     0.058 A 
ATOM     84  C   UNL A   1      38.925  34.155  38.226  1.00  0.00     0.135 A 
ATOM     85  C   UNL A   1      40.369  35.616  36.982  1.00  0.00     0.135 A 
ATOM     86  F   UNL A   1      38.254  33.001  38.370  1.00  0.00    -0.206 F 
ATOM     87  C   UNL A   1      38.810  35.110  39.233  1.00  0.00     0.059 A 
ATOM     88  C   UNL A   1      40.295  36.573  37.992  1.00  0.00     0.059 A 
ATOM     89  F   UNL A   1      41.129  35.892  35.911  1.00  0.00    -0.206 F 
ATOM     90  C   UNL A   1      39.506  36.315  39.111  1.00  0.00     0.060 A 
BRANCH  90  91
ATOM     91  S   UNL A   1      39.380  37.524  40.447  1.00  0.00     0.124 S 
ATOM     92  O   UNL A   1      38.418  38.474  39.897  1.00  0.00    -0.237 OA
ATOM     93  O   UNL A   1      38.899  36.708  41.558  1.00  0.00    -0.237 OA
ATOM     94  O   UNL A   1      40.743  38.025  40.587  1.00  0.00    -0.744 OA
ENDBRANCH  90  91
ENDBRANCH  58  83
ENDBRANCH  32  33
ENDBRANCH  25  27
ENDBRANCH  24  25
ENDBRANCH  23  24
ENDBRANCH   1  23
TORSDOF 20
ENDMDL
MODEL 2
REMARK VINA RESULT:     -10.4      1.571      8.548
REMARK SMILES N#C[C@@]1([C@@H](O)C(=O)OCCOCCOC(=O)c2ccc(-c3c4nc(c(-c5c(F)cc(S(=O)(=O)[O-])cc5F)c5ccc([nH]5)c(-c5c(F)cc(S(=O)(=O)[O-])cc5F)c5nc(c(-c6c(F)cc(S(=O)(=O)[O-])cc6F)c6ccc3[nH]6)C=C5)C=C4)cc2)CCCc2ccccc21
REMARK SMILES IDX 12 1 11 2 10 3 9 4 8 5 6 6 7 7 4 8 3 9 83 10 91 11 84 12
REMARK SMILES IDX 86 13 90 14 85 15 87 16 89 17 88 18 2 19 1 20 5 21 13 23
REMARK SMILES IDX 14 24 15 25 16 26 17 27 18 28 82 29 19 30 81 31 20 32 21 33
REMARK SMILES IDX 22 34 75 35 23 36 80 37 74 38 76 39 24 40 79 41 73 42 72 43
REMARK SMILES IDX 25 45 59 46 38 47 58 48 39 49 42 50 57 51 77 52 40 53 41 54
REMARK SMILES IDX 56 56 78 57 43 58 26 59 27 60 36 61 28 62 29 63 35 64 37 65
REMARK SMILES IDX 30 66 31 67 32 68 33 69 34 70 60 71 61 72 70 73 62 74 63 75
REMARK SMILES IDX 69 76 71 77 64 78 65 79 66 80 67 81 68 82 44 83 45 84 54 85
REMARK SMILES IDX 46 86 47 87 53 88 55 89 48 90 49 91 50 92 51 93 52 94
REMARK H PARENT 5 22 76 44 42 55
REMARK Flexibility Score: inf
ROOT
ATOM      1  C   UNL A   1      39.724  21.685  26.157  1.00  0.00     0.202 C 
ENDROOT
BRANCH   1   2
ATOM      2  O   UNL A   1      38.555  22.003  25.404  1.00  0.00    -0.374 OA
BRANCH   2   3
ATOM      3  C   UNL A   1      37.681  20.922  25.089  1.00  0.00     0.202 C 
BRANCH   3   4
ATOM      4  C   UNL A   1      36.271  21.303  24.635  1.00  0.00     0.261 C 
BRANCH   4   5
ATOM      5  O   UNL A   1      35.294  21.209  25.698  1.00  0.00    -0.461 OA
BRANCH   5   6
ATOM      6  C   UNL A   1      34.962  22.360  26.339  1.00  0.00     0.337 C 
ATOM      7  O   UNL A   1      35.777  23.195  26.721  1.00  0.00    -0.249 OA
BRANCH   6   8
ATOM      8  C   UNL A   1      33.469  22.460  26.680  1.00  0.00     0.248 C 
BRANCH   8   9
ATOM      9  C   UNL A   1      32.447  23.099  25.673  1.00  0.00     0.119 C 
ATOM     10  C   UNL A   1      31.954  22.119  24.575  1.00  0.00     0.031 C 
ATOM     11  C   UNL A   1      32.950  24.445  25.098  1.00  0.00    -0.021 A 
ATOM     12  C   UNL A   1      32.719  22.233  23.270  1.00  0.00     0.007 C 
ATOM     13  C   UNL A   1      33.070  24.671  23.711  1.00  0.00    -0.043 A 
ATOM     14  C   UNL A   1      33.208  25.532  25.964  1.00  0.00     0.006 A 
ATOM     15  C   UNL A   1      32.642  23.639  22.703  1.00  0.00     0.036 C 
ATOM     16  C   UNL A   1      33.482  25.930  23.234  1.00  0.00     0.004 A 
ATOM     17  C   UNL A   1      33.583  26.785  25.476  1.00  0.00     0.000 A 
ATOM     18  C   UNL A   1      33.739  26.979  24.111  1.00  0.00     0.000 A 
BRANCH   9  19
ATOM     19  C   UNL A   1      31.221  23.413  26.491  1.00  0.00     0.077 C 
ATOM     20  N   UNL A   1      30.299  23.652  27.151  1.00  0.00    -0.197 NA
ENDBRANCH   9  19
ENDBRANCH   8   9
BRANCH   8  21
ATOM     21  O   UNL A   1      33.048  21.135  27.059  1.00  0.00    -0.380 OA
ATOM     22  H   UNL A   1      32.372  21.196  27.752  1.00  0.00     0.211 HD
ENDBRANCH   8  21
ENDBRANCH   6   8
ENDBRANCH   5   6
ENDBRANCH   4   5
ENDBRANCH   3   4
ENDBRANCH   2   3
ENDBRANCH   1   2
BRANCH   1  23
ATOM     23  C   UNL A   1      40.620  22.879  26.534  1.00  0.00     0.261 C 
BRANCH  23  24
ATOM     24  O   UNL A   1      39.927  24.144  26.437  1.00  0.00    -0.460 OA
BRANCH  24  25
ATOM     25  C   UNL A   1      40.694  25.244  26.227  1.00  0.00     0.338 C 
ATOM     26  O   UNL A   1      41.148  25.609  25.156  1.00  0.00    -0.246 OA
BRANCH  25  27
ATOM     27  C   UNL A   1      40.722  26.093  27.453  1.00  0.00     0.060 A 
ATOM     28  C   UNL A   1      41.698  27.061  27.700  1.00  0.00     0.016 A 
ATOM     29  C   UNL A   1      39.711  25.888  28.400  1.00  0.00     0.016 A 
ATOM     30  C   UNL A   1      41.654  27.819  28.888  1.00  0.00     0.010 A 
ATOM     31  C   UNL A   1      39.649  26.667  29.564  1.00  0.00     0.010 A 
ATOM     32  C   UNL A   1      40.608  27.659  29.821  1.00  0.00    -0.014 A 
BRANCH  32  33
ATOM     33  C   UNL A   1      40.422  28.596  30.978  1.00  0.00     0.031 A 
ATOM     34  C   UNL A   1      39.432  29.738  30.947  1.00  0.00     0.074 A 
ATOM     35  C   UNL A   1      41.233  28.483  32.054  1.00  0.00     0.049 A 
ATOM     36  N   UNL A   1      39.225  30.680  31.838  1.00  0.00    -0.248 NA
ATOM     37  C   UNL A   1      38.571  29.844  29.761  1.00  0.00     0.031 C 
ATOM     38  C   UNL A   1      42.267  27.462  32.224  1.00  0.00     0.029 A 
ATOM     39  N   UNL A   1      41.327  29.241  33.199  1.00  0.00    -0.354 N 
ATOM     40  C   UNL A   1      38.213  31.487  31.327  1.00  0.00     0.074 A 
ATOM     41  C   UNL A   1      37.881  30.949  30.023  1.00  0.00     0.031 C 
ATOM     42  C   UNL A   1      42.870  27.639  33.409  1.00  0.00     0.029 A 
ATOM     43  C   UNL A   1      42.312  28.818  34.064  1.00  0.00     0.049 A 
ATOM     44  H   UNL A   1      40.745  30.013  33.384  1.00  0.00     0.167 HD
ATOM     45  C   UNL A   1      37.605  32.564  31.892  1.00  0.00     0.037 A 
ATOM     46  C   UNL A   1      42.743  29.319  35.241  1.00  0.00     0.037 A 
ATOM     47  C   UNL A   1      37.935  33.114  33.187  1.00  0.00     0.049 A 
ATOM     48  C   UNL A   1      42.098  30.549  35.820  1.00  0.00     0.074 A 
ATOM     49  C   UNL A   1      37.336  34.177  33.845  1.00  0.00     0.029 A 
ATOM     50  N   UNL A   1      38.953  32.666  34.016  1.00  0.00    -0.354 N 
ATOM     51  N   UNL A   1      41.103  31.259  35.345  1.00  0.00    -0.248 NA
ATOM     52  C   UNL A   1      42.633  31.047  37.096  1.00  0.00     0.031 C 
ATOM     53  C   UNL A   1      38.031  34.413  35.035  1.00  0.00     0.029 A 
ATOM     54  C   UNL A   1      39.020  33.453  35.158  1.00  0.00     0.049 A 
ATOM     55  H   UNL A   1      39.542  31.901  33.823  1.00  0.00     0.167 HD
ATOM     56  C   UNL A   1      40.879  32.271  36.275  1.00  0.00     0.074 A 
ATOM     57  C   UNL A   1      41.830  32.071  37.348  1.00  0.00     0.031 C 
ATOM     58  C   UNL A   1      39.963  33.270  36.235  1.00  0.00     0.037 A 
BRANCH  45  59
ATOM     59  C   UNL A   1      36.499  33.240  31.116  1.00  0.00     0.058 A 
ATOM     60  C   UNL A   1      35.157  33.155  31.523  1.00  0.00     0.135 A 
ATOM     61  C   UNL A   1      36.788  34.044  30.000  1.00  0.00     0.135 A 
ATOM     62  F   UNL A   1      34.819  32.403  32.582  1.00  0.00    -0.206 F 
ATOM     63  C   UNL A   1      34.142  33.810  30.832  1.00  0.00     0.059 A 
ATOM     64  C   UNL A   1      35.792  34.736  29.314  1.00  0.00     0.059 A 
ATOM     65  F   UNL A   1      38.053  34.179  29.572  1.00  0.00    -0.206 F 
ATOM     66  C   UNL A   1      34.469  34.598  29.728  1.00  0.00     0.060 A 
BRANCH  66  67
ATOM     67  S   UNL A   1      33.133  35.425  28.838  1.00  0.00     0.124 S 
ATOM     68  O   UNL A   1      33.873  36.406  28.048  1.00  0.00    -0.237 OA
ATOM     69  O   UNL A   1      32.536  34.327  28.085  1.00  0.00    -0.237 OA
ATOM     70  O   UNL A   1      32.302  35.979  29.903  1.00  0.00    -0.744 OA
ENDBRANCH  66  67
ENDBRANCH  45  59
BRANCH  46  71
ATOM     71  C   UNL A   1      43.841  28.626  35.971  1.00  0.00     0.058 A 
ATOM     72  C   UNL A   1      45.173  29.042  35.821  1.00  0.00     0.135 A 
ATOM     73  C   UNL A   1      43.583  27.570  36.859  1.00  0.00     0.135 A 
ATOM     74  F   UNL A   1      45.474  30.035  34.971  1.00  0.00    -0.206 F 
ATOM     75  C   UNL A   1      46.207  28.439  36.527  1.00  0.00     0.059 A 
ATOM     76  C   UNL A   1      44.597  26.973  37.601  1.00  0.00     0.059 A 
ATOM     77  F   UNL A   1      42.325  27.141  37.045  1.00  0.00    -0.206 F 
ATOM     78  C   UNL A   1      45.907  27.416  37.427  1.00  0.00     0.060 A 
BRANCH  78  79
ATOM     79  S   UNL A   1      47.251  26.706  38.402  1.00  0.00     0.124 S 
ATOM     80  O   UNL A   1      47.385  25.383  37.803  1.00  0.00    -0.237 OA
ATOM     81  O   UNL A   1      48.341  27.640  38.137  1.00  0.00    -0.237 OA
ATOM     82  O   UNL A   1      46.730  26.731  39.765  1.00  0.00    -0.744 OA
ENDBRANCH  78  79
ENDBRANCH  46  71
BRANCH  58  83
ATOM     83  C   UNL A   1      39.914  34.236  37.394  1.00  0.00     0.058 A 
ATOM     84  C   UNL A   1      40.673  35.418  37.407  1.00  0.00     0.135 A 
ATOM     85  C   UNL A   1      39.043  34.013  38.476  1.00  0.00     0.135 A 
ATOM     86  F   UNL A   1      41.528  35.683  36.407  1.00  0.00    -0.206 F 
ATOM     87  C   UNL A   1      40.582  36.334  38.453  1.00  0.00     0.059 A 
ATOM     88  C   UNL A   1      38.913  34.930  39.516  1.00  0.00     0.059 A 
ATOM     89  F   UNL A   1      38.287  32.905  38.517  1.00  0.00    -0.206 F 
ATOM     90  C   UNL A   1      39.693  36.085  39.500  1.00  0.00     0.060 A 
BRANCH  90  91
ATOM     91  S   UNL A   1      39.558  37.304  40.826  1.00  0.00     0.124 S 
ATOM     92  O   UNL A   1      40.907  37.861  40.855  1.00  0.00    -0.237 OA
ATOM     93  O   UNL A   1      38.516  38.194  40.322  1.00  0.00    -0.237 OA
ATOM     94  O   UNL A   1      39.185  36.507  41.990  1.00  0.00    -0.744 OA
ENDBRANCH  90  91
ENDBRANCH  58  83
ENDBRANCH  32  33
ENDBRANCH  25  27
ENDBRANCH  24  25
ENDBRANCH  23  24
ENDBRANCH   1  23
TORSDOF 20
ENDMDL
MODEL 3
REMARK VINA RESULT:     -10.4      1.500      2.243
REMARK SMILES N#C[C@@]1([C@@H](O)C(=O)OCCOCCOC(=O)c2ccc(-c3c4nc(c(-c5c(F)cc(S(=O)(=O)[O-])cc5F)c5ccc([nH]5)c(-c5c(F)cc(S(=O)(=O)[O-])cc5F)c5nc(c(-c6c(F)cc(S(=O)(=O)[O-])cc6F)c6ccc3[nH]6)C=C5)C=C4)cc2)CCCc2ccccc21
REMARK SMILES IDX 12 1 11 2 10 3 9 4 8 5 6 6 7 7 4 8 3 9 83 10 91 11 84 12
REMARK SMILES IDX 86 13 90 14 85 15 87 16 89 17 88 18 2 19 1 20 5 21 13 23
REMARK SMILES IDX 14 24 15 25 16 26 17 27 18 28 82 29 19 30 81 31 20 32 21 33
REMARK SMILES IDX 22 34 75 35 23 36 80 37 74 38 76 39 24 40 79 41 73 42 72 43
REMARK SMILES IDX 25 45 59 46 38 47 58 48 39 49 42 50 57 51 77 52 40 53 41 54
REMARK SMILES IDX 56 56 78 57 43 58 26 59 27 60 36 61 28 62 29 63 35 64 37 65
REMARK SMILES IDX 30 66 31 67 32 68 33 69 34 70 60 71 61 72 70 73 62 74 63 75
REMARK SMILES IDX 69 76 71 77 64 78 65 79 66 80 67 81 68 82 44 83 45 84 54 85
REMARK SMILES IDX 46 86 47 87 53 88 55 89 48 90 49 91 50 92 51 93 52 94
REMARK H PARENT 5 22 76 44 42 55
REMARK Flexibility Score: inf
ROOT
ATOM      1  C   UNL A   1      38.505  21.999  26.184  1.00  0.00     0.202 C 
ENDROOT
BRANCH   1   2
ATOM      2  O   UNL A   1      38.123  21.528  24.893  1.00  0.00    -0.374 OA
BRANCH   2   3
ATOM      3  C   UNL A   1      36.976  20.684  24.832  1.00  0.00     0.202 C 
BRANCH   3   4
ATOM      4  C   UNL A   1      35.760  21.138  25.642  1.00  0.00     0.261 C 
BRANCH   4   5
ATOM      5  O   UNL A   1      34.542  21.158  24.863  1.00  0.00    -0.461 OA
BRANCH   5   6
ATOM      6  C   UNL A   1      33.368  21.098  25.545  1.00  0.00     0.337 C 
ATOM      7  O   UNL A   1      32.636  20.113  25.573  1.00  0.00    -0.249 OA
BRANCH   6   8
ATOM      8  C   UNL A   1      32.956  22.439  26.170  1.00  0.00     0.248 C 
BRANCH   8   9
ATOM      9  C   UNL A   1      31.990  23.422  25.418  1.00  0.00     0.119 C 
ATOM     10  C   UNL A   1      31.356  22.819  24.136  1.00  0.00     0.031 C 
ATOM     11  C   UNL A   1      32.630  24.811  25.178  1.00  0.00    -0.021 A 
ATOM     12  C   UNL A   1      32.094  23.187  22.862  1.00  0.00     0.007 C 
ATOM     13  C   UNL A   1      32.739  25.375  23.890  1.00  0.00    -0.043 A 
ATOM     14  C   UNL A   1      33.037  25.602  26.276  1.00  0.00     0.006 A 
ATOM     15  C   UNL A   1      32.166  24.692  22.678  1.00  0.00     0.036 C 
ATOM     16  C   UNL A   1      33.282  26.664  23.728  1.00  0.00     0.004 A 
ATOM     17  C   UNL A   1      33.542  26.891  26.104  1.00  0.00     0.000 A 
ATOM     18  C   UNL A   1      33.683  27.416  24.828  1.00  0.00     0.000 A 
BRANCH   9  19
ATOM     19  C   UNL A   1      30.831  23.641  26.357  1.00  0.00     0.077 C 
ATOM     20  N   UNL A   1      29.919  23.819  27.049  1.00  0.00    -0.197 NA
ENDBRANCH   9  19
ENDBRANCH   8   9
BRANCH   8  21
ATOM     21  O   UNL A   1      32.452  22.137  27.485  1.00  0.00    -0.380 OA
ATOM     22  H   UNL A   1      32.486  22.935  28.036  1.00  0.00     0.211 HD
ENDBRANCH   8  21
ENDBRANCH   6   8
ENDBRANCH   5   6
ENDBRANCH   4   5
ENDBRANCH   3   4
ENDBRANCH   2   3
ENDBRANCH   1   2
BRANCH   1  23
ATOM     23  C   UNL A   1      39.982  22.407  26.336  1.00  0.00     0.261 C 
BRANCH  23  24
ATOM     24  O   UNL A   1      40.169  23.840  26.273  1.00  0.00    -0.460 OA
BRANCH  24  25
ATOM     25  C   UNL A   1      41.337  24.323  26.769  1.00  0.00     0.338 C 
ATOM     26  O   UNL A   1      42.455  24.055  26.364  1.00  0.00    -0.246 OA
BRANCH  25  27
ATOM     27  C   UNL A   1      41.067  25.421  27.741  1.00  0.00     0.060 A 
ATOM     28  C   UNL A   1      39.893  25.518  28.492  1.00  0.00     0.016 A 
ATOM     29  C   UNL A   1      42.053  26.406  27.888  1.00  0.00     0.016 A 
ATOM     30  C   UNL A   1      39.715  26.593  29.387  1.00  0.00     0.010 A 
ATOM     31  C   UNL A   1      41.888  27.454  28.805  1.00  0.00     0.010 A 
ATOM     32  C   UNL A   1      40.725  27.557  29.584  1.00  0.00    -0.014 A 
BRANCH  32  33
ATOM     33  C   UNL A   1      40.648  28.579  30.680  1.00  0.00     0.031 A 
ATOM     34  C   UNL A   1      41.502  28.500  31.925  1.00  0.00     0.074 A 
ATOM     35  C   UNL A   1      39.717  29.556  30.605  1.00  0.00     0.049 A 
ATOM     36  N   UNL A   1      41.482  29.264  32.993  1.00  0.00    -0.248 NA
ATOM     37  C   UNL A   1      42.499  27.423  31.985  1.00  0.00     0.031 C 
ATOM     38  C   UNL A   1      38.788  29.748  29.491  1.00  0.00     0.029 A 
ATOM     39  N   UNL A   1      39.385  30.560  31.487  1.00  0.00    -0.354 N 
ATOM     40  C   UNL A   1      42.458  28.765  33.850  1.00  0.00     0.074 A 
ATOM     41  C   UNL A   1      43.021  27.602  33.193  1.00  0.00     0.031 C 
ATOM     42  C   UNL A   1      38.013  30.814  29.742  1.00  0.00     0.029 A 
ATOM     43  C   UNL A   1      38.345  31.353  31.058  1.00  0.00     0.049 A 
ATOM     44  H   UNL A   1      39.848  30.698  32.345  1.00  0.00     0.167 HD
ATOM     45  C   UNL A   1      42.861  29.235  35.060  1.00  0.00     0.037 A 
ATOM     46  C   UNL A   1      37.706  32.385  31.649  1.00  0.00     0.037 A 
ATOM     47  C   UNL A   1      42.301  30.388  35.727  1.00  0.00     0.049 A 
ATOM     48  C   UNL A   1      38.127  32.851  33.016  1.00  0.00     0.074 A 
ATOM     49  C   UNL A   1      42.684  30.951  36.935  1.00  0.00     0.029 A 
ATOM     50  N   UNL A   1      41.235  31.146  35.265  1.00  0.00    -0.354 N 
ATOM     51  N   UNL A   1      39.092  32.400  33.779  1.00  0.00    -0.248 NA
ATOM     52  C   UNL A   1      37.372  33.969  33.603  1.00  0.00     0.031 C 
ATOM     53  C   UNL A   1      41.812  32.003  37.233  1.00  0.00     0.029 A 
ATOM     54  C   UNL A   1      40.928  32.145  36.178  1.00  0.00     0.049 A 
ATOM     55  H   UNL A   1      40.765  30.998  34.412  1.00  0.00     0.167 HD
ATOM     56  C   UNL A   1      39.075  33.193  34.924  1.00  0.00     0.074 A 
ATOM     57  C   UNL A   1      38.016  34.162  34.745  1.00  0.00     0.031 C 
ATOM     58  C   UNL A   1      39.873  33.118  36.018  1.00  0.00     0.037 A 
BRANCH  45  59
ATOM     59  C   UNL A   1      43.982  28.506  35.765  1.00  0.00     0.058 A 
ATOM     60  C   UNL A   1      45.328  28.842  35.548  1.00  0.00     0.135 A 
ATOM     61  C   UNL A   1      43.707  27.516  36.725  1.00  0.00     0.135 A 
ATOM     62  F   UNL A   1      45.654  29.781  34.645  1.00  0.00    -0.206 F 
ATOM     63  C   UNL A   1      46.360  28.199  36.226  1.00  0.00     0.059 A 
ATOM     64  C   UNL A   1      44.721  26.884  37.440  1.00  0.00     0.059 A 
ATOM     65  F   UNL A   1      42.439  27.163  36.989  1.00  0.00    -0.206 F 
ATOM     66  C   UNL A   1      46.046  27.220  37.171  1.00  0.00     0.060 A 
BRANCH  66  67
ATOM     67  S   UNL A   1      47.401  26.388  38.026  1.00  0.00     0.124 S 
ATOM     68  O   UNL A   1      48.484  26.522  37.054  1.00  0.00    -0.237 OA
ATOM     69  O   UNL A   1      47.539  27.187  39.240  1.00  0.00    -0.237 OA
ATOM     70  O   UNL A   1      46.902  25.031  38.221  1.00  0.00    -0.744 OA
ENDBRANCH  66  67
ENDBRANCH  45  59
BRANCH  46  71
ATOM     71  C   UNL A   1      36.601  33.071  30.922  1.00  0.00     0.058 A 
ATOM     72  C   UNL A   1      35.266  32.883  31.308  1.00  0.00     0.135 A 
ATOM     73  C   UNL A   1      36.856  33.955  29.862  1.00  0.00     0.135 A 
ATOM     74  F   UNL A   1      34.968  32.036  32.304  1.00  0.00    -0.206 F 
ATOM     75  C   UNL A   1      34.224  33.550  30.674  1.00  0.00     0.059 A 
ATOM     76  C   UNL A   1      35.833  34.658  29.233  1.00  0.00     0.059 A 
ATOM     77  F   UNL A   1      38.118  34.177  29.460  1.00  0.00    -0.206 F 
ATOM     78  C   UNL A   1      34.519  34.448  29.647  1.00  0.00     0.060 A 
BRANCH  78  79
ATOM     79  S   UNL A   1      33.162  35.371  28.894  1.00  0.00     0.124 S 
ATOM     80  O   UNL A   1      32.540  34.353  28.056  1.00  0.00    -0.237 OA
ATOM     81  O   UNL A   1      32.397  35.789  30.065  1.00  0.00    -0.237 OA
ATOM     82  O   UNL A   1      33.841  36.448  28.180  1.00  0.00    -0.744 OA
ENDBRANCH  78  79
ENDBRANCH  46  71
BRANCH  58  83
ATOM     83  C   UNL A   1      39.657  34.121  37.125  1.00  0.00     0.058 A 
ATOM     84  C   UNL A   1      38.946  33.797  38.291  1.00  0.00     0.135 A 
ATOM     85  C   UNL A   1      40.230  35.403  37.050  1.00  0.00     0.135 A 
ATOM     86  F   UNL A   1      38.369  32.592  38.418  1.00  0.00    -0.206 F 
ATOM     87  C   UNL A   1      38.797  34.709  39.334  1.00  0.00     0.059 A 
ATOM     88  C   UNL A   1      40.122  36.319  38.094  1.00  0.00     0.059 A 
ATOM     89  F   UNL A   1      40.928  35.770  35.964  1.00  0.00    -0.206 F 
ATOM     90  C   UNL A   1      39.396  35.966  39.230  1.00  0.00     0.060 A 
BRANCH  90  91
ATOM     91  S   UNL A   1      39.228  37.119  40.610  1.00  0.00     0.124 S 
ATOM     92  O   UNL A   1      38.390  38.160  40.026  1.00  0.00    -0.237 OA
ATOM     93  O   UNL A   1      38.591  36.290  41.629  1.00  0.00    -0.237 OA
ATOM     94  O   UNL A   1      40.604  37.511  40.899  1.00  0.00    -0.744 OA
ENDBRANCH  90  91
ENDBRANCH  58  83
ENDBRANCH  32  33
ENDBRANCH  25  27
ENDBRANCH  24  25
ENDBRANCH  23  24
ENDBRANCH   1  23
TORSDOF 20
ENDMDL
