MODEL 1
REMARK VINA RESULT:     -10.6      0.000      0.000
REMARK SMILES Cc1nc(C(=O)OCCOCCOC(=O)c2ccc(-c3c4nc(c(-c5c(F)cc(S(=O)(=O)[O-])cc5F)c5ccc([nH]5)c(-c5c(F)cc(S(=O)(=O)[O-])cc5F)c5nc(c(-c6c(F)cc(S(=O)(=O)[O-])cc6F)c6ccc3[nH]6)C=C5)C=C4)cc2)nn1-c1cccc(C(F)(F)F)c1
REMARK SMILES IDX 11 1 10 2 9 3 8 4 7 5 5 6 6 7 4 8 1 9 2 10 3 11 83 12 82 13
REMARK SMILES IDX 84 14 85 15 93 16 86 17 88 18 87 19 89 20 90 21 91 22 92 23
REMARK SMILES IDX 12 24 13 25 14 26 15 27 16 28 17 29 81 30 18 31 80 32 19 33
REMARK SMILES IDX 20 34 21 35 74 36 22 37 79 38 73 39 75 40 23 41 78 42 72 43
REMARK SMILES IDX 71 44 24 46 58 47 37 48 57 49 38 50 41 51 56 52 76 53 39 54
REMARK SMILES IDX 40 55 55 57 77 58 42 59 25 60 26 61 35 62 27 63 28 64 34 65
REMARK SMILES IDX 36 66 29 67 30 68 31 69 32 70 33 71 59 72 60 73 69 74 61 75
REMARK SMILES IDX 62 76 68 77 70 78 63 79 64 80 65 81 66 82 67 83 43 84 44 85
REMARK SMILES IDX 53 86 45 87 46 88 52 89 54 90 47 91 48 92 49 93 50 94 51 95
REMARK H PARENT 75 45 41 56
REMARK Flexibility Score: inf
ROOT
ATOM      1  C   UNL A   1      33.827  34.382  28.336  1.00  0.00     0.202 C 
ENDROOT
BRANCH   1   2
ATOM      2  O   UNL A   1      33.475  34.745  29.669  1.00  0.00    -0.374 OA
BRANCH   2   3
ATOM      3  C   UNL A   1      32.909  36.028  29.936  1.00  0.00     0.202 C 
BRANCH   3   4
ATOM      4  C   UNL A   1      32.165  36.221  31.257  1.00  0.00     0.261 C 
BRANCH   4   5
ATOM      5  O   UNL A   1      32.635  35.343  32.290  1.00  0.00    -0.457 OA
BRANCH   5   6
ATOM      6  C   UNL A   1      33.706  35.798  33.013  1.00  0.00     0.378 C 
ATOM      7  O   UNL A   1      33.683  36.792  33.732  1.00  0.00    -0.242 OA
BRANCH   6   8
ATOM      8  C   UNL A   1      34.865  34.894  32.919  1.00  0.00     0.260 A 
ATOM      9  C   UNL A   1      36.395  31.669  32.863  1.00  0.00     0.090 C 
ATOM     10  C   UNL A   1      35.994  33.093  32.769  1.00  0.00     0.130 A 
ATOM     11  N   UNL A   1      34.749  33.522  32.839  1.00  0.00    -0.206 NA
ATOM     12  N   UNL A   1      36.849  34.181  32.780  1.00  0.00    -0.217 N 
ATOM     13  N   UNL A   1      36.134  35.324  32.917  1.00  0.00    -0.138 NA
BRANCH  12  14
ATOM     14  C   UNL A   1      38.262  34.250  32.744  1.00  0.00     0.067 A 
ATOM     15  C   UNL A   1      38.928  34.582  33.934  1.00  0.00     0.028 A 
ATOM     16  C   UNL A   1      38.992  34.044  31.566  1.00  0.00     0.041 A 
ATOM     17  C   UNL A   1      40.315  34.668  33.965  1.00  0.00     0.003 A 
ATOM     18  C   UNL A   1      40.394  34.189  31.582  1.00  0.00     0.058 A 
ATOM     19  C   UNL A   1      41.044  34.479  32.795  1.00  0.00     0.013 A 
BRANCH  18  20
ATOM     20  C   UNL A   1      41.221  34.090  30.319  1.00  0.00     0.416 C 
ATOM     21  F   UNL A   1      41.437  32.803  29.945  1.00  0.00    -0.166 F 
ATOM     22  F   UNL A   1      40.611  34.697  29.262  1.00  0.00    -0.166 F 
ATOM     23  F   UNL A   1      42.445  34.672  30.431  1.00  0.00    -0.166 F 
ENDBRANCH  18  20
ENDBRANCH  12  14
ENDBRANCH   6   8
ENDBRANCH   5   6
ENDBRANCH   4   5
ENDBRANCH   3   4
ENDBRANCH   2   3
ENDBRANCH   1   2
BRANCH   1  24
ATOM     24  C   UNL A   1      33.886  32.904  27.979  1.00  0.00     0.261 C 
BRANCH  24  25
ATOM     25  O   UNL A   1      35.224  32.459  27.837  1.00  0.00    -0.460 OA
BRANCH  25  26
ATOM     26  C   UNL A   1      35.364  31.111  27.816  1.00  0.00     0.338 C 
ATOM     27  O   UNL A   1      34.763  30.318  27.124  1.00  0.00    -0.246 OA
BRANCH  26  28
ATOM     28  C   UNL A   1      36.290  30.745  28.897  1.00  0.00     0.060 A 
ATOM     29  C   UNL A   1      37.266  31.700  29.182  1.00  0.00     0.016 A 
ATOM     30  C   UNL A   1      36.427  29.395  29.251  1.00  0.00     0.016 A 
ATOM     31  C   UNL A   1      38.519  31.244  29.504  1.00  0.00     0.010 A 
ATOM     32  C   UNL A   1      37.682  28.940  29.546  1.00  0.00     0.010 A 
ATOM     33  C   UNL A   1      38.724  29.862  29.547  1.00  0.00    -0.014 A 
BRANCH  33  34
ATOM     34  C   UNL A   1      40.079  29.381  29.644  1.00  0.00     0.031 A 
ATOM     35  C   UNL A   1      40.488  29.183  31.047  1.00  0.00     0.074 A 
ATOM     36  C   UNL A   1      40.795  29.057  28.552  1.00  0.00     0.049 A 
ATOM     37  N   UNL A   1      41.282  29.923  31.746  1.00  0.00    -0.248 NA
ATOM     38  C   UNL A   1      39.725  28.203  31.839  1.00  0.00     0.031 C 
ATOM     39  C   UNL A   1      40.356  28.975  27.157  1.00  0.00     0.029 A 
ATOM     40  N   UNL A   1      42.078  28.619  28.493  1.00  0.00    -0.354 N 
ATOM     41  C   UNL A   1      41.306  29.331  33.003  1.00  0.00     0.074 A 
ATOM     42  C   UNL A   1      40.149  28.482  33.070  1.00  0.00     0.031 C 
ATOM     43  C   UNL A   1      41.278  28.291  26.438  1.00  0.00     0.029 A 
ATOM     44  C   UNL A   1      42.418  28.003  27.291  1.00  0.00     0.049 A 
ATOM     45  H   UNL A   1      42.715  28.728  29.236  1.00  0.00     0.167 HD
ATOM     46  C   UNL A   1      42.432  29.345  33.763  1.00  0.00     0.037 A 
ATOM     47  C   UNL A   1      43.515  27.218  27.109  1.00  0.00     0.037 A 
ATOM     48  C   UNL A   1      43.368  30.333  33.285  1.00  0.00     0.049 A 
ATOM     49  C   UNL A   1      44.469  27.569  28.205  1.00  0.00     0.074 A 
ATOM     50  C   UNL A   1      43.321  31.705  33.124  1.00  0.00     0.029 A 
ATOM     51  N   UNL A   1      44.411  29.896  32.502  1.00  0.00    -0.354 N 
ATOM     52  N   UNL A   1      45.039  28.742  28.314  1.00  0.00    -0.248 NA
ATOM     53  C   UNL A   1      44.372  26.812  29.448  1.00  0.00     0.031 C 
ATOM     54  C   UNL A   1      44.010  31.957  31.903  1.00  0.00     0.029 A 
ATOM     55  C   UNL A   1      44.505  30.743  31.426  1.00  0.00     0.049 A 
ATOM     56  H   UNL A   1      44.986  29.117  32.682  1.00  0.00     0.167 HD
ATOM     57  C   UNL A   1      44.994  29.043  29.670  1.00  0.00     0.074 A 
ATOM     58  C   UNL A   1      44.615  27.791  30.324  1.00  0.00     0.031 C 
ATOM     59  C   UNL A   1      44.971  30.335  30.117  1.00  0.00     0.037 A 
BRANCH  46  60
ATOM     60  C   UNL A   1      42.842  28.210  34.670  1.00  0.00     0.058 A 
ATOM     61  C   UNL A   1      43.036  28.472  36.039  1.00  0.00     0.135 A 
ATOM     62  C   UNL A   1      43.310  26.953  34.219  1.00  0.00     0.135 A 
ATOM     63  F   UNL A   1      42.631  29.634  36.577  1.00  0.00    -0.206 F 
ATOM     64  C   UNL A   1      43.717  27.589  36.877  1.00  0.00     0.059 A 
ATOM     65  C   UNL A   1      43.935  26.034  35.049  1.00  0.00     0.059 A 
ATOM     66  F   UNL A   1      43.280  26.584  32.934  1.00  0.00    -0.206 F 
ATOM     67  C   UNL A   1      44.177  26.379  36.365  1.00  0.00     0.060 A 
BRANCH  67  68
ATOM     68  S   UNL A   1      45.156  25.288  37.406  1.00  0.00     0.124 S 
ATOM     69  O   UNL A   1      46.505  25.784  37.156  1.00  0.00    -0.237 OA
ATOM     70  O   UNL A   1      44.605  25.564  38.729  1.00  0.00    -0.237 OA
ATOM     71  O   UNL A   1      44.861  23.962  36.874  1.00  0.00    -0.744 OA
ENDBRANCH  67  68
ENDBRANCH  46  60
BRANCH  47  72
ATOM     72  C   UNL A   1      43.582  25.936  26.352  1.00  0.00     0.058 A 
ATOM     73  C   UNL A   1      44.592  25.689  25.403  1.00  0.00     0.135 A 
ATOM     74  C   UNL A   1      42.811  24.817  26.734  1.00  0.00     0.135 A 
ATOM     75  F   UNL A   1      45.394  26.686  25.000  1.00  0.00    -0.206 F 
ATOM     76  C   UNL A   1      44.845  24.406  24.895  1.00  0.00     0.059 A 
ATOM     77  C   UNL A   1      43.038  23.536  26.235  1.00  0.00     0.059 A 
ATOM     78  F   UNL A   1      41.866  24.916  27.680  1.00  0.00    -0.206 F 
ATOM     79  C   UNL A   1      44.071  23.330  25.331  1.00  0.00     0.060 A 
BRANCH  79  80
ATOM     80  S   UNL A   1      44.487  21.650  24.808  1.00  0.00     0.124 S 
ATOM     81  O   UNL A   1      43.375  20.878  25.351  1.00  0.00    -0.237 OA
ATOM     82  O   UNL A   1      44.526  21.779  23.355  1.00  0.00    -0.237 OA
ATOM     83  O   UNL A   1      45.781  21.407  25.442  1.00  0.00    -0.744 OA
ENDBRANCH  79  80
ENDBRANCH  47  72
BRANCH  59  84
ATOM     84  C   UNL A   1      45.241  31.444  29.129  1.00  0.00     0.058 A 
ATOM     85  C   UNL A   1      46.522  31.937  28.817  1.00  0.00     0.135 A 
ATOM     86  C   UNL A   1      44.175  31.895  28.338  1.00  0.00     0.135 A 
ATOM     87  F   UNL A   1      47.609  31.479  29.454  1.00  0.00    -0.206 F 
ATOM     88  C   UNL A   1      46.726  32.864  27.791  1.00  0.00     0.059 A 
ATOM     89  C   UNL A   1      44.358  32.791  27.290  1.00  0.00     0.059 A 
ATOM     90  F   UNL A   1      42.938  31.411  28.540  1.00  0.00    -0.206 F 
ATOM     91  C   UNL A   1      45.635  33.284  27.031  1.00  0.00     0.060 A 
BRANCH  91  92
ATOM     92  S   UNL A   1      45.901  34.429  25.658  1.00  0.00     0.124 S 
ATOM     93  O   UNL A   1      45.026  33.880  24.628  1.00  0.00    -0.237 OA
ATOM     94  O   UNL A   1      45.487  35.708  26.227  1.00  0.00    -0.237 OA
ATOM     95  O   UNL A   1      47.332  34.312  25.387  1.00  0.00    -0.744 OA
ENDBRANCH  91  92
ENDBRANCH  59  84
ENDBRANCH  33  34
ENDBRANCH  26  28
ENDBRANCH  25  26
ENDBRANCH  24  25
ENDBRANCH   1  24
TORSDOF 19
ENDMDL
MODEL 2
REMARK VINA RESULT:     -10.2      4.830     12.150
REMARK SMILES Cc1nc(C(=O)OCCOCCOC(=O)c2ccc(-c3c4nc(c(-c5c(F)cc(S(=O)(=O)[O-])cc5F)c5ccc([nH]5)c(-c5c(F)cc(S(=O)(=O)[O-])cc5F)c5nc(c(-c6c(F)cc(S(=O)(=O)[O-])cc6F)c6ccc3[nH]6)C=C5)C=C4)cc2)nn1-c1cccc(C(F)(F)F)c1
REMARK SMILES IDX 11 1 10 2 9 3 8 4 7 5 5 6 6 7 4 8 1 9 2 10 3 11 83 12 82 13
REMARK SMILES IDX 84 14 85 15 93 16 86 17 88 18 87 19 89 20 90 21 91 22 92 23
REMARK SMILES IDX 12 24 13 25 14 26 15 27 16 28 17 29 81 30 18 31 80 32 19 33
REMARK SMILES IDX 20 34 21 35 74 36 22 37 79 38 73 39 75 40 23 41 78 42 72 43
REMARK SMILES IDX 71 44 24 46 58 47 37 48 57 49 38 50 41 51 56 52 76 53 39 54
REMARK SMILES IDX 40 55 55 57 77 58 42 59 25 60 26 61 35 62 27 63 28 64 34 65
REMARK SMILES IDX 36 66 29 67 30 68 31 69 32 70 33 71 59 72 60 73 69 74 61 75
REMARK SMILES IDX 62 76 68 77 70 78 63 79 64 80 65 81 66 82 67 83 43 84 44 85
REMARK SMILES IDX 53 86 45 87 46 88 52 89 54 90 47 91 48 92 49 93 50 94 51 95
REMARK H PARENT 75 45 41 56
REMARK Flexibility Score: inf
ROOT
ATOM      1  C   UNL A   1      42.626  19.271  26.425  1.00  0.00     0.202 C 
ENDROOT
BRANCH   1   2
ATOM      2  O   UNL A   1      41.444  18.700  25.868  1.00  0.00    -0.374 OA
BRANCH   2   3
ATOM      3  C   UNL A   1      40.239  19.463  25.813  1.00  0.00     0.202 C 
BRANCH   3   4
ATOM      4  C   UNL A   1      40.174  20.757  26.623  1.00  0.00     0.261 C 
BRANCH   4   5
ATOM      5  O   UNL A   1      39.876  21.903  25.813  1.00  0.00    -0.457 OA
BRANCH   5   6
ATOM      6  C   UNL A   1      38.826  22.674  26.237  1.00  0.00     0.378 C 
ATOM      7  O   UNL A   1      38.924  23.589  27.048  1.00  0.00    -0.242 OA
BRANCH   6   8
ATOM      8  C   UNL A   1      37.577  22.353  25.526  1.00  0.00     0.260 A 
ATOM      9  C   UNL A   1      34.945  23.072  23.222  1.00  0.00     0.090 C 
ATOM     10  C   UNL A   1      35.957  22.512  24.151  1.00  0.00     0.130 A 
ATOM     11  N   UNL A   1      37.059  23.137  24.516  1.00  0.00    -0.206 NA
ATOM     12  N   UNL A   1      35.818  21.361  24.905  1.00  0.00    -0.217 N 
ATOM     13  N   UNL A   1      36.825  21.280  25.808  1.00  0.00    -0.138 NA
BRANCH  12  14
ATOM     14  C   UNL A   1      34.805  20.371  24.909  1.00  0.00     0.067 A 
ATOM     15  C   UNL A   1      33.569  20.709  25.483  1.00  0.00     0.028 A 
ATOM     16  C   UNL A   1      35.017  19.080  24.408  1.00  0.00     0.041 A 
ATOM     17  C   UNL A   1      32.533  19.782  25.520  1.00  0.00     0.003 A 
ATOM     18  C   UNL A   1      33.989  18.121  24.500  1.00  0.00     0.058 A 
ATOM     19  C   UNL A   1      32.744  18.494  25.038  1.00  0.00     0.013 A 
BRANCH  18  20
ATOM     20  C   UNL A   1      34.199  16.683  24.079  1.00  0.00     0.416 C 
ATOM     21  F   UNL A   1      35.193  16.082  24.783  1.00  0.00    -0.166 F 
ATOM     22  F   UNL A   1      33.083  15.927  24.275  1.00  0.00    -0.166 F 
ATOM     23  F   UNL A   1      34.519  16.549  22.764  1.00  0.00    -0.166 F 
ENDBRANCH  18  20
ENDBRANCH  12  14
ENDBRANCH   6   8
ENDBRANCH   5   6
ENDBRANCH   4   5
ENDBRANCH   3   4
ENDBRANCH   2   3
ENDBRANCH   1   2
BRANCH   1  24
ATOM     24  C   UNL A   1      43.738  19.701  25.478  1.00  0.00     0.261 C 
BRANCH  24  25
ATOM     25  O   UNL A   1      43.535  21.022  25.009  1.00  0.00    -0.460 OA
BRANCH  25  26
ATOM     26  C   UNL A   1      44.164  21.975  25.740  1.00  0.00     0.338 C 
ATOM     27  O   UNL A   1      45.357  22.108  25.910  1.00  0.00    -0.246 OA
BRANCH  26  28
ATOM     28  C   UNL A   1      43.129  22.763  26.425  1.00  0.00     0.060 A 
ATOM     29  C   UNL A   1      42.533  23.754  25.644  1.00  0.00     0.016 A 
ATOM     30  C   UNL A   1      43.107  22.789  27.826  1.00  0.00     0.016 A 
ATOM     31  C   UNL A   1      42.224  24.941  26.260  1.00  0.00     0.010 A 
ATOM     32  C   UNL A   1      42.824  23.980  28.435  1.00  0.00     0.010 A 
ATOM     33  C   UNL A   1      42.504  25.065  27.624  1.00  0.00    -0.014 A 
BRANCH  33  34
ATOM     34  C   UNL A   1      42.410  26.374  28.219  1.00  0.00     0.031 A 
ATOM     35  C   UNL A   1      43.537  27.237  27.820  1.00  0.00     0.074 A 
ATOM     36  C   UNL A   1      41.340  26.745  28.946  1.00  0.00     0.049 A 
ATOM     37  N   UNL A   1      44.552  27.585  28.537  1.00  0.00    -0.248 NA
ATOM     38  C   UNL A   1      43.685  27.529  26.384  1.00  0.00     0.031 C 
ATOM     39  C   UNL A   1      40.076  26.033  29.151  1.00  0.00     0.029 A 
ATOM     40  N   UNL A   1      41.130  27.926  29.581  1.00  0.00    -0.354 N 
ATOM     41  C   UNL A   1      45.335  28.361  27.692  1.00  0.00     0.074 A 
ATOM     42  C   UNL A   1      44.906  28.058  26.355  1.00  0.00     0.031 C 
ATOM     43  C   UNL A   1      39.156  26.892  29.650  1.00  0.00     0.029 A 
ATOM     44  C   UNL A   1      39.799  28.166  29.915  1.00  0.00     0.049 A 
ATOM     45  H   UNL A   1      41.856  28.559  29.788  1.00  0.00     0.167 HD
ATOM     46  C   UNL A   1      46.051  29.414  28.169  1.00  0.00     0.037 A 
ATOM     47  C   UNL A   1      39.298  29.384  30.260  1.00  0.00     0.037 A 
ATOM     48  C   UNL A   1      46.186  29.341  29.604  1.00  0.00     0.049 A 
ATOM     49  C   UNL A   1      40.466  30.212  30.692  1.00  0.00     0.074 A 
ATOM     50  C   UNL A   1      46.740  28.420  30.473  1.00  0.00     0.029 A 
ATOM     51  N   UNL A   1      45.341  30.117  30.363  1.00  0.00    -0.354 N 
ATOM     52  N   UNL A   1      41.182  29.947  31.755  1.00  0.00    -0.248 NA
ATOM     53  C   UNL A   1      41.147  30.997  29.669  1.00  0.00     0.031 C 
ATOM     54  C   UNL A   1      45.850  28.381  31.585  1.00  0.00     0.029 A 
ATOM     55  C   UNL A   1      44.848  29.328  31.373  1.00  0.00     0.049 A 
ATOM     56  H   UNL A   1      45.129  31.066  30.209  1.00  0.00     0.167 HD
ATOM     57  C   UNL A   1      42.500  30.161  31.368  1.00  0.00     0.074 A 
ATOM     58  C   UNL A   1      42.410  30.856  30.084  1.00  0.00     0.031 C 
ATOM     59  C   UNL A   1      43.538  29.500  31.964  1.00  0.00     0.037 A 
BRANCH  46  60
ATOM     60  C   UNL A   1      46.277  30.690  27.396  1.00  0.00     0.058 A 
ATOM     61  C   UNL A   1      47.592  31.164  27.238  1.00  0.00     0.135 A 
ATOM     62  C   UNL A   1      45.255  31.602  27.039  1.00  0.00     0.135 A 
ATOM     63  F   UNL A   1      48.642  30.384  27.545  1.00  0.00    -0.206 F 
ATOM     64  C   UNL A   1      47.870  32.470  26.836  1.00  0.00     0.059 A 
ATOM     65  C   UNL A   1      45.511  32.885  26.579  1.00  0.00     0.059 A 
ATOM     66  F   UNL A   1      43.954  31.341  27.210  1.00  0.00    -0.206 F 
ATOM     67  C   UNL A   1      46.818  33.328  26.526  1.00  0.00     0.060 A 
BRANCH  67  68
ATOM     68  S   UNL A   1      47.161  35.045  26.121  1.00  0.00     0.124 S 
ATOM     69  O   UNL A   1      48.072  34.901  24.991  1.00  0.00    -0.237 OA
ATOM     70  O   UNL A   1      45.828  35.551  25.810  1.00  0.00    -0.237 OA
ATOM     71  O   UNL A   1      47.753  35.569  27.348  1.00  0.00    -0.744 OA
ENDBRANCH  67  68
ENDBRANCH  46  60
BRANCH  47  72
ATOM     72  C   UNL A   1      38.000  29.973  29.825  1.00  0.00     0.058 A 
ATOM     73  C   UNL A   1      37.129  30.599  30.736  1.00  0.00     0.135 A 
ATOM     74  C   UNL A   1      37.706  30.170  28.459  1.00  0.00     0.135 A 
ATOM     75  F   UNL A   1      37.346  30.491  32.055  1.00  0.00    -0.206 F 
ATOM     76  C   UNL A   1      36.057  31.401  30.317  1.00  0.00     0.059 A 
ATOM     77  C   UNL A   1      36.640  30.954  28.020  1.00  0.00     0.059 A 
ATOM     78  F   UNL A   1      38.504  29.680  27.499  1.00  0.00    -0.206 F 
ATOM     79  C   UNL A   1      35.831  31.586  28.953  1.00  0.00     0.060 A 
BRANCH  79  80
ATOM     80  S   UNL A   1      34.554  32.742  28.400  1.00  0.00     0.124 S 
ATOM     81  O   UNL A   1      33.631  31.860  27.693  1.00  0.00    -0.237 OA
ATOM     82  O   UNL A   1      34.069  33.294  29.661  1.00  0.00    -0.237 OA
ATOM     83  O   UNL A   1      35.288  33.681  27.555  1.00  0.00    -0.744 OA
ENDBRANCH  79  80
ENDBRANCH  47  72
BRANCH  59  84
ATOM     84  C   UNL A   1      43.262  28.708  33.218  1.00  0.00     0.058 A 
ATOM     85  C   UNL A   1      43.070  29.276  34.492  1.00  0.00     0.135 A 
ATOM     86  C   UNL A   1      43.003  27.336  33.087  1.00  0.00     0.135 A 
ATOM     87  F   UNL A   1      43.194  30.597  34.680  1.00  0.00    -0.206 F 
ATOM     88  C   UNL A   1      42.676  28.507  35.591  1.00  0.00     0.059 A 
ATOM     89  C   UNL A   1      42.578  26.558  34.159  1.00  0.00     0.059 A 
ATOM     90  F   UNL A   1      43.101  26.747  31.885  1.00  0.00    -0.206 F 
ATOM     91  C   UNL A   1      42.430  27.147  35.413  1.00  0.00     0.060 A 
BRANCH  91  92
ATOM     92  S   UNL A   1      41.854  26.161  36.813  1.00  0.00     0.124 S 
ATOM     93  O   UNL A   1      40.838  27.028  37.400  1.00  0.00    -0.237 OA
ATOM     94  O   UNL A   1      41.357  24.950  36.165  1.00  0.00    -0.237 OA
ATOM     95  O   UNL A   1      43.057  25.976  37.620  1.00  0.00    -0.744 OA
ENDBRANCH  91  92
ENDBRANCH  59  84
ENDBRANCH  33  34
ENDBRANCH  26  28
ENDBRANCH  25  26
ENDBRANCH  24  25
ENDBRANCH   1  24
TORSDOF 19
ENDMDL
MODEL 3
REMARK VINA RESULT:     -10.1      4.278     11.203
REMARK SMILES Cc1nc(C(=O)OCCOCCOC(=O)c2ccc(-c3c4nc(c(-c5c(F)cc(S(=O)(=O)[O-])cc5F)c5ccc([nH]5)c(-c5c(F)cc(S(=O)(=O)[O-])cc5F)c5nc(c(-c6c(F)cc(S(=O)(=O)[O-])cc6F)c6ccc3[nH]6)C=C5)C=C4)cc2)nn1-c1cccc(C(F)(F)F)c1
REMARK SMILES IDX 11 1 10 2 9 3 8 4 7 5 5 6 6 7 4 8 1 9 2 10 3 11 83 12 82 13
REMARK SMILES IDX 84 14 85 15 93 16 86 17 88 18 87 19 89 20 90 21 91 22 92 23
REMARK SMILES IDX 12 24 13 25 14 26 15 27 16 28 17 29 81 30 18 31 80 32 19 33
REMARK SMILES IDX 20 34 21 35 74 36 22 37 79 38 73 39 75 40 23 41 78 42 72 43
REMARK SMILES IDX 71 44 24 46 58 47 37 48 57 49 38 50 41 51 56 52 76 53 39 54
REMARK SMILES IDX 40 55 55 57 77 58 42 59 25 60 26 61 35 62 27 63 28 64 34 65
REMARK SMILES IDX 36 66 29 67 30 68 31 69 32 70 33 71 59 72 60 73 69 74 61 75
REMARK SMILES IDX 62 76 68 77 70 78 63 79 64 80 65 81 66 82 67 83 43 84 44 85
REMARK SMILES IDX 53 86 45 87 46 88 52 89 54 90 47 91 48 92 49 93 50 94 51 95
REMARK H PARENT 75 45 41 56
REMARK Flexibility Score: inf
ROOT
ATOM      1  C   UNL A   1      41.226  19.473  26.156  1.00  0.00     0.202 C 
ENDROOT
BRANCH   1   2
ATOM      2  O   UNL A   1      40.938  20.099  27.404  1.00  0.00    -0.374 OA
BRANCH   2   3
ATOM      3  C   UNL A   1      40.566  21.477  27.443  1.00  0.00     0.202 C 
BRANCH   3   4
ATOM      4  C   UNL A   1      39.936  22.084  26.189  1.00  0.00     0.261 C 
BRANCH   4   5
ATOM      5  O   UNL A   1      38.563  22.451  26.382  1.00  0.00    -0.457 OA
BRANCH   5   6
ATOM      6  C   UNL A   1      37.661  21.831  25.557  1.00  0.00     0.378 C 
ATOM      7  O   UNL A   1      37.862  20.758  24.997  1.00  0.00    -0.242 OA
BRANCH   6   8
ATOM      8  C   UNL A   1      36.374  22.544  25.504  1.00  0.00     0.260 A 
ATOM      9  C   UNL A   1      33.009  23.129  26.545  1.00  0.00     0.090 C 
ATOM     10  C   UNL A   1      34.392  23.141  26.011  1.00  0.00     0.130 A 
ATOM     11  N   UNL A   1      35.346  22.316  26.395  1.00  0.00    -0.206 NA
ATOM     12  N   UNL A   1      34.838  23.874  24.926  1.00  0.00    -0.217 N 
ATOM     13  N   UNL A   1      36.081  23.465  24.576  1.00  0.00    -0.138 NA
BRANCH  12  14
ATOM     14  C   UNL A   1      34.191  24.863  24.146  1.00  0.00     0.067 A 
ATOM     15  C   UNL A   1      33.763  24.500  22.859  1.00  0.00     0.028 A 
ATOM     16  C   UNL A   1      34.014  26.176  24.600  1.00  0.00     0.041 A 
ATOM     17  C   UNL A   1      33.122  25.426  22.043  1.00  0.00     0.003 A 
ATOM     18  C   UNL A   1      33.419  27.132  23.751  1.00  0.00     0.058 A 
ATOM     19  C   UNL A   1      32.958  26.735  22.483  1.00  0.00     0.013 A 
BRANCH  18  20
ATOM     20  C   UNL A   1      33.306  28.588  24.145  1.00  0.00     0.416 C 
ATOM     21  F   UNL A   1      32.067  28.901  24.604  1.00  0.00    -0.166 F 
ATOM     22  F   UNL A   1      34.176  28.916  25.141  1.00  0.00    -0.166 F 
ATOM     23  F   UNL A   1      33.567  29.444  23.120  1.00  0.00    -0.166 F 
ENDBRANCH  18  20
ENDBRANCH  12  14
ENDBRANCH   6   8
ENDBRANCH   5   6
ENDBRANCH   4   5
ENDBRANCH   3   4
ENDBRANCH   2   3
ENDBRANCH   1   2
BRANCH   1  24
ATOM     24  C   UNL A   1      42.682  19.223  25.789  1.00  0.00     0.261 C 
BRANCH  24  25
ATOM     25  O   UNL A   1      43.441  20.418  25.843  1.00  0.00    -0.460 OA
BRANCH  25  26
ATOM     26  C   UNL A   1      44.209  20.640  24.748  1.00  0.00     0.338 C 
ATOM     27  O   UNL A   1      44.578  19.827  23.929  1.00  0.00    -0.246 OA
BRANCH  26  28
ATOM     28  C   UNL A   1      44.648  22.042  24.792  1.00  0.00     0.060 A 
ATOM     29  C   UNL A   1      45.643  22.316  25.730  1.00  0.00     0.016 A 
ATOM     30  C   UNL A   1      43.811  23.036  24.263  1.00  0.00     0.016 A 
ATOM     31  C   UNL A   1      45.569  23.514  26.396  1.00  0.00     0.010 A 
ATOM     32  C   UNL A   1      43.722  24.218  24.945  1.00  0.00     0.010 A 
ATOM     33  C   UNL A   1      44.521  24.381  26.072  1.00  0.00    -0.014 A 
BRANCH  33  34
ATOM     34  C   UNL A   1      44.296  25.521  26.925  1.00  0.00     0.031 A 
ATOM     35  C   UNL A   1      45.328  26.557  26.734  1.00  0.00     0.074 A 
ATOM     36  C   UNL A   1      43.198  25.621  27.696  1.00  0.00     0.049 A 
ATOM     37  N   UNL A   1      46.305  26.849  27.524  1.00  0.00    -0.248 NA
ATOM     38  C   UNL A   1      45.437  27.157  25.393  1.00  0.00     0.031 C 
ATOM     39  C   UNL A   1      42.014  24.758  27.727  1.00  0.00     0.029 A 
ATOM     40  N   UNL A   1      42.871  26.616  28.559  1.00  0.00    -0.354 N 
ATOM     41  C   UNL A   1      47.000  27.860  26.873  1.00  0.00     0.074 A 
ATOM     42  C   UNL A   1      46.599  27.801  25.495  1.00  0.00     0.031 C 
ATOM     43  C   UNL A   1      41.014  25.396  28.379  1.00  0.00     0.029 A 
ATOM     44  C   UNL A   1      41.525  26.646  28.915  1.00  0.00     0.049 A 
ATOM     45  H   UNL A   1      43.530  27.262  28.906  1.00  0.00     0.167 HD
ATOM     46  C   UNL A   1      47.608  28.856  27.571  1.00  0.00     0.037 A 
ATOM     47  C   UNL A   1      40.904  27.707  29.498  1.00  0.00     0.037 A 
ATOM     48  C   UNL A   1      47.757  28.498  28.960  1.00  0.00     0.049 A 
ATOM     49  C   UNL A   1      41.983  28.541  30.112  1.00  0.00     0.074 A 
ATOM     50  C   UNL A   1      48.406  27.477  29.628  1.00  0.00     0.029 A 
ATOM     51  N   UNL A   1      46.840  29.009  29.851  1.00  0.00    -0.354 N 
ATOM     52  N   UNL A   1      42.727  28.133  31.108  1.00  0.00    -0.248 NA
ATOM     53  C   UNL A   1      42.575  29.587  29.286  1.00  0.00     0.031 C 
ATOM     54  C   UNL A   1      47.531  27.117  30.692  1.00  0.00     0.029 A 
ATOM     55  C   UNL A   1      46.436  27.981  30.666  1.00  0.00     0.049 A 
ATOM     56  H   UNL A   1      46.532  29.943  29.895  1.00  0.00     0.167 HD
ATOM     57  C   UNL A   1      44.015  28.555  30.796  1.00  0.00     0.074 A 
ATOM     58  C   UNL A   1      43.848  29.490  29.684  1.00  0.00     0.031 C 
ATOM     59  C   UNL A   1      45.118  27.892  31.258  1.00  0.00     0.037 A 
BRANCH  46  60
ATOM     60  C   UNL A   1      47.698  30.282  27.084  1.00  0.00     0.058 A 
ATOM     61  C   UNL A   1      48.949  30.925  27.097  1.00  0.00     0.135 A 
ATOM     62  C   UNL A   1      46.583  31.124  26.863  1.00  0.00     0.135 A 
ATOM     63  F   UNL A   1      50.077  30.224  27.298  1.00  0.00    -0.206 F 
ATOM     64  C   UNL A   1      49.076  32.309  26.983  1.00  0.00     0.059 A 
ATOM     65  C   UNL A   1      46.692  32.496  26.686  1.00  0.00     0.059 A 
ATOM     66  F   UNL A   1      45.320  30.687  26.906  1.00  0.00    -0.206 F 
ATOM     67  C   UNL A   1      47.937  33.086  26.795  1.00  0.00     0.060 A 
BRANCH  67  68
ATOM     68  S   UNL A   1      48.078  34.878  26.764  1.00  0.00     0.124 S 
ATOM     69  O   UNL A   1      46.704  35.282  27.041  1.00  0.00    -0.237 OA
ATOM     70  O   UNL A   1      49.045  35.120  27.830  1.00  0.00    -0.237 OA
ATOM     71  O   UNL A   1      48.559  35.155  25.415  1.00  0.00    -0.744 OA
ENDBRANCH  67  68
ENDBRANCH  46  60
BRANCH  47  72
ATOM     72  C   UNL A   1      39.551  28.240  29.173  1.00  0.00     0.058 A 
ATOM     73  C   UNL A   1      38.524  28.287  30.135  1.00  0.00     0.135 A 
ATOM     74  C   UNL A   1      39.312  28.963  27.984  1.00  0.00     0.135 A 
ATOM     75  F   UNL A   1      38.672  27.654  31.308  1.00  0.00    -0.206 F 
ATOM     76  C   UNL A   1      37.351  29.033  29.944  1.00  0.00     0.059 A 
ATOM     77  C   UNL A   1      38.151  29.703  27.769  1.00  0.00     0.059 A 
ATOM     78  F   UNL A   1      40.245  29.048  27.025  1.00  0.00    -0.206 F 
ATOM     79  C   UNL A   1      37.182  29.754  28.760  1.00  0.00     0.060 A 
BRANCH  79  80
ATOM     80  S   UNL A   1      35.753  30.846  28.567  1.00  0.00     0.124 S 
ATOM     81  O   UNL A   1      36.277  31.877  27.678  1.00  0.00    -0.237 OA
ATOM     82  O   UNL A   1      34.756  29.951  27.989  1.00  0.00    -0.237 OA
ATOM     83  O   UNL A   1      35.473  31.284  29.932  1.00  0.00    -0.744 OA
ENDBRANCH  79  80
ENDBRANCH  47  72
BRANCH  59  84
ATOM     84  C   UNL A   1      44.931  26.832  32.315  1.00  0.00     0.058 A 
ATOM     85  C   UNL A   1      44.764  27.097  33.687  1.00  0.00     0.135 A 
ATOM     86  C   UNL A   1      44.732  25.509  31.893  1.00  0.00     0.135 A 
ATOM     87  F   UNL A   1      44.831  28.350  34.158  1.00  0.00    -0.206 F 
ATOM     88  C   UNL A   1      44.451  26.086  34.601  1.00  0.00     0.059 A 
ATOM     89  C   UNL A   1      44.388  24.493  32.779  1.00  0.00     0.059 A 
ATOM     90  F   UNL A   1      44.810  25.203  30.588  1.00  0.00    -0.206 F 
ATOM     91  C   UNL A   1      44.263  24.786  34.135  1.00  0.00     0.060 A 
BRANCH  91  92
ATOM     92  S   UNL A   1      43.791  23.488  35.301  1.00  0.00     0.124 S 
ATOM     93  O   UNL A   1      42.379  23.778  35.526  1.00  0.00    -0.237 OA
ATOM     94  O   UNL A   1      44.076  22.269  34.550  1.00  0.00    -0.237 OA
ATOM     95  O   UNL A   1      44.666  23.722  36.446  1.00  0.00    -0.744 OA
ENDBRANCH  91  92
ENDBRANCH  59  84
ENDBRANCH  33  34
ENDBRANCH  26  28
ENDBRANCH  25  26
ENDBRANCH  24  25
ENDBRANCH   1  24
TORSDOF 19
ENDMDL
