MODEL 1
REMARK VINA RESULT:     -10.0      0.000      0.000
REMARK SMILES CN(C)c1ccc(/C=N/NC(=O)/C=C\C(=O)OCCOCCOC(=O)c2ccc(-c3c4nc(c(-c5c(F)cc(S(=O)(=O)[O-])cc5F)c5ccc([nH]5)c(-c5c(F)cc(S(=O)(=O)[O-])cc5F)c5nc(c(-c6c(F)cc(S(=O)(=O)[O-])cc6F)c6ccc3[nH]6)C=C5)C=C4)cc2)cc1
REMARK SMILES IDX 19 1 18 2 17 3 15 4 16 5 14 6 13 7 11 8 10 9 12 11 9 12 8 13
REMARK SMILES IDX 7 14 4 15 5 16 93 17 6 18 92 19 2 20 1 21 3 22 20 23 21 24
REMARK SMILES IDX 22 25 23 26 24 27 25 28 26 29 27 30 91 31 28 32 90 33 29 34
REMARK SMILES IDX 30 35 31 36 84 37 32 38 89 39 83 40 85 41 33 42 88 43 82 44
REMARK SMILES IDX 81 45 34 47 68 48 47 49 67 50 48 51 51 52 66 53 86 54 49 55
REMARK SMILES IDX 50 56 65 58 87 59 52 60 35 61 36 62 45 63 37 64 38 65 44 66
REMARK SMILES IDX 46 67 39 68 40 69 41 70 42 71 43 72 69 73 70 74 79 75 71 76
REMARK SMILES IDX 72 77 78 78 80 79 73 80 74 81 75 82 76 83 77 84 53 85 54 86
REMARK SMILES IDX 63 87 55 88 56 89 62 90 64 91 57 92 58 93 59 94 60 95 61 96
REMARK H PARENT 10 10 85 46 51 57
REMARK Flexibility Score: inf
ROOT
ATOM      1  C   UNL A   1      36.925  23.780  25.947  1.00  0.00     0.202 C 
ENDROOT
BRANCH   1   2
ATOM      2  C   UNL A   1      35.634  24.081  25.184  1.00  0.00     0.261 C 
BRANCH   2   3
ATOM      3  O   UNL A   1      34.526  24.730  25.814  1.00  0.00    -0.460 OA
BRANCH   3   4
ATOM      4  C   UNL A   1      33.898  25.629  25.029  1.00  0.00     0.331 C 
ATOM      5  O   UNL A   1      34.281  26.080  23.958  1.00  0.00    -0.247 OA
BRANCH   4   6
ATOM      6  C   UNL A   1      32.611  26.060  25.554  1.00  0.00     0.099 C 
ATOM      7  C   UNL A   1      31.484  26.199  24.852  1.00  0.00     0.080 C 
BRANCH   7   8
ATOM      8  C   UNL A   1      31.179  26.168  23.406  1.00  0.00     0.264 C 
ATOM      9  N   UNL A   1      31.359  25.118  22.556  1.00  0.00    -0.244 N 
ATOM     10  H   UNL A   1      30.948  25.268  21.673  1.00  0.00     0.194 HD
ATOM     11  O   UNL A   1      30.654  27.194  22.956  1.00  0.00    -0.268 OA
BRANCH   9  12
ATOM     12  N   UNL A   1      31.976  23.914  22.649  1.00  0.00    -0.180 NA
ATOM     13  C   UNL A   1      31.384  22.865  23.122  1.00  0.00     0.141 C 
BRANCH  13  14
ATOM     14  C   UNL A   1      32.182  21.625  23.372  1.00  0.00    -0.005 A 
ATOM     15  C   UNL A   1      33.128  19.059  24.179  1.00  0.00     0.036 A 
ATOM     16  C   UNL A   1      33.363  20.204  24.954  1.00  0.00     0.026 A 
ATOM     17  C   UNL A   1      32.464  19.256  22.953  1.00  0.00     0.026 A 
ATOM     18  C   UNL A   1      32.925  21.474  24.548  1.00  0.00     0.012 A 
ATOM     19  C   UNL A   1      31.989  20.517  22.551  1.00  0.00     0.012 A 
BRANCH  15  20
ATOM     20  N   UNL A   1      33.534  17.801  24.614  1.00  0.00    -0.378 N 
ATOM     21  C   UNL A   1      34.273  16.923  23.720  1.00  0.00     0.143 C 
ATOM     22  C   UNL A   1      32.806  17.179  25.720  1.00  0.00     0.143 C 
ENDBRANCH  15  20
ENDBRANCH  13  14
ENDBRANCH   9  12
ENDBRANCH   7   8
ENDBRANCH   4   6
ENDBRANCH   3   4
ENDBRANCH   2   3
ENDBRANCH   1   2
BRANCH   1  23
ATOM     23  O   UNL A   1      37.333  22.457  26.228  1.00  0.00    -0.374 OA
BRANCH  23  24
ATOM     24  C   UNL A   1      38.246  21.801  25.366  1.00  0.00     0.202 C 
BRANCH  24  25
ATOM     25  C   UNL A   1      39.635  21.360  25.852  1.00  0.00     0.261 C 
BRANCH  25  26
ATOM     26  O   UNL A   1      40.231  22.169  26.876  1.00  0.00    -0.460 OA
BRANCH  26  27
ATOM     27  C   UNL A   1      41.160  23.049  26.436  1.00  0.00     0.338 C 
ATOM     28  O   UNL A   1      42.000  22.855  25.565  1.00  0.00    -0.246 OA
BRANCH  27  29
ATOM     29  C   UNL A   1      40.928  24.379  27.028  1.00  0.00     0.060 A 
ATOM     30  C   UNL A   1      41.842  25.409  26.755  1.00  0.00     0.016 A 
ATOM     31  C   UNL A   1      39.895  24.571  27.945  1.00  0.00     0.016 A 
ATOM     32  C   UNL A   1      41.759  26.620  27.442  1.00  0.00     0.010 A 
ATOM     33  C   UNL A   1      39.831  25.775  28.651  1.00  0.00     0.010 A 
ATOM     34  C   UNL A   1      40.789  26.783  28.436  1.00  0.00    -0.014 A 
BRANCH  34  35
ATOM     35  C   UNL A   1      40.903  27.895  29.411  1.00  0.00     0.031 A 
ATOM     36  C   UNL A   1      41.974  27.802  30.465  1.00  0.00     0.074 A 
ATOM     37  C   UNL A   1      40.064  28.945  29.381  1.00  0.00     0.049 A 
ATOM     38  N   UNL A   1      42.168  28.549  31.518  1.00  0.00    -0.248 NA
ATOM     39  C   UNL A   1      42.954  26.710  30.313  1.00  0.00     0.031 C 
ATOM     40  C   UNL A   1      39.024  29.169  28.380  1.00  0.00     0.029 A 
ATOM     41  N   UNL A   1      39.940  30.006  30.242  1.00  0.00    -0.354 N 
ATOM     42  C   UNL A   1      43.266  28.001  32.172  1.00  0.00     0.074 A 
ATOM     43  C   UNL A   1      43.699  26.860  31.398  1.00  0.00     0.031 C 
ATOM     44  C   UNL A   1      38.337  30.279  28.708  1.00  0.00     0.029 A 
ATOM     45  C   UNL A   1      38.863  30.816  29.963  1.00  0.00     0.049 A 
ATOM     46  H   UNL A   1      40.561  30.172  30.988  1.00  0.00     0.167 HD
ATOM     47  C   UNL A   1      43.853  28.412  33.319  1.00  0.00     0.037 A 
ATOM     48  C   UNL A   1      38.337  31.838  30.667  1.00  0.00     0.037 A 
ATOM     49  C   UNL A   1      43.429  29.562  34.072  1.00  0.00     0.049 A 
ATOM     50  C   UNL A   1      38.981  32.247  31.970  1.00  0.00     0.074 A 
ATOM     51  C   UNL A   1      43.984  30.085  35.227  1.00  0.00     0.029 A 
ATOM     52  N   UNL A   1      42.344  30.363  33.749  1.00  0.00    -0.354 N 
ATOM     53  N   UNL A   1      40.033  31.738  32.568  1.00  0.00    -0.248 NA
ATOM     54  C   UNL A   1      38.366  33.369  32.696  1.00  0.00     0.031 C 
ATOM     55  C   UNL A   1      43.203  31.172  35.631  1.00  0.00     0.029 A 
ATOM     56  C   UNL A   1      42.197  31.361  34.697  1.00  0.00     0.049 A 
ATOM     57  H   UNL A   1      41.765  30.241  32.963  1.00  0.00     0.167 HD
ATOM     58  C   UNL A   1      40.222  32.496  33.720  1.00  0.00     0.074 A 
ATOM     59  C   UNL A   1      39.181  33.502  33.734  1.00  0.00     0.031 C 
ATOM     60  C   UNL A   1      41.172  32.372  34.680  1.00  0.00     0.037 A 
BRANCH  47  61
ATOM     61  C   UNL A   1      44.999  27.603  33.857  1.00  0.00     0.058 A 
ATOM     62  C   UNL A   1      44.797  26.492  34.687  1.00  0.00     0.135 A 
ATOM     63  C   UNL A   1      46.316  27.905  33.470  1.00  0.00     0.135 A 
ATOM     64  F   UNL A   1      43.561  26.173  35.103  1.00  0.00    -0.206 F 
ATOM     65  C   UNL A   1      45.861  25.706  35.118  1.00  0.00     0.059 A 
ATOM     66  C   UNL A   1      47.392  27.120  33.869  1.00  0.00     0.059 A 
ATOM     67  F   UNL A   1      46.563  28.964  32.683  1.00  0.00    -0.206 F 
ATOM     68  C   UNL A   1      47.154  26.023  34.696  1.00  0.00     0.060 A 
BRANCH  68  69
ATOM     69  S   UNL A   1      48.519  24.965  35.224  1.00  0.00     0.124 S 
ATOM     70  O   UNL A   1      48.592  24.011  34.122  1.00  0.00    -0.237 OA
ATOM     71  O   UNL A   1      49.627  25.911  35.317  1.00  0.00    -0.237 OA
ATOM     72  O   UNL A   1      48.056  24.420  36.496  1.00  0.00    -0.744 OA
ENDBRANCH  68  69
ENDBRANCH  47  61
BRANCH  48  73
ATOM     73  C   UNL A   1      37.102  32.519  30.192  1.00  0.00     0.058 A 
ATOM     74  C   UNL A   1      37.160  33.581  29.278  1.00  0.00     0.135 A 
ATOM     75  C   UNL A   1      35.837  32.142  30.673  1.00  0.00     0.135 A 
ATOM     76  F   UNL A   1      38.346  33.988  28.799  1.00  0.00    -0.206 F 
ATOM     77  C   UNL A   1      36.016  34.264  28.879  1.00  0.00     0.059 A 
ATOM     78  C   UNL A   1      34.675  32.790  30.267  1.00  0.00     0.059 A 
ATOM     79  F   UNL A   1      35.723  31.127  31.543  1.00  0.00    -0.206 F 
ATOM     80  C   UNL A   1      34.777  33.863  29.382  1.00  0.00     0.060 A 
BRANCH  80  81
ATOM     81  S   UNL A   1      33.295  34.747  28.847  1.00  0.00     0.124 S 
ATOM     82  O   UNL A   1      32.599  34.942  30.114  1.00  0.00    -0.237 OA
ATOM     83  O   UNL A   1      33.856  35.947  28.235  1.00  0.00    -0.237 OA
ATOM     84  O   UNL A   1      32.665  33.814  27.917  1.00  0.00    -0.744 OA
ENDBRANCH  80  81
ENDBRANCH  48  73
BRANCH  60  85
ATOM     85  C   UNL A   1      41.177  33.375  35.801  1.00  0.00     0.058 A 
ATOM     86  C   UNL A   1      40.428  33.182  36.971  1.00  0.00     0.135 A 
ATOM     87  C   UNL A   1      42.016  34.501  35.736  1.00  0.00     0.135 A 
ATOM     88  F   UNL A   1      39.608  32.125  37.082  1.00  0.00    -0.206 F 
ATOM     89  C   UNL A   1      40.503  34.075  38.035  1.00  0.00     0.059 A 
ATOM     90  C   UNL A   1      42.126  35.391  36.799  1.00  0.00     0.059 A 
ATOM     91  F   UNL A   1      42.763  34.725  34.643  1.00  0.00    -0.206 F 
ATOM     92  C   UNL A   1      41.360  35.174  37.942  1.00  0.00     0.060 A 
BRANCH  92  93
ATOM     93  S   UNL A   1      41.494  36.292  39.353  1.00  0.00     0.124 S 
ATOM     94  O   UNL A   1      42.940  36.464  39.457  1.00  0.00    -0.237 OA
ATOM     95  O   UNL A   1      40.747  37.462  38.899  1.00  0.00    -0.237 OA
ATOM     96  O   UNL A   1      40.871  35.544  40.440  1.00  0.00    -0.744 OA
ENDBRANCH  92  93
ENDBRANCH  60  85
ENDBRANCH  34  35
ENDBRANCH  27  29
ENDBRANCH  26  27
ENDBRANCH  25  26
ENDBRANCH  24  25
ENDBRANCH  23  24
ENDBRANCH   1  23
TORSDOF 21
ENDMDL
MODEL 2
REMARK VINA RESULT:      -9.9      5.541      6.875
REMARK SMILES CN(C)c1ccc(/C=N/NC(=O)/C=C\C(=O)OCCOCCOC(=O)c2ccc(-c3c4nc(c(-c5c(F)cc(S(=O)(=O)[O-])cc5F)c5ccc([nH]5)c(-c5c(F)cc(S(=O)(=O)[O-])cc5F)c5nc(c(-c6c(F)cc(S(=O)(=O)[O-])cc6F)c6ccc3[nH]6)C=C5)C=C4)cc2)cc1
REMARK SMILES IDX 19 1 18 2 17 3 15 4 16 5 14 6 13 7 11 8 10 9 12 11 9 12 8 13
REMARK SMILES IDX 7 14 4 15 5 16 93 17 6 18 92 19 2 20 1 21 3 22 20 23 21 24
REMARK SMILES IDX 22 25 23 26 24 27 25 28 26 29 27 30 91 31 28 32 90 33 29 34
REMARK SMILES IDX 30 35 31 36 84 37 32 38 89 39 83 40 85 41 33 42 88 43 82 44
REMARK SMILES IDX 81 45 34 47 68 48 47 49 67 50 48 51 51 52 66 53 86 54 49 55
REMARK SMILES IDX 50 56 65 58 87 59 52 60 35 61 36 62 45 63 37 64 38 65 44 66
REMARK SMILES IDX 46 67 39 68 40 69 41 70 42 71 43 72 69 73 70 74 79 75 71 76
REMARK SMILES IDX 72 77 78 78 80 79 73 80 74 81 75 82 76 83 77 84 53 85 54 86
REMARK SMILES IDX 63 87 55 88 56 89 62 90 64 91 57 92 58 93 59 94 60 95 61 96
REMARK H PARENT 10 10 85 46 51 57
REMARK Flexibility Score: inf
ROOT
ATOM      1  C   UNL A   1      36.826  23.219  24.375  1.00  0.00     0.202 C 
ENDROOT
BRANCH   1   2
ATOM      2  C   UNL A   1      35.401  23.071  23.839  1.00  0.00     0.261 C 
BRANCH   2   3
ATOM      3  O   UNL A   1      34.921  23.872  22.756  1.00  0.00    -0.460 OA
BRANCH   3   4
ATOM      4  C   UNL A   1      34.074  24.852  23.132  1.00  0.00     0.331 C 
ATOM      5  O   UNL A   1      33.878  25.274  24.264  1.00  0.00    -0.247 OA
BRANCH   4   6
ATOM      6  C   UNL A   1      33.354  25.456  22.021  1.00  0.00     0.099 C 
ATOM      7  C   UNL A   1      32.073  25.831  22.029  1.00  0.00     0.080 C 
BRANCH   7   8
ATOM      8  C   UNL A   1      30.960  25.627  22.981  1.00  0.00     0.264 C 
ATOM      9  N   UNL A   1      30.671  24.484  23.664  1.00  0.00    -0.244 N 
ATOM     10  H   UNL A   1      29.981  24.617  24.355  1.00  0.00     0.194 HD
ATOM     11  O   UNL A   1      30.269  26.627  23.206  1.00  0.00    -0.268 OA
BRANCH   9  12
ATOM     12  N   UNL A   1      31.117  23.205  23.610  1.00  0.00    -0.180 NA
ATOM     13  C   UNL A   1      31.599  22.592  24.643  1.00  0.00     0.141 C 
BRANCH  13  14
ATOM     14  C   UNL A   1      32.245  21.255  24.466  1.00  0.00    -0.005 A 
ATOM     15  C   UNL A   1      32.836  18.474  24.252  1.00  0.00     0.036 A 
ATOM     16  C   UNL A   1      32.989  19.164  25.462  1.00  0.00     0.026 A 
ATOM     17  C   UNL A   1      32.444  19.239  23.138  1.00  0.00     0.026 A 
ATOM     18  C   UNL A   1      32.728  20.539  25.567  1.00  0.00     0.012 A 
ATOM     19  C   UNL A   1      32.145  20.610  23.236  1.00  0.00     0.012 A 
BRANCH  15  20
ATOM     20  N   UNL A   1      33.061  17.102  24.174  1.00  0.00    -0.378 N 
ATOM     21  C   UNL A   1      32.685  16.238  25.281  1.00  0.00     0.143 C 
ATOM     22  C   UNL A   1      34.098  16.618  23.262  1.00  0.00     0.143 C 
ENDBRANCH  15  20
ENDBRANCH  13  14
ENDBRANCH   9  12
ENDBRANCH   7   8
ENDBRANCH   4   6
ENDBRANCH   3   4
ENDBRANCH   2   3
ENDBRANCH   1   2
BRANCH   1  23
ATOM     23  O   UNL A   1      37.261  22.535  25.532  1.00  0.00    -0.374 OA
BRANCH  23  24
ATOM     24  C   UNL A   1      38.145  21.435  25.412  1.00  0.00     0.202 C 
BRANCH  24  25
ATOM     25  C   UNL A   1      39.521  21.432  26.094  1.00  0.00     0.261 C 
BRANCH  25  26
ATOM     26  O   UNL A   1      39.975  20.166  26.593  1.00  0.00    -0.460 OA
BRANCH  26  27
ATOM     27  C   UNL A   1      41.245  19.843  26.254  1.00  0.00     0.338 C 
ATOM     28  O   UNL A   1      41.624  18.794  25.747  1.00  0.00    -0.246 OA
BRANCH  27  29
ATOM     29  C   UNL A   1      42.132  21.010  26.413  1.00  0.00     0.060 A 
ATOM     30  C   UNL A   1      42.360  21.515  27.702  1.00  0.00     0.016 A 
ATOM     31  C   UNL A   1      42.629  21.675  25.293  1.00  0.00     0.016 A 
ATOM     32  C   UNL A   1      43.039  22.721  27.873  1.00  0.00     0.010 A 
ATOM     33  C   UNL A   1      43.284  22.897  25.465  1.00  0.00     0.010 A 
ATOM     34  C   UNL A   1      43.450  23.445  26.750  1.00  0.00    -0.014 A 
BRANCH  34  35
ATOM     35  C   UNL A   1      43.841  24.869  26.886  1.00  0.00     0.031 A 
ATOM     36  C   UNL A   1      45.280  25.232  26.634  1.00  0.00     0.074 A 
ATOM     37  C   UNL A   1      42.954  25.811  27.252  1.00  0.00     0.049 A 
ATOM     38  N   UNL A   1      45.901  26.361  26.849  1.00  0.00    -0.248 NA
ATOM     39  C   UNL A   1      46.137  24.173  26.069  1.00  0.00     0.031 C 
ATOM     40  C   UNL A   1      41.527  25.588  27.473  1.00  0.00     0.029 A 
ATOM     41  N   UNL A   1      43.136  27.142  27.530  1.00  0.00    -0.354 N 
ATOM     42  C   UNL A   1      47.223  26.140  26.481  1.00  0.00     0.074 A 
ATOM     43  C   UNL A   1      47.317  24.772  26.026  1.00  0.00     0.031 C 
ATOM     44  C   UNL A   1      40.968  26.737  27.895  1.00  0.00     0.029 A 
ATOM     45  C   UNL A   1      42.006  27.760  28.014  1.00  0.00     0.049 A 
ATOM     46  H   UNL A   1      43.992  27.609  27.396  1.00  0.00     0.167 HD
ATOM     47  C   UNL A   1      48.264  27.003  26.525  1.00  0.00     0.037 A 
ATOM     48  C   UNL A   1      41.845  28.993  28.536  1.00  0.00     0.037 A 
ATOM     49  C   UNL A   1      48.156  28.371  26.960  1.00  0.00     0.049 A 
ATOM     50  C   UNL A   1      43.032  29.921  28.621  1.00  0.00     0.074 A 
ATOM     51  C   UNL A   1      49.145  29.338  27.005  1.00  0.00     0.029 A 
ATOM     52  N   UNL A   1      46.993  28.963  27.428  1.00  0.00    -0.354 N 
ATOM     53  N   UNL A   1      44.274  29.712  28.249  1.00  0.00    -0.248 NA
ATOM     54  C   UNL A   1      42.800  31.253  29.200  1.00  0.00     0.031 C 
ATOM     55  C   UNL A   1      48.591  30.500  27.549  1.00  0.00     0.029 A 
ATOM     56  C   UNL A   1      47.246  30.275  27.789  1.00  0.00     0.049 A 
ATOM     57  H   UNL A   1      46.118  28.517  27.494  1.00  0.00     0.167 HD
ATOM     58  C   UNL A   1      44.959  30.893  28.519  1.00  0.00     0.074 A 
ATOM     59  C   UNL A   1      43.995  31.816  29.080  1.00  0.00     0.031 C 
ATOM     60  C   UNL A   1      46.267  31.189  28.320  1.00  0.00     0.037 A 
BRANCH  47  61
ATOM     61  C   UNL A   1      49.621  26.497  26.128  1.00  0.00     0.058 A 
ATOM     62  C   UNL A   1      50.151  26.719  24.850  1.00  0.00     0.135 A 
ATOM     63  C   UNL A   1      50.432  25.846  27.073  1.00  0.00     0.135 A 
ATOM     64  F   UNL A   1      49.410  27.317  23.904  1.00  0.00    -0.206 F 
ATOM     65  C   UNL A   1      51.440  26.311  24.518  1.00  0.00     0.059 A 
ATOM     66  C   UNL A   1      51.732  25.451  26.771  1.00  0.00     0.059 A 
ATOM     67  F   UNL A   1      49.968  25.603  28.309  1.00  0.00    -0.206 F 
ATOM     68  C   UNL A   1      52.225  25.686  25.489  1.00  0.00     0.060 A 
BRANCH  68  69
ATOM     69  S   UNL A   1      53.911  25.206  25.058  1.00  0.00     0.124 S 
ATOM     70  O   UNL A   1      53.791  23.755  24.974  1.00  0.00    -0.237 OA
ATOM     71  O   UNL A   1      54.117  25.900  23.789  1.00  0.00    -0.237 OA
ATOM     72  O   UNL A   1      54.704  25.706  26.177  1.00  0.00    -0.744 OA
ENDBRANCH  68  69
ENDBRANCH  47  61
BRANCH  48  73
ATOM     73  C   UNL A   1      40.522  29.412  29.074  1.00  0.00     0.058 A 
ATOM     74  C   UNL A   1      39.457  29.735  28.221  1.00  0.00     0.135 A 
ATOM     75  C   UNL A   1      40.309  29.532  30.457  1.00  0.00     0.135 A 
ATOM     76  F   UNL A   1      39.615  29.650  26.891  1.00  0.00    -0.206 F 
ATOM     77  C   UNL A   1      38.239  30.191  28.715  1.00  0.00     0.059 A 
ATOM     78  C   UNL A   1      39.090  29.957  30.977  1.00  0.00     0.059 A 
ATOM     79  F   UNL A   1      41.292  29.228  31.319  1.00  0.00    -0.206 F 
ATOM     80  C   UNL A   1      38.066  30.301  30.095  1.00  0.00     0.060 A 
BRANCH  80  81
ATOM     81  S   UNL A   1      36.475  30.879  30.729  1.00  0.00     0.124 S 
ATOM     82  O   UNL A   1      36.278  29.997  31.872  1.00  0.00    -0.237 OA
ATOM     83  O   UNL A   1      36.759  32.276  31.042  1.00  0.00    -0.237 OA
ATOM     84  O   UNL A   1      35.570  30.668  29.603  1.00  0.00    -0.744 OA
ENDBRANCH  80  81
ENDBRANCH  48  73
BRANCH  60  85
ATOM     85  C   UNL A   1      46.734  32.579  28.652  1.00  0.00     0.058 A 
ATOM     86  C   UNL A   1      47.277  32.898  29.905  1.00  0.00     0.135 A 
ATOM     87  C   UNL A   1      46.719  33.583  27.668  1.00  0.00     0.135 A 
ATOM     88  F   UNL A   1      47.311  31.978  30.882  1.00  0.00    -0.206 F 
ATOM     89  C   UNL A   1      47.782  34.167  30.175  1.00  0.00     0.059 A 
ATOM     90  C   UNL A   1      47.242  34.849  27.908  1.00  0.00     0.059 A 
ATOM     91  F   UNL A   1      46.221  33.325  26.448  1.00  0.00    -0.206 F 
ATOM     92  C   UNL A   1      47.765  35.134  29.167  1.00  0.00     0.060 A 
BRANCH  92  93
ATOM     93  S   UNL A   1      48.477  36.757  29.512  1.00  0.00     0.124 S 
ATOM     94  O   UNL A   1      49.742  36.396  30.145  1.00  0.00    -0.237 OA
ATOM     95  O   UNL A   1      48.580  37.344  28.179  1.00  0.00    -0.237 OA
ATOM     96  O   UNL A   1      47.492  37.381  30.389  1.00  0.00    -0.744 OA
ENDBRANCH  92  93
ENDBRANCH  60  85
ENDBRANCH  34  35
ENDBRANCH  27  29
ENDBRANCH  26  27
ENDBRANCH  25  26
ENDBRANCH  24  25
ENDBRANCH  23  24
ENDBRANCH   1  23
TORSDOF 21
ENDMDL
MODEL 3
REMARK VINA RESULT:      -9.9      4.606     10.629
REMARK SMILES CN(C)c1ccc(/C=N/NC(=O)/C=C\C(=O)OCCOCCOC(=O)c2ccc(-c3c4nc(c(-c5c(F)cc(S(=O)(=O)[O-])cc5F)c5ccc([nH]5)c(-c5c(F)cc(S(=O)(=O)[O-])cc5F)c5nc(c(-c6c(F)cc(S(=O)(=O)[O-])cc6F)c6ccc3[nH]6)C=C5)C=C4)cc2)cc1
REMARK SMILES IDX 19 1 18 2 17 3 15 4 16 5 14 6 13 7 11 8 10 9 12 11 9 12 8 13
REMARK SMILES IDX 7 14 4 15 5 16 93 17 6 18 92 19 2 20 1 21 3 22 20 23 21 24
REMARK SMILES IDX 22 25 23 26 24 27 25 28 26 29 27 30 91 31 28 32 90 33 29 34
REMARK SMILES IDX 30 35 31 36 84 37 32 38 89 39 83 40 85 41 33 42 88 43 82 44
REMARK SMILES IDX 81 45 34 47 68 48 47 49 67 50 48 51 51 52 66 53 86 54 49 55
REMARK SMILES IDX 50 56 65 58 87 59 52 60 35 61 36 62 45 63 37 64 38 65 44 66
REMARK SMILES IDX 46 67 39 68 40 69 41 70 42 71 43 72 69 73 70 74 79 75 71 76
REMARK SMILES IDX 72 77 78 78 80 79 73 80 74 81 75 82 76 83 77 84 53 85 54 86
REMARK SMILES IDX 63 87 55 88 56 89 62 90 64 91 57 92 58 93 59 94 60 95 61 96
REMARK H PARENT 10 10 85 46 51 57
REMARK Flexibility Score: inf
ROOT
ATOM      1  C   UNL A   1      45.795  23.669  24.752  1.00  0.00     0.202 C 
ENDROOT
BRANCH   1   2
ATOM      2  C   UNL A   1      45.369  22.294  24.235  1.00  0.00     0.261 C 
BRANCH   2   3
ATOM      3  O   UNL A   1      44.714  21.346  25.083  1.00  0.00    -0.460 OA
BRANCH   3   4
ATOM      4  C   UNL A   1      44.403  20.185  24.471  1.00  0.00     0.331 C 
ATOM      5  O   UNL A   1      44.429  19.945  23.271  1.00  0.00    -0.247 OA
BRANCH   4   6
ATOM      6  C   UNL A   1      44.021  19.126  25.392  1.00  0.00     0.099 C 
ATOM      7  C   UNL A   1      42.869  19.050  26.064  1.00  0.00     0.080 C 
BRANCH   7   8
ATOM      8  C   UNL A   1      41.749  19.992  26.270  1.00  0.00     0.264 C 
ATOM      9  N   UNL A   1      41.824  21.244  26.803  1.00  0.00    -0.244 N 
ATOM     10  H   UNL A   1      40.984  21.750  26.706  1.00  0.00     0.194 HD
ATOM     11  O   UNL A   1      40.651  19.603  25.855  1.00  0.00    -0.268 OA
BRANCH   9  12
ATOM     12  N   UNL A   1      42.790  21.952  27.437  1.00  0.00    -0.180 NA
ATOM     13  C   UNL A   1      42.588  22.543  28.570  1.00  0.00     0.141 C 
BRANCH  13  14
ATOM     14  C   UNL A   1      43.636  23.461  29.114  1.00  0.00    -0.005 A 
ATOM     15  C   UNL A   1      45.095  25.493  30.482  1.00  0.00     0.036 A 
ATOM     16  C   UNL A   1      44.606  25.691  29.183  1.00  0.00     0.026 A 
ATOM     17  C   UNL A   1      44.888  24.219  31.044  1.00  0.00     0.026 A 
ATOM     18  C   UNL A   1      43.912  24.684  28.493  1.00  0.00     0.012 A 
ATOM     19  C   UNL A   1      44.165  23.214  30.378  1.00  0.00     0.012 A 
BRANCH  15  20
ATOM     20  N   UNL A   1      45.747  26.515  31.168  1.00  0.00    -0.378 N 
ATOM     21  C   UNL A   1      46.644  27.413  30.457  1.00  0.00     0.143 C 
ATOM     22  C   UNL A   1      45.938  26.372  32.610  1.00  0.00     0.143 C 
ENDBRANCH  15  20
ENDBRANCH  13  14
ENDBRANCH   9  12
ENDBRANCH   7   8
ENDBRANCH   4   6
ENDBRANCH   3   4
ENDBRANCH   2   3
ENDBRANCH   1   2
BRANCH   1  23
ATOM     23  O   UNL A   1      45.002  24.820  24.547  1.00  0.00    -0.374 OA
BRANCH  23  24
ATOM     24  C   UNL A   1      45.234  25.984  25.319  1.00  0.00     0.202 C 
BRANCH  24  25
ATOM     25  C   UNL A   1      44.132  27.030  25.548  1.00  0.00     0.261 C 
BRANCH  25  26
ATOM     26  O   UNL A   1      42.851  26.733  24.975  1.00  0.00    -0.460 OA
BRANCH  26  27
ATOM     27  C   UNL A   1      42.047  25.965  25.747  1.00  0.00     0.338 C 
ATOM     28  O   UNL A   1      41.953  24.743  25.718  1.00  0.00    -0.246 OA
BRANCH  27  29
ATOM     29  C   UNL A   1      41.396  26.785  26.785  1.00  0.00     0.060 A 
ATOM     30  C   UNL A   1      41.773  28.130  26.920  1.00  0.00     0.016 A 
ATOM     31  C   UNL A   1      40.518  26.199  27.696  1.00  0.00     0.016 A 
ATOM     32  C   UNL A   1      41.317  28.880  28.003  1.00  0.00     0.010 A 
ATOM     33  C   UNL A   1      40.085  26.944  28.796  1.00  0.00     0.010 A 
ATOM     34  C   UNL A   1      40.520  28.270  28.977  1.00  0.00    -0.014 A 
BRANCH  34  35
ATOM     35  C   UNL A   1      40.324  28.924  30.294  1.00  0.00     0.031 A 
ATOM     36  C   UNL A   1      39.253  29.975  30.407  1.00  0.00     0.074 A 
ATOM     37  C   UNL A   1      41.093  28.617  31.353  1.00  0.00     0.049 A 
ATOM     38  N   UNL A   1      39.001  30.801  31.387  1.00  0.00    -0.248 NA
ATOM     39  C   UNL A   1      38.348  30.120  29.251  1.00  0.00     0.031 C 
ATOM     40  C   UNL A   1      42.125  27.583  31.378  1.00  0.00     0.029 A 
ATOM     41  N   UNL A   1      41.140  29.172  32.607  1.00  0.00    -0.354 N 
ATOM     42  C   UNL A   1      37.936  31.584  30.956  1.00  0.00     0.074 A 
ATOM     43  C   UNL A   1      37.585  31.135  29.628  1.00  0.00     0.031 C 
ATOM     44  C   UNL A   1      42.735  27.607  32.578  1.00  0.00     0.029 A 
ATOM     45  C   UNL A   1      42.164  28.684  33.385  1.00  0.00     0.049 A 
ATOM     46  H   UNL A   1      40.503  29.855  32.919  1.00  0.00     0.167 HD
ATOM     47  C   UNL A   1      37.312  32.590  31.611  1.00  0.00     0.037 A 
ATOM     48  C   UNL A   1      42.616  29.095  34.587  1.00  0.00     0.037 A 
ATOM     49  C   UNL A   1      37.654  33.016  32.942  1.00  0.00     0.049 A 
ATOM     50  C   UNL A   1      41.935  30.252  35.277  1.00  0.00     0.074 A 
ATOM     51  C   UNL A   1      37.056  34.001  33.708  1.00  0.00     0.029 A 
ATOM     52  N   UNL A   1      38.687  32.487  33.701  1.00  0.00    -0.354 N 
ATOM     53  N   UNL A   1      40.913  30.971  34.872  1.00  0.00    -0.248 NA
ATOM     54  C   UNL A   1      42.468  30.659  36.586  1.00  0.00     0.031 C 
ATOM     55  C   UNL A   1      37.760  34.103  34.911  1.00  0.00     0.029 A 
ATOM     56  C   UNL A   1      38.759  33.143  34.917  1.00  0.00     0.049 A 
ATOM     57  H   UNL A   1      39.279  31.755  33.417  1.00  0.00     0.167 HD
ATOM     58  C   UNL A   1      40.664  31.889  35.888  1.00  0.00     0.074 A 
ATOM     59  C   UNL A   1      41.637  31.634  36.929  1.00  0.00     0.031 C 
ATOM     60  C   UNL A   1      39.717  32.857  35.955  1.00  0.00     0.037 A 
BRANCH  47  61
ATOM     61  C   UNL A   1      36.218  33.329  30.896  1.00  0.00     0.058 A 
ATOM     62  C   UNL A   1      34.871  33.202  31.265  1.00  0.00     0.135 A 
ATOM     63  C   UNL A   1      36.536  34.240  29.873  1.00  0.00     0.135 A 
ATOM     64  F   UNL A   1      34.511  32.331  32.221  1.00  0.00    -0.206 F 
ATOM     65  C   UNL A   1      33.876  33.950  30.645  1.00  0.00     0.059 A 
ATOM     66  C   UNL A   1      35.560  35.015  29.255  1.00  0.00     0.059 A 
ATOM     67  F   UNL A   1      37.810  34.392  29.477  1.00  0.00    -0.206 F 
ATOM     68  C   UNL A   1      34.232  34.860  29.647  1.00  0.00     0.060 A 
BRANCH  68  69
ATOM     69  S   UNL A   1      32.934  35.858  28.885  1.00  0.00     0.124 S 
ATOM     70  O   UNL A   1      33.714  36.907  28.237  1.00  0.00    -0.237 OA
ATOM     71  O   UNL A   1      32.291  34.901  27.989  1.00  0.00    -0.237 OA
ATOM     72  O   UNL A   1      32.125  36.289  30.021  1.00  0.00    -0.744 OA
ENDBRANCH  68  69
ENDBRANCH  47  61
BRANCH  48  73
ATOM     73  C   UNL A   1      43.808  28.449  35.201  1.00  0.00     0.058 A 
ATOM     74  C   UNL A   1      43.692  27.272  35.954  1.00  0.00     0.135 A 
ATOM     75  C   UNL A   1      45.085  29.020  35.075  1.00  0.00     0.135 A 
ATOM     76  F   UNL A   1      42.491  26.694  36.116  1.00  0.00    -0.206 F 
ATOM     77  C   UNL A   1      44.792  26.699  36.585  1.00  0.00     0.059 A 
ATOM     78  C   UNL A   1      46.205  28.450  35.672  1.00  0.00     0.059 A 
ATOM     79  F   UNL A   1      45.253  30.142  34.359  1.00  0.00    -0.206 F 
ATOM     80  C   UNL A   1      46.044  27.297  36.440  1.00  0.00     0.060 A 
BRANCH  80  81
ATOM     81  S   UNL A   1      47.469  26.538  37.252  1.00  0.00     0.124 S 
ATOM     82  O   UNL A   1      47.041  26.527  38.645  1.00  0.00    -0.237 OA
ATOM     83  O   UNL A   1      47.540  25.236  36.595  1.00  0.00    -0.237 OA
ATOM     84  O   UNL A   1      48.562  27.452  36.934  1.00  0.00    -0.744 OA
ENDBRANCH  80  81
ENDBRANCH  48  73
BRANCH  60  85
ATOM     85  C   UNL A   1      39.636  33.680  37.211  1.00  0.00     0.058 A 
ATOM     86  C   UNL A   1      40.286  34.917  37.329  1.00  0.00     0.135 A 
ATOM     87  C   UNL A   1      38.821  33.261  38.277  1.00  0.00     0.135 A 
ATOM     88  F   UNL A   1      41.080  35.360  36.342  1.00  0.00    -0.206 F 
ATOM     89  C   UNL A   1      40.138  35.707  38.464  1.00  0.00     0.059 A 
ATOM     90  C   UNL A   1      38.638  34.049  39.409  1.00  0.00     0.059 A 
ATOM     91  F   UNL A   1      38.167  32.091  38.209  1.00  0.00    -0.206 F 
ATOM     92  C   UNL A   1      39.307  35.268  39.497  1.00  0.00     0.060 A 
BRANCH  92  93
ATOM     93  S   UNL A   1      39.077  36.331  40.938  1.00  0.00     0.124 S 
ATOM     94  O   UNL A   1      37.951  35.683  41.605  1.00  0.00    -0.237 OA
ATOM     95  O   UNL A   1      40.365  36.221  41.618  1.00  0.00    -0.237 OA
ATOM     96  O   UNL A   1      38.793  37.638  40.355  1.00  0.00    -0.744 OA
ENDBRANCH  92  93
ENDBRANCH  60  85
ENDBRANCH  34  35
ENDBRANCH  27  29
ENDBRANCH  26  27
ENDBRANCH  25  26
ENDBRANCH  24  25
ENDBRANCH  23  24
ENDBRANCH   1  23
TORSDOF 21
ENDMDL
