MODEL 1
REMARK VINA RESULT:     -11.0      0.000      0.000
REMARK SMILES CC1(C)CSC[C@H]([NH2+][C@H](C(=O)OCCOCCOC(=O)c2ccc(-c3c4nc(c(-c5c(F)cc(S(=O)(=O)[O-])cc5F)c5ccc([nH]5)c(-c5c(F)cc(S(=O)(=O)[O-])cc5F)c5nc(c(-c6c(F)cc(S(=O)(=O)[O-])cc6F)c6ccc3[nH]6)C=C5)C=C4)cc2)c2ccccc2)C1
REMARK SMILES IDX 16 1 15 2 14 3 13 4 12 5 10 6 11 7 9 8 8 9 7 12 1 13 2 14
REMARK SMILES IDX 3 15 4 16 93 17 5 18 6 19 87 20 88 21 92 22 89 23 91 24
REMARK SMILES IDX 90 25 17 26 18 27 19 28 20 29 21 30 22 31 86 32 23 33 85 34
REMARK SMILES IDX 24 35 25 36 26 37 79 38 27 39 84 40 78 41 80 42 28 43 83 44
REMARK SMILES IDX 77 45 76 46 29 48 63 49 42 50 62 51 43 52 46 53 61 54 81 55
REMARK SMILES IDX 44 56 45 57 60 59 82 60 47 61 30 62 31 63 40 64 32 65 33 66
REMARK SMILES IDX 39 67 41 68 34 69 35 70 36 71 37 72 38 73 64 74 65 75 74 76
REMARK SMILES IDX 66 77 67 78 73 79 75 80 68 81 69 82 70 83 71 84 72 85 48 86
REMARK SMILES IDX 49 87 58 88 50 89 51 90 57 91 59 92 52 93 53 94 54 95 55 96
REMARK SMILES IDX 56 97
REMARK H PARENT 8 10 8 11 80 47 46 58
REMARK Flexibility Score: inf
ROOT
ATOM      1  C   UNL A   1      39.834  21.962  26.556  1.00  0.00     0.202 C 
ENDROOT
BRANCH   1   2
ATOM      2  O   UNL A   1      38.440  22.112  26.277  1.00  0.00    -0.374 OA
BRANCH   2   3
ATOM      3  C   UNL A   1      37.940  21.624  25.037  1.00  0.00     0.202 C 
BRANCH   3   4
ATOM      4  C   UNL A   1      36.742  20.670  25.032  1.00  0.00     0.261 C 
BRANCH   4   5
ATOM      5  O   UNL A   1      35.500  21.347  24.781  1.00  0.00    -0.459 OA
BRANCH   5   6
ATOM      6  C   UNL A   1      34.620  21.249  25.808  1.00  0.00     0.369 C 
ATOM      7  O   UNL A   1      34.934  21.670  26.919  1.00  0.00    -0.245 OA
BRANCH   6   8
ATOM      8  C   UNL A   1      33.268  20.506  25.492  1.00  0.00     0.325 C 
BRANCH   8   9
ATOM      9  N   UNL A   1      32.194  21.421  24.928  1.00  0.00    -0.328 N 
ATOM     10  H   UNL A   1      31.872  21.006  24.053  1.00  0.00     0.347 HD
ATOM     11  H   UNL A   1      31.501  21.486  25.673  1.00  0.00     0.347 HD
BRANCH   9  12
ATOM     12  C   UNL A   1      32.553  22.817  24.642  1.00  0.00     0.193 C 
ATOM     13  C   UNL A   1      33.843  25.382  25.648  1.00  0.00     0.012 C 
ATOM     14  C   UNL A   1      32.332  25.274  25.319  1.00  0.00    -0.021 C 
ATOM     15  C   UNL A   1      31.589  26.200  26.298  1.00  0.00     0.012 C 
ATOM     16  C   UNL A   1      32.046  25.753  23.880  1.00  0.00     0.076 C 
ATOM     17  C   UNL A   1      31.797  23.825  25.518  1.00  0.00     0.073 C 
ATOM     18  S   UNL A   1      32.784  24.737  22.566  1.00  0.00    -0.155 SA
ATOM     19  C   UNL A   1      32.301  23.080  23.147  1.00  0.00     0.134 C 
ENDBRANCH   9  12
ENDBRANCH   8   9
BRANCH   8  20
ATOM     20  C   UNL A   1      33.273  19.242  24.585  1.00  0.00     0.021 A 
ATOM     21  C   UNL A   1      34.165  18.165  24.689  1.00  0.00     0.010 A 
ATOM     22  C   UNL A   1      32.367  19.187  23.501  1.00  0.00     0.010 A 
ATOM     23  C   UNL A   1      34.234  17.156  23.719  1.00  0.00     0.001 A 
ATOM     24  C   UNL A   1      32.428  18.180  22.530  1.00  0.00     0.001 A 
ATOM     25  C   UNL A   1      33.381  17.175  22.625  1.00  0.00     0.000 A 
ENDBRANCH   8  20
ENDBRANCH   6   8
ENDBRANCH   5   6
ENDBRANCH   4   5
ENDBRANCH   3   4
ENDBRANCH   2   3
ENDBRANCH   1   2
BRANCH   1  26
ATOM     26  C   UNL A   1      40.714  23.226  26.626  1.00  0.00     0.261 C 
BRANCH  26  27
ATOM     27  O   UNL A   1      39.964  24.446  26.452  1.00  0.00    -0.460 OA
BRANCH  27  28
ATOM     28  C   UNL A   1      40.706  25.566  26.253  1.00  0.00     0.338 C 
ATOM     29  O   UNL A   1      41.082  26.014  25.181  1.00  0.00    -0.246 OA
BRANCH  28  30
ATOM     30  C   UNL A   1      40.770  26.340  27.514  1.00  0.00     0.060 A 
ATOM     31  C   UNL A   1      39.756  26.121  28.459  1.00  0.00     0.016 A 
ATOM     32  C   UNL A   1      41.793  27.250  27.780  1.00  0.00     0.016 A 
ATOM     33  C   UNL A   1      39.744  26.830  29.659  1.00  0.00     0.010 A 
ATOM     34  C   UNL A   1      41.767  27.979  28.976  1.00  0.00     0.010 A 
ATOM     35  C   UNL A   1      40.730  27.791  29.912  1.00  0.00    -0.014 A 
BRANCH  35  36
ATOM     36  C   UNL A   1      40.602  28.689  31.087  1.00  0.00     0.031 A 
ATOM     37  C   UNL A   1      39.573  29.787  31.055  1.00  0.00     0.074 A 
ATOM     38  C   UNL A   1      41.370  28.519  32.179  1.00  0.00     0.049 A 
ATOM     39  N   UNL A   1      39.334  30.725  31.934  1.00  0.00    -0.248 NA
ATOM     40  C   UNL A   1      38.698  29.831  29.873  1.00  0.00     0.031 C 
ATOM     41  C   UNL A   1      42.361  27.459  32.357  1.00  0.00     0.029 A 
ATOM     42  N   UNL A   1      41.443  29.247  33.342  1.00  0.00    -0.354 N 
ATOM     43  C   UNL A   1      38.288  31.477  31.410  1.00  0.00     0.074 A 
ATOM     44  C   UNL A   1      37.955  30.900  30.125  1.00  0.00     0.031 C 
ATOM     45  C   UNL A   1      42.957  27.616  33.552  1.00  0.00     0.029 A 
ATOM     46  C   UNL A   1      42.422  28.811  34.204  1.00  0.00     0.049 A 
ATOM     47  H   UNL A   1      40.851  30.007  33.539  1.00  0.00     0.167 HD
ATOM     48  C   UNL A   1      37.661  32.547  31.953  1.00  0.00     0.037 A 
ATOM     49  C   UNL A   1      42.860  29.336  35.367  1.00  0.00     0.037 A 
ATOM     50  C   UNL A   1      37.997  33.116  33.234  1.00  0.00     0.049 A 
ATOM     51  C   UNL A   1      42.215  30.589  35.904  1.00  0.00     0.074 A 
ATOM     52  C   UNL A   1      37.400  34.183  33.882  1.00  0.00     0.029 A 
ATOM     53  N   UNL A   1      39.027  32.677  34.052  1.00  0.00    -0.354 N 
ATOM     54  N   UNL A   1      41.208  31.273  35.415  1.00  0.00    -0.248 NA
ATOM     55  C   UNL A   1      42.769  31.146  37.147  1.00  0.00     0.031 C 
ATOM     56  C   UNL A   1      38.110  34.432  35.059  1.00  0.00     0.029 A 
ATOM     57  C   UNL A   1      39.112  33.481  35.178  1.00  0.00     0.049 A 
ATOM     58  H   UNL A   1      39.612  31.909  33.862  1.00  0.00     0.167 HD
ATOM     59  C   UNL A   1      40.999  32.329  36.298  1.00  0.00     0.074 A 
ATOM     60  C   UNL A   1      41.971  32.184  37.360  1.00  0.00     0.031 C 
ATOM     61  C   UNL A   1      40.085  33.329  36.231  1.00  0.00     0.037 A 
BRANCH  48  62
ATOM     62  C   UNL A   1      36.565  33.198  31.154  1.00  0.00     0.058 A 
ATOM     63  C   UNL A   1      35.213  33.074  31.508  1.00  0.00     0.135 A 
ATOM     64  C   UNL A   1      36.880  33.998  30.043  1.00  0.00     0.135 A 
ATOM     65  F   UNL A   1      34.854  32.310  32.552  1.00  0.00    -0.206 F 
ATOM     66  C   UNL A   1      34.209  33.701  30.776  1.00  0.00     0.059 A 
ATOM     67  C   UNL A   1      35.897  34.658  29.314  1.00  0.00     0.059 A 
ATOM     68  F   UNL A   1      38.158  34.149  29.659  1.00  0.00    -0.206 F 
ATOM     69  C   UNL A   1      34.562  34.494  29.681  1.00  0.00     0.060 A 
BRANCH  69  70
ATOM     70  S   UNL A   1      33.248  35.306  28.747  1.00  0.00     0.124 S 
ATOM     71  O   UNL A   1      32.446  35.889  29.819  1.00  0.00    -0.237 OA
ATOM     72  O   UNL A   1      33.993  36.255  27.925  1.00  0.00    -0.237 OA
ATOM     73  O   UNL A   1      32.618  34.209  28.019  1.00  0.00    -0.744 OA
ENDBRANCH  69  70
ENDBRANCH  48  62
BRANCH  49  74
ATOM     74  C   UNL A   1      43.999  28.700  36.086  1.00  0.00     0.058 A 
ATOM     75  C   UNL A   1      43.800  27.610  36.945  1.00  0.00     0.135 A 
ATOM     76  C   UNL A   1      45.311  29.178  35.930  1.00  0.00     0.135 A 
ATOM     77  F   UNL A   1      42.564  27.128  37.142  1.00  0.00    -0.206 F 
ATOM     78  C   UNL A   1      44.858  27.018  37.629  1.00  0.00     0.059 A 
ATOM     79  C   UNL A   1      46.388  28.585  36.580  1.00  0.00     0.059 A 
ATOM     80  F   UNL A   1      45.557  30.218  35.118  1.00  0.00    -0.206 F 
ATOM     81  C   UNL A   1      46.150  27.510  37.434  1.00  0.00     0.060 A 
BRANCH  81  82
ATOM     82  S   UNL A   1      47.524  26.699  38.283  1.00  0.00     0.124 S 
ATOM     83  O   UNL A   1      48.379  27.834  38.610  1.00  0.00    -0.237 OA
ATOM     84  O   UNL A   1      46.849  26.060  39.410  1.00  0.00    -0.237 OA
ATOM     85  O   UNL A   1      48.048  25.783  37.275  1.00  0.00    -0.744 OA
ENDBRANCH  81  82
ENDBRANCH  49  74
BRANCH  61  86
ATOM     86  C   UNL A   1      40.075  34.349  37.340  1.00  0.00     0.058 A 
ATOM     87  C   UNL A   1      40.859  35.511  37.275  1.00  0.00     0.135 A 
ATOM     88  C   UNL A   1      39.204  34.207  38.433  1.00  0.00     0.135 A 
ATOM     89  F   UNL A   1      41.715  35.692  36.257  1.00  0.00    -0.206 F 
ATOM     90  C   UNL A   1      40.785  36.494  38.257  1.00  0.00     0.059 A 
ATOM     91  C   UNL A   1      39.093  35.191  39.412  1.00  0.00     0.059 A 
ATOM     92  F   UNL A   1      38.425  33.119  38.541  1.00  0.00    -0.206 F 
ATOM     93  C   UNL A   1      39.890  36.330  39.317  1.00  0.00     0.060 A 
BRANCH  93  94
ATOM     94  S   UNL A   1      39.756  37.648  40.545  1.00  0.00     0.124 S 
ATOM     95  O   UNL A   1      39.889  36.904  41.793  1.00  0.00    -0.237 OA
ATOM     96  O   UNL A   1      40.881  38.511  40.198  1.00  0.00    -0.237 OA
ATOM     97  O   UNL A   1      38.435  38.216  40.292  1.00  0.00    -0.744 OA
ENDBRANCH  93  94
ENDBRANCH  61  86
ENDBRANCH  35  36
ENDBRANCH  28  30
ENDBRANCH  27  28
ENDBRANCH  26  27
ENDBRANCH   1  26
TORSDOF 20
ENDMDL
MODEL 2
REMARK VINA RESULT:     -10.9      6.708     12.036
REMARK SMILES CC1(C)CSC[C@H]([NH2+][C@H](C(=O)OCCOCCOC(=O)c2ccc(-c3c4nc(c(-c5c(F)cc(S(=O)(=O)[O-])cc5F)c5ccc([nH]5)c(-c5c(F)cc(S(=O)(=O)[O-])cc5F)c5nc(c(-c6c(F)cc(S(=O)(=O)[O-])cc6F)c6ccc3[nH]6)C=C5)C=C4)cc2)c2ccccc2)C1
REMARK SMILES IDX 16 1 15 2 14 3 13 4 12 5 10 6 11 7 9 8 8 9 7 12 1 13 2 14
REMARK SMILES IDX 3 15 4 16 93 17 5 18 6 19 87 20 88 21 92 22 89 23 91 24
REMARK SMILES IDX 90 25 17 26 18 27 19 28 20 29 21 30 22 31 86 32 23 33 85 34
REMARK SMILES IDX 24 35 25 36 26 37 79 38 27 39 84 40 78 41 80 42 28 43 83 44
REMARK SMILES IDX 77 45 76 46 29 48 63 49 42 50 62 51 43 52 46 53 61 54 81 55
REMARK SMILES IDX 44 56 45 57 60 59 82 60 47 61 30 62 31 63 40 64 32 65 33 66
REMARK SMILES IDX 39 67 41 68 34 69 35 70 36 71 37 72 38 73 64 74 65 75 74 76
REMARK SMILES IDX 66 77 67 78 73 79 75 80 68 81 69 82 70 83 71 84 72 85 48 86
REMARK SMILES IDX 49 87 58 88 50 89 51 90 57 91 59 92 52 93 53 94 54 95 55 96
REMARK SMILES IDX 56 97
REMARK H PARENT 8 10 8 11 80 47 46 58
REMARK Flexibility Score: inf
ROOT
ATOM      1  C   UNL A   1      34.645  32.700  28.994  1.00  0.00     0.202 C 
ENDROOT
BRANCH   1   2
ATOM      2  O   UNL A   1      33.824  31.816  28.228  1.00  0.00    -0.374 OA
BRANCH   2   3
ATOM      3  C   UNL A   1      34.426  30.667  27.643  1.00  0.00     0.202 C 
BRANCH   3   4
ATOM      4  C   UNL A   1      33.578  29.733  26.775  1.00  0.00     0.261 C 
BRANCH   4   5
ATOM      5  O   UNL A   1      33.464  28.414  27.334  1.00  0.00    -0.459 OA
BRANCH   5   6
ATOM      6  C   UNL A   1      32.237  27.862  27.158  1.00  0.00     0.369 C 
ATOM      7  O   UNL A   1      31.407  27.928  28.062  1.00  0.00    -0.245 OA
BRANCH   6   8
ATOM      8  C   UNL A   1      32.013  27.090  25.804  1.00  0.00     0.325 C 
BRANCH   8   9
ATOM      9  N   UNL A   1      31.582  25.646  25.998  1.00  0.00    -0.328 N 
ATOM     10  H   UNL A   1      31.395  25.517  26.993  1.00  0.00     0.347 HD
ATOM     11  H   UNL A   1      30.782  25.535  25.376  1.00  0.00     0.347 HD
BRANCH   9  12
ATOM     12  C   UNL A   1      32.512  24.584  25.588  1.00  0.00     0.193 C 
ATOM     13  C   UNL A   1      34.432  23.546  23.469  1.00  0.00     0.012 C 
ATOM     14  C   UNL A   1      33.117  22.814  23.843  1.00  0.00    -0.021 C 
ATOM     15  C   UNL A   1      32.591  22.147  22.560  1.00  0.00     0.012 C 
ATOM     16  C   UNL A   1      33.378  21.716  24.895  1.00  0.00     0.076 C 
ATOM     17  C   UNL A   1      32.030  23.803  24.358  1.00  0.00     0.073 C 
ATOM     18  S   UNL A   1      33.940  22.315  26.516  1.00  0.00    -0.155 SA
ATOM     19  C   UNL A   1      32.732  23.649  26.790  1.00  0.00     0.134 C 
ENDBRANCH   9  12
ENDBRANCH   8   9
BRANCH   8  20
ATOM     20  C   UNL A   1      31.060  27.680  24.725  1.00  0.00     0.021 A 
ATOM     21  C   UNL A   1      31.104  28.988  24.223  1.00  0.00     0.010 A 
ATOM     22  C   UNL A   1      29.996  26.877  24.255  1.00  0.00     0.010 A 
ATOM     23  C   UNL A   1      30.097  29.507  23.398  1.00  0.00     0.001 A 
ATOM     24  C   UNL A   1      28.987  27.388  23.428  1.00  0.00     0.001 A 
ATOM     25  C   UNL A   1      29.024  28.713  23.019  1.00  0.00     0.000 A 
ENDBRANCH   8  20
ENDBRANCH   6   8
ENDBRANCH   5   6
ENDBRANCH   4   5
ENDBRANCH   3   4
ENDBRANCH   2   3
ENDBRANCH   1   2
BRANCH   1  26
ATOM     26  C   UNL A   1      34.986  32.319  30.448  1.00  0.00     0.261 C 
BRANCH  26  27
ATOM     27  O   UNL A   1      36.383  32.009  30.638  1.00  0.00    -0.460 OA
BRANCH  27  28
ATOM     28  C   UNL A   1      36.669  30.698  30.843  1.00  0.00     0.338 C 
ATOM     29  O   UNL A   1      35.876  29.807  31.100  1.00  0.00    -0.246 OA
BRANCH  28  30
ATOM     30  C   UNL A   1      38.069  30.434  30.435  1.00  0.00     0.060 A 
ATOM     31  C   UNL A   1      38.325  30.284  29.064  1.00  0.00     0.016 A 
ATOM     32  C   UNL A   1      39.110  30.343  31.359  1.00  0.00     0.016 A 
ATOM     33  C   UNL A   1      39.616  30.014  28.613  1.00  0.00     0.010 A 
ATOM     34  C   UNL A   1      40.403  30.048  30.906  1.00  0.00     0.010 A 
ATOM     35  C   UNL A   1      40.659  29.859  29.533  1.00  0.00    -0.014 A 
BRANCH  35  36
ATOM     36  C   UNL A   1      41.983  29.368  29.074  1.00  0.00     0.031 A 
ATOM     37  C   UNL A   1      43.127  30.340  28.983  1.00  0.00     0.074 A 
ATOM     38  C   UNL A   1      42.175  28.072  28.765  1.00  0.00     0.049 A 
ATOM     39  N   UNL A   1      44.345  30.150  28.545  1.00  0.00    -0.248 NA
ATOM     40  C   UNL A   1      42.863  31.711  29.448  1.00  0.00     0.031 C 
ATOM     41  C   UNL A   1      41.164  27.021  28.867  1.00  0.00     0.029 A 
ATOM     42  N   UNL A   1      43.289  27.423  28.291  1.00  0.00    -0.354 N 
ATOM     43  C   UNL A   1      44.990  31.374  28.674  1.00  0.00     0.074 A 
ATOM     44  C   UNL A   1      44.021  32.308  29.206  1.00  0.00     0.031 C 
ATOM     45  C   UNL A   1      41.698  25.861  28.449  1.00  0.00     0.029 A 
ATOM     46  C   UNL A   1      43.073  26.094  28.010  1.00  0.00     0.049 A 
ATOM     47  H   UNL A   1      44.157  27.866  28.164  1.00  0.00     0.167 HD
ATOM     48  C   UNL A   1      46.273  31.689  28.378  1.00  0.00     0.037 A 
ATOM     49  C   UNL A   1      43.880  25.180  27.431  1.00  0.00     0.037 A 
ATOM     50  C   UNL A   1      47.233  30.754  27.847  1.00  0.00     0.049 A 
ATOM     51  C   UNL A   1      45.274  25.580  27.015  1.00  0.00     0.074 A 
ATOM     52  C   UNL A   1      48.565  30.973  27.542  1.00  0.00     0.029 A 
ATOM     53  N   UNL A   1      46.962  29.432  27.529  1.00  0.00    -0.354 N 
ATOM     54  N   UNL A   1      45.881  26.732  27.168  1.00  0.00    -0.248 NA
ATOM     55  C   UNL A   1      46.089  24.559  26.340  1.00  0.00     0.031 C 
ATOM     56  C   UNL A   1      49.081  29.803  26.977  1.00  0.00     0.029 A 
ATOM     57  C   UNL A   1      48.089  28.835  26.988  1.00  0.00     0.049 A 
ATOM     58  H   UNL A   1      46.096  28.984  27.667  1.00  0.00     0.167 HD
ATOM     59  C   UNL A   1      47.153  26.569  26.625  1.00  0.00     0.074 A 
ATOM     60  C   UNL A   1      47.234  25.202  26.156  1.00  0.00     0.031 C 
ATOM     61  C   UNL A   1      48.160  27.472  26.523  1.00  0.00     0.037 A 
BRANCH  48  62
ATOM     62  C   UNL A   1      46.713  33.113  28.588  1.00  0.00     0.058 A 
ATOM     63  C   UNL A   1      47.215  33.561  29.819  1.00  0.00     0.135 A 
ATOM     64  C   UNL A   1      46.673  34.030  27.525  1.00  0.00     0.135 A 
ATOM     65  F   UNL A   1      47.263  32.731  30.873  1.00  0.00    -0.206 F 
ATOM     66  C   UNL A   1      47.642  34.874  29.996  1.00  0.00     0.059 A 
ATOM     67  C   UNL A   1      47.121  35.339  27.670  1.00  0.00     0.059 A 
ATOM     68  F   UNL A   1      46.199  33.655  26.326  1.00  0.00    -0.206 F 
ATOM     69  C   UNL A   1      47.593  35.755  28.913  1.00  0.00     0.060 A 
BRANCH  69  70
ATOM     70  S   UNL A   1      48.157  37.453  29.158  1.00  0.00     0.124 S 
ATOM     71  O   UNL A   1      47.680  38.096  27.937  1.00  0.00    -0.237 OA
ATOM     72  O   UNL A   1      47.467  37.835  30.386  1.00  0.00    -0.237 OA
ATOM     73  O   UNL A   1      49.606  37.318  29.270  1.00  0.00    -0.744 OA
ENDBRANCH  69  70
ENDBRANCH  48  62
BRANCH  49  74
ATOM     74  C   UNL A   1      43.377  23.803  27.172  1.00  0.00     0.058 A 
ATOM     75  C   UNL A   1      42.928  23.420  25.901  1.00  0.00     0.135 A 
ATOM     76  C   UNL A   1      43.330  22.844  28.197  1.00  0.00     0.135 A 
ATOM     77  F   UNL A   1      42.935  24.304  24.892  1.00  0.00    -0.206 F 
ATOM     78  C   UNL A   1      42.445  22.138  25.653  1.00  0.00     0.059 A 
ATOM     79  C   UNL A   1      42.879  21.548  27.968  1.00  0.00     0.059 A 
ATOM     80  F   UNL A   1      43.750  23.157  29.433  1.00  0.00    -0.206 F 
ATOM     81  C   UNL A   1      42.431  21.207  26.693  1.00  0.00     0.060 A 
BRANCH  81  82
ATOM     82  S   UNL A   1      41.855  19.529  26.348  1.00  0.00     0.124 S 
ATOM     83  O   UNL A   1      40.412  19.722  26.279  1.00  0.00    -0.237 OA
ATOM     84  O   UNL A   1      42.523  19.233  25.083  1.00  0.00    -0.237 OA
ATOM     85  O   UNL A   1      42.337  18.766  27.495  1.00  0.00    -0.744 OA
ENDBRANCH  81  82
ENDBRANCH  49  74
BRANCH  61  86
ATOM     86  C   UNL A   1      49.450  27.020  25.889  1.00  0.00     0.058 A 
ATOM     87  C   UNL A   1      49.710  27.227  24.526  1.00  0.00     0.135 A 
ATOM     88  C   UNL A   1      50.472  26.457  26.673  1.00  0.00     0.135 A 
ATOM     89  F   UNL A   1      48.765  27.752  23.730  1.00  0.00    -0.206 F 
ATOM     90  C   UNL A   1      50.935  26.887  23.959  1.00  0.00     0.059 A 
ATOM     91  C   UNL A   1      51.715  26.137  26.132  1.00  0.00     0.059 A 
ATOM     92  F   UNL A   1      50.280  26.245  27.984  1.00  0.00    -0.206 F 
ATOM     93  C   UNL A   1      51.935  26.353  24.773  1.00  0.00     0.060 A 
BRANCH  93  94
ATOM     94  S   UNL A   1      53.542  25.984  24.036  1.00  0.00     0.124 S 
ATOM     95  O   UNL A   1      54.350  27.100  24.514  1.00  0.00    -0.237 OA
ATOM     96  O   UNL A   1      53.857  24.680  24.613  1.00  0.00    -0.237 OA
ATOM     97  O   UNL A   1      53.266  25.979  22.602  1.00  0.00    -0.744 OA
ENDBRANCH  93  94
ENDBRANCH  61  86
ENDBRANCH  35  36
ENDBRANCH  28  30
ENDBRANCH  27  28
ENDBRANCH  26  27
ENDBRANCH   1  26
TORSDOF 20
ENDMDL
MODEL 3
REMARK VINA RESULT:     -10.8      0.880      8.174
REMARK SMILES CC1(C)CSC[C@H]([NH2+][C@H](C(=O)OCCOCCOC(=O)c2ccc(-c3c4nc(c(-c5c(F)cc(S(=O)(=O)[O-])cc5F)c5ccc([nH]5)c(-c5c(F)cc(S(=O)(=O)[O-])cc5F)c5nc(c(-c6c(F)cc(S(=O)(=O)[O-])cc6F)c6ccc3[nH]6)C=C5)C=C4)cc2)c2ccccc2)C1
REMARK SMILES IDX 16 1 15 2 14 3 13 4 12 5 10 6 11 7 9 8 8 9 7 12 1 13 2 14
REMARK SMILES IDX 3 15 4 16 93 17 5 18 6 19 87 20 88 21 92 22 89 23 91 24
REMARK SMILES IDX 90 25 17 26 18 27 19 28 20 29 21 30 22 31 86 32 23 33 85 34
REMARK SMILES IDX 24 35 25 36 26 37 79 38 27 39 84 40 78 41 80 42 28 43 83 44
REMARK SMILES IDX 77 45 76 46 29 48 63 49 42 50 62 51 43 52 46 53 61 54 81 55
REMARK SMILES IDX 44 56 45 57 60 59 82 60 47 61 30 62 31 63 40 64 32 65 33 66
REMARK SMILES IDX 39 67 41 68 34 69 35 70 36 71 37 72 38 73 64 74 65 75 74 76
REMARK SMILES IDX 66 77 67 78 73 79 75 80 68 81 69 82 70 83 71 84 72 85 48 86
REMARK SMILES IDX 49 87 58 88 50 89 51 90 57 91 59 92 52 93 53 94 54 95 55 96
REMARK SMILES IDX 56 97
REMARK H PARENT 8 10 8 11 80 47 46 58
REMARK Flexibility Score: inf
ROOT
ATOM      1  C   UNL A   1      39.572  21.165  26.124  1.00  0.00     0.202 C 
ENDROOT
BRANCH   1   2
ATOM      2  O   UNL A   1      38.249  21.460  25.668  1.00  0.00    -0.374 OA
BRANCH   2   3
ATOM      3  C   UNL A   1      37.620  20.547  24.777  1.00  0.00     0.202 C 
BRANCH   3   4
ATOM      4  C   UNL A   1      36.172  20.119  25.036  1.00  0.00     0.261 C 
BRANCH   4   5
ATOM      5  O   UNL A   1      35.257  21.226  25.010  1.00  0.00    -0.459 OA
BRANCH   5   6
ATOM      6  C   UNL A   1      34.264  21.121  25.928  1.00  0.00     0.369 C 
ATOM      7  O   UNL A   1      34.474  21.458  27.091  1.00  0.00    -0.245 OA
BRANCH   6   8
ATOM      8  C   UNL A   1      32.919  20.478  25.421  1.00  0.00     0.325 C 
BRANCH   8   9
ATOM      9  N   UNL A   1      32.282  21.241  24.271  1.00  0.00    -0.328 N 
ATOM     10  H   UNL A   1      32.724  20.914  23.411  1.00  0.00     0.347 HD
ATOM     11  H   UNL A   1      31.285  21.048  24.361  1.00  0.00     0.347 HD
BRANCH   9  12
ATOM     12  C   UNL A   1      32.371  22.707  24.277  1.00  0.00     0.193 C 
ATOM     13  C   UNL A   1      32.581  25.248  25.938  1.00  0.00     0.012 C 
ATOM     14  C   UNL A   1      31.348  24.918  25.057  1.00  0.00    -0.021 C 
ATOM     15  C   UNL A   1      30.115  25.499  25.771  1.00  0.00     0.012 C 
ATOM     16  C   UNL A   1      31.469  25.584  23.670  1.00  0.00     0.076 C 
ATOM     17  C   UNL A   1      31.142  23.382  24.899  1.00  0.00     0.073 C 
ATOM     18  S   UNL A   1      32.835  24.975  22.636  1.00  0.00    -0.155 SA
ATOM     19  C   UNL A   1      32.594  23.181  22.830  1.00  0.00     0.134 C 
ENDBRANCH   9  12
ENDBRANCH   8   9
BRANCH   8  20
ATOM     20  C   UNL A   1      32.885  18.978  25.011  1.00  0.00     0.021 A 
ATOM     21  C   UNL A   1      32.749  17.893  25.889  1.00  0.00     0.010 A 
ATOM     22  C   UNL A   1      33.091  18.646  23.652  1.00  0.00     0.010 A 
ATOM     23  C   UNL A   1      32.921  16.567  25.470  1.00  0.00     0.001 A 
ATOM     24  C   UNL A   1      33.261  17.322  23.226  1.00  0.00     0.001 A 
ATOM     25  C   UNL A   1      33.201  16.281  24.142  1.00  0.00     0.000 A 
ENDBRANCH   8  20
ENDBRANCH   6   8
ENDBRANCH   5   6
ENDBRANCH   4   5
ENDBRANCH   3   4
ENDBRANCH   2   3
ENDBRANCH   1   2
BRANCH   1  26
ATOM     26  C   UNL A   1      40.278  22.177  27.047  1.00  0.00     0.261 C 
BRANCH  26  27
ATOM     27  O   UNL A   1      40.079  23.547  26.640  1.00  0.00    -0.460 OA
BRANCH  27  28
ATOM     28  C   UNL A   1      41.182  24.338  26.685  1.00  0.00     0.338 C 
ATOM     29  O   UNL A   1      42.148  24.290  25.940  1.00  0.00    -0.246 OA
BRANCH  28  30
ATOM     30  C   UNL A   1      40.935  25.470  27.607  1.00  0.00     0.060 A 
ATOM     31  C   UNL A   1      41.874  26.513  27.617  1.00  0.00     0.016 A 
ATOM     32  C   UNL A   1      39.815  25.526  28.437  1.00  0.00     0.016 A 
ATOM     33  C   UNL A   1      41.713  27.600  28.474  1.00  0.00     0.010 A 
ATOM     34  C   UNL A   1      39.667  26.608  29.315  1.00  0.00     0.010 A 
ATOM     35  C   UNL A   1      40.627  27.638  29.356  1.00  0.00    -0.014 A 
BRANCH  35  36
ATOM     36  C   UNL A   1      40.566  28.684  30.409  1.00  0.00     0.031 A 
ATOM     37  C   UNL A   1      41.508  28.593  31.579  1.00  0.00     0.074 A 
ATOM     38  C   UNL A   1      39.705  29.714  30.316  1.00  0.00     0.049 A 
ATOM     39  N   UNL A   1      41.586  29.351  32.642  1.00  0.00    -0.248 NA
ATOM     40  C   UNL A   1      42.494  27.501  31.544  1.00  0.00     0.031 C 
ATOM     41  C   UNL A   1      38.783  29.947  29.206  1.00  0.00     0.029 A 
ATOM     42  N   UNL A   1      39.460  30.753  31.181  1.00  0.00    -0.354 N 
ATOM     43  C   UNL A   1      42.621  28.825  33.407  1.00  0.00     0.074 A 
ATOM     44  C   UNL A   1      43.125  27.668  32.698  1.00  0.00     0.031 C 
ATOM     45  C   UNL A   1      38.059  31.049  29.466  1.00  0.00     0.029 A 
ATOM     46  C   UNL A   1      38.434  31.575  30.778  1.00  0.00     0.049 A 
ATOM     47  H   UNL A   1      39.970  30.895  32.010  1.00  0.00     0.167 HD
ATOM     48  C   UNL A   1      43.107  29.269  34.590  1.00  0.00     0.037 A 
ATOM     49  C   UNL A   1      37.841  32.609  31.411  1.00  0.00     0.037 A 
ATOM     50  C   UNL A   1      42.600  30.422  35.290  1.00  0.00     0.049 A 
ATOM     51  C   UNL A   1      38.332  33.023  32.775  1.00  0.00     0.074 A 
ATOM     52  C   UNL A   1      43.046  30.966  36.481  1.00  0.00     0.029 A 
ATOM     53  N   UNL A   1      41.527  31.196  34.874  1.00  0.00    -0.354 N 
ATOM     54  N   UNL A   1      39.330  32.537  33.475  1.00  0.00    -0.248 NA
ATOM     55  C   UNL A   1      37.613  34.120  33.440  1.00  0.00     0.031 C 
ATOM     56  C   UNL A   1      42.203  32.028  36.820  1.00  0.00     0.029 A 
ATOM     57  C   UNL A   1      41.269  32.186  35.809  1.00  0.00     0.049 A 
ATOM     58  H   UNL A   1      41.024  31.062  34.039  1.00  0.00     0.167 HD
ATOM     59  C   UNL A   1      39.368  33.279  34.652  1.00  0.00     0.074 A 
ATOM     60  C   UNL A   1      38.306  34.258  34.563  1.00  0.00     0.031 C 
ATOM     61  C   UNL A   1      40.207  33.158  35.711  1.00  0.00     0.037 A 
BRANCH  48  62
ATOM     62  C   UNL A   1      44.227  28.490  35.224  1.00  0.00     0.058 A 
ATOM     63  C   UNL A   1      43.987  27.471  36.159  1.00  0.00     0.135 A 
ATOM     64  C   UNL A   1      45.560  28.738  34.854  1.00  0.00     0.135 A 
ATOM     65  F   UNL A   1      42.735  27.202  36.560  1.00  0.00    -0.206 F 
ATOM     66  C   UNL A   1      45.030  26.741  36.721  1.00  0.00     0.059 A 
ATOM     67  C   UNL A   1      46.615  28.001  35.381  1.00  0.00     0.059 A 
ATOM     68  F   UNL A   1      45.846  29.703  33.966  1.00  0.00    -0.206 F 
ATOM     69  C   UNL A   1      46.341  27.012  36.324  1.00  0.00     0.060 A 
BRANCH  69  70
ATOM     70  S   UNL A   1      47.680  26.049  37.058  1.00  0.00     0.124 S 
ATOM     71  O   UNL A   1      47.861  24.996  36.063  1.00  0.00    -0.237 OA
ATOM     72  O   UNL A   1      48.757  27.031  37.144  1.00  0.00    -0.237 OA
ATOM     73  O   UNL A   1      47.127  25.615  38.337  1.00  0.00    -0.744 OA
ENDBRANCH  69  70
ENDBRANCH  48  62
BRANCH  49  74
ATOM     74  C   UNL A   1      36.685  33.302  30.778  1.00  0.00     0.058 A 
ATOM     75  C   UNL A   1      35.366  32.995  31.139  1.00  0.00     0.135 A 
ATOM     76  C   UNL A   1      36.880  34.283  29.792  1.00  0.00     0.135 A 
ATOM     77  F   UNL A   1      35.125  32.052  32.062  1.00  0.00    -0.206 F 
ATOM     78  C   UNL A   1      34.279  33.630  30.545  1.00  0.00     0.059 A 
ATOM     79  C   UNL A   1      35.812  34.954  29.204  1.00  0.00     0.059 A 
ATOM     80  F   UNL A   1      38.122  34.618  29.411  1.00  0.00    -0.206 F 
ATOM     81  C   UNL A   1      34.514  34.614  29.582  1.00  0.00     0.060 A 
BRANCH  81  82
ATOM     82  S   UNL A   1      33.100  35.472  28.856  1.00  0.00     0.124 S 
ATOM     83  O   UNL A   1      32.405  34.380  28.185  1.00  0.00    -0.237 OA
ATOM     84  O   UNL A   1      32.439  36.021  30.037  1.00  0.00    -0.237 OA
ATOM     85  O   UNL A   1      33.720  36.461  27.979  1.00  0.00    -0.744 OA
ENDBRANCH  81  82
ENDBRANCH  49  74
BRANCH  61  86
ATOM     86  C   UNL A   1      40.028  34.109  36.865  1.00  0.00     0.058 A 
ATOM     87  C   UNL A   1      40.548  35.412  36.831  1.00  0.00     0.135 A 
ATOM     88  C   UNL A   1      39.250  33.744  37.977  1.00  0.00     0.135 A 
ATOM     89  F   UNL A   1      41.306  35.809  35.797  1.00  0.00    -0.206 F 
ATOM     90  C   UNL A   1      40.308  36.318  37.859  1.00  0.00     0.059 A 
ATOM     91  C   UNL A   1      38.974  34.644  39.003  1.00  0.00     0.059 A 
ATOM     92  F   UNL A   1      38.721  32.513  38.058  1.00  0.00    -0.206 F 
ATOM     93  C   UNL A   1      39.511  35.928  38.937  1.00  0.00     0.060 A 
BRANCH  93  94
ATOM     94  S   UNL A   1      39.152  37.139  40.228  1.00  0.00     0.124 S 
ATOM     95  O   UNL A   1      38.311  36.364  41.135  1.00  0.00    -0.237 OA
ATOM     96  O   UNL A   1      40.485  37.467  40.725  1.00  0.00    -0.237 OA
ATOM     97  O   UNL A   1      38.475  38.214  39.509  1.00  0.00    -0.744 OA
ENDBRANCH  93  94
ENDBRANCH  61  86
ENDBRANCH  35  36
ENDBRANCH  28  30
ENDBRANCH  27  28
ENDBRANCH  26  27
ENDBRANCH   1  26
TORSDOF 20
ENDMDL
