MODEL 1
REMARK VINA RESULT:     -10.6      0.000      0.000
REMARK SMILES O=C(OCCOCCOC(=O)[C@@H]1CS[C@H](c2ncc(-c3ccccc3)s2)[NH2+]1)c1ccc(-c2c3nc(c(-c4c(F)cc(S(=O)(=O)[O-])cc4F)c4ccc([nH]4)c(-c4c(F)cc(S(=O)(=O)[O-])cc4F)c4nc(c(-c5c(F)cc(S(=O)(=O)[O-])cc5F)c5ccc2[nH]5)C=C4)C=C3)cc1
REMARK SMILES IDX 5 1 4 2 3 3 2 4 1 5 28 6 29 7 93 8 30 9 92 10 31 11 32 12
REMARK SMILES IDX 33 13 86 14 34 15 91 16 85 17 87 18 35 19 90 20 84 21 83 22
REMARK SMILES IDX 36 24 70 25 49 26 69 27 50 28 53 29 68 30 88 31 51 32 52 33
REMARK SMILES IDX 67 35 89 36 54 37 37 38 38 39 47 40 39 41 40 42 46 43 48 44
REMARK SMILES IDX 41 45 42 46 43 47 44 48 45 49 71 50 72 51 81 52 73 53 74 54
REMARK SMILES IDX 80 55 82 56 75 57 76 58 77 59 78 60 79 61 55 62 56 63 65 64
REMARK SMILES IDX 57 65 58 66 64 67 66 68 59 69 60 70 61 71 62 72 63 73 6 74
REMARK SMILES IDX 7 75 8 76 9 77 10 78 11 79 12 80 13 81 27 82 14 83 15 84
REMARK SMILES IDX 16 87 17 88 26 89 18 90 19 91 20 92 21 93 25 94 22 95 24 96
REMARK SMILES IDX 23 97
REMARK H PARENT 87 23 53 34 27 85 27 86
REMARK Flexibility Score: inf
ROOT
ATOM      1  C   UNL A   1      38.951  21.897  26.018  1.00  0.00     0.202 C 
ENDROOT
BRANCH   1   2
ATOM      2  C   UNL A   1      39.665  22.936  26.880  1.00  0.00     0.261 C 
BRANCH   2   3
ATOM      3  O   UNL A   1      39.343  24.265  26.433  1.00  0.00    -0.460 OA
BRANCH   3   4
ATOM      4  C   UNL A   1      40.156  25.349  26.438  1.00  0.00     0.338 C 
ATOM      5  O   UNL A   1      40.782  25.642  25.424  1.00  0.00    -0.246 OA
BRANCH   4   6
ATOM      6  C   UNL A   1      40.288  26.224  27.633  1.00  0.00     0.060 A 
ATOM      7  C   UNL A   1      39.451  26.129  28.738  1.00  0.00     0.016 A 
ATOM      8  C   UNL A   1      41.352  27.134  27.683  1.00  0.00     0.016 A 
ATOM      9  C   UNL A   1      39.577  26.975  29.817  1.00  0.00     0.010 A 
ATOM     10  C   UNL A   1      41.526  27.959  28.804  1.00  0.00     0.010 A 
ATOM     11  C   UNL A   1      40.615  27.896  29.866  1.00  0.00    -0.014 A 
BRANCH  11  12
ATOM     12  C   UNL A   1      40.599  28.843  30.996  1.00  0.00     0.031 A 
ATOM     13  C   UNL A   1      39.536  29.897  31.023  1.00  0.00     0.074 A 
ATOM     14  C   UNL A   1      41.363  28.597  32.079  1.00  0.00     0.049 A 
ATOM     15  N   UNL A   1      39.332  30.838  31.902  1.00  0.00    -0.248 NA
ATOM     16  C   UNL A   1      38.542  29.864  29.935  1.00  0.00     0.031 C 
ATOM     17  C   UNL A   1      42.282  27.461  32.220  1.00  0.00     0.029 A 
ATOM     18  N   UNL A   1      41.440  29.233  33.289  1.00  0.00    -0.354 N 
ATOM     19  C   UNL A   1      38.230  31.546  31.443  1.00  0.00     0.074 A 
ATOM     20  C   UNL A   1      37.781  30.908  30.229  1.00  0.00     0.031 C 
ATOM     21  C   UNL A   1      42.776  27.446  33.466  1.00  0.00     0.029 A 
ATOM     22  C   UNL A   1      42.309  28.632  34.170  1.00  0.00     0.049 A 
ATOM     23  H   UNL A   1      40.922  30.040  33.508  1.00  0.00     0.167 HD
ATOM     24  C   UNL A   1      37.668  32.649  31.987  1.00  0.00     0.037 A 
ATOM     25  C   UNL A   1      42.722  29.033  35.388  1.00  0.00     0.037 A 
ATOM     26  C   UNL A   1      38.135  33.243  33.210  1.00  0.00     0.049 A 
ATOM     27  C   UNL A   1      42.169  30.328  35.915  1.00  0.00     0.074 A 
ATOM     28  C   UNL A   1      37.722  34.414  33.814  1.00  0.00     0.029 A 
ATOM     29  N   UNL A   1      39.122  32.695  34.020  1.00  0.00    -0.354 N 
ATOM     30  N   UNL A   1      41.224  31.085  35.406  1.00  0.00    -0.248 NA
ATOM     31  C   UNL A   1      42.756  30.847  37.155  1.00  0.00     0.031 C 
ATOM     32  C   UNL A   1      38.496  34.601  34.966  1.00  0.00     0.029 A 
ATOM     33  C   UNL A   1      39.346  33.514  35.111  1.00  0.00     0.049 A 
ATOM     34  H   UNL A   1      39.591  31.848  33.844  1.00  0.00     0.167 HD
ATOM     35  C   UNL A   1      41.100  32.169  36.265  1.00  0.00     0.074 A 
ATOM     36  C   UNL A   1      42.047  31.953  37.342  1.00  0.00     0.031 C 
ATOM     37  C   UNL A   1      40.291  33.253  36.169  1.00  0.00     0.037 A 
BRANCH  24  38
ATOM     38  C   UNL A   1      36.582  33.329  31.206  1.00  0.00     0.058 A 
ATOM     39  C   UNL A   1      36.832  34.049  30.029  1.00  0.00     0.135 A 
ATOM     40  C   UNL A   1      35.256  33.264  31.665  1.00  0.00     0.135 A 
ATOM     41  F   UNL A   1      38.086  34.178  29.567  1.00  0.00    -0.206 F 
ATOM     42  C   UNL A   1      35.805  34.690  29.340  1.00  0.00     0.059 A 
ATOM     43  C   UNL A   1      34.212  33.876  30.982  1.00  0.00     0.059 A 
ATOM     44  F   UNL A   1      34.966  32.606  32.800  1.00  0.00    -0.206 F 
ATOM     45  C   UNL A   1      34.498  34.596  29.824  1.00  0.00     0.060 A 
BRANCH  45  46
ATOM     46  S   UNL A   1      33.176  35.430  28.920  1.00  0.00     0.124 S 
ATOM     47  O   UNL A   1      33.929  36.403  28.134  1.00  0.00    -0.237 OA
ATOM     48  O   UNL A   1      32.577  34.333  28.166  1.00  0.00    -0.237 OA
ATOM     49  O   UNL A   1      32.341  35.990  29.978  1.00  0.00    -0.744 OA
ENDBRANCH  45  46
ENDBRANCH  24  38
BRANCH  25  50
ATOM     50  C   UNL A   1      43.772  28.272  36.124  1.00  0.00     0.058 A 
ATOM     51  C   UNL A   1      43.452  27.201  36.971  1.00  0.00     0.135 A 
ATOM     52  C   UNL A   1      45.131  28.618  36.008  1.00  0.00     0.135 A 
ATOM     53  F   UNL A   1      42.171  26.833  37.133  1.00  0.00    -0.206 F 
ATOM     54  C   UNL A   1      44.432  26.514  37.686  1.00  0.00     0.059 A 
ATOM     55  C   UNL A   1      46.130  27.925  36.682  1.00  0.00     0.059 A 
ATOM     56  F   UNL A   1      45.502  29.636  35.215  1.00  0.00    -0.206 F 
ATOM     57  C   UNL A   1      45.770  26.885  37.535  1.00  0.00     0.060 A 
BRANCH  57  58
ATOM     58  S   UNL A   1      47.039  25.987  38.452  1.00  0.00     0.124 S 
ATOM     59  O   UNL A   1      46.426  24.670  38.584  1.00  0.00    -0.237 OA
ATOM     60  O   UNL A   1      48.187  26.071  37.554  1.00  0.00    -0.237 OA
ATOM     61  O   UNL A   1      47.163  26.752  39.690  1.00  0.00    -0.744 OA
ENDBRANCH  57  58
ENDBRANCH  25  50
BRANCH  37  62
ATOM     62  C   UNL A   1      40.371  34.263  37.276  1.00  0.00     0.058 A 
ATOM     63  C   UNL A   1      41.303  35.312  37.250  1.00  0.00     0.135 A 
ATOM     64  C   UNL A   1      39.457  34.215  38.341  1.00  0.00     0.135 A 
ATOM     65  F   UNL A   1      42.200  35.395  36.255  1.00  0.00    -0.206 F 
ATOM     66  C   UNL A   1      41.339  36.270  38.255  1.00  0.00     0.059 A 
ATOM     67  C   UNL A   1      39.456  35.181  39.339  1.00  0.00     0.059 A 
ATOM     68  F   UNL A   1      38.540  33.237  38.402  1.00  0.00    -0.206 F 
ATOM     69  C   UNL A   1      40.408  36.198  39.293  1.00  0.00     0.060 A 
BRANCH  69  70
ATOM     70  S   UNL A   1      40.436  37.475  40.567  1.00  0.00     0.124 S 
ATOM     71  O   UNL A   1      41.363  36.900  41.536  1.00  0.00    -0.237 OA
ATOM     72  O   UNL A   1      40.925  38.637  39.833  1.00  0.00    -0.237 OA
ATOM     73  O   UNL A   1      39.044  37.553  41.000  1.00  0.00    -0.744 OA
ENDBRANCH  69  70
ENDBRANCH  37  62
ENDBRANCH  11  12
ENDBRANCH   4   6
ENDBRANCH   3   4
ENDBRANCH   2   3
ENDBRANCH   1   2
BRANCH   1  74
ATOM     74  O   UNL A   1      39.643  20.668  25.812  1.00  0.00    -0.374 OA
BRANCH  74  75
ATOM     75  C   UNL A   1      40.748  20.421  26.685  1.00  0.00     0.202 C 
BRANCH  75  76
ATOM     76  C   UNL A   1      41.756  19.515  25.987  1.00  0.00     0.261 C 
BRANCH  76  77
ATOM     77  O   UNL A   1      43.051  20.154  26.002  1.00  0.00    -0.459 OA
BRANCH  77  78
ATOM     78  C   UNL A   1      43.982  19.554  25.199  1.00  0.00     0.365 C 
ATOM     79  O   UNL A   1      44.208  18.348  25.189  1.00  0.00    -0.245 OA
BRANCH  78  80
ATOM     80  C   UNL A   1      44.760  20.603  24.392  1.00  0.00     0.304 C 
ATOM     81  C   UNL A   1      46.113  20.942  25.009  1.00  0.00     0.153 C 
ATOM     82  N   UNL A   1      43.932  21.840  24.205  1.00  0.00    -0.317 N 
ATOM     83  S   UNL A   1      46.376  22.660  24.565  1.00  0.00    -0.085 SA
ATOM     84  C   UNL A   1      44.606  23.006  24.801  1.00  0.00     0.303 C 
ATOM     85  H   UNL A   1      43.027  21.709  24.655  1.00  0.00     0.348 HD
ATOM     86  H   UNL A   1      43.807  22.005  23.206  1.00  0.00     0.348 HD
BRANCH  84  87
ATOM     87  C   UNL A   1      44.276  23.337  26.261  1.00  0.00     0.162 A 
ATOM     88  N   UNL A   1      43.044  23.321  26.745  1.00  0.00    -0.242 NA
ATOM     89  S   UNL A   1      45.490  23.682  27.447  1.00  0.00    -0.112 S 
ATOM     90  C   UNL A   1      43.051  23.635  28.092  1.00  0.00     0.132 A 
ATOM     91  C   UNL A   1      44.287  23.896  28.644  1.00  0.00     0.055 A 
BRANCH  91  92
ATOM     92  C   UNL A   1      44.614  24.315  30.004  1.00  0.00    -0.007 A 
ATOM     93  C   UNL A   1      44.154  23.561  31.093  1.00  0.00     0.009 A 
ATOM     94  C   UNL A   1      45.441  25.420  30.248  1.00  0.00     0.009 A 
ATOM     95  C   UNL A   1      44.512  23.909  32.399  1.00  0.00     0.001 A 
ATOM     96  C   UNL A   1      45.788  25.770  31.558  1.00  0.00     0.001 A 
ATOM     97  C   UNL A   1      45.320  25.018  32.632  1.00  0.00     0.000 A 
ENDBRANCH  91  92
ENDBRANCH  84  87
ENDBRANCH  78  80
ENDBRANCH  77  78
ENDBRANCH  76  77
ENDBRANCH  75  76
ENDBRANCH  74  75
ENDBRANCH   1  74
TORSDOF 19
ENDMDL
MODEL 2
REMARK VINA RESULT:     -10.5      1.142      8.344
REMARK SMILES O=C(OCCOCCOC(=O)[C@@H]1CS[C@H](c2ncc(-c3ccccc3)s2)[NH2+]1)c1ccc(-c2c3nc(c(-c4c(F)cc(S(=O)(=O)[O-])cc4F)c4ccc([nH]4)c(-c4c(F)cc(S(=O)(=O)[O-])cc4F)c4nc(c(-c5c(F)cc(S(=O)(=O)[O-])cc5F)c5ccc2[nH]5)C=C4)C=C3)cc1
REMARK SMILES IDX 5 1 4 2 3 3 2 4 1 5 28 6 29 7 93 8 30 9 92 10 31 11 32 12
REMARK SMILES IDX 33 13 86 14 34 15 91 16 85 17 87 18 35 19 90 20 84 21 83 22
REMARK SMILES IDX 36 24 70 25 49 26 69 27 50 28 53 29 68 30 88 31 51 32 52 33
REMARK SMILES IDX 67 35 89 36 54 37 37 38 38 39 47 40 39 41 40 42 46 43 48 44
REMARK SMILES IDX 41 45 42 46 43 47 44 48 45 49 71 50 72 51 81 52 73 53 74 54
REMARK SMILES IDX 80 55 82 56 75 57 76 58 77 59 78 60 79 61 55 62 56 63 65 64
REMARK SMILES IDX 57 65 58 66 64 67 66 68 59 69 60 70 61 71 62 72 63 73 6 74
REMARK SMILES IDX 7 75 8 76 9 77 10 78 11 79 12 80 13 81 27 82 14 83 15 84
REMARK SMILES IDX 16 87 17 88 26 89 18 90 19 91 20 92 21 93 25 94 22 95 24 96
REMARK SMILES IDX 23 97
REMARK H PARENT 87 23 53 34 27 85 27 86
REMARK Flexibility Score: inf
ROOT
ATOM      1  C   UNL A   1      39.476  21.878  26.155  1.00  0.00     0.202 C 
ENDROOT
BRANCH   1   2
ATOM      2  C   UNL A   1      39.581  23.148  26.997  1.00  0.00     0.261 C 
BRANCH   2   3
ATOM      3  O   UNL A   1      39.536  24.313  26.153  1.00  0.00    -0.460 OA
BRANCH   3   4
ATOM      4  C   UNL A   1      40.328  25.410  26.233  1.00  0.00     0.338 C 
ATOM      5  O   UNL A   1      41.033  25.719  25.277  1.00  0.00    -0.246 OA
BRANCH   4   6
ATOM      6  C   UNL A   1      40.343  26.280  27.439  1.00  0.00     0.060 A 
ATOM      7  C   UNL A   1      39.594  26.010  28.578  1.00  0.00     0.016 A 
ATOM      8  C   UNL A   1      41.211  27.380  27.461  1.00  0.00     0.016 A 
ATOM      9  C   UNL A   1      39.603  26.851  29.667  1.00  0.00     0.010 A 
ATOM     10  C   UNL A   1      41.274  28.209  28.590  1.00  0.00     0.010 A 
ATOM     11  C   UNL A   1      40.444  27.956  29.690  1.00  0.00    -0.014 A 
BRANCH  11  12
ATOM     12  C   UNL A   1      40.298  28.870  30.838  1.00  0.00     0.031 A 
ATOM     13  C   UNL A   1      41.340  28.831  31.913  1.00  0.00     0.074 A 
ATOM     14  C   UNL A   1      39.394  29.868  30.781  1.00  0.00     0.049 A 
ATOM     15  N   UNL A   1      41.415  29.527  33.012  1.00  0.00    -0.248 NA
ATOM     16  C   UNL A   1      42.474  27.913  31.703  1.00  0.00     0.031 C 
ATOM     17  C   UNL A   1      38.472  30.106  29.663  1.00  0.00     0.029 A 
ATOM     18  N   UNL A   1      39.147  30.909  31.636  1.00  0.00    -0.354 N 
ATOM     19  C   UNL A   1      42.565  29.089  33.655  1.00  0.00     0.074 A 
ATOM     20  C   UNL A   1      43.180  28.094  32.808  1.00  0.00     0.031 C 
ATOM     21  C   UNL A   1      37.811  31.254  29.874  1.00  0.00     0.029 A 
ATOM     22  C   UNL A   1      38.169  31.767  31.189  1.00  0.00     0.049 A 
ATOM     23  H   UNL A   1      39.625  31.032  32.488  1.00  0.00     0.167 HD
ATOM     24  C   UNL A   1      43.039  29.475  34.860  1.00  0.00     0.037 A 
ATOM     25  C   UNL A   1      37.591  32.816  31.804  1.00  0.00     0.037 A 
ATOM     26  C   UNL A   1      42.405  30.485  35.664  1.00  0.00     0.049 A 
ATOM     27  C   UNL A   1      38.058  33.147  33.194  1.00  0.00     0.074 A 
ATOM     28  C   UNL A   1      42.723  30.897  36.943  1.00  0.00     0.029 A 
ATOM     29  N   UNL A   1      41.320  31.248  35.250  1.00  0.00    -0.354 N 
ATOM     30  N   UNL A   1      39.059  32.630  33.870  1.00  0.00    -0.248 NA
ATOM     31  C   UNL A   1      37.303  34.172  33.924  1.00  0.00     0.031 C 
ATOM     32  C   UNL A   1      41.798  31.876  37.323  1.00  0.00     0.029 A 
ATOM     33  C   UNL A   1      40.943  32.116  36.257  1.00  0.00     0.049 A 
ATOM     34  H   UNL A   1      40.885  31.180  34.370  1.00  0.00     0.167 HD
ATOM     35  C   UNL A   1      39.056  33.269  35.103  1.00  0.00     0.074 A 
ATOM     36  C   UNL A   1      37.972  34.231  35.068  1.00  0.00     0.031 C 
ATOM     37  C   UNL A   1      39.864  33.070  36.175  1.00  0.00     0.037 A 
BRANCH  24  38
ATOM     38  C   UNL A   1      44.218  28.728  35.412  1.00  0.00     0.058 A 
ATOM     39  C   UNL A   1      45.542  29.135  35.195  1.00  0.00     0.135 A 
ATOM     40  C   UNL A   1      44.006  27.565  36.171  1.00  0.00     0.135 A 
ATOM     41  F   UNL A   1      45.805  30.215  34.443  1.00  0.00    -0.206 F 
ATOM     42  C   UNL A   1      46.616  28.406  35.701  1.00  0.00     0.059 A 
ATOM     43  C   UNL A   1      45.061  26.836  36.705  1.00  0.00     0.059 A 
ATOM     44  F   UNL A   1      42.757  27.121  36.389  1.00  0.00    -0.206 F 
ATOM     45  C   UNL A   1      46.364  27.259  36.456  1.00  0.00     0.060 A 
BRANCH  45  46
ATOM     46  S   UNL A   1      47.765  26.326  37.109  1.00  0.00     0.124 S 
ATOM     47  O   UNL A   1      47.245  24.962  37.083  1.00  0.00    -0.237 OA
ATOM     48  O   UNL A   1      48.815  26.623  36.139  1.00  0.00    -0.237 OA
ATOM     49  O   UNL A   1      47.964  26.895  38.438  1.00  0.00    -0.744 OA
ENDBRANCH  45  46
ENDBRANCH  24  38
BRANCH  25  50
ATOM     50  C   UNL A   1      36.455  33.541  31.165  1.00  0.00     0.058 A 
ATOM     51  C   UNL A   1      35.141  33.425  31.643  1.00  0.00     0.135 A 
ATOM     52  C   UNL A   1      36.662  34.359  30.039  1.00  0.00     0.135 A 
ATOM     53  F   UNL A   1      34.880  32.648  32.706  1.00  0.00    -0.206 F 
ATOM     54  C   UNL A   1      34.076  34.075  31.022  1.00  0.00     0.059 A 
ATOM     55  C   UNL A   1      35.622  35.047  29.425  1.00  0.00     0.059 A 
ATOM     56  F   UNL A   1      37.896  34.509  29.533  1.00  0.00    -0.206 F 
ATOM     57  C   UNL A   1      34.328  34.885  29.912  1.00  0.00     0.060 A 
BRANCH  57  58
ATOM     58  S   UNL A   1      32.949  35.737  29.117  1.00  0.00     0.124 S 
ATOM     59  O   UNL A   1      32.388  34.674  28.289  1.00  0.00    -0.237 OA
ATOM     60  O   UNL A   1      32.141  36.150  30.259  1.00  0.00    -0.237 OA
ATOM     61  O   UNL A   1      33.600  36.824  28.391  1.00  0.00    -0.744 OA
ENDBRANCH  57  58
ENDBRANCH  25  50
BRANCH  37  62
ATOM     62  C   UNL A   1      39.625  33.936  37.377  1.00  0.00     0.058 A 
ATOM     63  C   UNL A   1      38.755  33.545  38.405  1.00  0.00     0.135 A 
ATOM     64  C   UNL A   1      40.331  35.141  37.528  1.00  0.00     0.135 A 
ATOM     65  F   UNL A   1      38.055  32.405  38.302  1.00  0.00    -0.206 F 
ATOM     66  C   UNL A   1      38.576  34.330  39.537  1.00  0.00     0.059 A 
ATOM     67  C   UNL A   1      40.191  35.925  38.665  1.00  0.00     0.059 A 
ATOM     68  F   UNL A   1      41.184  35.550  36.575  1.00  0.00    -0.206 F 
ATOM     69  C   UNL A   1      39.302  35.517  39.659  1.00  0.00     0.060 A 
BRANCH  69  70
ATOM     70  S   UNL A   1      39.096  36.505  41.155  1.00  0.00     0.124 S 
ATOM     71  O   UNL A   1      38.029  35.781  41.838  1.00  0.00    -0.237 OA
ATOM     72  O   UNL A   1      40.416  36.419  41.769  1.00  0.00    -0.237 OA
ATOM     73  O   UNL A   1      38.732  37.823  40.643  1.00  0.00    -0.744 OA
ENDBRANCH  69  70
ENDBRANCH  37  62
ENDBRANCH  11  12
ENDBRANCH   4   6
ENDBRANCH   3   4
ENDBRANCH   2   3
ENDBRANCH   1   2
BRANCH   1  74
ATOM     74  O   UNL A   1      40.582  20.981  26.229  1.00  0.00    -0.374 OA
BRANCH  74  75
ATOM     75  C   UNL A   1      41.006  20.623  27.546  1.00  0.00     0.202 C 
BRANCH  75  76
ATOM     76  C   UNL A   1      42.033  19.499  27.463  1.00  0.00     0.261 C 
BRANCH  76  77
ATOM     77  O   UNL A   1      42.818  19.669  26.263  1.00  0.00    -0.459 OA
BRANCH  77  78
ATOM     78  C   UNL A   1      43.139  18.498  25.633  1.00  0.00     0.365 C 
ATOM     79  O   UNL A   1      42.512  17.451  25.762  1.00  0.00    -0.245 OA
BRANCH  78  80
ATOM     80  C   UNL A   1      44.436  18.654  24.824  1.00  0.00     0.304 C 
ATOM     81  C   UNL A   1      45.628  19.053  25.688  1.00  0.00     0.153 C 
ATOM     82  N   UNL A   1      44.238  19.629  23.701  1.00  0.00    -0.317 N 
ATOM     83  S   UNL A   1      46.650  20.038  24.590  1.00  0.00    -0.085 SA
ATOM     84  C   UNL A   1      45.163  20.768  23.838  1.00  0.00     0.303 C 
ATOM     85  H   UNL A   1      43.278  19.973  23.720  1.00  0.00     0.348 HD
ATOM     86  H   UNL A   1      44.424  19.157  22.816  1.00  0.00     0.348 HD
BRANCH  84  87
ATOM     87  C   UNL A   1      44.664  21.988  24.621  1.00  0.00     0.162 A 
ATOM     88  N   UNL A   1      43.458  22.508  24.457  1.00  0.00    -0.242 NA
ATOM     89  S   UNL A   1      45.596  22.758  25.861  1.00  0.00    -0.112 S 
ATOM     90  C   UNL A   1      43.276  23.581  25.309  1.00  0.00     0.132 A 
ATOM     91  C   UNL A   1      44.341  23.890  26.127  1.00  0.00     0.055 A 
BRANCH  91  92
ATOM     92  C   UNL A   1      44.481  24.991  27.076  1.00  0.00    -0.007 A 
ATOM     93  C   UNL A   1      44.880  26.255  26.619  1.00  0.00     0.009 A 
ATOM     94  C   UNL A   1      44.158  24.832  28.430  1.00  0.00     0.009 A 
ATOM     95  C   UNL A   1      44.956  27.337  27.502  1.00  0.00     0.001 A 
ATOM     96  C   UNL A   1      44.245  25.915  29.311  1.00  0.00     0.001 A 
ATOM     97  C   UNL A   1      44.649  27.165  28.848  1.00  0.00     0.000 A 
ENDBRANCH  91  92
ENDBRANCH  84  87
ENDBRANCH  78  80
ENDBRANCH  77  78
ENDBRANCH  76  77
ENDBRANCH  75  76
ENDBRANCH  74  75
ENDBRANCH   1  74
TORSDOF 19
ENDMDL
MODEL 3
REMARK VINA RESULT:     -10.2      1.092      2.109
REMARK SMILES O=C(OCCOCCOC(=O)[C@@H]1CS[C@H](c2ncc(-c3ccccc3)s2)[NH2+]1)c1ccc(-c2c3nc(c(-c4c(F)cc(S(=O)(=O)[O-])cc4F)c4ccc([nH]4)c(-c4c(F)cc(S(=O)(=O)[O-])cc4F)c4nc(c(-c5c(F)cc(S(=O)(=O)[O-])cc5F)c5ccc2[nH]5)C=C4)C=C3)cc1
REMARK SMILES IDX 5 1 4 2 3 3 2 4 1 5 28 6 29 7 93 8 30 9 92 10 31 11 32 12
REMARK SMILES IDX 33 13 86 14 34 15 91 16 85 17 87 18 35 19 90 20 84 21 83 22
REMARK SMILES IDX 36 24 70 25 49 26 69 27 50 28 53 29 68 30 88 31 51 32 52 33
REMARK SMILES IDX 67 35 89 36 54 37 37 38 38 39 47 40 39 41 40 42 46 43 48 44
REMARK SMILES IDX 41 45 42 46 43 47 44 48 45 49 71 50 72 51 81 52 73 53 74 54
REMARK SMILES IDX 80 55 82 56 75 57 76 58 77 59 78 60 79 61 55 62 56 63 65 64
REMARK SMILES IDX 57 65 58 66 64 67 66 68 59 69 60 70 61 71 62 72 63 73 6 74
REMARK SMILES IDX 7 75 8 76 9 77 10 78 11 79 12 80 13 81 27 82 14 83 15 84
REMARK SMILES IDX 16 87 17 88 26 89 18 90 19 91 20 92 21 93 25 94 22 95 24 96
REMARK SMILES IDX 23 97
REMARK H PARENT 87 23 53 34 27 85 27 86
REMARK Flexibility Score: inf
ROOT
ATOM      1  C   UNL A   1      39.396  22.037  26.135  1.00  0.00     0.202 C 
ENDROOT
BRANCH   1   2
ATOM      2  C   UNL A   1      39.820  23.256  26.954  1.00  0.00     0.261 C 
BRANCH   2   3
ATOM      3  O   UNL A   1      39.674  24.457  26.176  1.00  0.00    -0.460 OA
BRANCH   3   4
ATOM      4  C   UNL A   1      40.432  25.578  26.256  1.00  0.00     0.338 C 
ATOM      5  O   UNL A   1      41.198  25.858  25.339  1.00  0.00    -0.246 OA
BRANCH   4   6
ATOM      6  C   UNL A   1      40.336  26.509  27.412  1.00  0.00     0.060 A 
ATOM      7  C   UNL A   1      40.929  27.766  27.424  1.00  0.00     0.016 A 
ATOM      8  C   UNL A   1      39.550  26.136  28.510  1.00  0.00     0.016 A 
ATOM      9  C   UNL A   1      40.851  28.592  28.521  1.00  0.00     0.010 A 
ATOM     10  C   UNL A   1      39.413  26.997  29.608  1.00  0.00     0.010 A 
ATOM     11  C   UNL A   1      40.091  28.223  29.623  1.00  0.00    -0.014 A 
BRANCH  11  12
ATOM     12  C   UNL A   1      40.166  29.108  30.800  1.00  0.00     0.031 A 
ATOM     13  C   UNL A   1      39.121  30.169  30.957  1.00  0.00     0.074 A 
ATOM     14  C   UNL A   1      40.999  28.796  31.813  1.00  0.00     0.049 A 
ATOM     15  N   UNL A   1      38.989  31.063  31.897  1.00  0.00    -0.248 NA
ATOM     16  C   UNL A   1      38.054  30.204  29.940  1.00  0.00     0.031 C 
ATOM     17  C   UNL A   1      41.910  27.645  31.829  1.00  0.00     0.029 A 
ATOM     18  N   UNL A   1      41.167  29.365  33.047  1.00  0.00    -0.354 N 
ATOM     19  C   UNL A   1      37.868  31.805  31.554  1.00  0.00     0.074 A 
ATOM     20  C   UNL A   1      37.329  31.237  30.341  1.00  0.00     0.031 C 
ATOM     21  C   UNL A   1      42.489  27.559  33.036  1.00  0.00     0.029 A 
ATOM     22  C   UNL A   1      42.087  28.709  33.833  1.00  0.00     0.049 A 
ATOM     23  H   UNL A   1      40.676  30.164  33.344  1.00  0.00     0.167 HD
ATOM     24  C   UNL A   1      37.359  32.881  32.192  1.00  0.00     0.037 A 
ATOM     25  C   UNL A   1      42.587  29.040  35.038  1.00  0.00     0.037 A 
ATOM     26  C   UNL A   1      37.917  33.405  33.411  1.00  0.00     0.049 A 
ATOM     27  C   UNL A   1      42.088  30.310  35.671  1.00  0.00     0.074 A 
ATOM     28  C   UNL A   1      37.562  34.545  34.104  1.00  0.00     0.029 A 
ATOM     29  N   UNL A   1      38.949  32.804  34.120  1.00  0.00    -0.354 N 
ATOM     30  N   UNL A   1      41.120  31.103  35.270  1.00  0.00    -0.248 NA
ATOM     31  C   UNL A   1      42.765  30.756  36.893  1.00  0.00     0.031 C 
ATOM     32  C   UNL A   1      38.414  34.662  35.208  1.00  0.00     0.029 A 
ATOM     33  C   UNL A   1      39.259  33.561  35.234  1.00  0.00     0.049 A 
ATOM     34  H   UNL A   1      39.395  31.964  33.867  1.00  0.00     0.167 HD
ATOM     35  C   UNL A   1      41.070  32.140  36.192  1.00  0.00     0.074 A 
ATOM     36  C   UNL A   1      42.085  31.856  37.188  1.00  0.00     0.031 C 
ATOM     37  C   UNL A   1      40.270  33.235  36.210  1.00  0.00     0.037 A 
BRANCH  24  38
ATOM     38  C   UNL A   1      36.231  33.613  31.526  1.00  0.00     0.058 A 
ATOM     39  C   UNL A   1      34.953  33.713  32.095  1.00  0.00     0.135 A 
ATOM     40  C   UNL A   1      36.442  34.220  30.276  1.00  0.00     0.135 A 
ATOM     41  F   UNL A   1      34.684  33.118  33.267  1.00  0.00    -0.206 F 
ATOM     42  C   UNL A   1      33.919  34.379  31.440  1.00  0.00     0.059 A 
ATOM     43  C   UNL A   1      35.432  34.909  29.616  1.00  0.00     0.059 A 
ATOM     44  F   UNL A   1      37.642  34.134  29.679  1.00  0.00    -0.206 F 
ATOM     45  C   UNL A   1      34.170  34.975  30.201  1.00  0.00     0.060 A 
BRANCH  45  46
ATOM     46  S   UNL A   1      32.822  35.838  29.366  1.00  0.00     0.124 S 
ATOM     47  O   UNL A   1      31.886  36.052  30.466  1.00  0.00    -0.237 OA
ATOM     48  O   UNL A   1      33.487  37.033  28.857  1.00  0.00    -0.237 OA
ATOM     49  O   UNL A   1      32.387  34.884  28.350  1.00  0.00    -0.744 OA
ENDBRANCH  45  46
ENDBRANCH  24  38
BRANCH  25  50
ATOM     50  C   UNL A   1      43.675  28.231  35.659  1.00  0.00     0.058 A 
ATOM     51  C   UNL A   1      45.025  28.435  35.337  1.00  0.00     0.135 A 
ATOM     52  C   UNL A   1      43.380  27.212  36.584  1.00  0.00     0.135 A 
ATOM     53  F   UNL A   1      45.367  29.383  34.450  1.00  0.00    -0.206 F 
ATOM     54  C   UNL A   1      46.036  27.652  35.891  1.00  0.00     0.059 A 
ATOM     55  C   UNL A   1      44.374  26.444  37.179  1.00  0.00     0.059 A 
ATOM     56  F   UNL A   1      42.106  26.967  36.932  1.00  0.00    -0.206 F 
ATOM     57  C   UNL A   1      45.699  26.658  36.812  1.00  0.00     0.060 A 
BRANCH  57  58
ATOM     58  S   UNL A   1      47.012  25.654  37.539  1.00  0.00     0.124 S 
ATOM     59  O   UNL A   1      47.848  25.380  36.376  1.00  0.00    -0.237 OA
ATOM     60  O   UNL A   1      47.579  26.559  38.534  1.00  0.00    -0.237 OA
ATOM     61  O   UNL A   1      46.294  24.505  38.084  1.00  0.00    -0.744 OA
ENDBRANCH  57  58
ENDBRANCH  25  50
BRANCH  37  62
ATOM     62  C   UNL A   1      40.440  34.182  37.361  1.00  0.00     0.058 A 
ATOM     63  C   UNL A   1      41.350  35.249  37.309  1.00  0.00     0.135 A 
ATOM     64  C   UNL A   1      39.630  34.057  38.501  1.00  0.00     0.135 A 
ATOM     65  F   UNL A   1      42.149  35.405  36.241  1.00  0.00    -0.206 F 
ATOM     66  C   UNL A   1      41.466  36.150  38.359  1.00  0.00     0.059 A 
ATOM     67  C   UNL A   1      39.708  34.966  39.549  1.00  0.00     0.059 A 
ATOM     68  F   UNL A   1      38.736  33.060  38.591  1.00  0.00    -0.206 F 
ATOM     69  C   UNL A   1      40.638  36.002  39.473  1.00  0.00     0.060 A 
BRANCH  69  70
ATOM     70  S   UNL A   1      40.767  37.206  40.811  1.00  0.00     0.124 S 
ATOM     71  O   UNL A   1      41.205  38.397  40.091  1.00  0.00    -0.237 OA
ATOM     72  O   UNL A   1      39.404  37.242  41.329  1.00  0.00    -0.237 OA
ATOM     73  O   UNL A   1      41.757  36.613  41.706  1.00  0.00    -0.744 OA
ENDBRANCH  69  70
ENDBRANCH  37  62
ENDBRANCH  11  12
ENDBRANCH   4   6
ENDBRANCH   3   4
ENDBRANCH   2   3
ENDBRANCH   1   2
BRANCH   1  74
ATOM     74  O   UNL A   1      40.241  20.893  26.229  1.00  0.00    -0.374 OA
BRANCH  74  75
ATOM     75  C   UNL A   1      41.017  20.787  27.424  1.00  0.00     0.202 C 
BRANCH  75  76
ATOM     76  C   UNL A   1      41.958  19.592  27.317  1.00  0.00     0.261 C 
BRANCH  76  77
ATOM     77  O   UNL A   1      42.695  19.685  26.079  1.00  0.00    -0.459 OA
BRANCH  77  78
ATOM     78  C   UNL A   1      43.165  18.486  25.615  1.00  0.00     0.365 C 
ATOM     79  O   UNL A   1      42.640  17.402  25.851  1.00  0.00    -0.245 OA
BRANCH  78  80
ATOM     80  C   UNL A   1      44.479  18.680  24.845  1.00  0.00     0.304 C 
ATOM     81  C   UNL A   1      45.630  19.127  25.740  1.00  0.00     0.153 C 
ATOM     82  N   UNL A   1      44.283  19.637  23.707  1.00  0.00    -0.317 N 
ATOM     83  S   UNL A   1      46.651  20.136  24.664  1.00  0.00    -0.085 SA
ATOM     84  C   UNL A   1      45.164  20.808  23.859  1.00  0.00     0.303 C 
ATOM     85  H   UNL A   1      43.311  19.947  23.693  1.00  0.00     0.348 HD
ATOM     86  H   UNL A   1      44.512  19.163  22.833  1.00  0.00     0.348 HD
BRANCH  84  87
ATOM     87  C   UNL A   1      44.600  22.017  24.614  1.00  0.00     0.162 A 
ATOM     88  N   UNL A   1      43.345  22.422  24.496  1.00  0.00    -0.242 NA
ATOM     89  S   UNL A   1      45.523  22.925  25.764  1.00  0.00    -0.112 S 
ATOM     90  C   UNL A   1      43.113  23.516  25.309  1.00  0.00     0.132 A 
ATOM     91  C   UNL A   1      44.188  23.956  26.051  1.00  0.00     0.055 A 
BRANCH  91  92
ATOM     92  C   UNL A   1      44.279  25.110  26.941  1.00  0.00    -0.007 A 
ATOM     93  C   UNL A   1      44.766  26.329  26.449  1.00  0.00     0.009 A 
ATOM     94  C   UNL A   1      43.823  25.048  28.264  1.00  0.00     0.009 A 
ATOM     95  C   UNL A   1      44.799  27.462  27.268  1.00  0.00     0.001 A 
ATOM     96  C   UNL A   1      43.867  26.182  29.083  1.00  0.00     0.001 A 
ATOM     97  C   UNL A   1      44.360  27.386  28.587  1.00  0.00     0.000 A 
ENDBRANCH  91  92
ENDBRANCH  84  87
ENDBRANCH  78  80
ENDBRANCH  77  78
ENDBRANCH  76  77
ENDBRANCH  75  76
ENDBRANCH  74  75
ENDBRANCH   1  74
TORSDOF 19
ENDMDL
