MODEL 1
REMARK VINA RESULT:     -10.7      0.000      0.000
REMARK SMILES CC(C)(C)OC(=O)N1CCC[C@H]1C(=O)N[C@@H](Cc1ccccc1)C(=O)OCCOCCOC(=O)c1ccc(-c2c3nc(c(-c4c(F)cc(S(=O)(=O)[O-])cc4F)c4ccc([nH]4)c(-c4c(F)cc(S(=O)(=O)[O-])cc4F)c4nc(c(-c5c(F)cc(S(=O)(=O)[O-])cc5F)c5ccc2[nH]5)C=C4)C=C3)cc1
REMARK SMILES IDX 28 1 27 2 26 3 24 4 25 5 16 6 15 7 13 8 14 9 12 11 8 12 9 13
REMARK SMILES IDX 10 14 11 15 6 16 7 17 5 18 2 19 1 20 3 21 4 22 17 23 18 24
REMARK SMILES IDX 19 25 23 26 20 27 22 28 21 29 29 30 30 31 31 32 32 33 33 34
REMARK SMILES IDX 34 35 35 36 36 37 100 38 37 39 99 40 38 41 39 42 40 43 93 44
REMARK SMILES IDX 41 45 98 46 92 47 94 48 42 49 97 50 91 51 90 52 43 54 77 55
REMARK SMILES IDX 56 56 76 57 57 58 60 59 75 60 95 61 58 62 59 63 74 65 96 66
REMARK SMILES IDX 61 67 44 68 45 69 54 70 46 71 47 72 53 73 55 74 48 75 49 76
REMARK SMILES IDX 50 77 51 78 52 79 78 80 79 81 88 82 80 83 81 84 87 85 89 86
REMARK SMILES IDX 82 87 83 88 84 89 85 90 86 91 62 92 63 93 72 94 64 95 65 96
REMARK SMILES IDX 71 97 73 98 66 99 67 100 68 101 69 102 70 103
REMARK H PARENT 15 10 94 53 60 64
REMARK Flexibility Score: inf
ROOT
ATOM      1  C   UNL A   1      33.487  29.765  26.710  1.00  0.00     0.202 C 
ENDROOT
BRANCH   1   2
ATOM      2  C   UNL A   1      32.518  29.537  25.555  1.00  0.00     0.261 C 
BRANCH   2   3
ATOM      3  O   UNL A   1      32.670  28.186  25.090  1.00  0.00    -0.462 OA
BRANCH   3   4
ATOM      4  C   UNL A   1      33.208  28.029  23.859  1.00  0.00     0.329 C 
ATOM      5  O   UNL A   1      34.385  28.229  23.575  1.00  0.00    -0.250 OA
BRANCH   4   6
ATOM      6  C   UNL A   1      32.150  27.682  22.802  1.00  0.00     0.196 C 
BRANCH   6   7
ATOM      7  N   UNL A   1      32.417  26.611  21.827  1.00  0.00    -0.341 N 
ATOM      8  C   UNL A   1      32.986  25.380  21.986  1.00  0.00     0.243 C 
ATOM      9  O   UNL A   1      33.267  24.748  20.965  1.00  0.00    -0.273 OA
ATOM     10  H   UNL A   1      32.140  26.819  20.905  1.00  0.00     0.164 HD
BRANCH   8  11
ATOM     11  C   UNL A   1      33.305  24.851  23.398  1.00  0.00     0.178 C 
ATOM     12  N   UNL A   1      32.600  23.603  23.691  1.00  0.00    -0.296 N 
ATOM     13  C   UNL A   1      33.509  22.485  23.815  1.00  0.00     0.124 C 
ATOM     14  C   UNL A   1      34.797  23.145  24.266  1.00  0.00     0.024 C 
ATOM     15  C   UNL A   1      34.790  24.480  23.525  1.00  0.00     0.037 C 
BRANCH  12  16
ATOM     16  C   UNL A   1      31.243  23.570  23.885  1.00  0.00     0.410 C 
ATOM     17  O   UNL A   1      30.455  24.119  23.126  1.00  0.00    -0.224 OA
BRANCH  16  18
ATOM     18  O   UNL A   1      30.911  22.921  25.029  1.00  0.00    -0.444 OA
BRANCH  18  19
ATOM     19  C   UNL A   1      30.813  23.580  26.322  1.00  0.00     0.106 C 
ATOM     20  C   UNL A   1      32.091  23.170  27.070  1.00  0.00     0.056 C 
ATOM     21  C   UNL A   1      29.594  23.015  27.055  1.00  0.00     0.056 C 
ATOM     22  C   UNL A   1      30.761  25.112  26.273  1.00  0.00     0.056 C 
ENDBRANCH  18  19
ENDBRANCH  16  18
ENDBRANCH  12  16
ENDBRANCH   8  11
ENDBRANCH   6   7
BRANCH   6  23
ATOM     23  C   UNL A   1      30.814  27.447  23.534  1.00  0.00     0.072 C 
BRANCH  23  24
ATOM     24  C   UNL A   1      29.592  28.302  23.237  1.00  0.00    -0.045 A 
ATOM     25  C   UNL A   1      28.258  27.953  23.498  1.00  0.00     0.004 A 
ATOM     26  C   UNL A   1      29.826  29.546  22.625  1.00  0.00     0.004 A 
ATOM     27  C   UNL A   1      27.202  28.798  23.140  1.00  0.00     0.000 A 
ATOM     28  C   UNL A   1      28.773  30.396  22.277  1.00  0.00     0.000 A 
ATOM     29  C   UNL A   1      27.459  30.018  22.529  1.00  0.00     0.000 A 
ENDBRANCH  23  24
ENDBRANCH   6  23
ENDBRANCH   4   6
ENDBRANCH   3   4
ENDBRANCH   2   3
ENDBRANCH   1   2
BRANCH   1  30
ATOM     30  O   UNL A   1      33.740  31.137  27.023  1.00  0.00    -0.374 OA
BRANCH  30  31
ATOM     31  C   UNL A   1      34.977  31.459  27.664  1.00  0.00     0.202 C 
BRANCH  31  32
ATOM     32  C   UNL A   1      35.154  30.986  29.112  1.00  0.00     0.261 C 
BRANCH  32  33
ATOM     33  O   UNL A   1      35.995  29.826  29.239  1.00  0.00    -0.460 OA
BRANCH  33  34
ATOM     34  C   UNL A   1      36.752  29.810  30.363  1.00  0.00     0.338 C 
ATOM     35  O   UNL A   1      36.369  29.652  31.511  1.00  0.00    -0.246 OA
BRANCH  34  36
ATOM     36  C   UNL A   1      38.184  29.856  30.013  1.00  0.00     0.060 A 
ATOM     37  C   UNL A   1      38.513  29.967  28.656  1.00  0.00     0.016 A 
ATOM     38  C   UNL A   1      39.182  29.685  30.975  1.00  0.00     0.016 A 
ATOM     39  C   UNL A   1      39.840  29.848  28.250  1.00  0.00     0.010 A 
ATOM     40  C   UNL A   1      40.513  29.561  30.565  1.00  0.00     0.010 A 
ATOM     41  C   UNL A   1      40.842  29.602  29.198  1.00  0.00    -0.014 A 
BRANCH  41  42
ATOM     42  C   UNL A   1      42.206  29.240  28.738  1.00  0.00     0.031 A 
ATOM     43  C   UNL A   1      42.482  27.825  28.305  1.00  0.00     0.074 A 
ATOM     44  C   UNL A   1      43.172  30.172  28.663  1.00  0.00     0.049 A 
ATOM     45  N   UNL A   1      43.597  27.289  27.879  1.00  0.00    -0.248 NA
ATOM     46  C   UNL A   1      41.346  26.890  28.360  1.00  0.00     0.031 C 
ATOM     47  C   UNL A   1      43.010  31.585  29.003  1.00  0.00     0.029 A 
ATOM     48  N   UNL A   1      44.483  30.067  28.271  1.00  0.00    -0.354 N 
ATOM     49  C   UNL A   1      43.300  25.957  27.615  1.00  0.00     0.074 A 
ATOM     50  C   UNL A   1      41.909  25.758  27.965  1.00  0.00     0.031 C 
ATOM     51  C   UNL A   1      44.178  32.218  28.800  1.00  0.00     0.029 A 
ATOM     52  C   UNL A   1      45.177  31.250  28.348  1.00  0.00     0.049 A 
ATOM     53  H   UNL A   1      44.887  29.224  27.965  1.00  0.00     0.167 HD
ATOM     54  C   UNL A   1      44.108  24.990  27.114  1.00  0.00     0.037 A 
ATOM     55  C   UNL A   1      46.474  31.516  28.096  1.00  0.00     0.037 A 
ATOM     56  C   UNL A   1      45.493  25.194  26.776  1.00  0.00     0.049 A 
ATOM     57  C   UNL A   1      47.378  30.405  27.629  1.00  0.00     0.074 A 
ATOM     58  C   UNL A   1      46.397  24.280  26.264  1.00  0.00     0.029 A 
ATOM     59  N   UNL A   1      46.176  26.392  26.925  1.00  0.00    -0.354 N 
ATOM     60  N   UNL A   1      47.084  29.152  27.378  1.00  0.00    -0.248 NA
ATOM     61  C   UNL A   1      48.792  30.746  27.414  1.00  0.00     0.031 C 
ATOM     62  C   UNL A   1      47.640  24.916  26.148  1.00  0.00     0.029 A 
ATOM     63  C   UNL A   1      47.496  26.238  26.539  1.00  0.00     0.049 A 
ATOM     64  H   UNL A   1      45.779  27.230  27.256  1.00  0.00     0.167 HD
ATOM     65  C   UNL A   1      48.268  28.562  26.946  1.00  0.00     0.074 A 
ATOM     66  C   UNL A   1      49.281  29.597  26.966  1.00  0.00     0.031 C 
ATOM     67  C   UNL A   1      48.493  27.280  26.561  1.00  0.00     0.037 A 
BRANCH  54  68
ATOM     68  C   UNL A   1      43.512  23.620  26.935  1.00  0.00     0.058 A 
ATOM     69  C   UNL A   1      43.333  22.744  28.017  1.00  0.00     0.135 A 
ATOM     70  C   UNL A   1      43.118  23.175  25.662  1.00  0.00     0.135 A 
ATOM     71  F   UNL A   1      43.707  23.112  29.254  1.00  0.00    -0.206 F 
ATOM     72  C   UNL A   1      42.825  21.460  27.840  1.00  0.00     0.059 A 
ATOM     73  C   UNL A   1      42.580  21.906  25.465  1.00  0.00     0.059 A 
ATOM     74  F   UNL A   1      43.263  23.972  24.592  1.00  0.00    -0.206 F 
ATOM     75  C   UNL A   1      42.458  21.049  26.558  1.00  0.00     0.060 A 
BRANCH  75  76
ATOM     76  S   UNL A   1      41.828  19.371  26.336  1.00  0.00     0.124 S 
ATOM     77  O   UNL A   1      42.317  18.715  27.545  1.00  0.00    -0.237 OA
ATOM     78  O   UNL A   1      40.386  19.584  26.270  1.00  0.00    -0.237 OA
ATOM     79  O   UNL A   1      42.451  18.936  25.090  1.00  0.00    -0.744 OA
ENDBRANCH  75  76
ENDBRANCH  54  68
BRANCH  55  80
ATOM     80  C   UNL A   1      46.993  32.898  28.273  1.00  0.00     0.058 A 
ATOM     81  C   UNL A   1      46.970  33.818  27.215  1.00  0.00     0.135 A 
ATOM     82  C   UNL A   1      47.508  33.330  29.506  1.00  0.00     0.135 A 
ATOM     83  F   UNL A   1      46.499  33.448  26.015  1.00  0.00    -0.206 F 
ATOM     84  C   UNL A   1      47.442  35.118  27.370  1.00  0.00     0.059 A 
ATOM     85  C   UNL A   1      47.964  34.632  29.691  1.00  0.00     0.059 A 
ATOM     86  F   UNL A   1      47.544  32.491  30.553  1.00  0.00    -0.206 F 
ATOM     87  C   UNL A   1      47.933  35.517  28.614  1.00  0.00     0.060 A 
BRANCH  87  88
ATOM     88  S   UNL A   1      48.484  37.224  28.821  1.00  0.00     0.124 S 
ATOM     89  O   UNL A   1      49.562  37.305  27.842  1.00  0.00    -0.237 OA
ATOM     90  O   UNL A   1      47.274  37.976  28.506  1.00  0.00    -0.237 OA
ATOM     91  O   UNL A   1      48.897  37.275  30.221  1.00  0.00    -0.744 OA
ENDBRANCH  87  88
ENDBRANCH  55  80
BRANCH  67  92
ATOM     92  C   UNL A   1      49.881  26.930  26.095  1.00  0.00     0.058 A 
ATOM     93  C   UNL A   1      50.266  27.061  24.753  1.00  0.00     0.135 A 
ATOM     94  C   UNL A   1      50.854  26.510  27.017  1.00  0.00     0.135 A 
ATOM     95  F   UNL A   1      49.373  27.453  23.829  1.00  0.00    -0.206 F 
ATOM     96  C   UNL A   1      51.560  26.767  24.335  1.00  0.00     0.059 A 
ATOM     97  C   UNL A   1      52.161  26.235  26.627  1.00  0.00     0.059 A 
ATOM     98  F   UNL A   1      50.542  26.377  28.316  1.00  0.00    -0.206 F 
ATOM     99  C   UNL A   1      52.502  26.356  25.281  1.00  0.00     0.060 A 
BRANCH  99 100
ATOM    100  S   UNL A   1      54.188  26.012  24.732  1.00  0.00     0.124 S 
ATOM    101  O   UNL A   1      54.139  26.444  23.340  1.00  0.00    -0.237 OA
ATOM    102  O   UNL A   1      54.985  26.845  25.627  1.00  0.00    -0.237 OA
ATOM    103  O   UNL A   1      54.325  24.573  24.939  1.00  0.00    -0.744 OA
ENDBRANCH  99 100
ENDBRANCH  67  92
ENDBRANCH  41  42
ENDBRANCH  34  36
ENDBRANCH  33  34
ENDBRANCH  32  33
ENDBRANCH  31  32
ENDBRANCH  30  31
ENDBRANCH   1  30
TORSDOF 24
ENDMDL
MODEL 2
REMARK VINA RESULT:     -10.7      6.083      8.428
REMARK SMILES CC(C)(C)OC(=O)N1CCC[C@H]1C(=O)N[C@@H](Cc1ccccc1)C(=O)OCCOCCOC(=O)c1ccc(-c2c3nc(c(-c4c(F)cc(S(=O)(=O)[O-])cc4F)c4ccc([nH]4)c(-c4c(F)cc(S(=O)(=O)[O-])cc4F)c4nc(c(-c5c(F)cc(S(=O)(=O)[O-])cc5F)c5ccc2[nH]5)C=C4)C=C3)cc1
REMARK SMILES IDX 28 1 27 2 26 3 24 4 25 5 16 6 15 7 13 8 14 9 12 11 8 12 9 13
REMARK SMILES IDX 10 14 11 15 6 16 7 17 5 18 2 19 1 20 3 21 4 22 17 23 18 24
REMARK SMILES IDX 19 25 23 26 20 27 22 28 21 29 29 30 30 31 31 32 32 33 33 34
REMARK SMILES IDX 34 35 35 36 36 37 100 38 37 39 99 40 38 41 39 42 40 43 93 44
REMARK SMILES IDX 41 45 98 46 92 47 94 48 42 49 97 50 91 51 90 52 43 54 77 55
REMARK SMILES IDX 56 56 76 57 57 58 60 59 75 60 95 61 58 62 59 63 74 65 96 66
REMARK SMILES IDX 61 67 44 68 45 69 54 70 46 71 47 72 53 73 55 74 48 75 49 76
REMARK SMILES IDX 50 77 51 78 52 79 78 80 79 81 88 82 80 83 81 84 87 85 89 86
REMARK SMILES IDX 82 87 83 88 84 89 85 90 86 91 62 92 63 93 72 94 64 95 65 96
REMARK SMILES IDX 71 97 73 98 66 99 67 100 68 101 69 102 70 103
REMARK H PARENT 15 10 94 53 60 64
REMARK Flexibility Score: inf
ROOT
ATOM      1  C   UNL A   1      33.509  29.657  26.412  1.00  0.00     0.202 C 
ENDROOT
BRANCH   1   2
ATOM      2  C   UNL A   1      33.810  28.424  25.568  1.00  0.00     0.261 C 
BRANCH   2   3
ATOM      3  O   UNL A   1      32.740  28.241  24.627  1.00  0.00    -0.462 OA
BRANCH   3   4
ATOM      4  C   UNL A   1      33.089  28.175  23.321  1.00  0.00     0.329 C 
ATOM      5  O   UNL A   1      34.160  28.560  22.859  1.00  0.00    -0.250 OA
BRANCH   4   6
ATOM      6  C   UNL A   1      31.941  27.670  22.437  1.00  0.00     0.196 C 
BRANCH   6   7
ATOM      7  N   UNL A   1      32.149  26.496  21.572  1.00  0.00    -0.341 N 
ATOM      8  C   UNL A   1      32.693  25.273  21.843  1.00  0.00     0.243 C 
ATOM      9  O   UNL A   1      32.924  24.530  20.886  1.00  0.00    -0.273 OA
ATOM     10  H   UNL A   1      31.846  26.613  20.643  1.00  0.00     0.164 HD
BRANCH   8  11
ATOM     11  C   UNL A   1      33.047  24.886  23.292  1.00  0.00     0.178 C 
ATOM     12  N   UNL A   1      32.434  23.618  23.688  1.00  0.00    -0.296 N 
ATOM     13  C   UNL A   1      33.423  22.583  23.901  1.00  0.00     0.124 C 
ATOM     14  C   UNL A   1      34.658  23.370  24.290  1.00  0.00     0.024 C 
ATOM     15  C   UNL A   1      34.555  24.635  23.442  1.00  0.00     0.037 C 
BRANCH  12  16
ATOM     16  C   UNL A   1      31.083  23.502  23.891  1.00  0.00     0.410 C 
ATOM     17  O   UNL A   1      30.259  23.978  23.121  1.00  0.00    -0.224 OA
BRANCH  16  18
ATOM     18  O   UNL A   1      30.797  22.864  25.053  1.00  0.00    -0.444 OA
BRANCH  18  19
ATOM     19  C   UNL A   1      30.794  23.526  26.348  1.00  0.00     0.106 C 
ATOM     20  C   UNL A   1      29.618  22.894  27.110  1.00  0.00     0.056 C 
ATOM     21  C   UNL A   1      30.512  25.013  26.124  1.00  0.00     0.056 C 
ATOM     22  C   UNL A   1      32.064  23.328  27.185  1.00  0.00     0.056 C 
ENDBRANCH  18  19
ENDBRANCH  16  18
ENDBRANCH  12  16
ENDBRANCH   8  11
ENDBRANCH   6   7
BRANCH   6  23
ATOM     23  C   UNL A   1      30.701  27.487  23.335  1.00  0.00     0.072 C 
BRANCH  23  24
ATOM     24  C   UNL A   1      29.564  28.497  23.324  1.00  0.00    -0.045 A 
ATOM     25  C   UNL A   1      28.206  28.206  23.133  1.00  0.00     0.004 A 
ATOM     26  C   UNL A   1      29.918  29.846  23.500  1.00  0.00     0.004 A 
ATOM     27  C   UNL A   1      27.243  29.220  23.094  1.00  0.00     0.000 A 
ATOM     28  C   UNL A   1      28.956  30.860  23.473  1.00  0.00     0.000 A 
ATOM     29  C   UNL A   1      27.618  30.547  23.262  1.00  0.00     0.000 A 
ENDBRANCH  23  24
ENDBRANCH   6  23
ENDBRANCH   4   6
ENDBRANCH   3   4
ENDBRANCH   2   3
ENDBRANCH   1   2
BRANCH   1  30
ATOM     30  O   UNL A   1      34.548  30.038  27.316  1.00  0.00    -0.374 OA
BRANCH  30  31
ATOM     31  C   UNL A   1      34.408  31.280  28.012  1.00  0.00     0.202 C 
BRANCH  31  32
ATOM     32  C   UNL A   1      33.279  32.211  27.553  1.00  0.00     0.261 C 
BRANCH  32  33
ATOM     33  O   UNL A   1      33.689  33.581  27.401  1.00  0.00    -0.460 OA
BRANCH  33  34
ATOM     34  C   UNL A   1      33.490  34.345  28.503  1.00  0.00     0.338 C 
ATOM     35  O   UNL A   1      32.534  35.065  28.740  1.00  0.00    -0.246 OA
BRANCH  34  36
ATOM     36  C   UNL A   1      34.540  34.079  29.503  1.00  0.00     0.060 A 
ATOM     37  C   UNL A   1      35.869  34.292  29.116  1.00  0.00     0.016 A 
ATOM     38  C   UNL A   1      34.243  33.531  30.753  1.00  0.00     0.016 A 
ATOM     39  C   UNL A   1      36.909  33.902  29.956  1.00  0.00     0.010 A 
ATOM     40  C   UNL A   1      35.289  33.135  31.592  1.00  0.00     0.010 A 
ATOM     41  C   UNL A   1      36.626  33.282  31.180  1.00  0.00    -0.014 A 
BRANCH  41  42
ATOM     42  C   UNL A   1      37.728  32.658  31.953  1.00  0.00     0.031 A 
ATOM     43  C   UNL A   1      38.441  31.464  31.378  1.00  0.00     0.074 A 
ATOM     44  C   UNL A   1      38.118  33.178  33.129  1.00  0.00     0.049 A 
ATOM     45  N   UNL A   1      39.421  30.759  31.882  1.00  0.00    -0.248 NA
ATOM     46  C   UNL A   1      37.988  31.004  30.055  1.00  0.00     0.031 C 
ATOM     47  C   UNL A   1      37.540  34.364  33.762  1.00  0.00     0.029 A 
ATOM     48  N   UNL A   1      39.099  32.776  34.000  1.00  0.00    -0.354 N 
ATOM     49  C   UNL A   1      39.702  29.774  30.942  1.00  0.00     0.074 A 
ATOM     50  C   UNL A   1      38.763  29.950  29.854  1.00  0.00     0.031 C 
ATOM     51  C   UNL A   1      38.182  34.595  34.920  1.00  0.00     0.029 A 
ATOM     52  C   UNL A   1      39.191  33.558  35.126  1.00  0.00     0.049 A 
ATOM     53  H   UNL A   1      39.681  31.999  33.834  1.00  0.00     0.167 HD
ATOM     54  C   UNL A   1      40.663  28.818  30.976  1.00  0.00     0.037 A 
ATOM     55  C   UNL A   1      39.990  33.440  36.204  1.00  0.00     0.037 A 
ATOM     56  C   UNL A   1      41.587  28.644  32.067  1.00  0.00     0.049 A 
ATOM     57  C   UNL A   1      40.988  32.313  36.264  1.00  0.00     0.074 A 
ATOM     58  C   UNL A   1      42.596  27.706  32.199  1.00  0.00     0.029 A 
ATOM     59  N   UNL A   1      41.609  29.419  33.217  1.00  0.00    -0.354 N 
ATOM     60  N   UNL A   1      41.248  31.392  35.367  1.00  0.00    -0.248 NA
ATOM     61  C   UNL A   1      41.800  32.209  37.485  1.00  0.00     0.031 C 
ATOM     62  C   UNL A   1      43.197  27.886  33.450  1.00  0.00     0.029 A 
ATOM     63  C   UNL A   1      42.597  28.967  34.075  1.00  0.00     0.049 A 
ATOM     64  H   UNL A   1      41.011  30.180  33.395  1.00  0.00     0.167 HD
ATOM     65  C   UNL A   1      42.274  30.618  35.901  1.00  0.00     0.074 A 
ATOM     66  C   UNL A   1      42.590  31.182  37.197  1.00  0.00     0.031 C 
ATOM     67  C   UNL A   1      42.903  29.542  35.362  1.00  0.00     0.037 A 
BRANCH  54  68
ATOM     68  C   UNL A   1      40.733  27.872  29.808  1.00  0.00     0.058 A 
ATOM     69  C   UNL A   1      39.810  26.827  29.646  1.00  0.00     0.135 A 
ATOM     70  C   UNL A   1      41.741  28.010  28.839  1.00  0.00     0.135 A 
ATOM     71  F   UNL A   1      38.835  26.640  30.550  1.00  0.00    -0.206 F 
ATOM     72  C   UNL A   1      39.907  25.927  28.589  1.00  0.00     0.059 A 
ATOM     73  C   UNL A   1      41.840  27.138  27.758  1.00  0.00     0.059 A 
ATOM     74  F   UNL A   1      42.649  28.992  28.943  1.00  0.00    -0.206 F 
ATOM     75  C   UNL A   1      40.931  26.087  27.655  1.00  0.00     0.060 A 
BRANCH  75  76
ATOM     76  S   UNL A   1      41.064  24.894  26.305  1.00  0.00     0.124 S 
ATOM     77  O   UNL A   1      39.674  24.475  26.150  1.00  0.00    -0.237 OA
ATOM     78  O   UNL A   1      41.605  25.707  25.220  1.00  0.00    -0.237 OA
ATOM     79  O   UNL A   1      41.969  23.880  26.835  1.00  0.00    -0.744 OA
ENDBRANCH  75  76
ENDBRANCH  54  68
BRANCH  55  80
ATOM     80  C   UNL A   1      39.883  34.423  37.315  1.00  0.00     0.058 A 
ATOM     81  C   UNL A   1      38.997  34.212  38.382  1.00  0.00     0.135 A 
ATOM     82  C   UNL A   1      40.674  35.582  37.341  1.00  0.00     0.135 A 
ATOM     83  F   UNL A   1      38.212  33.125  38.395  1.00  0.00    -0.206 F 
ATOM     84  C   UNL A   1      38.895  35.117  39.433  1.00  0.00     0.059 A 
ATOM     85  C   UNL A   1      40.607  36.490  38.392  1.00  0.00     0.059 A 
ATOM     86  F   UNL A   1      41.545  35.825  36.348  1.00  0.00    -0.206 F 
ATOM     87  C   UNL A   1      39.708  36.251  39.432  1.00  0.00     0.060 A 
BRANCH  87  88
ATOM     88  S   UNL A   1      39.612  37.387  40.832  1.00  0.00     0.124 S 
ATOM     89  O   UNL A   1      40.971  37.915  40.876  1.00  0.00    -0.237 OA
ATOM     90  O   UNL A   1      38.576  38.320  40.400  1.00  0.00    -0.237 OA
ATOM     91  O   UNL A   1      39.236  36.517  41.944  1.00  0.00    -0.744 OA
ENDBRANCH  87  88
ENDBRANCH  55  80
BRANCH  67  92
ATOM     92  C   UNL A   1      44.019  28.923  36.158  1.00  0.00     0.058 A 
ATOM     93  C   UNL A   1      43.823  27.773  36.937  1.00  0.00     0.135 A 
ATOM     94  C   UNL A   1      45.317  29.458  36.096  1.00  0.00     0.135 A 
ATOM     95  F   UNL A   1      42.601  27.224  37.037  1.00  0.00    -0.206 F 
ATOM     96  C   UNL A   1      44.869  27.187  37.645  1.00  0.00     0.059 A 
ATOM     97  C   UNL A   1      46.382  28.874  36.774  1.00  0.00     0.059 A 
ATOM     98  F   UNL A   1      45.562  30.552  35.358  1.00  0.00    -0.206 F 
ATOM     99  C   UNL A   1      46.146  27.743  37.555  1.00  0.00     0.060 A 
BRANCH  99 100
ATOM    100  S   UNL A   1      47.501  26.953  38.449  1.00  0.00     0.124 S 
ATOM    101  O   UNL A   1      46.895  26.717  39.755  1.00  0.00    -0.237 OA
ATOM    102  O   UNL A   1      47.755  25.762  37.644  1.00  0.00    -0.237 OA
ATOM    103  O   UNL A   1      48.560  27.957  38.420  1.00  0.00    -0.744 OA
ENDBRANCH  99 100
ENDBRANCH  67  92
ENDBRANCH  41  42
ENDBRANCH  34  36
ENDBRANCH  33  34
ENDBRANCH  32  33
ENDBRANCH  31  32
ENDBRANCH  30  31
ENDBRANCH   1  30
TORSDOF 24
ENDMDL
MODEL 3
REMARK VINA RESULT:     -10.2      2.215      8.570
REMARK SMILES CC(C)(C)OC(=O)N1CCC[C@H]1C(=O)N[C@@H](Cc1ccccc1)C(=O)OCCOCCOC(=O)c1ccc(-c2c3nc(c(-c4c(F)cc(S(=O)(=O)[O-])cc4F)c4ccc([nH]4)c(-c4c(F)cc(S(=O)(=O)[O-])cc4F)c4nc(c(-c5c(F)cc(S(=O)(=O)[O-])cc5F)c5ccc2[nH]5)C=C4)C=C3)cc1
REMARK SMILES IDX 28 1 27 2 26 3 24 4 25 5 16 6 15 7 13 8 14 9 12 11 8 12 9 13
REMARK SMILES IDX 10 14 11 15 6 16 7 17 5 18 2 19 1 20 3 21 4 22 17 23 18 24
REMARK SMILES IDX 19 25 23 26 20 27 22 28 21 29 29 30 30 31 31 32 32 33 33 34
REMARK SMILES IDX 34 35 35 36 36 37 100 38 37 39 99 40 38 41 39 42 40 43 93 44
REMARK SMILES IDX 41 45 98 46 92 47 94 48 42 49 97 50 91 51 90 52 43 54 77 55
REMARK SMILES IDX 56 56 76 57 57 58 60 59 75 60 95 61 58 62 59 63 74 65 96 66
REMARK SMILES IDX 61 67 44 68 45 69 54 70 46 71 47 72 53 73 55 74 48 75 49 76
REMARK SMILES IDX 50 77 51 78 52 79 78 80 79 81 88 82 80 83 81 84 87 85 89 86
REMARK SMILES IDX 82 87 83 88 84 89 85 90 86 91 62 92 63 93 72 94 64 95 65 96
REMARK SMILES IDX 71 97 73 98 66 99 67 100 68 101 69 102 70 103
REMARK H PARENT 15 10 94 53 60 64
REMARK Flexibility Score: inf
ROOT
ATOM      1  C   UNL A   1      36.538  22.722  24.579  1.00  0.00     0.202 C 
ENDROOT
BRANCH   1   2
ATOM      2  C   UNL A   1      35.768  22.954  23.283  1.00  0.00     0.261 C 
BRANCH   2   3
ATOM      3  O   UNL A   1      34.588  23.716  23.582  1.00  0.00    -0.462 OA
BRANCH   3   4
ATOM      4  C   UNL A   1      33.590  23.666  22.670  1.00  0.00     0.329 C 
ATOM      5  O   UNL A   1      33.651  24.127  21.535  1.00  0.00    -0.250 OA
BRANCH   4   6
ATOM      6  C   UNL A   1      32.301  23.067  23.251  1.00  0.00     0.196 C 
BRANCH   6   7
ATOM      7  N   UNL A   1      31.033  23.808  23.128  1.00  0.00    -0.341 N 
ATOM      8  C   UNL A   1      30.665  25.033  23.607  1.00  0.00     0.243 C 
ATOM      9  O   UNL A   1      29.474  25.340  23.523  1.00  0.00    -0.273 OA
ATOM     10  H   UNL A   1      30.334  23.341  22.616  1.00  0.00     0.164 HD
BRANCH   8  11
ATOM     11  C   UNL A   1      31.710  25.951  24.271  1.00  0.00     0.178 C 
ATOM     12  N   UNL A   1      31.249  27.337  24.357  1.00  0.00    -0.296 N 
ATOM     13  C   UNL A   1      31.028  27.749  25.726  1.00  0.00     0.124 C 
ATOM     14  C   UNL A   1      31.979  26.862  26.505  1.00  0.00     0.024 C 
ATOM     15  C   UNL A   1      31.948  25.545  25.734  1.00  0.00     0.037 C 
BRANCH  12  16
ATOM     16  C   UNL A   1      31.130  28.127  23.243  1.00  0.00     0.410 C 
ATOM     17  O   UNL A   1      32.093  28.663  22.710  1.00  0.00    -0.224 OA
BRANCH  16  18
ATOM     18  O   UNL A   1      29.837  28.277  22.864  1.00  0.00    -0.444 OA
BRANCH  18  19
ATOM     19  C   UNL A   1      29.174  29.569  22.776  1.00  0.00     0.106 C 
ATOM     20  C   UNL A   1      29.825  30.421  23.877  1.00  0.00     0.056 C 
ATOM     21  C   UNL A   1      27.692  29.369  23.099  1.00  0.00     0.056 C 
ATOM     22  C   UNL A   1      29.351  30.303  21.441  1.00  0.00     0.056 C 
ENDBRANCH  18  19
ENDBRANCH  16  18
ENDBRANCH  12  16
ENDBRANCH   8  11
ENDBRANCH   6   7
BRANCH   6  23
ATOM     23  C   UNL A   1      32.161  21.632  22.705  1.00  0.00     0.072 C 
BRANCH  23  24
ATOM     24  C   UNL A   1      32.383  20.424  23.602  1.00  0.00    -0.045 A 
ATOM     25  C   UNL A   1      32.673  20.458  24.974  1.00  0.00     0.004 A 
ATOM     26  C   UNL A   1      32.311  19.161  22.988  1.00  0.00     0.004 A 
ATOM     27  C   UNL A   1      32.905  19.283  25.698  1.00  0.00     0.000 A 
ATOM     28  C   UNL A   1      32.532  17.986  23.712  1.00  0.00     0.000 A 
ATOM     29  C   UNL A   1      32.837  18.048  25.067  1.00  0.00     0.000 A 
ENDBRANCH  23  24
ENDBRANCH   6  23
ENDBRANCH   4   6
ENDBRANCH   3   4
ENDBRANCH   2   3
ENDBRANCH   1   2
BRANCH   1  30
ATOM     30  O   UNL A   1      37.650  21.830  24.468  1.00  0.00    -0.374 OA
BRANCH  30  31
ATOM     31  C   UNL A   1      37.734  20.748  25.400  1.00  0.00     0.202 C 
BRANCH  31  32
ATOM     32  C   UNL A   1      39.014  19.904  25.373  1.00  0.00     0.261 C 
BRANCH  32  33
ATOM     33  O   UNL A   1      39.938  20.228  26.426  1.00  0.00    -0.460 OA
BRANCH  33  34
ATOM     34  C   UNL A   1      41.214  19.840  26.183  1.00  0.00     0.338 C 
ATOM     35  O   UNL A   1      41.591  18.757  25.764  1.00  0.00    -0.246 OA
BRANCH  34  36
ATOM     36  C   UNL A   1      42.133  20.982  26.345  1.00  0.00     0.060 A 
ATOM     37  C   UNL A   1      42.378  21.433  27.648  1.00  0.00     0.016 A 
ATOM     38  C   UNL A   1      42.658  21.665  25.245  1.00  0.00     0.016 A 
ATOM     39  C   UNL A   1      43.101  22.606  27.853  1.00  0.00     0.010 A 
ATOM     40  C   UNL A   1      43.379  22.845  25.454  1.00  0.00     0.010 A 
ATOM     41  C   UNL A   1      43.569  23.341  26.757  1.00  0.00    -0.014 A 
BRANCH  41  42
ATOM     42  C   UNL A   1      44.124  24.700  26.974  1.00  0.00     0.031 A 
ATOM     43  C   UNL A   1      43.200  25.808  27.406  1.00  0.00     0.074 A 
ATOM     44  C   UNL A   1      45.440  24.932  26.834  1.00  0.00     0.049 A 
ATOM     45  N   UNL A   1      43.467  27.066  27.643  1.00  0.00    -0.248 NA
ATOM     46  C   UNL A   1      41.786  25.445  27.596  1.00  0.00     0.031 C 
ATOM     47  C   UNL A   1      46.441  23.927  26.474  1.00  0.00     0.029 A 
ATOM     48  N   UNL A   1      46.163  26.088  26.985  1.00  0.00    -0.354 N 
ATOM     49  C   UNL A   1      42.258  27.647  28.010  1.00  0.00     0.074 A 
ATOM     50  C   UNL A   1      41.250  26.610  27.927  1.00  0.00     0.031 C 
ATOM     51  C   UNL A   1      47.649  24.512  26.435  1.00  0.00     0.029 A 
ATOM     52  C   UNL A   1      47.505  25.936  26.735  1.00  0.00     0.049 A 
ATOM     53  H   UNL A   1      45.757  26.946  27.246  1.00  0.00     0.167 HD
ATOM     54  C   UNL A   1      42.011  28.923  28.393  1.00  0.00     0.037 A 
ATOM     55  C   UNL A   1      48.498  26.846  26.736  1.00  0.00     0.037 A 
ATOM     56  C   UNL A   1      43.018  29.951  28.465  1.00  0.00     0.049 A 
ATOM     57  C   UNL A   1      48.186  28.280  27.075  1.00  0.00     0.074 A 
ATOM     58  C   UNL A   1      42.871  31.275  28.839  1.00  0.00     0.029 A 
ATOM     59  N   UNL A   1      44.356  29.772  28.146  1.00  0.00    -0.354 N 
ATOM     60  N   UNL A   1      47.041  28.815  27.425  1.00  0.00    -0.248 NA
ATOM     61  C   UNL A   1      49.303  29.234  27.014  1.00  0.00     0.031 C 
ATOM     62  C   UNL A   1      44.113  31.907  28.702  1.00  0.00     0.029 A 
ATOM     63  C   UNL A   1      45.043  30.966  28.291  1.00  0.00     0.049 A 
ATOM     64  H   UNL A   1      44.758  28.920  27.860  1.00  0.00     0.167 HD
ATOM     65  C   UNL A   1      47.304  30.162  27.658  1.00  0.00     0.074 A 
ATOM     66  C   UNL A   1      48.718  30.358  27.412  1.00  0.00     0.031 C 
ATOM     67  C   UNL A   1      46.453  31.145  28.046  1.00  0.00     0.037 A 
BRANCH  54  68
ATOM     68  C   UNL A   1      40.589  29.278  28.733  1.00  0.00     0.058 A 
ATOM     69  C   UNL A   1      40.162  29.433  30.061  1.00  0.00     0.135 A 
ATOM     70  C   UNL A   1      39.638  29.461  27.716  1.00  0.00     0.135 A 
ATOM     71  F   UNL A   1      41.026  29.255  31.074  1.00  0.00    -0.206 F 
ATOM     72  C   UNL A   1      38.835  29.716  30.372  1.00  0.00     0.059 A 
ATOM     73  C   UNL A   1      38.311  29.772  28.002  1.00  0.00     0.059 A 
ATOM     74  F   UNL A   1      39.990  29.327  26.428  1.00  0.00    -0.206 F 
ATOM     75  C   UNL A   1      37.916  29.876  29.335  1.00  0.00     0.060 A 
BRANCH  75  76
ATOM     76  S   UNL A   1      36.192  30.213  29.752  1.00  0.00     0.124 S 
ATOM     77  O   UNL A   1      36.107  29.662  31.102  1.00  0.00    -0.237 OA
ATOM     78  O   UNL A   1      36.124  31.667  29.656  1.00  0.00    -0.237 OA
ATOM     79  O   UNL A   1      35.446  29.486  28.730  1.00  0.00    -0.744 OA
ENDBRANCH  75  76
ENDBRANCH  54  68
BRANCH  55  80
ATOM     80  C   UNL A   1      49.888  26.424  26.412  1.00  0.00     0.058 A 
ATOM     81  C   UNL A   1      50.763  25.992  27.418  1.00  0.00     0.135 A 
ATOM     82  C   UNL A   1      50.361  26.430  25.090  1.00  0.00     0.135 A 
ATOM     83  F   UNL A   1      50.360  25.980  28.698  1.00  0.00    -0.206 F 
ATOM     84  C   UNL A   1      52.061  25.584  27.129  1.00  0.00     0.059 A 
ATOM     85  C   UNL A   1      51.647  26.005  24.773  1.00  0.00     0.059 A 
ATOM     86  F   UNL A   1      49.559  26.826  24.089  1.00  0.00    -0.206 F 
ATOM     87  C   UNL A   1      52.492  25.589  25.801  1.00  0.00     0.060 A 
BRANCH  87  88
ATOM     88  S   UNL A   1      54.157  24.998  25.429  1.00  0.00     0.124 S 
ATOM     89  O   UNL A   1      54.571  25.925  24.382  1.00  0.00    -0.237 OA
ATOM     90  O   UNL A   1      54.829  25.145  26.717  1.00  0.00    -0.237 OA
ATOM     91  O   UNL A   1      53.935  23.619  25.001  1.00  0.00    -0.744 OA
ENDBRANCH  87  88
ENDBRANCH  55  80
BRANCH  67  92
ATOM     92  C   UNL A   1      47.032  32.516  28.265  1.00  0.00     0.058 A 
ATOM     93  C   UNL A   1      47.021  33.493  27.258  1.00  0.00     0.135 A 
ATOM     94  C   UNL A   1      47.557  32.874  29.518  1.00  0.00     0.135 A 
ATOM     95  F   UNL A   1      46.537  33.201  26.039  1.00  0.00    -0.206 F 
ATOM     96  C   UNL A   1      47.530  34.770  27.477  1.00  0.00     0.059 A 
ATOM     97  C   UNL A   1      48.046  34.152  29.768  1.00  0.00     0.059 A 
ATOM     98  F   UNL A   1      47.583  31.981  30.519  1.00  0.00    -0.206 F 
ATOM     99  C   UNL A   1      48.038  35.091  28.737  1.00  0.00     0.060 A 
BRANCH  99 100
ATOM    100  S   UNL A   1      48.662  36.761  29.021  1.00  0.00     0.124 S 
ATOM    101  O   UNL A   1      49.380  36.598  30.280  1.00  0.00    -0.237 OA
ATOM    102  O   UNL A   1      49.492  36.990  27.842  1.00  0.00    -0.237 OA
ATOM    103  O   UNL A   1      47.448  37.570  29.091  1.00  0.00    -0.744 OA
ENDBRANCH  99 100
ENDBRANCH  67  92
ENDBRANCH  41  42
ENDBRANCH  34  36
ENDBRANCH  33  34
ENDBRANCH  32  33
ENDBRANCH  31  32
ENDBRANCH  30  31
ENDBRANCH   1  30
TORSDOF 24
ENDMDL
