MODEL 1
REMARK VINA RESULT:     -11.3      0.000      0.000
REMARK SMILES CCOc1ccccc1-c1cc(C(=O)OCCOCCOC(=O)c2ccc(-c3c4nc(c(-c5c(F)cc(S(=O)(=O)[O-])cc5F)c5ccc([nH]5)c(-c5c(F)cc(S(=O)(=O)[O-])cc5F)c5nc(c(-c6c(F)cc(S(=O)(=O)[O-])cc6F)c6ccc3[nH]6)C=C5)C=C4)cc2)c2cc(C)cc(C)c2n1
REMARK SMILES IDX 18 1 17 2 16 3 15 4 13 5 14 6 12 7 10 8 11 9 98 10 97 11
REMARK SMILES IDX 90 12 95 13 91 14 94 15 96 16 92 17 93 18 9 19 4 20 5 21
REMARK SMILES IDX 6 22 8 23 7 24 3 25 2 26 1 27 19 28 20 29 21 30 22 31 23 32
REMARK SMILES IDX 24 33 25 34 89 35 26 36 88 37 27 38 28 39 29 40 82 41 30 42
REMARK SMILES IDX 87 43 81 44 83 45 31 46 86 47 80 48 79 49 32 51 66 52 45 53
REMARK SMILES IDX 65 54 46 55 49 56 64 57 84 58 47 59 48 60 63 62 85 63 50 64
REMARK SMILES IDX 33 65 34 66 43 67 35 68 36 69 42 70 44 71 37 72 38 73 39 74
REMARK SMILES IDX 40 75 41 76 67 77 68 78 77 79 69 80 70 81 76 82 78 83 71 84
REMARK SMILES IDX 72 85 73 86 74 87 75 88 51 89 52 90 61 91 53 92 54 93 60 94
REMARK SMILES IDX 62 95 55 96 56 97 57 98 58 99 59 100
REMARK H PARENT 83 50 49 61
REMARK Flexibility Score: inf
ROOT
ATOM      1  O   UNL A   1      34.660  31.692  27.414  1.00  0.00    -0.374 OA
ENDROOT
BRANCH   1   2
ATOM      2  C   UNL A   1      35.330  30.439  27.268  1.00  0.00     0.202 C 
BRANCH   2   3
ATOM      3  C   UNL A   1      34.542  29.237  27.787  1.00  0.00     0.261 C 
BRANCH   3   4
ATOM      4  O   UNL A   1      34.128  28.371  26.713  1.00  0.00    -0.460 OA
BRANCH   4   5
ATOM      5  C   UNL A   1      32.796  28.128  26.692  1.00  0.00     0.338 C 
ATOM      6  O   UNL A   1      32.074  28.009  27.671  1.00  0.00    -0.246 OA
BRANCH   5   7
ATOM      7  C   UNL A   1      32.262  28.004  25.319  1.00  0.00     0.071 A 
ATOM      8  C   UNL A   1      31.151  28.737  23.385  1.00  0.00     0.076 A 
ATOM      9  C   UNL A   1      31.490  28.989  24.700  1.00  0.00     0.045 A 
ATOM     10  N   UNL A   1      32.005  27.992  22.652  1.00  0.00    -0.247 NA
ATOM     11  C   UNL A   1      32.392  26.857  23.233  1.00  0.00     0.075 A 
ATOM     12  C   UNL A   1      32.460  26.790  24.627  1.00  0.00     0.015 A 
ATOM     13  C   UNL A   1      32.529  25.700  22.468  1.00  0.00    -0.024 A 
ATOM     14  C   UNL A   1      32.508  25.525  25.251  1.00  0.00     0.014 A 
ATOM     15  C   UNL A   1      32.489  24.449  23.101  1.00  0.00     0.009 A 
ATOM     16  C   UNL A   1      32.517  25.761  20.966  1.00  0.00     0.047 C 
ATOM     17  C   UNL A   1      32.415  24.357  24.491  1.00  0.00    -0.050 A 
ATOM     18  C   UNL A   1      32.046  23.066  25.160  1.00  0.00     0.044 C 
BRANCH   8  19
ATOM     19  C   UNL A   1      29.760  28.371  22.945  1.00  0.00     0.042 A 
ATOM     20  C   UNL A   1      28.887  29.351  22.414  1.00  0.00     0.128 A 
ATOM     21  C   UNL A   1      27.515  29.324  22.700  1.00  0.00     0.047 A 
ATOM     22  C   UNL A   1      26.969  28.257  23.402  1.00  0.00     0.004 A 
ATOM     23  C   UNL A   1      29.161  27.242  23.544  1.00  0.00     0.014 A 
ATOM     24  C   UNL A   1      27.781  27.191  23.776  1.00  0.00     0.001 A 
BRANCH  20  25
ATOM     25  O   UNL A   1      29.385  30.470  21.789  1.00  0.00    -0.493 OA
BRANCH  25  26
ATOM     26  C   UNL A   1      28.644  31.645  22.144  1.00  0.00     0.226 C 
ATOM     27  C   UNL A   1      28.155  32.352  20.892  1.00  0.00     0.049 C 
ENDBRANCH  25  26
ENDBRANCH  20  25
ENDBRANCH   8  19
ENDBRANCH   5   7
ENDBRANCH   4   5
ENDBRANCH   3   4
ENDBRANCH   2   3
ENDBRANCH   1   2
BRANCH   1  28
ATOM     28  C   UNL A   1      33.249  31.600  27.630  1.00  0.00     0.202 C 
BRANCH  28  29
ATOM     29  C   UNL A   1      32.525  32.950  27.541  1.00  0.00     0.261 C 
BRANCH  29  30
ATOM     30  O   UNL A   1      33.474  34.034  27.587  1.00  0.00    -0.460 OA
BRANCH  30  31
ATOM     31  C   UNL A   1      33.424  34.783  28.717  1.00  0.00     0.338 C 
ATOM     32  O   UNL A   1      32.539  35.553  29.045  1.00  0.00    -0.246 OA
BRANCH  31  33
ATOM     33  C   UNL A   1      34.524  34.401  29.629  1.00  0.00     0.060 A 
ATOM     34  C   UNL A   1      35.828  34.542  29.142  1.00  0.00     0.016 A 
ATOM     35  C   UNL A   1      34.298  33.863  30.900  1.00  0.00     0.016 A 
ATOM     36  C   UNL A   1      36.908  34.083  29.891  1.00  0.00     0.010 A 
ATOM     37  C   UNL A   1      35.388  33.399  31.651  1.00  0.00     0.010 A 
ATOM     38  C   UNL A   1      36.693  33.466  31.130  1.00  0.00    -0.014 A 
BRANCH  38  39
ATOM     39  C   UNL A   1      37.820  32.751  31.780  1.00  0.00     0.031 A 
ATOM     40  C   UNL A   1      38.301  33.222  33.128  1.00  0.00     0.074 A 
ATOM     41  C   UNL A   1      38.360  31.654  31.218  1.00  0.00     0.049 A 
ATOM     42  N   UNL A   1      39.239  32.729  33.894  1.00  0.00    -0.248 NA
ATOM     43  C   UNL A   1      37.630  34.407  33.687  1.00  0.00     0.031 C 
ATOM     44  C   UNL A   1      37.959  31.078  29.936  1.00  0.00     0.029 A 
ATOM     45  N   UNL A   1      39.361  30.825  31.660  1.00  0.00    -0.354 N 
ATOM     46  C   UNL A   1      39.273  33.539  35.023  1.00  0.00     0.074 A 
ATOM     47  C   UNL A   1      38.285  34.578  34.827  1.00  0.00     0.031 C 
ATOM     48  C   UNL A   1      38.710  29.990  29.691  1.00  0.00     0.029 A 
ATOM     49  C   UNL A   1      39.658  29.804  30.789  1.00  0.00     0.049 A 
ATOM     50  H   UNL A   1      39.822  30.950  32.520  1.00  0.00     0.167 HD
ATOM     51  C   UNL A   1      40.045  33.421  36.130  1.00  0.00     0.037 A 
ATOM     52  C   UNL A   1      40.596  28.838  30.863  1.00  0.00     0.037 A 
ATOM     53  C   UNL A   1      41.025  32.385  36.325  1.00  0.00     0.049 A 
ATOM     54  C   UNL A   1      41.480  28.757  32.080  1.00  0.00     0.074 A 
ATOM     55  C   UNL A   1      41.848  32.173  37.417  1.00  0.00     0.029 A 
ATOM     56  N   UNL A   1      41.317  31.389  35.406  1.00  0.00    -0.354 N 
ATOM     57  N   UNL A   1      41.484  29.519  33.149  1.00  0.00    -0.248 NA
ATOM     58  C   UNL A   1      42.482  27.681  32.106  1.00  0.00     0.031 C 
ATOM     59  C   UNL A   1      42.669  31.075  37.140  1.00  0.00     0.029 A 
ATOM     60  C   UNL A   1      42.323  30.572  35.896  1.00  0.00     0.049 A 
ATOM     61  H   UNL A   1      40.874  31.278  34.534  1.00  0.00     0.167 HD
ATOM     62  C   UNL A   1      42.471  29.000  33.983  1.00  0.00     0.074 A 
ATOM     63  C   UNL A   1      43.034  27.853  33.299  1.00  0.00     0.031 C 
ATOM     64  C   UNL A   1      42.872  29.431  35.204  1.00  0.00     0.037 A 
BRANCH  51  65
ATOM     65  C   UNL A   1      39.873  34.456  37.208  1.00  0.00     0.058 A 
ATOM     66  C   UNL A   1      40.499  35.710  37.133  1.00  0.00     0.135 A 
ATOM     67  C   UNL A   1      39.052  34.199  38.317  1.00  0.00     0.135 A 
ATOM     68  F   UNL A   1      41.309  36.002  36.103  1.00  0.00    -0.206 F 
ATOM     69  C   UNL A   1      40.341  36.662  38.136  1.00  0.00     0.059 A 
ATOM     70  C   UNL A   1      38.859  35.145  39.319  1.00  0.00     0.059 A 
ATOM     71  F   UNL A   1      38.431  33.015  38.439  1.00  0.00    -0.206 F 
ATOM     72  C   UNL A   1      39.521  36.369  39.226  1.00  0.00     0.060 A 
BRANCH  72  73
ATOM     73  S   UNL A   1      39.329  37.611  40.523  1.00  0.00     0.124 S 
ATOM     74  O   UNL A   1      38.260  38.440  39.974  1.00  0.00    -0.237 OA
ATOM     75  O   UNL A   1      38.968  36.800  41.681  1.00  0.00    -0.237 OA
ATOM     76  O   UNL A   1      40.643  38.242  40.587  1.00  0.00    -0.744 OA
ENDBRANCH  72  73
ENDBRANCH  51  65
BRANCH  52  77
ATOM     77  C   UNL A   1      40.752  27.872  29.744  1.00  0.00     0.058 A 
ATOM     78  C   UNL A   1      39.846  26.817  29.557  1.00  0.00     0.135 A 
ATOM     79  C   UNL A   1      41.813  27.990  28.833  1.00  0.00     0.135 A 
ATOM     80  F   UNL A   1      38.823  26.655  30.409  1.00  0.00    -0.206 F 
ATOM     81  C   UNL A   1      39.991  25.908  28.514  1.00  0.00     0.059 A 
ATOM     82  C   UNL A   1      41.966  27.109  27.767  1.00  0.00     0.059 A 
ATOM     83  F   UNL A   1      42.703  28.988  28.962  1.00  0.00    -0.206 F 
ATOM     84  C   UNL A   1      41.054  26.064  27.621  1.00  0.00     0.060 A 
BRANCH  84  85
ATOM     85  S   UNL A   1      41.203  24.914  26.237  1.00  0.00     0.124 S 
ATOM     86  O   UNL A   1      42.349  24.111  26.645  1.00  0.00    -0.237 OA
ATOM     87  O   UNL A   1      39.909  24.239  26.257  1.00  0.00    -0.237 OA
ATOM     88  O   UNL A   1      41.422  25.796  25.093  1.00  0.00    -0.744 OA
ENDBRANCH  84  85
ENDBRANCH  52  77
BRANCH  64  89
ATOM     89  C   UNL A   1      43.953  28.649  35.897  1.00  0.00     0.058 A 
ATOM     90  C   UNL A   1      43.656  27.565  36.738  1.00  0.00     0.135 A 
ATOM     91  C   UNL A   1      45.305  28.957  35.678  1.00  0.00     0.135 A 
ATOM     92  F   UNL A   1      42.378  27.232  36.984  1.00  0.00    -0.206 F 
ATOM     93  C   UNL A   1      44.661  26.829  37.358  1.00  0.00     0.059 A 
ATOM     94  C   UNL A   1      46.328  28.219  36.268  1.00  0.00     0.059 A 
ATOM     95  F   UNL A   1      45.646  29.976  34.873  1.00  0.00    -0.206 F 
ATOM     96  C   UNL A   1      45.995  27.165  37.116  1.00  0.00     0.060 A 
BRANCH  96  97
ATOM     97  S   UNL A   1      47.291  26.186  37.905  1.00  0.00     0.124 S 
ATOM     98  O   UNL A   1      48.495  26.880  37.463  1.00  0.00    -0.237 OA
ATOM     99  O   UNL A   1      46.967  26.318  39.323  1.00  0.00    -0.237 OA
ATOM    100  O   UNL A   1      47.094  24.851  37.347  1.00  0.00    -0.744 OA
ENDBRANCH  96  97
ENDBRANCH  64  89
ENDBRANCH  38  39
ENDBRANCH  31  33
ENDBRANCH  30  31
ENDBRANCH  29  30
ENDBRANCH  28  29
ENDBRANCH   1  28
TORSDOF 20
ENDMDL
MODEL 2
REMARK VINA RESULT:     -11.1      2.399      8.642
REMARK SMILES CCOc1ccccc1-c1cc(C(=O)OCCOCCOC(=O)c2ccc(-c3c4nc(c(-c5c(F)cc(S(=O)(=O)[O-])cc5F)c5ccc([nH]5)c(-c5c(F)cc(S(=O)(=O)[O-])cc5F)c5nc(c(-c6c(F)cc(S(=O)(=O)[O-])cc6F)c6ccc3[nH]6)C=C5)C=C4)cc2)c2cc(C)cc(C)c2n1
REMARK SMILES IDX 18 1 17 2 16 3 15 4 13 5 14 6 12 7 10 8 11 9 98 10 97 11
REMARK SMILES IDX 90 12 95 13 91 14 94 15 96 16 92 17 93 18 9 19 4 20 5 21
REMARK SMILES IDX 6 22 8 23 7 24 3 25 2 26 1 27 19 28 20 29 21 30 22 31 23 32
REMARK SMILES IDX 24 33 25 34 89 35 26 36 88 37 27 38 28 39 29 40 82 41 30 42
REMARK SMILES IDX 87 43 81 44 83 45 31 46 86 47 80 48 79 49 32 51 66 52 45 53
REMARK SMILES IDX 65 54 46 55 49 56 64 57 84 58 47 59 48 60 63 62 85 63 50 64
REMARK SMILES IDX 33 65 34 66 43 67 35 68 36 69 42 70 44 71 37 72 38 73 39 74
REMARK SMILES IDX 40 75 41 76 67 77 68 78 77 79 69 80 70 81 76 82 78 83 71 84
REMARK SMILES IDX 72 85 73 86 74 87 75 88 51 89 52 90 61 91 53 92 54 93 60 94
REMARK SMILES IDX 62 95 55 96 56 97 57 98 58 99 59 100
REMARK H PARENT 83 50 49 61
REMARK Flexibility Score: inf
ROOT
ATOM      1  O   UNL A   1      38.653  21.541  26.116  1.00  0.00    -0.374 OA
ENDROOT
BRANCH   1   2
ATOM      2  C   UNL A   1      37.622  21.725  25.144  1.00  0.00     0.202 C 
BRANCH   2   3
ATOM      3  C   UNL A   1      37.135  23.167  25.006  1.00  0.00     0.261 C 
BRANCH   3   4
ATOM      4  O   UNL A   1      36.484  23.624  26.207  1.00  0.00    -0.460 OA
BRANCH   4   5
ATOM      5  C   UNL A   1      35.154  23.370  26.235  1.00  0.00     0.338 C 
ATOM      6  O   UNL A   1      34.616  22.431  26.803  1.00  0.00    -0.246 OA
BRANCH   5   7
ATOM      7  C   UNL A   1      34.369  24.367  25.478  1.00  0.00     0.071 A 
ATOM      8  C   UNL A   1      33.311  26.434  25.128  1.00  0.00     0.076 A 
ATOM      9  C   UNL A   1      33.962  25.593  26.009  1.00  0.00     0.045 A 
ATOM     10  N   UNL A   1      33.634  26.341  23.820  1.00  0.00    -0.247 NA
ATOM     11  C   UNL A   1      33.628  25.100  23.333  1.00  0.00     0.075 A 
ATOM     12  C   UNL A   1      33.923  24.030  24.182  1.00  0.00     0.015 A 
ATOM     13  C   UNL A   1      33.137  24.864  22.051  1.00  0.00    -0.024 A 
ATOM     14  C   UNL A   1      33.568  22.723  23.784  1.00  0.00     0.014 A 
ATOM     15  C   UNL A   1      32.711  23.573  21.705  1.00  0.00     0.009 A 
ATOM     16  C   UNL A   1      32.869  26.001  21.104  1.00  0.00     0.047 C 
ATOM     17  C   UNL A   1      32.869  22.510  22.595  1.00  0.00    -0.050 A 
ATOM     18  C   UNL A   1      32.139  21.216  22.387  1.00  0.00     0.044 C 
BRANCH   8  19
ATOM     19  C   UNL A   1      31.835  26.719  25.196  1.00  0.00     0.042 A 
ATOM     20  C   UNL A   1      30.930  25.738  25.666  1.00  0.00     0.128 A 
ATOM     21  C   UNL A   1      29.660  25.594  25.089  1.00  0.00     0.047 A 
ATOM     22  C   UNL A   1      29.220  26.502  24.134  1.00  0.00     0.004 A 
ATOM     23  C   UNL A   1      31.317  27.696  24.320  1.00  0.00     0.014 A 
ATOM     24  C   UNL A   1      30.026  27.583  23.790  1.00  0.00     0.001 A 
BRANCH  20  25
ATOM     25  O   UNL A   1      31.343  24.764  26.544  1.00  0.00    -0.493 OA
BRANCH  25  26
ATOM     26  C   UNL A   1      30.859  23.470  26.162  1.00  0.00     0.226 C 
ATOM     27  C   UNL A   1      29.894  22.942  27.209  1.00  0.00     0.049 C 
ENDBRANCH  25  26
ENDBRANCH  20  25
ENDBRANCH   8  19
ENDBRANCH   5   7
ENDBRANCH   4   5
ENDBRANCH   3   4
ENDBRANCH   2   3
ENDBRANCH   1   2
BRANCH   1  28
ATOM     28  C   UNL A   1      39.585  22.622  26.218  1.00  0.00     0.202 C 
BRANCH  28  29
ATOM     29  C   UNL A   1      41.011  22.171  26.560  1.00  0.00     0.261 C 
BRANCH  29  30
ATOM     30  O   UNL A   1      41.615  23.080  27.502  1.00  0.00    -0.460 OA
BRANCH  30  31
ATOM     31  C   UNL A   1      42.038  24.253  26.968  1.00  0.00     0.338 C 
ATOM     32  O   UNL A   1      42.591  24.409  25.894  1.00  0.00    -0.246 OA
BRANCH  31  33
ATOM     33  C   UNL A   1      41.560  25.386  27.789  1.00  0.00     0.060 A 
ATOM     34  C   UNL A   1      42.451  26.449  27.980  1.00  0.00     0.016 A 
ATOM     35  C   UNL A   1      40.307  25.396  28.407  1.00  0.00     0.016 A 
ATOM     36  C   UNL A   1      42.124  27.490  28.844  1.00  0.00     0.010 A 
ATOM     37  C   UNL A   1      39.981  26.445  29.279  1.00  0.00     0.010 A 
ATOM     38  C   UNL A   1      40.906  27.472  29.536  1.00  0.00    -0.014 A 
BRANCH  38  39
ATOM     39  C   UNL A   1      40.696  28.441  30.642  1.00  0.00     0.031 A 
ATOM     40  C   UNL A   1      41.576  28.354  31.862  1.00  0.00     0.074 A 
ATOM     41  C   UNL A   1      39.790  29.429  30.534  1.00  0.00     0.049 A 
ATOM     42  N   UNL A   1      41.597  29.114  32.926  1.00  0.00    -0.248 NA
ATOM     43  C   UNL A   1      42.567  27.266  31.881  1.00  0.00     0.031 C 
ATOM     44  C   UNL A   1      38.904  29.641  29.390  1.00  0.00     0.029 A 
ATOM     45  N   UNL A   1      39.468  30.445  31.400  1.00  0.00    -0.354 N 
ATOM     46  C   UNL A   1      42.599  28.600  33.741  1.00  0.00     0.074 A 
ATOM     47  C   UNL A   1      43.140  27.440  33.064  1.00  0.00     0.031 C 
ATOM     48  C   UNL A   1      38.135  30.718  29.627  1.00  0.00     0.029 A 
ATOM     49  C   UNL A   1      38.459  31.260  30.946  1.00  0.00     0.049 A 
ATOM     50  H   UNL A   1      39.919  30.576  32.265  1.00  0.00     0.167 HD
ATOM     51  C   UNL A   1      43.040  29.058  34.936  1.00  0.00     0.037 A 
ATOM     52  C   UNL A   1      37.858  32.314  31.533  1.00  0.00     0.037 A 
ATOM     53  C   UNL A   1      42.504  30.213  35.607  1.00  0.00     0.049 A 
ATOM     54  C   UNL A   1      38.329  32.776  32.887  1.00  0.00     0.074 A 
ATOM     55  C   UNL A   1      42.892  30.765  36.816  1.00  0.00     0.029 A 
ATOM     56  N   UNL A   1      41.462  30.993  35.129  1.00  0.00    -0.354 N 
ATOM     57  N   UNL A   1      39.293  32.290  33.634  1.00  0.00    -0.248 NA
ATOM     58  C   UNL A   1      37.638  33.932  33.476  1.00  0.00     0.031 C 
ATOM     59  C   UNL A   1      42.055  31.852  37.089  1.00  0.00     0.029 A 
ATOM     60  C   UNL A   1      41.178  32.009  36.027  1.00  0.00     0.049 A 
ATOM     61  H   UNL A   1      40.993  30.847  34.275  1.00  0.00     0.167 HD
ATOM     62  C   UNL A   1      39.338  33.096  34.769  1.00  0.00     0.074 A 
ATOM     63  C   UNL A   1      38.313  34.106  34.603  1.00  0.00     0.031 C 
ATOM     64  C   UNL A   1      40.155  33.009  35.848  1.00  0.00     0.037 A 
BRANCH  51  65
ATOM     65  C   UNL A   1      44.147  28.291  35.607  1.00  0.00     0.058 A 
ATOM     66  C   UNL A   1      43.882  27.240  36.499  1.00  0.00     0.135 A 
ATOM     67  C   UNL A   1      45.490  28.596  35.334  1.00  0.00     0.135 A 
ATOM     68  F   UNL A   1      42.615  26.918  36.808  1.00  0.00    -0.206 F 
ATOM     69  C   UNL A   1      44.910  26.537  37.120  1.00  0.00     0.059 A 
ATOM     70  C   UNL A   1      46.534  27.890  35.925  1.00  0.00     0.059 A 
ATOM     71  F   UNL A   1      45.800  29.593  34.491  1.00  0.00    -0.206 F 
ATOM     72  C   UNL A   1      46.233  26.872  36.829  1.00  0.00     0.060 A 
BRANCH  72  73
ATOM     73  S   UNL A   1      47.557  25.956  37.646  1.00  0.00     0.124 S 
ATOM     74  O   UNL A   1      46.817  24.853  38.251  1.00  0.00    -0.237 OA
ATOM     75  O   UNL A   1      48.425  25.597  36.529  1.00  0.00    -0.237 OA
ATOM     76  O   UNL A   1      48.114  26.926  38.583  1.00  0.00    -0.744 OA
ENDBRANCH  72  73
ENDBRANCH  51  65
BRANCH  52  77
ATOM     77  C   UNL A   1      36.735  33.003  30.843  1.00  0.00     0.058 A 
ATOM     78  C   UNL A   1      35.403  32.787  31.222  1.00  0.00     0.135 A 
ATOM     79  C   UNL A   1      36.978  33.898  29.789  1.00  0.00     0.135 A 
ATOM     80  F   UNL A   1      35.119  31.931  32.215  1.00  0.00    -0.206 F 
ATOM     81  C   UNL A   1      34.348  33.426  30.576  1.00  0.00     0.059 A 
ATOM     82  C   UNL A   1      35.943  34.567  29.143  1.00  0.00     0.059 A 
ATOM     83  F   UNL A   1      38.237  34.146  29.393  1.00  0.00    -0.206 F 
ATOM     84  C   UNL A   1      34.630  34.317  29.538  1.00  0.00     0.060 A 
BRANCH  84  85
ATOM     85  S   UNL A   1      33.260  35.186  28.742  1.00  0.00     0.124 S 
ATOM     86  O   UNL A   1      32.650  34.117  27.961  1.00  0.00    -0.237 OA
ATOM     87  O   UNL A   1      32.490  35.660  29.888  1.00  0.00    -0.237 OA
ATOM     88  O   UNL A   1      33.930  36.230  27.973  1.00  0.00    -0.744 OA
ENDBRANCH  84  85
ENDBRANCH  52  77
BRANCH  64  89
ATOM     89  C   UNL A   1      39.998  34.047  36.924  1.00  0.00     0.058 A 
ATOM     90  C   UNL A   1      40.681  35.272  36.873  1.00  0.00     0.135 A 
ATOM     91  C   UNL A   1      39.115  33.833  37.995  1.00  0.00     0.135 A 
ATOM     92  F   UNL A   1      41.541  35.525  35.873  1.00  0.00    -0.206 F 
ATOM     93  C   UNL A   1      40.513  36.240  37.860  1.00  0.00     0.059 A 
ATOM     94  C   UNL A   1      38.913  34.797  38.979  1.00  0.00     0.059 A 
ATOM     95  F   UNL A   1      38.427  32.684  38.085  1.00  0.00    -0.206 F 
ATOM     96  C   UNL A   1      39.626  35.991  38.909  1.00  0.00     0.060 A 
BRANCH  96  97
ATOM     97  S   UNL A   1      39.397  37.265  40.169  1.00  0.00     0.124 S 
ATOM     98  O   UNL A   1      38.488  38.185  39.496  1.00  0.00    -0.237 OA
ATOM     99  O   UNL A   1      38.827  36.509  41.280  1.00  0.00    -0.237 OA
ATOM    100  O   UNL A   1      40.750  37.768  40.391  1.00  0.00    -0.744 OA
ENDBRANCH  96  97
ENDBRANCH  64  89
ENDBRANCH  38  39
ENDBRANCH  31  33
ENDBRANCH  30  31
ENDBRANCH  29  30
ENDBRANCH  28  29
ENDBRANCH   1  28
TORSDOF 20
ENDMDL
MODEL 3
REMARK VINA RESULT:     -11.0      5.908     10.570
REMARK SMILES CCOc1ccccc1-c1cc(C(=O)OCCOCCOC(=O)c2ccc(-c3c4nc(c(-c5c(F)cc(S(=O)(=O)[O-])cc5F)c5ccc([nH]5)c(-c5c(F)cc(S(=O)(=O)[O-])cc5F)c5nc(c(-c6c(F)cc(S(=O)(=O)[O-])cc6F)c6ccc3[nH]6)C=C5)C=C4)cc2)c2cc(C)cc(C)c2n1
REMARK SMILES IDX 18 1 17 2 16 3 15 4 13 5 14 6 12 7 10 8 11 9 98 10 97 11
REMARK SMILES IDX 90 12 95 13 91 14 94 15 96 16 92 17 93 18 9 19 4 20 5 21
REMARK SMILES IDX 6 22 8 23 7 24 3 25 2 26 1 27 19 28 20 29 21 30 22 31 23 32
REMARK SMILES IDX 24 33 25 34 89 35 26 36 88 37 27 38 28 39 29 40 82 41 30 42
REMARK SMILES IDX 87 43 81 44 83 45 31 46 86 47 80 48 79 49 32 51 66 52 45 53
REMARK SMILES IDX 65 54 46 55 49 56 64 57 84 58 47 59 48 60 63 62 85 63 50 64
REMARK SMILES IDX 33 65 34 66 43 67 35 68 36 69 42 70 44 71 37 72 38 73 39 74
REMARK SMILES IDX 40 75 41 76 67 77 68 78 77 79 69 80 70 81 76 82 78 83 71 84
REMARK SMILES IDX 72 85 73 86 74 87 75 88 51 89 52 90 61 91 53 92 54 93 60 94
REMARK SMILES IDX 62 95 55 96 56 97 57 98 58 99 59 100
REMARK H PARENT 83 50 49 61
REMARK Flexibility Score: inf
ROOT
ATOM      1  O   UNL A   1      35.369  31.926  28.470  1.00  0.00    -0.374 OA
ENDROOT
BRANCH   1   2
ATOM      2  C   UNL A   1      34.612  31.137  27.550  1.00  0.00     0.202 C 
BRANCH   2   3
ATOM      3  C   UNL A   1      34.751  29.628  27.747  1.00  0.00     0.261 C 
BRANCH   3   4
ATOM      4  O   UNL A   1      34.290  28.899  26.593  1.00  0.00    -0.460 OA
BRANCH   4   5
ATOM      5  C   UNL A   1      32.967  28.611  26.623  1.00  0.00     0.338 C 
ATOM      6  O   UNL A   1      32.269  28.558  27.624  1.00  0.00    -0.246 OA
BRANCH   5   7
ATOM      7  C   UNL A   1      32.413  28.344  25.279  1.00  0.00     0.071 A 
ATOM      8  C   UNL A   1      31.234  28.858  23.315  1.00  0.00     0.076 A 
ATOM      9  C   UNL A   1      31.586  29.238  24.595  1.00  0.00     0.045 A 
ATOM     10  N   UNL A   1      32.105  28.088  22.629  1.00  0.00    -0.247 NA
ATOM     11  C   UNL A   1      32.553  27.025  23.298  1.00  0.00     0.075 A 
ATOM     12  C   UNL A   1      32.651  27.084  24.690  1.00  0.00     0.015 A 
ATOM     13  C   UNL A   1      32.726  25.813  22.632  1.00  0.00    -0.024 A 
ATOM     14  C   UNL A   1      32.767  25.882  25.420  1.00  0.00     0.014 A 
ATOM     15  C   UNL A   1      32.754  24.621  23.372  1.00  0.00     0.009 A 
ATOM     16  C   UNL A   1      32.682  25.741  21.131  1.00  0.00     0.047 C 
ATOM     17  C   UNL A   1      32.711  24.649  24.766  1.00  0.00    -0.050 A 
ATOM     18  C   UNL A   1      32.413  23.407  25.553  1.00  0.00     0.044 C 
BRANCH   8  19
ATOM     19  C   UNL A   1      29.851  28.395  22.941  1.00  0.00     0.042 A 
ATOM     20  C   UNL A   1      28.888  29.313  22.457  1.00  0.00     0.128 A 
ATOM     21  C   UNL A   1      27.537  29.190  22.809  1.00  0.00     0.047 A 
ATOM     22  C   UNL A   1      27.100  28.086  23.532  1.00  0.00     0.004 A 
ATOM     23  C   UNL A   1      29.363  27.227  23.562  1.00  0.00     0.014 A 
ATOM     24  C   UNL A   1      28.003  27.078  23.860  1.00  0.00     0.001 A 
BRANCH  20  25
ATOM     25  O   UNL A   1      29.275  30.465  21.815  1.00  0.00    -0.493 OA
BRANCH  25  26
ATOM     26  C   UNL A   1      28.273  30.917  20.894  1.00  0.00     0.226 C 
ATOM     27  C   UNL A   1      28.030  32.405  21.077  1.00  0.00     0.049 C 
ENDBRANCH  25  26
ENDBRANCH  20  25
ENDBRANCH   8  19
ENDBRANCH   5   7
ENDBRANCH   4   5
ENDBRANCH   3   4
ENDBRANCH   2   3
ENDBRANCH   1   2
BRANCH   1  28
ATOM     28  C   UNL A   1      34.602  32.547  29.505  1.00  0.00     0.202 C 
BRANCH  28  29
ATOM     29  C   UNL A   1      35.253  32.454  30.891  1.00  0.00     0.261 C 
BRANCH  29  30
ATOM     30  O   UNL A   1      36.677  32.274  30.768  1.00  0.00    -0.460 OA
BRANCH  30  31
ATOM     31  C   UNL A   1      37.200  31.318  31.577  1.00  0.00     0.338 C 
ATOM     32  O   UNL A   1      36.747  30.932  32.639  1.00  0.00    -0.246 OA
BRANCH  31  33
ATOM     33  C   UNL A   1      38.327  30.641  30.900  1.00  0.00     0.060 A 
ATOM     34  C   UNL A   1      39.317  30.088  31.720  1.00  0.00     0.016 A 
ATOM     35  C   UNL A   1      38.455  30.593  29.509  1.00  0.00     0.016 A 
ATOM     36  C   UNL A   1      40.471  29.549  31.158  1.00  0.00     0.010 A 
ATOM     37  C   UNL A   1      39.619  30.052  28.945  1.00  0.00     0.010 A 
ATOM     38  C   UNL A   1      40.652  29.569  29.769  1.00  0.00    -0.014 A 
BRANCH  38  39
ATOM     39  C   UNL A   1      41.990  29.239  29.216  1.00  0.00     0.031 A 
ATOM     40  C   UNL A   1      42.241  27.845  28.701  1.00  0.00     0.074 A 
ATOM     41  C   UNL A   1      42.944  30.181  29.102  1.00  0.00     0.049 A 
ATOM     42  N   UNL A   1      43.314  27.347  28.144  1.00  0.00    -0.248 NA
ATOM     43  C   UNL A   1      41.131  26.887  28.830  1.00  0.00     0.031 C 
ATOM     44  C   UNL A   1      42.810  31.573  29.530  1.00  0.00     0.029 A 
ATOM     45  N   UNL A   1      44.213  30.109  28.586  1.00  0.00    -0.354 N 
ATOM     46  C   UNL A   1      43.012  26.022  27.854  1.00  0.00     0.074 A 
ATOM     47  C   UNL A   1      41.666  25.782  28.331  1.00  0.00     0.031 C 
ATOM     48  C   UNL A   1      43.956  32.224  29.262  1.00  0.00     0.029 A 
ATOM     49  C   UNL A   1      44.910  31.291  28.664  1.00  0.00     0.049 A 
ATOM     50  H   UNL A   1      44.590  29.287  28.196  1.00  0.00     0.167 HD
ATOM     51  C   UNL A   1      43.777  25.092  27.236  1.00  0.00     0.037 A 
ATOM     52  C   UNL A   1      46.176  31.584  28.304  1.00  0.00     0.037 A 
ATOM     53  C   UNL A   1      45.114  25.332  26.759  1.00  0.00     0.049 A 
ATOM     54  C   UNL A   1      47.029  30.519  27.665  1.00  0.00     0.074 A 
ATOM     55  C   UNL A   1      45.967  24.457  26.109  1.00  0.00     0.029 A 
ATOM     56  N   UNL A   1      45.795  26.533  26.885  1.00  0.00    -0.354 N 
ATOM     57  N   UNL A   1      46.720  29.276  27.380  1.00  0.00    -0.248 NA
ATOM     58  C   UNL A   1      48.400  30.897  27.292  1.00  0.00     0.031 C 
ATOM     59  C   UNL A   1      47.179  25.117  25.880  1.00  0.00     0.029 A 
ATOM     60  C   UNL A   1      47.065  26.418  26.344  1.00  0.00     0.049 A 
ATOM     61  H   UNL A   1      45.429  27.349  27.298  1.00  0.00     0.167 HD
ATOM     62  C   UNL A   1      47.849  28.732  26.774  1.00  0.00     0.074 A 
ATOM     63  C   UNL A   1      48.843  29.785  26.723  1.00  0.00     0.031 C 
ATOM     64  C   UNL A   1      48.044  27.477  26.299  1.00  0.00     0.037 A 
BRANCH  51  65
ATOM     65  C   UNL A   1      43.191  23.717  27.060  1.00  0.00     0.058 A 
ATOM     66  C   UNL A   1      42.692  23.280  25.823  1.00  0.00     0.135 A 
ATOM     67  C   UNL A   1      43.152  22.818  28.137  1.00  0.00     0.135 A 
ATOM     68  F   UNL A   1      42.690  24.107  24.764  1.00  0.00    -0.206 F 
ATOM     69  C   UNL A   1      42.147  22.010  25.667  1.00  0.00     0.059 A 
ATOM     70  C   UNL A   1      42.633  21.533  27.998  1.00  0.00     0.059 A 
ATOM     71  F   UNL A   1      43.613  23.185  29.342  1.00  0.00    -0.206 F 
ATOM     72  C   UNL A   1      42.119  21.145  26.761  1.00  0.00     0.060 A 
BRANCH  72  73
ATOM     73  S   UNL A   1      41.404  19.501  26.547  1.00  0.00     0.124 S 
ATOM     74  O   UNL A   1      42.273  18.937  25.519  1.00  0.00    -0.237 OA
ATOM     75  O   UNL A   1      41.542  18.923  27.879  1.00  0.00    -0.237 OA
ATOM     76  O   UNL A   1      40.034  19.778  26.126  1.00  0.00    -0.744 OA
ENDBRANCH  72  73
ENDBRANCH  51  65
BRANCH  52  77
ATOM     77  C   UNL A   1      46.717  32.947  28.549  1.00  0.00     0.058 A 
ATOM     78  C   UNL A   1      47.332  33.281  29.764  1.00  0.00     0.135 A 
ATOM     79  C   UNL A   1      46.632  33.943  27.564  1.00  0.00     0.135 A 
ATOM     80  F   UNL A   1      47.426  32.367  30.741  1.00  0.00    -0.206 F 
ATOM     81  C   UNL A   1      47.836  34.557  29.999  1.00  0.00     0.059 A 
ATOM     82  C   UNL A   1      47.150  35.219  27.765  1.00  0.00     0.059 A 
ATOM     83  F   UNL A   1      46.061  33.671  26.380  1.00  0.00    -0.206 F 
ATOM     84  C   UNL A   1      47.743  35.519  28.991  1.00  0.00     0.060 A 
BRANCH  84  85
ATOM     85  S   UNL A   1      48.449  37.156  29.282  1.00  0.00     0.124 S 
ATOM     86  O   UNL A   1      47.509  38.012  28.570  1.00  0.00    -0.237 OA
ATOM     87  O   UNL A   1      48.422  37.247  30.739  1.00  0.00    -0.237 OA
ATOM     88  O   UNL A   1      49.782  37.053  28.694  1.00  0.00    -0.744 OA
ENDBRANCH  84  85
ENDBRANCH  52  77
BRANCH  64  89
ATOM     89  C   UNL A   1      49.370  27.174  25.658  1.00  0.00     0.058 A 
ATOM     90  C   UNL A   1      49.584  27.359  24.283  1.00  0.00     0.135 A 
ATOM     91  C   UNL A   1      50.454  26.740  26.438  1.00  0.00     0.135 A 
ATOM     92  F   UNL A   1      48.579  27.768  23.492  1.00  0.00    -0.206 F 
ATOM     93  C   UNL A   1      50.821  27.100  23.699  1.00  0.00     0.059 A 
ATOM     94  C   UNL A   1      51.706  26.500  25.879  1.00  0.00     0.059 A 
ATOM     95  F   UNL A   1      50.307  26.559  27.760  1.00  0.00    -0.206 F 
ATOM     96  C   UNL A   1      51.876  26.670  24.507  1.00  0.00     0.060 A 
BRANCH  96  97
ATOM     97  S   UNL A   1      53.482  26.363  23.742  1.00  0.00     0.124 S 
ATOM     98  O   UNL A   1      54.128  27.664  23.880  1.00  0.00    -0.237 OA
ATOM     99  O   UNL A   1      54.027  25.293  24.572  1.00  0.00    -0.237 OA
ATOM    100  O   UNL A   1      53.138  25.974  22.377  1.00  0.00    -0.744 OA
ENDBRANCH  96  97
ENDBRANCH  64  89
ENDBRANCH  38  39
ENDBRANCH  31  33
ENDBRANCH  30  31
ENDBRANCH  29  30
ENDBRANCH  28  29
ENDBRANCH   1  28
TORSDOF 20
ENDMDL
