MODEL 1
REMARK VINA RESULT:     -10.7      0.000      0.000
REMARK SMILES CC(C)c1ccc2c(c1)c(SC(C)(C)C)c(CC(C)(C)C(=O)OCCOCCOC(=O)c1ccc(-c3c4nc(c(-c5c(F)cc(S(=O)(=O)[O-])cc5F)c5ccc([nH]5)c(-c5c(F)cc(S(=O)(=O)[O-])cc5F)c5nc(c(-c6c(F)cc(S(=O)(=O)[O-])cc6F)c6ccc3[nH]6)C=C5)C=C4)cc1)n2Cc1ccc(Cl)cc1
REMARK SMILES IDX 25 1 24 2 23 3 21 4 22 5 18 6 19 7 20 8 17 9 16 10 4 11 5 12
REMARK SMILES IDX 9 13 6 14 8 15 7 16 10 17 98 18 2 19 1 20 3 21 11 22 12 23
REMARK SMILES IDX 13 24 14 25 15 26 99 27 100 28 101 29 106 30 102 31 105 32
REMARK SMILES IDX 103 33 104 34 26 35 27 36 28 37 29 38 30 39 31 40 32 41
REMARK SMILES IDX 33 42 97 43 34 44 96 45 35 46 36 47 37 48 90 49 38 50 95 51
REMARK SMILES IDX 89 52 91 53 39 54 94 55 88 56 87 57 40 59 74 60 53 61 73 62
REMARK SMILES IDX 54 63 57 64 72 65 92 66 55 67 56 68 71 70 93 71 58 72 41 73
REMARK SMILES IDX 42 74 51 75 43 76 44 77 50 78 52 79 45 80 46 81 47 82 48 83
REMARK SMILES IDX 49 84 75 85 76 86 85 87 77 88 78 89 84 90 86 91 79 92 80 93
REMARK SMILES IDX 81 94 82 95 83 96 59 97 60 98 69 99 61 100 62 101 68 102
REMARK SMILES IDX 70 103 63 104 64 105 65 106 66 107 67 108
REMARK H PARENT 91 58 57 69
REMARK Flexibility Score: inf
ROOT
ATOM      1  C   UNL A   1      35.495  22.581  24.136  1.00  0.00     0.202 C 
ENDROOT
BRANCH   1   2
ATOM      2  C   UNL A   1      34.734  23.119  22.916  1.00  0.00     0.261 C 
BRANCH   2   3
ATOM      3  O   UNL A   1      34.304  24.454  23.124  1.00  0.00    -0.463 OA
BRANCH   3   4
ATOM      4  C   UNL A   1      33.578  24.878  22.062  1.00  0.00     0.311 C 
ATOM      5  O   UNL A   1      33.417  24.200  21.061  1.00  0.00    -0.252 OA
BRANCH   4   6
ATOM      6  C   UNL A   1      33.012  26.270  22.284  1.00  0.00     0.068 C 
ATOM      7  C   UNL A   1      31.898  26.288  21.217  1.00  0.00     0.024 C 
ATOM      8  C   UNL A   1      34.015  27.401  21.962  1.00  0.00     0.024 C 
BRANCH   6   9
ATOM      9  C   UNL A   1      32.701  26.367  23.824  1.00  0.00     0.073 C 
BRANCH   9  10
ATOM     10  C   UNL A   1      31.554  27.244  24.150  1.00  0.00     0.034 A 
ATOM     11  C   UNL A   1      28.522  30.568  23.092  1.00  0.00    -0.045 A 
ATOM     12  C   UNL A   1      27.746  29.440  22.819  1.00  0.00     0.006 A 
ATOM     13  C   UNL A   1      29.795  30.395  23.686  1.00  0.00     0.015 A 
ATOM     14  C   UNL A   1      28.210  28.154  23.100  1.00  0.00     0.027 A 
ATOM     15  C   UNL A   1      30.311  29.099  23.967  1.00  0.00     0.014 A 
ATOM     16  C   UNL A   1      29.500  28.005  23.637  1.00  0.00     0.050 A 
ATOM     17  C   UNL A   1      31.573  28.587  24.476  1.00  0.00     0.037 A 
ATOM     18  N   UNL A   1      30.230  26.862  23.917  1.00  0.00    -0.339 N 
BRANCH  11  19
ATOM     19  C   UNL A   1      28.042  31.960  22.698  1.00  0.00     0.013 C 
ATOM     20  C   UNL A   1      28.977  33.047  23.240  1.00  0.00     0.012 C 
ATOM     21  C   UNL A   1      27.883  32.122  21.181  1.00  0.00     0.012 C 
ENDBRANCH  11  19
BRANCH  17  22
ATOM     22  S   UNL A   1      32.897  29.648  24.975  1.00  0.00    -0.118 SA
BRANCH  22  23
ATOM     23  C   UNL A   1      33.346  29.778  26.786  1.00  0.00     0.012 C 
ATOM     24  C   UNL A   1      32.833  28.539  27.525  1.00  0.00     0.023 C 
ATOM     25  C   UNL A   1      34.746  30.092  27.364  1.00  0.00     0.023 C 
ATOM     26  C   UNL A   1      32.546  31.038  27.214  1.00  0.00     0.023 C 
ENDBRANCH  22  23
ENDBRANCH  17  22
BRANCH  18  27
ATOM     27  C   UNL A   1      29.608  25.532  24.117  1.00  0.00     0.158 C 
BRANCH  27  28
ATOM     28  C   UNL A   1      30.443  24.301  24.443  1.00  0.00    -0.028 A 
ATOM     29  C   UNL A   1      30.747  24.001  25.785  1.00  0.00     0.007 A 
ATOM     30  C   UNL A   1      30.844  23.372  23.463  1.00  0.00     0.007 A 
ATOM     31  C   UNL A   1      31.444  22.835  26.135  1.00  0.00     0.021 A 
ATOM     32  C   UNL A   1      31.543  22.203  23.811  1.00  0.00     0.021 A 
ATOM     33  C   UNL A   1      31.843  21.941  25.145  1.00  0.00     0.041 A 
ATOM     34  Cl  UNL A   1      32.753  20.542  25.577  1.00  0.00    -0.084 Cl
ENDBRANCH  27  28
ENDBRANCH  18  27
ENDBRANCH   9  10
ENDBRANCH   6   9
ENDBRANCH   4   6
ENDBRANCH   3   4
ENDBRANCH   2   3
ENDBRANCH   1   2
BRANCH   1  35
ATOM     35  O   UNL A   1      36.919  22.524  24.209  1.00  0.00    -0.374 OA
BRANCH  35  36
ATOM     36  C   UNL A   1      37.462  21.277  24.633  1.00  0.00     0.202 C 
BRANCH  36  37
ATOM     37  C   UNL A   1      38.307  21.266  25.904  1.00  0.00     0.261 C 
BRANCH  37  38
ATOM     38  O   UNL A   1      39.364  22.231  25.729  1.00  0.00    -0.460 OA
BRANCH  38  39
ATOM     39  C   UNL A   1      39.207  23.349  26.484  1.00  0.00     0.338 C 
ATOM     40  O   UNL A   1      38.241  23.614  27.157  1.00  0.00    -0.246 OA
BRANCH  39  41
ATOM     41  C   UNL A   1      40.540  23.992  26.598  1.00  0.00     0.060 A 
ATOM     42  C   UNL A   1      41.731  23.257  26.500  1.00  0.00     0.016 A 
ATOM     43  C   UNL A   1      40.545  25.301  27.112  1.00  0.00     0.016 A 
ATOM     44  C   UNL A   1      42.907  23.812  27.005  1.00  0.00     0.010 A 
ATOM     45  C   UNL A   1      41.719  25.844  27.635  1.00  0.00     0.010 A 
ATOM     46  C   UNL A   1      42.893  25.086  27.622  1.00  0.00    -0.014 A 
BRANCH  46  47
ATOM     47  C   UNL A   1      44.190  25.702  27.936  1.00  0.00     0.031 A 
ATOM     48  C   UNL A   1      44.343  25.709  29.412  1.00  0.00     0.074 A 
ATOM     49  C   UNL A   1      45.208  26.083  27.129  1.00  0.00     0.049 A 
ATOM     50  N   UNL A   1      44.278  26.723  30.205  1.00  0.00    -0.248 NA
ATOM     51  C   UNL A   1      44.296  24.400  30.092  1.00  0.00     0.031 C 
ATOM     52  C   UNL A   1      45.364  25.861  25.690  1.00  0.00     0.029 A 
ATOM     53  N   UNL A   1      46.393  26.697  27.461  1.00  0.00    -0.354 N 
ATOM     54  C   UNL A   1      44.431  26.185  31.477  1.00  0.00     0.074 A 
ATOM     55  C   UNL A   1      44.191  24.772  31.366  1.00  0.00     0.031 C 
ATOM     56  C   UNL A   1      46.640  26.135  25.322  1.00  0.00     0.029 A 
ATOM     57  C   UNL A   1      47.368  26.656  26.464  1.00  0.00     0.049 A 
ATOM     58  H   UNL A   1      46.540  27.131  28.332  1.00  0.00     0.167 HD
ATOM     59  C   UNL A   1      45.070  26.879  32.453  1.00  0.00     0.037 A 
ATOM     60  C   UNL A   1      48.686  26.977  26.585  1.00  0.00     0.037 A 
ATOM     61  C   UNL A   1      45.192  28.270  32.113  1.00  0.00     0.049 A 
ATOM     62  C   UNL A   1      48.818  27.883  27.750  1.00  0.00     0.074 A 
ATOM     63  C   UNL A   1      44.369  29.374  32.093  1.00  0.00     0.029 A 
ATOM     64  N   UNL A   1      46.271  28.549  31.320  1.00  0.00    -0.354 N 
ATOM     65  N   UNL A   1      48.328  29.091  27.788  1.00  0.00    -0.248 NA
ATOM     66  C   UNL A   1      49.253  27.342  29.034  1.00  0.00     0.031 C 
ATOM     67  C   UNL A   1      44.930  30.276  31.140  1.00  0.00     0.029 A 
ATOM     68  C   UNL A   1      46.095  29.715  30.625  1.00  0.00     0.049 A 
ATOM     69  H   UNL A   1      47.074  27.982  31.258  1.00  0.00     0.167 HD
ATOM     70  C   UNL A   1      48.000  29.280  29.113  1.00  0.00     0.074 A 
ATOM     71  C   UNL A   1      48.743  28.267  29.849  1.00  0.00     0.031 C 
ATOM     72  C   UNL A   1      46.902  30.007  29.461  1.00  0.00     0.037 A 
BRANCH  59  73
ATOM     73  C   UNL A   1      46.002  26.219  33.440  1.00  0.00     0.058 A 
ATOM     74  C   UNL A   1      47.166  25.579  32.977  1.00  0.00     0.135 A 
ATOM     75  C   UNL A   1      45.658  25.960  34.789  1.00  0.00     0.135 A 
ATOM     76  F   UNL A   1      47.554  25.714  31.699  1.00  0.00    -0.206 F 
ATOM     77  C   UNL A   1      47.926  24.739  33.793  1.00  0.00     0.059 A 
ATOM     78  C   UNL A   1      46.432  25.180  35.634  1.00  0.00     0.059 A 
ATOM     79  F   UNL A   1      44.500  26.368  35.322  1.00  0.00    -0.206 F 
ATOM     80  C   UNL A   1      47.551  24.550  35.122  1.00  0.00     0.060 A 
BRANCH  80  81
ATOM     81  S   UNL A   1      48.506  23.439  36.168  1.00  0.00     0.124 S 
ATOM     82  O   UNL A   1      49.569  23.023  35.262  1.00  0.00    -0.237 OA
ATOM     83  O   UNL A   1      48.902  24.322  37.260  1.00  0.00    -0.237 OA
ATOM     84  O   UNL A   1      47.540  22.404  36.528  1.00  0.00    -0.744 OA
ENDBRANCH  80  81
ENDBRANCH  59  73
BRANCH  60  85
ATOM     85  C   UNL A   1      49.894  26.345  25.974  1.00  0.00     0.058 A 
ATOM     86  C   UNL A   1      50.548  26.949  24.877  1.00  0.00     0.135 A 
ATOM     87  C   UNL A   1      50.626  25.356  26.654  1.00  0.00     0.135 A 
ATOM     88  F   UNL A   1      49.928  27.896  24.157  1.00  0.00    -0.206 F 
ATOM     89  C   UNL A   1      51.880  26.670  24.549  1.00  0.00     0.059 A 
ATOM     90  C   UNL A   1      51.952  25.053  26.339  1.00  0.00     0.059 A 
ATOM     91  F   UNL A   1      50.108  24.723  27.717  1.00  0.00    -0.206 F 
ATOM     92  C   UNL A   1      52.587  25.746  25.314  1.00  0.00     0.060 A 
BRANCH  92  93
ATOM     93  S   UNL A   1      54.370  25.564  25.058  1.00  0.00     0.124 S 
ATOM     94  O   UNL A   1      54.546  26.132  23.726  1.00  0.00    -0.237 OA
ATOM     95  O   UNL A   1      54.919  26.346  26.161  1.00  0.00    -0.237 OA
ATOM     96  O   UNL A   1      54.580  24.121  25.156  1.00  0.00    -0.744 OA
ENDBRANCH  92  93
ENDBRANCH  60  85
BRANCH  72  97
ATOM     97  C   UNL A   1      46.452  31.079  28.516  1.00  0.00     0.058 A 
ATOM     98  C   UNL A   1      46.954  32.391  28.471  1.00  0.00     0.135 A 
ATOM     99  C   UNL A   1      45.484  30.725  27.564  1.00  0.00     0.135 A 
ATOM    100  F   UNL A   1      47.933  32.784  29.300  1.00  0.00    -0.206 F 
ATOM    101  C   UNL A   1      46.483  33.318  27.539  1.00  0.00     0.059 A 
ATOM    102  C   UNL A   1      45.024  31.620  26.608  1.00  0.00     0.059 A 
ATOM    103  F   UNL A   1      44.994  29.474  27.537  1.00  0.00    -0.206 F 
ATOM    104  C   UNL A   1      45.518  32.922  26.609  1.00  0.00     0.060 A 
BRANCH 104 105
ATOM    105  S   UNL A   1      44.945  34.101  25.367  1.00  0.00     0.124 S 
ATOM    106  O   UNL A   1      46.192  34.722  24.933  1.00  0.00    -0.237 OA
ATOM    107  O   UNL A   1      44.292  33.234  24.392  1.00  0.00    -0.237 OA
ATOM    108  O   UNL A   1      44.042  34.974  26.116  1.00  0.00    -0.744 OA
ENDBRANCH 104 105
ENDBRANCH  72  97
ENDBRANCH  46  47
ENDBRANCH  39  41
ENDBRANCH  38  39
ENDBRANCH  37  38
ENDBRANCH  36  37
ENDBRANCH  35  36
ENDBRANCH   1  35
TORSDOF 24
ENDMDL
MODEL 2
REMARK VINA RESULT:     -10.4      3.744      5.344
REMARK SMILES CC(C)c1ccc2c(c1)c(SC(C)(C)C)c(CC(C)(C)C(=O)OCCOCCOC(=O)c1ccc(-c3c4nc(c(-c5c(F)cc(S(=O)(=O)[O-])cc5F)c5ccc([nH]5)c(-c5c(F)cc(S(=O)(=O)[O-])cc5F)c5nc(c(-c6c(F)cc(S(=O)(=O)[O-])cc6F)c6ccc3[nH]6)C=C5)C=C4)cc1)n2Cc1ccc(Cl)cc1
REMARK SMILES IDX 25 1 24 2 23 3 21 4 22 5 18 6 19 7 20 8 17 9 16 10 4 11 5 12
REMARK SMILES IDX 9 13 6 14 8 15 7 16 10 17 98 18 2 19 1 20 3 21 11 22 12 23
REMARK SMILES IDX 13 24 14 25 15 26 99 27 100 28 101 29 106 30 102 31 105 32
REMARK SMILES IDX 103 33 104 34 26 35 27 36 28 37 29 38 30 39 31 40 32 41
REMARK SMILES IDX 33 42 97 43 34 44 96 45 35 46 36 47 37 48 90 49 38 50 95 51
REMARK SMILES IDX 89 52 91 53 39 54 94 55 88 56 87 57 40 59 74 60 53 61 73 62
REMARK SMILES IDX 54 63 57 64 72 65 92 66 55 67 56 68 71 70 93 71 58 72 41 73
REMARK SMILES IDX 42 74 51 75 43 76 44 77 50 78 52 79 45 80 46 81 47 82 48 83
REMARK SMILES IDX 49 84 75 85 76 86 85 87 77 88 78 89 84 90 86 91 79 92 80 93
REMARK SMILES IDX 81 94 82 95 83 96 59 97 60 98 69 99 61 100 62 101 68 102
REMARK SMILES IDX 70 103 63 104 64 105 65 106 66 107 67 108
REMARK H PARENT 91 58 57 69
REMARK Flexibility Score: inf
ROOT
ATOM      1  C   UNL A   1      36.120  22.725  24.380  1.00  0.00     0.202 C 
ENDROOT
BRANCH   1   2
ATOM      2  C   UNL A   1      34.765  23.104  23.763  1.00  0.00     0.261 C 
BRANCH   2   3
ATOM      3  O   UNL A   1      34.763  24.448  23.312  1.00  0.00    -0.463 OA
BRANCH   3   4
ATOM      4  C   UNL A   1      33.793  24.623  22.383  1.00  0.00     0.311 C 
ATOM      5  O   UNL A   1      33.500  23.765  21.567  1.00  0.00    -0.252 OA
BRANCH   4   6
ATOM      6  C   UNL A   1      33.143  25.991  22.495  1.00  0.00     0.068 C 
ATOM      7  C   UNL A   1      32.017  25.847  21.451  1.00  0.00     0.024 C 
ATOM      8  C   UNL A   1      34.069  27.150  22.059  1.00  0.00     0.024 C 
BRANCH   6   9
ATOM      9  C   UNL A   1      32.846  26.201  24.026  1.00  0.00     0.073 C 
BRANCH   9  10
ATOM     10  C   UNL A   1      31.679  27.070  24.297  1.00  0.00     0.034 A 
ATOM     11  C   UNL A   1      28.533  30.204  23.014  1.00  0.00    -0.045 A 
ATOM     12  C   UNL A   1      27.787  29.035  22.851  1.00  0.00     0.006 A 
ATOM     13  C   UNL A   1      29.819  30.119  23.598  1.00  0.00     0.015 A 
ATOM     14  C   UNL A   1      28.293  27.791  23.232  1.00  0.00     0.027 A 
ATOM     15  C   UNL A   1      30.378  28.866  23.979  1.00  0.00     0.014 A 
ATOM     16  C   UNL A   1      29.595  27.725  23.757  1.00  0.00     0.050 A 
ATOM     17  C   UNL A   1      31.662  28.436  24.507  1.00  0.00     0.037 A 
ATOM     18  N   UNL A   1      30.363  26.631  24.121  1.00  0.00    -0.339 N 
BRANCH  11  19
ATOM     19  C   UNL A   1      28.005  31.542  22.512  1.00  0.00     0.013 C 
ATOM     20  C   UNL A   1      28.779  32.714  23.128  1.00  0.00     0.012 C 
ATOM     21  C   UNL A   1      28.032  31.651  20.981  1.00  0.00     0.012 C 
ENDBRANCH  11  19
BRANCH  17  22
ATOM     22  S   UNL A   1      32.961  29.573  24.891  1.00  0.00    -0.118 SA
BRANCH  22  23
ATOM     23  C   UNL A   1      33.228  30.110  26.663  1.00  0.00     0.012 C 
ATOM     24  C   UNL A   1      34.679  29.830  27.063  1.00  0.00     0.023 C 
ATOM     25  C   UNL A   1      32.854  31.481  27.272  1.00  0.00     0.023 C 
ATOM     26  C   UNL A   1      32.260  29.161  27.421  1.00  0.00     0.023 C 
ENDBRANCH  22  23
ENDBRANCH  17  22
BRANCH  18  27
ATOM     27  C   UNL A   1      29.784  25.306  24.444  1.00  0.00     0.158 C 
BRANCH  27  28
ATOM     28  C   UNL A   1      30.614  24.212  25.102  1.00  0.00    -0.028 A 
ATOM     29  C   UNL A   1      31.059  23.119  24.334  1.00  0.00     0.007 A 
ATOM     30  C   UNL A   1      31.060  24.293  26.436  1.00  0.00     0.007 A 
ATOM     31  C   UNL A   1      31.893  22.131  24.880  1.00  0.00     0.021 A 
ATOM     32  C   UNL A   1      31.895  23.304  26.985  1.00  0.00     0.021 A 
ATOM     33  C   UNL A   1      32.304  22.226  26.206  1.00  0.00     0.041 A 
ATOM     34  Cl  UNL A   1      33.278  20.977  26.887  1.00  0.00    -0.084 Cl
ENDBRANCH  27  28
ENDBRANCH  18  27
ENDBRANCH   9  10
ENDBRANCH   6   9
ENDBRANCH   4   6
ENDBRANCH   3   4
ENDBRANCH   2   3
ENDBRANCH   1   2
BRANCH   1  35
ATOM     35  O   UNL A   1      36.592  21.381  24.468  1.00  0.00    -0.374 OA
BRANCH  35  36
ATOM     36  C   UNL A   1      37.776  21.196  25.239  1.00  0.00     0.202 C 
BRANCH  36  37
ATOM     37  C   UNL A   1      38.535  22.443  25.684  1.00  0.00     0.261 C 
BRANCH  37  38
ATOM     38  O   UNL A   1      39.417  22.052  26.757  1.00  0.00    -0.460 OA
BRANCH  38  39
ATOM     39  C   UNL A   1      40.733  22.184  26.452  1.00  0.00     0.338 C 
ATOM     40  O   UNL A   1      41.381  21.416  25.782  1.00  0.00    -0.246 OA
BRANCH  39  41
ATOM     41  C   UNL A   1      41.126  23.574  26.792  1.00  0.00     0.060 A 
ATOM     42  C   UNL A   1      42.397  24.083  26.486  1.00  0.00     0.016 A 
ATOM     43  C   UNL A   1      40.285  24.243  27.699  1.00  0.00     0.016 A 
ATOM     44  C   UNL A   1      42.849  25.214  27.164  1.00  0.00     0.010 A 
ATOM     45  C   UNL A   1      40.749  25.362  28.391  1.00  0.00     0.010 A 
ATOM     46  C   UNL A   1      42.046  25.826  28.157  1.00  0.00    -0.014 A 
BRANCH  46  47
ATOM     47  C   UNL A   1      42.485  27.128  28.677  1.00  0.00     0.031 A 
ATOM     48  C   UNL A   1      43.028  26.913  30.041  1.00  0.00     0.074 A 
ATOM     49  C   UNL A   1      42.579  28.337  28.074  1.00  0.00     0.049 A 
ATOM     50  N   UNL A   1      42.492  27.252  31.164  1.00  0.00    -0.248 NA
ATOM     51  C   UNL A   1      44.163  25.980  30.165  1.00  0.00     0.031 C 
ATOM     52  C   UNL A   1      42.393  28.667  26.659  1.00  0.00     0.029 A 
ATOM     53  N   UNL A   1      42.956  29.546  28.610  1.00  0.00    -0.354 N 
ATOM     54  C   UNL A   1      43.370  26.775  32.130  1.00  0.00     0.074 A 
ATOM     55  C   UNL A   1      44.220  25.813  31.485  1.00  0.00     0.031 C 
ATOM     56  C   UNL A   1      42.858  29.917  26.417  1.00  0.00     0.029 A 
ATOM     57  C   UNL A   1      43.273  30.525  27.668  1.00  0.00     0.049 A 
ATOM     58  H   UNL A   1      42.997  29.707  29.580  1.00  0.00     0.167 HD
ATOM     59  C   UNL A   1      43.553  27.448  33.295  1.00  0.00     0.037 A 
ATOM     60  C   UNL A   1      43.880  31.723  27.896  1.00  0.00     0.037 A 
ATOM     61  C   UNL A   1      42.507  28.409  33.516  1.00  0.00     0.049 A 
ATOM     62  C   UNL A   1      43.657  32.071  29.319  1.00  0.00     0.074 A 
ATOM     63  C   UNL A   1      41.193  28.385  33.926  1.00  0.00     0.029 A 
ATOM     64  N   UNL A   1      42.717  29.604  32.885  1.00  0.00    -0.354 N 
ATOM     65  N   UNL A   1      42.489  32.356  29.822  1.00  0.00    -0.248 NA
ATOM     66  C   UNL A   1      44.713  31.813  30.294  1.00  0.00     0.031 C 
ATOM     67  C   UNL A   1      40.583  29.558  33.391  1.00  0.00     0.029 A 
ATOM     68  C   UNL A   1      41.545  30.284  32.693  1.00  0.00     0.049 A 
ATOM     69  H   UNL A   1      43.602  29.935  32.605  1.00  0.00     0.167 HD
ATOM     70  C   UNL A   1      42.559  31.896  31.119  1.00  0.00     0.074 A 
ATOM     71  C   UNL A   1      43.978  31.744  31.405  1.00  0.00     0.031 C 
ATOM     72  C   UNL A   1      41.465  31.357  31.727  1.00  0.00     0.037 A 
BRANCH  59  73
ATOM     73  C   UNL A   1      44.908  27.586  33.946  1.00  0.00     0.058 A 
ATOM     74  C   UNL A   1      45.052  27.310  35.317  1.00  0.00     0.135 A 
ATOM     75  C   UNL A   1      46.008  28.236  33.334  1.00  0.00     0.135 A 
ATOM     76  F   UNL A   1      44.049  26.744  36.006  1.00  0.00    -0.206 F 
ATOM     77  C   UNL A   1      46.201  27.661  36.029  1.00  0.00     0.059 A 
ATOM     78  C   UNL A   1      47.182  28.536  34.007  1.00  0.00     0.059 A 
ATOM     79  F   UNL A   1      45.955  28.702  32.081  1.00  0.00    -0.206 F 
ATOM     80  C   UNL A   1      47.263  28.270  35.361  1.00  0.00     0.060 A 
BRANCH  80  81
ATOM     81  S   UNL A   1      48.731  28.758  36.280  1.00  0.00     0.124 S 
ATOM     82  O   UNL A   1      49.648  27.668  35.968  1.00  0.00    -0.237 OA
ATOM     83  O   UNL A   1      49.044  30.051  35.679  1.00  0.00    -0.237 OA
ATOM     84  O   UNL A   1      48.261  28.815  37.661  1.00  0.00    -0.744 OA
ENDBRANCH  80  81
ENDBRANCH  59  73
BRANCH  60  85
ATOM     85  C   UNL A   1      44.890  32.465  27.082  1.00  0.00     0.058 A 
ATOM     86  C   UNL A   1      44.725  33.840  26.805  1.00  0.00     0.135 A 
ATOM     87  C   UNL A   1      46.179  31.947  26.867  1.00  0.00     0.135 A 
ATOM     88  F   UNL A   1      43.529  34.425  26.969  1.00  0.00    -0.206 F 
ATOM     89  C   UNL A   1      45.795  34.669  26.449  1.00  0.00     0.059 A 
ATOM     90  C   UNL A   1      47.260  32.751  26.501  1.00  0.00     0.059 A 
ATOM     91  F   UNL A   1      46.453  30.656  27.107  1.00  0.00    -0.206 F 
ATOM     92  C   UNL A   1      47.070  34.119  26.338  1.00  0.00     0.060 A 
BRANCH  92  93
ATOM     93  S   UNL A   1      48.493  35.219  26.124  1.00  0.00     0.124 S 
ATOM     94  O   UNL A   1      47.859  36.532  26.080  1.00  0.00    -0.237 OA
ATOM     95  O   UNL A   1      49.282  34.933  27.318  1.00  0.00    -0.237 OA
ATOM     96  O   UNL A   1      49.083  34.767  24.867  1.00  0.00    -0.744 OA
ENDBRANCH  92  93
ENDBRANCH  60  85
BRANCH  72  97
ATOM     97  C   UNL A   1      40.117  31.824  31.269  1.00  0.00     0.058 A 
ATOM     98  C   UNL A   1      39.397  31.299  30.182  1.00  0.00     0.135 A 
ATOM     99  C   UNL A   1      39.504  32.838  32.022  1.00  0.00     0.135 A 
ATOM    100  F   UNL A   1      39.884  30.280  29.459  1.00  0.00    -0.206 F 
ATOM    101  C   UNL A   1      38.135  31.791  29.841  1.00  0.00     0.059 A 
ATOM    102  C   UNL A   1      38.238  33.319  31.720  1.00  0.00     0.059 A 
ATOM    103  F   UNL A   1      40.131  33.353  33.092  1.00  0.00    -0.206 F 
ATOM    104  C   UNL A   1      37.562  32.801  30.619  1.00  0.00     0.060 A 
BRANCH 104 105
ATOM    105  S   UNL A   1      35.909  33.402  30.215  1.00  0.00     0.124 S 
ATOM    106  O   UNL A   1      35.586  34.223  31.378  1.00  0.00    -0.237 OA
ATOM    107  O   UNL A   1      36.135  34.125  28.968  1.00  0.00    -0.237 OA
ATOM    108  O   UNL A   1      35.122  32.177  30.081  1.00  0.00    -0.744 OA
ENDBRANCH 104 105
ENDBRANCH  72  97
ENDBRANCH  46  47
ENDBRANCH  39  41
ENDBRANCH  38  39
ENDBRANCH  37  38
ENDBRANCH  36  37
ENDBRANCH  35  36
ENDBRANCH   1  35
TORSDOF 24
ENDMDL
MODEL 3
REMARK VINA RESULT:      -9.5      7.305     14.787
REMARK SMILES CC(C)c1ccc2c(c1)c(SC(C)(C)C)c(CC(C)(C)C(=O)OCCOCCOC(=O)c1ccc(-c3c4nc(c(-c5c(F)cc(S(=O)(=O)[O-])cc5F)c5ccc([nH]5)c(-c5c(F)cc(S(=O)(=O)[O-])cc5F)c5nc(c(-c6c(F)cc(S(=O)(=O)[O-])cc6F)c6ccc3[nH]6)C=C5)C=C4)cc1)n2Cc1ccc(Cl)cc1
REMARK SMILES IDX 25 1 24 2 23 3 21 4 22 5 18 6 19 7 20 8 17 9 16 10 4 11 5 12
REMARK SMILES IDX 9 13 6 14 8 15 7 16 10 17 98 18 2 19 1 20 3 21 11 22 12 23
REMARK SMILES IDX 13 24 14 25 15 26 99 27 100 28 101 29 106 30 102 31 105 32
REMARK SMILES IDX 103 33 104 34 26 35 27 36 28 37 29 38 30 39 31 40 32 41
REMARK SMILES IDX 33 42 97 43 34 44 96 45 35 46 36 47 37 48 90 49 38 50 95 51
REMARK SMILES IDX 89 52 91 53 39 54 94 55 88 56 87 57 40 59 74 60 53 61 73 62
REMARK SMILES IDX 54 63 57 64 72 65 92 66 55 67 56 68 71 70 93 71 58 72 41 73
REMARK SMILES IDX 42 74 51 75 43 76 44 77 50 78 52 79 45 80 46 81 47 82 48 83
REMARK SMILES IDX 49 84 75 85 76 86 85 87 77 88 78 89 84 90 86 91 79 92 80 93
REMARK SMILES IDX 81 94 82 95 83 96 59 97 60 98 69 99 61 100 62 101 68 102
REMARK SMILES IDX 70 103 63 104 64 105 65 106 66 107 67 108
REMARK H PARENT 91 58 57 69
REMARK Flexibility Score: inf
ROOT
ATOM      1  C   UNL A   1      43.452  41.414  34.119  1.00  0.00     0.202 C 
ENDROOT
BRANCH   1   2
ATOM      2  C   UNL A   1      42.784  42.616  33.434  1.00  0.00     0.261 C 
BRANCH   2   3
ATOM      3  O   UNL A   1      42.228  42.251  32.182  1.00  0.00    -0.463 OA
BRANCH   3   4
ATOM      4  C   UNL A   1      43.199  42.203  31.239  1.00  0.00     0.311 C 
ATOM      5  O   UNL A   1      44.080  43.043  31.158  1.00  0.00    -0.252 OA
BRANCH   4   6
ATOM      6  C   UNL A   1      43.043  40.999  30.327  1.00  0.00     0.068 C 
ATOM      7  C   UNL A   1      41.507  40.959  30.185  1.00  0.00     0.024 C 
ATOM      8  C   UNL A   1      43.509  39.674  30.973  1.00  0.00     0.024 C 
BRANCH   6   9
ATOM      9  C   UNL A   1      43.992  41.262  29.101  1.00  0.00     0.073 C 
BRANCH   9  10
ATOM     10  C   UNL A   1      44.122  40.108  28.183  1.00  0.00     0.034 A 
ATOM     11  C   UNL A   1      43.899  35.586  27.250  1.00  0.00    -0.045 A 
ATOM     12  C   UNL A   1      42.653  35.992  26.769  1.00  0.00     0.006 A 
ATOM     13  C   UNL A   1      44.818  36.571  27.686  1.00  0.00     0.015 A 
ATOM     14  C   UNL A   1      42.292  37.340  26.731  1.00  0.00     0.027 A 
ATOM     15  C   UNL A   1      44.479  37.953  27.683  1.00  0.00     0.014 A 
ATOM     16  C   UNL A   1      43.199  38.294  27.222  1.00  0.00     0.050 A 
ATOM     17  C   UNL A   1      45.136  39.170  28.129  1.00  0.00     0.037 A 
ATOM     18  N   UNL A   1      43.063  39.663  27.387  1.00  0.00    -0.339 N 
BRANCH  11  19
ATOM     19  C   UNL A   1      44.246  34.107  27.370  1.00  0.00     0.013 C 
ATOM     20  C   UNL A   1      44.065  33.381  26.032  1.00  0.00     0.012 C 
ATOM     21  C   UNL A   1      45.667  33.876  27.899  1.00  0.00     0.012 C 
ENDBRANCH  11  19
BRANCH  17  22
ATOM     22  S   UNL A   1      46.764  39.172  28.820  1.00  0.00    -0.118 SA
BRANCH  22  23
ATOM     23  C   UNL A   1      48.201  39.800  27.801  1.00  0.00     0.012 C 
ATOM     24  C   UNL A   1      47.975  41.275  27.463  1.00  0.00     0.023 C 
ATOM     25  C   UNL A   1      49.702  39.645  28.138  1.00  0.00     0.023 C 
ATOM     26  C   UNL A   1      48.080  38.923  26.524  1.00  0.00     0.023 C 
ENDBRANCH  22  23
ENDBRANCH  17  22
BRANCH  18  27
ATOM     27  C   UNL A   1      42.063  40.472  26.650  1.00  0.00     0.158 C 
BRANCH  27  28
ATOM     28  C   UNL A   1      42.453  41.320  25.448  1.00  0.00    -0.028 A 
ATOM     29  C   UNL A   1      41.538  41.496  24.392  1.00  0.00     0.007 A 
ATOM     30  C   UNL A   1      43.662  42.040  25.384  1.00  0.00     0.007 A 
ATOM     31  C   UNL A   1      41.825  42.334  23.305  1.00  0.00     0.021 A 
ATOM     32  C   UNL A   1      43.953  42.881  24.295  1.00  0.00     0.021 A 
ATOM     33  C   UNL A   1      43.035  43.021  23.259  1.00  0.00     0.041 A 
ATOM     34  Cl  UNL A   1      43.407  44.000  21.890  1.00  0.00    -0.084 Cl
ENDBRANCH  27  28
ENDBRANCH  18  27
ENDBRANCH   9  10
ENDBRANCH   6   9
ENDBRANCH   4   6
ENDBRANCH   3   4
ENDBRANCH   2   3
ENDBRANCH   1   2
BRANCH   1  35
ATOM     35  O   UNL A   1      44.623  41.525  34.927  1.00  0.00    -0.374 OA
BRANCH  35  36
ATOM     36  C   UNL A   1      45.766  40.820  34.451  1.00  0.00     0.202 C 
BRANCH  36  37
ATOM     37  C   UNL A   1      45.763  39.298  34.569  1.00  0.00     0.261 C 
BRANCH  37  38
ATOM     38  O   UNL A   1      46.056  38.763  33.262  1.00  0.00    -0.460 OA
BRANCH  38  39
ATOM     39  C   UNL A   1      47.099  37.894  33.254  1.00  0.00     0.338 C 
ATOM     40  O   UNL A   1      48.169  38.073  33.784  1.00  0.00    -0.246 OA
BRANCH  39  41
ATOM     41  C   UNL A   1      46.577  36.585  32.786  1.00  0.00     0.060 A 
ATOM     42  C   UNL A   1      46.270  36.348  31.438  1.00  0.00     0.016 A 
ATOM     43  C   UNL A   1      46.120  35.716  33.791  1.00  0.00     0.016 A 
ATOM     44  C   UNL A   1      45.426  35.284  31.119  1.00  0.00     0.010 A 
ATOM     45  C   UNL A   1      45.259  34.665  33.470  1.00  0.00     0.010 A 
ATOM     46  C   UNL A   1      44.876  34.471  32.140  1.00  0.00    -0.014 A 
BRANCH  46  47
ATOM     47  C   UNL A   1      44.175  33.247  31.729  1.00  0.00     0.031 A 
ATOM     48  C   UNL A   1      42.722  33.544  31.698  1.00  0.00     0.074 A 
ATOM     49  C   UNL A   1      44.652  32.061  31.284  1.00  0.00     0.049 A 
ATOM     50  N   UNL A   1      41.818  33.140  32.524  1.00  0.00    -0.248 NA
ATOM     51  C   UNL A   1      42.284  34.630  30.800  1.00  0.00     0.031 C 
ATOM     52  C   UNL A   1      46.031  31.699  30.949  1.00  0.00     0.029 A 
ATOM     53  N   UNL A   1      43.961  30.920  30.948  1.00  0.00    -0.354 N 
ATOM     54  C   UNL A   1      40.645  33.741  32.083  1.00  0.00     0.074 A 
ATOM     55  C   UNL A   1      41.028  34.810  31.203  1.00  0.00     0.031 C 
ATOM     56  C   UNL A   1      46.044  30.526  30.271  1.00  0.00     0.029 A 
ATOM     57  C   UNL A   1      44.696  29.990  30.213  1.00  0.00     0.049 A 
ATOM     58  H   UNL A   1      43.023  30.772  31.208  1.00  0.00     0.167 HD
ATOM     59  C   UNL A   1      39.451  33.107  32.206  1.00  0.00     0.037 A 
ATOM     60  C   UNL A   1      44.222  28.891  29.563  1.00  0.00     0.037 A 
ATOM     61  C   UNL A   1      39.532  32.010  33.130  1.00  0.00     0.049 A 
ATOM     62  C   UNL A   1      42.932  28.524  30.193  1.00  0.00     0.074 A 
ATOM     63  C   UNL A   1      39.572  31.850  34.497  1.00  0.00     0.029 A 
ATOM     64  N   UNL A   1      39.997  30.853  32.569  1.00  0.00    -0.354 N 
ATOM     65  N   UNL A   1      42.822  28.079  31.413  1.00  0.00    -0.248 NA
ATOM     66  C   UNL A   1      41.683  28.934  29.559  1.00  0.00     0.031 C 
ATOM     67  C   UNL A   1      40.215  30.599  34.737  1.00  0.00     0.029 A 
ATOM     68  C   UNL A   1      40.524  30.013  33.513  1.00  0.00     0.049 A 
ATOM     69  H   UNL A   1      39.958  30.649  31.606  1.00  0.00     0.167 HD
ATOM     70  C   UNL A   1      41.598  28.551  31.835  1.00  0.00     0.074 A 
ATOM     71  C   UNL A   1      40.875  28.905  30.621  1.00  0.00     0.031 C 
ATOM     72  C   UNL A   1      41.407  28.934  33.129  1.00  0.00     0.037 A 
BRANCH  59  73
ATOM     73  C   UNL A   1      38.389  33.166  31.135  1.00  0.00     0.058 A 
ATOM     74  C   UNL A   1      37.124  33.699  31.438  1.00  0.00     0.135 A 
ATOM     75  C   UNL A   1      38.481  32.474  29.903  1.00  0.00     0.135 A 
ATOM     76  F   UNL A   1      36.913  34.329  32.604  1.00  0.00    -0.206 F 
ATOM     77  C   UNL A   1      36.030  33.549  30.583  1.00  0.00     0.059 A 
ATOM     78  C   UNL A   1      37.426  32.368  29.010  1.00  0.00     0.059 A 
ATOM     79  F   UNL A   1      39.571  31.781  29.552  1.00  0.00    -0.206 F 
ATOM     80  C   UNL A   1      36.194  32.885  29.368  1.00  0.00     0.060 A 
BRANCH  80  81
ATOM     81  S   UNL A   1      34.780  32.656  28.279  1.00  0.00     0.124 S 
ATOM     82  O   UNL A   1      34.968  33.740  27.322  1.00  0.00    -0.237 OA
ATOM     83  O   UNL A   1      35.009  31.307  27.772  1.00  0.00    -0.237 OA
ATOM     84  O   UNL A   1      33.638  32.795  29.177  1.00  0.00    -0.744 OA
ENDBRANCH  80  81
ENDBRANCH  59  73
BRANCH  60  85
ATOM     85  C   UNL A   1      44.625  28.295  28.253  1.00  0.00     0.058 A 
ATOM     86  C   UNL A   1      44.718  29.096  27.094  1.00  0.00     0.135 A 
ATOM     87  C   UNL A   1      45.255  27.040  28.183  1.00  0.00     0.135 A 
ATOM     88  F   UNL A   1      44.139  30.306  27.058  1.00  0.00    -0.206 F 
ATOM     89  C   UNL A   1      45.482  28.723  25.982  1.00  0.00     0.059 A 
ATOM     90  C   UNL A   1      46.014  26.641  27.082  1.00  0.00     0.059 A 
ATOM     91  F   UNL A   1      45.239  26.201  29.230  1.00  0.00    -0.206 F 
ATOM     92  C   UNL A   1      46.161  27.507  26.003  1.00  0.00     0.060 A 
BRANCH  92  93
ATOM     93  S   UNL A   1      47.345  27.130  24.685  1.00  0.00     0.124 S 
ATOM     94  O   UNL A   1      48.617  27.180  25.397  1.00  0.00    -0.237 OA
ATOM     95  O   UNL A   1      46.908  25.807  24.251  1.00  0.00    -0.237 OA
ATOM     96  O   UNL A   1      47.127  28.204  23.719  1.00  0.00    -0.744 OA
ENDBRANCH  92  93
ENDBRANCH  60  85
BRANCH  72  97
ATOM     97  C   UNL A   1      42.253  28.278  34.177  1.00  0.00     0.058 A 
ATOM     98  C   UNL A   1      43.467  28.779  34.677  1.00  0.00     0.135 A 
ATOM     99  C   UNL A   1      41.763  27.089  34.739  1.00  0.00     0.135 A 
ATOM    100  F   UNL A   1      43.964  29.947  34.242  1.00  0.00    -0.206 F 
ATOM    101  C   UNL A   1      44.178  28.102  35.671  1.00  0.00     0.059 A 
ATOM    102  C   UNL A   1      42.437  26.417  35.750  1.00  0.00     0.059 A 
ATOM    103  F   UNL A   1      40.590  26.583  34.325  1.00  0.00    -0.206 F 
ATOM    104  C   UNL A   1      43.653  26.922  36.203  1.00  0.00     0.060 A 
BRANCH 104 105
ATOM    105  S   UNL A   1      44.541  26.072  37.525  1.00  0.00     0.124 S 
ATOM    106  O   UNL A   1      44.441  24.675  37.116  1.00  0.00    -0.237 OA
ATOM    107  O   UNL A   1      45.870  26.667  37.441  1.00  0.00    -0.237 OA
ATOM    108  O   UNL A   1      43.785  26.423  38.726  1.00  0.00    -0.744 OA
ENDBRANCH 104 105
ENDBRANCH  72  97
ENDBRANCH  46  47
ENDBRANCH  39  41
ENDBRANCH  38  39
ENDBRANCH  37  38
ENDBRANCH  36  37
ENDBRANCH  35  36
ENDBRANCH   1  35
TORSDOF 24
ENDMDL
