MODEL 1
REMARK VINA RESULT:     -10.5      0.000      0.000
REMARK SMILES CC(C)[C@H](CO)Nc1ccc(C(F)(F)F)cc1C(=O)OCCOCCOC(=O)c1ccc(-c2c3nc(c(-c4c(F)cc(S(=O)(=O)[O-])cc4F)c4ccc([nH]4)c(-c4c(F)cc(S(=O)(=O)[O-])cc4F)c4nc(c(-c5c(F)cc(S(=O)(=O)[O-])cc5F)c5ccc2[nH]5)C=C4)C=C3)cc1
REMARK SMILES IDX 22 1 21 2 20 3 18 4 19 5 17 6 8 7 9 8 10 9 16 10 11 11 7 12
REMARK SMILES IDX 4 14 2 15 1 16 3 17 5 18 6 19 12 21 13 22 14 23 15 24 23 25
REMARK SMILES IDX 24 26 25 27 26 28 27 29 28 30 29 31 30 32 94 33 31 34 93 35
REMARK SMILES IDX 32 36 33 37 34 38 87 39 35 40 92 41 86 42 88 43 36 44 91 45
REMARK SMILES IDX 85 46 84 47 37 49 71 50 50 51 70 52 51 53 54 54 69 55 89 56
REMARK SMILES IDX 52 57 53 58 68 60 90 61 55 62 38 63 39 64 48 65 40 66 41 67
REMARK SMILES IDX 47 68 49 69 42 70 43 71 44 72 45 73 46 74 72 75 73 76 82 77
REMARK SMILES IDX 74 78 75 79 81 80 83 81 76 82 77 83 78 84 79 85 80 86 56 87
REMARK SMILES IDX 57 88 66 89 58 90 59 91 65 92 67 93 60 94 61 95 62 96 63 97
REMARK SMILES IDX 64 98
REMARK H PARENT 7 13 6 20 88 48 54 59
REMARK Flexibility Score: inf
ROOT
ATOM      1  C   UNL A   1      38.279  22.901  25.788  1.00  0.00     0.202 C 
ENDROOT
BRANCH   1   2
ATOM      2  C   UNL A   1      36.917  22.843  25.103  1.00  0.00     0.261 C 
BRANCH   2   3
ATOM      3  O   UNL A   1      36.389  21.518  25.283  1.00  0.00    -0.460 OA
BRANCH   3   4
ATOM      4  C   UNL A   1      35.232  21.416  25.965  1.00  0.00     0.340 C 
ATOM      5  O   UNL A   1      34.979  21.948  27.035  1.00  0.00    -0.246 OA
BRANCH   4   6
ATOM      6  C   UNL A   1      34.197  20.759  25.131  1.00  0.00     0.083 A 
ATOM      7  C   UNL A   1      33.058  21.357  24.563  1.00  0.00     0.049 A 
ATOM      8  C   UNL A   1      32.258  20.514  23.750  1.00  0.00     0.027 A 
ATOM      9  C   UNL A   1      32.561  19.174  23.491  1.00  0.00     0.015 A 
ATOM     10  C   UNL A   1      34.496  19.394  24.875  1.00  0.00     0.031 A 
ATOM     11  C   UNL A   1      33.689  18.593  24.058  1.00  0.00     0.057 A 
BRANCH   7  12
ATOM     12  N   UNL A   1      32.578  22.645  24.662  1.00  0.00    -0.379 N 
ATOM     13  H   UNL A   1      33.118  23.297  24.159  1.00  0.00     0.160 HD
BRANCH  12  14
ATOM     14  C   UNL A   1      31.442  23.255  25.353  1.00  0.00     0.107 C 
BRANCH  14  15
ATOM     15  C   UNL A   1      31.371  24.796  25.075  1.00  0.00     0.007 C 
ATOM     16  C   UNL A   1      32.690  25.411  24.602  1.00  0.00     0.009 C 
ATOM     17  C   UNL A   1      30.265  25.233  24.102  1.00  0.00     0.009 C 
ENDBRANCH  14  15
BRANCH  14  18
ATOM     18  C   UNL A   1      31.563  22.888  26.862  1.00  0.00     0.181 C 
BRANCH  18  19
ATOM     19  O   UNL A   1      30.281  22.871  27.493  1.00  0.00    -0.394 OA
ATOM     20  H   UNL A   1      30.330  22.350  28.311  1.00  0.00     0.210 HD
ENDBRANCH  18  19
ENDBRANCH  14  18
ENDBRANCH  12  14
ENDBRANCH   7  12
BRANCH  11  21
ATOM     21  C   UNL A   1      34.047  17.163  23.746  1.00  0.00     0.416 C 
ATOM     22  F   UNL A   1      34.314  16.964  22.423  1.00  0.00    -0.166 F 
ATOM     23  F   UNL A   1      35.156  16.747  24.415  1.00  0.00    -0.166 F 
ATOM     24  F   UNL A   1      33.062  16.275  24.059  1.00  0.00    -0.166 F 
ENDBRANCH  11  21
ENDBRANCH   4   6
ENDBRANCH   3   4
ENDBRANCH   2   3
ENDBRANCH   1   2
BRANCH   1  25
ATOM     25  O   UNL A   1      38.911  21.620  25.875  1.00  0.00    -0.374 OA
BRANCH  25  26
ATOM     26  C   UNL A   1      40.021  21.542  26.773  1.00  0.00     0.202 C 
BRANCH  26  27
ATOM     27  C   UNL A   1      41.295  22.214  26.249  1.00  0.00     0.261 C 
BRANCH  27  28
ATOM     28  O   UNL A   1      41.763  23.244  27.139  1.00  0.00    -0.460 OA
BRANCH  28  29
ATOM     29  C   UNL A   1      41.998  24.451  26.568  1.00  0.00     0.338 C 
ATOM     30  O   UNL A   1      42.286  24.671  25.403  1.00  0.00    -0.246 OA
BRANCH  29  31
ATOM     31  C   UNL A   1      41.679  25.521  27.539  1.00  0.00     0.060 A 
ATOM     32  C   UNL A   1      42.553  26.609  27.640  1.00  0.00     0.016 A 
ATOM     33  C   UNL A   1      40.546  25.454  28.353  1.00  0.00     0.016 A 
ATOM     34  C   UNL A   1      42.308  27.627  28.567  1.00  0.00     0.010 A 
ATOM     35  C   UNL A   1      40.297  26.481  29.269  1.00  0.00     0.010 A 
ATOM     36  C   UNL A   1      41.185  27.568  29.403  1.00  0.00    -0.014 A 
BRANCH  36  37
ATOM     37  C   UNL A   1      40.988  28.564  30.496  1.00  0.00     0.031 A 
ATOM     38  C   UNL A   1      41.811  28.434  31.753  1.00  0.00     0.074 A 
ATOM     39  C   UNL A   1      40.084  29.562  30.397  1.00  0.00     0.049 A 
ATOM     40  N   UNL A   1      41.761  29.140  32.853  1.00  0.00    -0.248 NA
ATOM     41  C   UNL A   1      42.817  27.360  31.776  1.00  0.00     0.031 C 
ATOM     42  C   UNL A   1      39.234  29.826  29.239  1.00  0.00     0.029 A 
ATOM     43  N   UNL A   1      39.714  30.529  31.302  1.00  0.00    -0.354 N 
ATOM     44  C   UNL A   1      42.714  28.588  33.700  1.00  0.00     0.074 A 
ATOM     45  C   UNL A   1      43.290  27.456  33.009  1.00  0.00     0.031 C 
ATOM     46  C   UNL A   1      38.411  30.853  29.517  1.00  0.00     0.029 A 
ATOM     47  C   UNL A   1      38.675  31.325  30.874  1.00  0.00     0.049 A 
ATOM     48  H   UNL A   1      40.152  30.644  32.177  1.00  0.00     0.167 HD
ATOM     49  C   UNL A   1      43.099  28.999  34.930  1.00  0.00     0.037 A 
ATOM     50  C   UNL A   1      38.005  32.314  31.502  1.00  0.00     0.037 A 
ATOM     51  C   UNL A   1      42.561  30.149  35.605  1.00  0.00     0.049 A 
ATOM     52  C   UNL A   1      38.428  32.735  32.888  1.00  0.00     0.074 A 
ATOM     53  C   UNL A   1      42.947  30.688  36.821  1.00  0.00     0.029 A 
ATOM     54  N   UNL A   1      41.522  30.934  35.132  1.00  0.00    -0.354 N 
ATOM     55  N   UNL A   1      39.388  32.249  33.639  1.00  0.00    -0.248 NA
ATOM     56  C   UNL A   1      37.693  33.850  33.504  1.00  0.00     0.031 C 
ATOM     57  C   UNL A   1      42.104  31.763  37.110  1.00  0.00     0.029 A 
ATOM     58  C   UNL A   1      41.230  31.932  36.048  1.00  0.00     0.049 A 
ATOM     59  H   UNL A   1      41.060  30.802  34.273  1.00  0.00     0.167 HD
ATOM     60  C   UNL A   1      39.395  33.023  34.796  1.00  0.00     0.074 A 
ATOM     61  C   UNL A   1      38.351  34.014  34.643  1.00  0.00     0.031 C 
ATOM     62  C   UNL A   1      40.198  32.924  35.883  1.00  0.00     0.037 A 
BRANCH  49  63
ATOM     63  C   UNL A   1      44.159  28.200  35.635  1.00  0.00     0.058 A 
ATOM     64  C   UNL A   1      43.835  27.151  36.509  1.00  0.00     0.135 A 
ATOM     65  C   UNL A   1      45.518  28.458  35.393  1.00  0.00     0.135 A 
ATOM     66  F   UNL A   1      42.551  26.876  36.790  1.00  0.00    -0.206 F 
ATOM     67  C   UNL A   1      44.821  26.396  37.135  1.00  0.00     0.059 A 
ATOM     68  C   UNL A   1      46.520  27.697  35.984  1.00  0.00     0.059 A 
ATOM     69  F   UNL A   1      45.881  29.453  34.570  1.00  0.00    -0.206 F 
ATOM     70  C   UNL A   1      46.161  26.675  36.863  1.00  0.00     0.060 A 
BRANCH  70  71
ATOM     71  S   UNL A   1      47.428  25.671  37.664  1.00  0.00     0.124 S 
ATOM     72  O   UNL A   1      47.465  24.501  36.792  1.00  0.00    -0.237 OA
ATOM     73  O   UNL A   1      48.598  26.541  37.605  1.00  0.00    -0.237 OA
ATOM     74  O   UNL A   1      46.888  25.440  39.000  1.00  0.00    -0.744 OA
ENDBRANCH  70  71
ENDBRANCH  49  63
BRANCH  50  75
ATOM     75  C   UNL A   1      36.856  32.988  30.833  1.00  0.00     0.058 A 
ATOM     76  C   UNL A   1      35.532  32.592  31.081  1.00  0.00     0.135 A 
ATOM     77  C   UNL A   1      37.063  34.019  29.904  1.00  0.00     0.135 A 
ATOM     78  F   UNL A   1      35.282  31.604  31.954  1.00  0.00    -0.206 F 
ATOM     79  C   UNL A   1      34.459  33.171  30.412  1.00  0.00     0.059 A 
ATOM     80  C   UNL A   1      36.003  34.633  29.241  1.00  0.00     0.059 A 
ATOM     81  F   UNL A   1      38.307  34.448  29.639  1.00  0.00    -0.206 F 
ATOM     82  C   UNL A   1      34.705  34.191  29.492  1.00  0.00     0.060 A 
BRANCH  82  83
ATOM     83  S   UNL A   1      33.300  34.952  28.648  1.00  0.00     0.124 S 
ATOM     84  O   UNL A   1      32.749  33.818  27.914  1.00  0.00    -0.237 OA
ATOM     85  O   UNL A   1      32.501  35.440  29.767  1.00  0.00    -0.237 OA
ATOM     86  O   UNL A   1      33.923  35.990  27.831  1.00  0.00    -0.744 OA
ENDBRANCH  82  83
ENDBRANCH  50  75
BRANCH  62  87
ATOM     87  C   UNL A   1      40.017  33.929  36.989  1.00  0.00     0.058 A 
ATOM     88  C   UNL A   1      40.656  35.179  36.965  1.00  0.00     0.135 A 
ATOM     89  C   UNL A   1      39.132  33.667  38.049  1.00  0.00     0.135 A 
ATOM     90  F   UNL A   1      41.515  35.479  35.979  1.00  0.00    -0.206 F 
ATOM     91  C   UNL A   1      40.438  36.126  37.960  1.00  0.00     0.059 A 
ATOM     92  C   UNL A   1      38.876  34.611  39.039  1.00  0.00     0.059 A 
ATOM     93  F   UNL A   1      38.485  32.493  38.115  1.00  0.00    -0.206 F 
ATOM     94  C   UNL A   1      39.542  35.835  38.991  1.00  0.00     0.060 A 
BRANCH  94  95
ATOM     95  S   UNL A   1      39.232  37.092  40.250  1.00  0.00     0.124 S 
ATOM     96  O   UNL A   1      38.374  36.369  41.183  1.00  0.00    -0.237 OA
ATOM     97  O   UNL A   1      40.578  37.391  40.728  1.00  0.00    -0.237 OA
ATOM     98  O   UNL A   1      38.584  38.168  39.505  1.00  0.00    -0.744 OA
ENDBRANCH  94  95
ENDBRANCH  62  87
ENDBRANCH  36  37
ENDBRANCH  29  31
ENDBRANCH  28  29
ENDBRANCH  27  28
ENDBRANCH  26  27
ENDBRANCH  25  26
ENDBRANCH   1  25
TORSDOF 23
ENDMDL
MODEL 2
REMARK VINA RESULT:     -10.3      1.847      2.886
REMARK SMILES CC(C)[C@H](CO)Nc1ccc(C(F)(F)F)cc1C(=O)OCCOCCOC(=O)c1ccc(-c2c3nc(c(-c4c(F)cc(S(=O)(=O)[O-])cc4F)c4ccc([nH]4)c(-c4c(F)cc(S(=O)(=O)[O-])cc4F)c4nc(c(-c5c(F)cc(S(=O)(=O)[O-])cc5F)c5ccc2[nH]5)C=C4)C=C3)cc1
REMARK SMILES IDX 22 1 21 2 20 3 18 4 19 5 17 6 8 7 9 8 10 9 16 10 11 11 7 12
REMARK SMILES IDX 4 14 2 15 1 16 3 17 5 18 6 19 12 21 13 22 14 23 15 24 23 25
REMARK SMILES IDX 24 26 25 27 26 28 27 29 28 30 29 31 30 32 94 33 31 34 93 35
REMARK SMILES IDX 32 36 33 37 34 38 87 39 35 40 92 41 86 42 88 43 36 44 91 45
REMARK SMILES IDX 85 46 84 47 37 49 71 50 50 51 70 52 51 53 54 54 69 55 89 56
REMARK SMILES IDX 52 57 53 58 68 60 90 61 55 62 38 63 39 64 48 65 40 66 41 67
REMARK SMILES IDX 47 68 49 69 42 70 43 71 44 72 45 73 46 74 72 75 73 76 82 77
REMARK SMILES IDX 74 78 75 79 81 80 83 81 76 82 77 83 78 84 79 85 80 86 56 87
REMARK SMILES IDX 57 88 66 89 58 90 59 91 65 92 67 93 60 94 61 95 62 96 63 97
REMARK SMILES IDX 64 98
REMARK H PARENT 7 13 6 20 88 48 54 59
REMARK Flexibility Score: inf
ROOT
ATOM      1  C   UNL A   1      38.164  20.794  25.403  1.00  0.00     0.202 C 
ENDROOT
BRANCH   1   2
ATOM      2  C   UNL A   1      36.928  21.278  24.651  1.00  0.00     0.261 C 
BRANCH   2   3
ATOM      3  O   UNL A   1      35.826  20.431  25.020  1.00  0.00    -0.460 OA
BRANCH   3   4
ATOM      4  C   UNL A   1      34.711  21.046  25.458  1.00  0.00     0.340 C 
ATOM      5  O   UNL A   1      34.558  21.564  26.554  1.00  0.00    -0.246 OA
BRANCH   4   6
ATOM      6  C   UNL A   1      33.752  21.231  24.342  1.00  0.00     0.083 A 
ATOM      7  C   UNL A   1      33.044  20.229  23.655  1.00  0.00     0.049 A 
ATOM      8  C   UNL A   1      32.136  20.682  22.665  1.00  0.00     0.027 A 
ATOM      9  C   UNL A   1      31.917  22.032  22.375  1.00  0.00     0.015 A 
ATOM     10  C   UNL A   1      33.535  22.602  24.038  1.00  0.00     0.031 A 
ATOM     11  C   UNL A   1      32.622  23.014  23.060  1.00  0.00     0.057 A 
BRANCH   7  12
ATOM     12  N   UNL A   1      33.082  18.857  23.783  1.00  0.00    -0.379 N 
ATOM     13  H   UNL A   1      32.672  18.387  23.022  1.00  0.00     0.160 HD
BRANCH  12  14
ATOM     14  C   UNL A   1      33.598  17.948  24.806  1.00  0.00     0.107 C 
BRANCH  14  15
ATOM     15  C   UNL A   1      33.905  16.533  24.204  1.00  0.00     0.007 C 
ATOM     16  C   UNL A   1      34.406  16.561  22.758  1.00  0.00     0.009 C 
ATOM     17  C   UNL A   1      34.872  15.669  25.028  1.00  0.00     0.009 C 
ENDBRANCH  14  15
BRANCH  14  18
ATOM     18  C   UNL A   1      32.570  17.929  25.976  1.00  0.00     0.181 C 
BRANCH  18  19
ATOM     19  O   UNL A   1      32.931  18.864  26.995  1.00  0.00    -0.394 OA
ATOM     20  H   UNL A   1      33.893  18.990  26.993  1.00  0.00     0.210 HD
ENDBRANCH  18  19
ENDBRANCH  14  18
ENDBRANCH  12  14
ENDBRANCH   7  12
BRANCH  11  21
ATOM     21  C   UNL A   1      32.357  24.472  22.785  1.00  0.00     0.416 C 
ATOM     22  F   UNL A   1      32.581  24.811  21.483  1.00  0.00    -0.166 F 
ATOM     23  F   UNL A   1      31.068  24.823  23.042  1.00  0.00    -0.166 F 
ATOM     24  F   UNL A   1      33.132  25.315  23.523  1.00  0.00    -0.166 F 
ENDBRANCH  11  21
ENDBRANCH   4   6
ENDBRANCH   3   4
ENDBRANCH   2   3
ENDBRANCH   1   2
BRANCH   1  25
ATOM     25  O   UNL A   1      39.092  21.847  25.679  1.00  0.00    -0.374 OA
BRANCH  25  26
ATOM     26  C   UNL A   1      40.192  21.491  26.521  1.00  0.00     0.202 C 
BRANCH  26  27
ATOM     27  C   UNL A   1      41.247  22.593  26.668  1.00  0.00     0.261 C 
BRANCH  27  28
ATOM     28  O   UNL A   1      40.680  23.905  26.493  1.00  0.00    -0.460 OA
BRANCH  28  29
ATOM     29  C   UNL A   1      41.571  24.913  26.327  1.00  0.00     0.338 C 
ATOM     30  O   UNL A   1      42.240  25.148  25.334  1.00  0.00    -0.246 OA
BRANCH  29  31
ATOM     31  C   UNL A   1      41.495  25.827  27.487  1.00  0.00     0.060 A 
ATOM     32  C   UNL A   1      40.395  25.721  28.346  1.00  0.00     0.016 A 
ATOM     33  C   UNL A   1      42.479  26.788  27.724  1.00  0.00     0.016 A 
ATOM     34  C   UNL A   1      40.266  26.586  29.436  1.00  0.00     0.010 A 
ATOM     35  C   UNL A   1      42.354  27.643  28.825  1.00  0.00     0.010 A 
ATOM     36  C   UNL A   1      41.236  27.567  29.681  1.00  0.00    -0.014 A 
BRANCH  36  37
ATOM     37  C   UNL A   1      41.041  28.591  30.748  1.00  0.00     0.031 A 
ATOM     38  C   UNL A   1      41.871  28.500  32.003  1.00  0.00     0.074 A 
ATOM     39  C   UNL A   1      40.130  29.581  30.628  1.00  0.00     0.049 A 
ATOM     40  N   UNL A   1      41.824  29.236  33.084  1.00  0.00    -0.248 NA
ATOM     41  C   UNL A   1      42.884  27.433  32.049  1.00  0.00     0.031 C 
ATOM     42  C   UNL A   1      39.271  29.809  29.468  1.00  0.00     0.029 A 
ATOM     43  N   UNL A   1      39.759  30.570  31.508  1.00  0.00    -0.354 N 
ATOM     44  C   UNL A   1      42.785  28.712  33.939  1.00  0.00     0.074 A 
ATOM     45  C   UNL A   1      43.364  27.565  33.276  1.00  0.00     0.031 C 
ATOM     46  C   UNL A   1      38.444  30.838  29.723  1.00  0.00     0.029 A 
ATOM     47  C   UNL A   1      38.713  31.348  31.065  1.00  0.00     0.049 A 
ATOM     48  H   UNL A   1      40.202  30.711  32.377  1.00  0.00     0.167 HD
ATOM     49  C   UNL A   1      43.175  29.159  35.156  1.00  0.00     0.037 A 
ATOM     50  C   UNL A   1      38.041  32.350  31.670  1.00  0.00     0.037 A 
ATOM     51  C   UNL A   1      42.634  30.324  35.803  1.00  0.00     0.049 A 
ATOM     52  C   UNL A   1      38.470  32.811  33.041  1.00  0.00     0.074 A 
ATOM     53  C   UNL A   1      43.024  30.897  37.001  1.00  0.00     0.029 A 
ATOM     54  N   UNL A   1      41.587  31.089  35.315  1.00  0.00    -0.354 N 
ATOM     55  N   UNL A   1      39.437  32.352  33.799  1.00  0.00    -0.248 NA
ATOM     56  C   UNL A   1      37.732  33.938  33.631  1.00  0.00     0.031 C 
ATOM     57  C   UNL A   1      42.176  31.975  37.265  1.00  0.00     0.029 A 
ATOM     58  C   UNL A   1      41.295  32.110  36.205  1.00  0.00     0.049 A 
ATOM     59  H   UNL A   1      41.121  30.932  34.462  1.00  0.00     0.167 HD
ATOM     60  C   UNL A   1      39.446  33.157  34.935  1.00  0.00     0.074 A 
ATOM     61  C   UNL A   1      38.395  34.136  34.762  1.00  0.00     0.031 C 
ATOM     62  C   UNL A   1      40.256  33.092  36.020  1.00  0.00     0.037 A 
BRANCH  49  63
ATOM     63  C   UNL A   1      44.243  28.385  35.876  1.00  0.00     0.058 A 
ATOM     64  C   UNL A   1      43.931  27.348  36.769  1.00  0.00     0.135 A 
ATOM     65  C   UNL A   1      45.599  28.655  35.630  1.00  0.00     0.135 A 
ATOM     66  F   UNL A   1      42.650  27.064  37.054  1.00  0.00    -0.206 F 
ATOM     67  C   UNL A   1      44.926  26.617  37.409  1.00  0.00     0.059 A 
ATOM     68  C   UNL A   1      46.610  27.917  36.235  1.00  0.00     0.059 A 
ATOM     69  F   UNL A   1      45.951  29.639  34.788  1.00  0.00    -0.206 F 
ATOM     70  C   UNL A   1      46.262  26.907  37.133  1.00  0.00     0.060 A 
BRANCH  70  71
ATOM     71  S   UNL A   1      47.541  25.932  37.952  1.00  0.00     0.124 S 
ATOM     72  O   UNL A   1      48.756  26.534  37.412  1.00  0.00    -0.237 OA
ATOM     73  O   UNL A   1      47.275  26.195  39.363  1.00  0.00    -0.237 OA
ATOM     74  O   UNL A   1      47.266  24.568  37.510  1.00  0.00    -0.744 OA
ENDBRANCH  70  71
ENDBRANCH  49  63
BRANCH  50  75
ATOM     75  C   UNL A   1      36.884  32.999  30.990  1.00  0.00     0.058 A 
ATOM     76  C   UNL A   1      35.562  32.664  31.321  1.00  0.00     0.135 A 
ATOM     77  C   UNL A   1      37.080  33.942  29.969  1.00  0.00     0.135 A 
ATOM     78  F   UNL A   1      35.321  31.761  32.283  1.00  0.00    -0.206 F 
ATOM     79  C   UNL A   1      34.478  33.216  30.646  1.00  0.00     0.059 A 
ATOM     80  C   UNL A   1      36.012  34.528  29.297  1.00  0.00     0.059 A 
ATOM     81  F   UNL A   1      38.324  34.310  29.622  1.00  0.00    -0.206 F 
ATOM     82  C   UNL A   1      34.714  34.148  29.633  1.00  0.00     0.060 A 
BRANCH  82  83
ATOM     83  S   UNL A   1      33.296  34.876  28.781  1.00  0.00     0.124 S 
ATOM     84  O   UNL A   1      33.915  36.005  28.096  1.00  0.00    -0.237 OA
ATOM     85  O   UNL A   1      32.854  33.776  27.931  1.00  0.00    -0.237 OA
ATOM     86  O   UNL A   1      32.390  35.220  29.873  1.00  0.00    -0.744 OA
ENDBRANCH  82  83
ENDBRANCH  50  75
BRANCH  62  87
ATOM     87  C   UNL A   1      40.076  34.125  37.098  1.00  0.00     0.058 A 
ATOM     88  C   UNL A   1      40.681  35.390  37.020  1.00  0.00     0.135 A 
ATOM     89  C   UNL A   1      39.224  33.873  38.188  1.00  0.00     0.135 A 
ATOM     90  F   UNL A   1      41.507  35.681  36.004  1.00  0.00    -0.206 F 
ATOM     91  C   UNL A   1      40.462  36.361  37.992  1.00  0.00     0.059 A 
ATOM     92  C   UNL A   1      38.968  34.840  39.156  1.00  0.00     0.059 A 
ATOM     93  F   UNL A   1      38.611  32.685  38.306  1.00  0.00    -0.206 F 
ATOM     94  C   UNL A   1      39.599  36.079  39.054  1.00  0.00     0.060 A 
BRANCH  94  95
ATOM     95  S   UNL A   1      39.287  37.365  40.282  1.00  0.00     0.124 S 
ATOM     96  O   UNL A   1      38.562  36.623  41.308  1.00  0.00    -0.237 OA
ATOM     97  O   UNL A   1      40.638  37.788  40.639  1.00  0.00    -0.237 OA
ATOM     98  O   UNL A   1      38.501  38.354  39.548  1.00  0.00    -0.744 OA
ENDBRANCH  94  95
ENDBRANCH  62  87
ENDBRANCH  36  37
ENDBRANCH  29  31
ENDBRANCH  28  29
ENDBRANCH  27  28
ENDBRANCH  26  27
ENDBRANCH  25  26
ENDBRANCH   1  25
TORSDOF 23
ENDMDL
MODEL 3
REMARK VINA RESULT:     -10.3      1.965      8.631
REMARK SMILES CC(C)[C@H](CO)Nc1ccc(C(F)(F)F)cc1C(=O)OCCOCCOC(=O)c1ccc(-c2c3nc(c(-c4c(F)cc(S(=O)(=O)[O-])cc4F)c4ccc([nH]4)c(-c4c(F)cc(S(=O)(=O)[O-])cc4F)c4nc(c(-c5c(F)cc(S(=O)(=O)[O-])cc5F)c5ccc2[nH]5)C=C4)C=C3)cc1
REMARK SMILES IDX 22 1 21 2 20 3 18 4 19 5 17 6 8 7 9 8 10 9 16 10 11 11 7 12
REMARK SMILES IDX 4 14 2 15 1 16 3 17 5 18 6 19 12 21 13 22 14 23 15 24 23 25
REMARK SMILES IDX 24 26 25 27 26 28 27 29 28 30 29 31 30 32 94 33 31 34 93 35
REMARK SMILES IDX 32 36 33 37 34 38 87 39 35 40 92 41 86 42 88 43 36 44 91 45
REMARK SMILES IDX 85 46 84 47 37 49 71 50 50 51 70 52 51 53 54 54 69 55 89 56
REMARK SMILES IDX 52 57 53 58 68 60 90 61 55 62 38 63 39 64 48 65 40 66 41 67
REMARK SMILES IDX 47 68 49 69 42 70 43 71 44 72 45 73 46 74 72 75 73 76 82 77
REMARK SMILES IDX 74 78 75 79 81 80 83 81 76 82 77 83 78 84 79 85 80 86 56 87
REMARK SMILES IDX 57 88 66 89 58 90 59 91 65 92 67 93 60 94 61 95 62 96 63 97
REMARK SMILES IDX 64 98
REMARK H PARENT 7 13 6 20 88 48 54 59
REMARK Flexibility Score: inf
ROOT
ATOM      1  C   UNL A   1      39.020  21.431  26.099  1.00  0.00     0.202 C 
ENDROOT
BRANCH   1   2
ATOM      2  C   UNL A   1      37.872  22.066  25.322  1.00  0.00     0.261 C 
BRANCH   2   3
ATOM      3  O   UNL A   1      36.646  21.472  25.782  1.00  0.00    -0.460 OA
BRANCH   3   4
ATOM      4  C   UNL A   1      36.124  20.495  25.015  1.00  0.00     0.340 C 
ATOM      5  O   UNL A   1      36.620  19.397  24.812  1.00  0.00    -0.246 OA
BRANCH   4   6
ATOM      6  C   UNL A   1      34.732  20.830  24.628  1.00  0.00     0.083 A 
ATOM      7  C   UNL A   1      33.586  20.034  24.804  1.00  0.00     0.049 A 
ATOM      8  C   UNL A   1      32.359  20.621  24.402  1.00  0.00     0.027 A 
ATOM      9  C   UNL A   1      32.253  21.911  23.877  1.00  0.00     0.015 A 
ATOM     10  C   UNL A   1      34.622  22.138  24.085  1.00  0.00     0.031 A 
ATOM     11  C   UNL A   1      33.393  22.690  23.708  1.00  0.00     0.057 A 
BRANCH   7  12
ATOM     12  N   UNL A   1      33.449  18.760  25.311  1.00  0.00    -0.379 N 
ATOM     13  H   UNL A   1      33.809  18.667  26.222  1.00  0.00     0.160 HD
BRANCH  12  14
ATOM     14  C   UNL A   1      32.887  17.515  24.787  1.00  0.00     0.107 C 
BRANCH  14  15
ATOM     15  C   UNL A   1      33.437  16.272  25.570  1.00  0.00     0.007 C 
ATOM     16  C   UNL A   1      32.646  14.983  25.335  1.00  0.00     0.009 C 
ATOM     17  C   UNL A   1      34.926  15.966  25.345  1.00  0.00     0.009 C 
ENDBRANCH  14  15
BRANCH  14  18
ATOM     18  C   UNL A   1      33.176  17.479  23.257  1.00  0.00     0.181 C 
BRANCH  18  19
ATOM     19  O   UNL A   1      31.989  17.731  22.502  1.00  0.00    -0.394 OA
ATOM     20  H   UNL A   1      32.196  18.325  21.763  1.00  0.00     0.210 HD
ENDBRANCH  18  19
ENDBRANCH  14  18
ENDBRANCH  12  14
ENDBRANCH   7  12
BRANCH  11  21
ATOM     21  C   UNL A   1      33.280  24.099  23.187  1.00  0.00     0.416 C 
ATOM     22  F   UNL A   1      33.390  24.168  21.829  1.00  0.00    -0.166 F 
ATOM     23  F   UNL A   1      32.084  24.672  23.491  1.00  0.00    -0.166 F 
ATOM     24  F   UNL A   1      34.235  24.939  23.676  1.00  0.00    -0.166 F 
ENDBRANCH  11  21
ENDBRANCH   4   6
ENDBRANCH   3   4
ENDBRANCH   2   3
ENDBRANCH   1   2
BRANCH   1  25
ATOM     25  O   UNL A   1      39.935  22.398  26.625  1.00  0.00    -0.374 OA
BRANCH  25  26
ATOM     26  C   UNL A   1      41.315  22.161  26.334  1.00  0.00     0.202 C 
BRANCH  26  27
ATOM     27  C   UNL A   1      42.119  23.433  26.045  1.00  0.00     0.261 C 
BRANCH  27  28
ATOM     28  O   UNL A   1      41.283  24.606  26.039  1.00  0.00    -0.460 OA
BRANCH  28  29
ATOM     29  C   UNL A   1      41.933  25.790  25.920  1.00  0.00     0.338 C 
ATOM     30  O   UNL A   1      42.388  26.281  24.900  1.00  0.00    -0.246 OA
BRANCH  29  31
ATOM     31  C   UNL A   1      41.862  26.516  27.207  1.00  0.00     0.060 A 
ATOM     32  C   UNL A   1      40.947  26.075  28.170  1.00  0.00     0.016 A 
ATOM     33  C   UNL A   1      42.670  27.625  27.464  1.00  0.00     0.016 A 
ATOM     34  C   UNL A   1      40.823  26.752  29.386  1.00  0.00     0.010 A 
ATOM     35  C   UNL A   1      42.554  28.291  28.690  1.00  0.00     0.010 A 
ATOM     36  C   UNL A   1      41.614  27.876  29.656  1.00  0.00    -0.014 A 
BRANCH  36  37
ATOM     37  C   UNL A   1      41.392  28.696  30.882  1.00  0.00     0.031 A 
ATOM     38  C   UNL A   1      40.295  29.730  30.874  1.00  0.00     0.074 A 
ATOM     39  C   UNL A   1      42.156  28.551  31.985  1.00  0.00     0.049 A 
ATOM     40  N   UNL A   1      39.967  30.598  31.797  1.00  0.00    -0.248 NA
ATOM     41  C   UNL A   1      39.462  29.802  29.663  1.00  0.00     0.031 C 
ATOM     42  C   UNL A   1      43.238  27.581  32.148  1.00  0.00     0.029 A 
ATOM     43  N   UNL A   1      42.153  29.239  33.176  1.00  0.00    -0.354 N 
ATOM     44  C   UNL A   1      38.905  31.324  31.272  1.00  0.00     0.074 A 
ATOM     45  C   UNL A   1      38.676  30.833  29.932  1.00  0.00     0.031 C 
ATOM     46  C   UNL A   1      43.823  27.766  33.345  1.00  0.00     0.029 A 
ATOM     47  C   UNL A   1      43.157  28.865  34.040  1.00  0.00     0.049 A 
ATOM     48  H   UNL A   1      41.492  29.936  33.392  1.00  0.00     0.167 HD
ATOM     49  C   UNL A   1      38.164  32.292  31.860  1.00  0.00     0.037 A 
ATOM     50  C   UNL A   1      43.510  29.354  35.248  1.00  0.00     0.037 A 
ATOM     51  C   UNL A   1      38.358  32.755  33.208  1.00  0.00     0.049 A 
ATOM     52  C   UNL A   1      42.691  30.457  35.871  1.00  0.00     0.074 A 
ATOM     53  C   UNL A   1      37.604  33.677  33.913  1.00  0.00     0.029 A 
ATOM     54  N   UNL A   1      39.376  32.341  34.051  1.00  0.00    -0.354 N 
ATOM     55  N   UNL A   1      41.639  31.075  35.388  1.00  0.00    -0.248 NA
ATOM     56  C   UNL A   1      43.093  30.917  37.208  1.00  0.00     0.031 C 
ATOM     57  C   UNL A   1      38.199  33.863  35.163  1.00  0.00     0.029 A 
ATOM     58  C   UNL A   1      39.290  33.015  35.259  1.00  0.00     0.049 A 
ATOM     59  H   UNL A   1      40.058  31.668  33.826  1.00  0.00     0.167 HD
ATOM     60  C   UNL A   1      41.233  31.966  36.377  1.00  0.00     0.074 A 
ATOM     61  C   UNL A   1      42.147  31.803  37.488  1.00  0.00     0.031 C 
ATOM     62  C   UNL A   1      40.195  32.837  36.367  1.00  0.00     0.037 A 
BRANCH  49  63
ATOM     63  C   UNL A   1      37.068  32.924  31.048  1.00  0.00     0.058 A 
ATOM     64  C   UNL A   1      37.343  33.826  30.009  1.00  0.00     0.135 A 
ATOM     65  C   UNL A   1      35.727  32.582  31.284  1.00  0.00     0.135 A 
ATOM     66  F   UNL A   1      38.607  34.201  29.756  1.00  0.00    -0.206 F 
ATOM     67  C   UNL A   1      36.326  34.384  29.243  1.00  0.00     0.059 A 
ATOM     68  C   UNL A   1      34.696  33.104  30.511  1.00  0.00     0.059 A 
ATOM     69  F   UNL A   1      35.409  31.728  32.269  1.00  0.00    -0.206 F 
ATOM     70  C   UNL A   1      35.005  34.013  29.500  1.00  0.00     0.060 A 
BRANCH  70  71
ATOM     71  S   UNL A   1      33.698  34.727  28.480  1.00  0.00     0.124 S 
ATOM     72  O   UNL A   1      33.675  33.803  27.350  1.00  0.00    -0.237 OA
ATOM     73  O   UNL A   1      32.543  34.669  29.370  1.00  0.00    -0.237 OA
ATOM     74  O   UNL A   1      34.191  36.068  28.183  1.00  0.00    -0.744 OA
ENDBRANCH  70  71
ENDBRANCH  49  63
BRANCH  50  75
ATOM     75  C   UNL A   1      44.698  28.807  35.964  1.00  0.00     0.058 A 
ATOM     76  C   UNL A   1      44.574  27.756  36.885  1.00  0.00     0.135 A 
ATOM     77  C   UNL A   1      45.976  29.352  35.766  1.00  0.00     0.135 A 
ATOM     78  F   UNL A   1      43.372  27.207  37.117  1.00  0.00    -0.206 F 
ATOM     79  C   UNL A   1      45.666  27.284  37.606  1.00  0.00     0.059 A 
ATOM     80  C   UNL A   1      47.089  28.879  36.456  1.00  0.00     0.059 A 
ATOM     81  F   UNL A   1      46.154  30.349  34.886  1.00  0.00    -0.206 F 
ATOM     82  C   UNL A   1      46.921  27.854  37.385  1.00  0.00     0.060 A 
BRANCH  82  83
ATOM     83  S   UNL A   1      48.336  27.215  38.309  1.00  0.00     0.124 S 
ATOM     84  O   UNL A   1      47.700  26.231  39.177  1.00  0.00    -0.237 OA
ATOM     85  O   UNL A   1      49.178  26.679  37.245  1.00  0.00    -0.237 OA
ATOM     86  O   UNL A   1      48.862  28.402  38.978  1.00  0.00    -0.744 OA
ENDBRANCH  82  83
ENDBRANCH  50  75
BRANCH  62  87
ATOM     87  C   UNL A   1      39.953  33.663  37.601  1.00  0.00     0.058 A 
ATOM     88  C   UNL A   1      40.647  34.860  37.839  1.00  0.00     0.135 A 
ATOM     89  C   UNL A   1      38.959  33.289  38.522  1.00  0.00     0.135 A 
ATOM     90  F   UNL A   1      41.610  35.260  36.994  1.00  0.00    -0.206 F 
ATOM     91  C   UNL A   1      40.377  35.647  38.953  1.00  0.00     0.059 A 
ATOM     92  C   UNL A   1      38.652  34.077  39.628  1.00  0.00     0.059 A 
ATOM     93  F   UNL A   1      38.258  32.160  38.338  1.00  0.00    -0.206 F 
ATOM     94  C   UNL A   1      39.373  35.251  39.839  1.00  0.00     0.060 A 
BRANCH  94  95
ATOM     95  S   UNL A   1      39.000  36.307  41.255  1.00  0.00     0.124 S 
ATOM     96  O   UNL A   1      40.281  36.325  41.955  1.00  0.00    -0.237 OA
ATOM     97  O   UNL A   1      38.610  37.560  40.614  1.00  0.00    -0.237 OA
ATOM     98  O   UNL A   1      37.922  35.596  41.936  1.00  0.00    -0.744 OA
ENDBRANCH  94  95
ENDBRANCH  62  87
ENDBRANCH  36  37
ENDBRANCH  29  31
ENDBRANCH  28  29
ENDBRANCH  27  28
ENDBRANCH  26  27
ENDBRANCH  25  26
ENDBRANCH   1  25
TORSDOF 23
ENDMDL
