MODEL 1
REMARK VINA RESULT:     -10.5      0.000      0.000
REMARK SMILES CNC(=O)[C@H](C)S(=O)(=O)c1cc(C(=O)OCCOCCOC(=O)c2ccc(-c3c4nc(c(-c5c(F)cc(S(=O)(=O)[O-])cc5F)c5ccc([nH]5)c(-c5c(F)cc(S(=O)(=O)[O-])cc5F)c5nc(c(-c6c(F)cc(S(=O)(=O)[O-])cc6F)c6ccc3[nH]6)C=C5)C=C4)cc2)c(C)cc1C
REMARK SMILES IDX 18 1 17 2 16 3 15 4 13 5 14 6 12 7 10 8 11 9 93 10 92 11
REMARK SMILES IDX 94 12 90 13 91 14 7 15 8 16 9 17 5 18 6 19 3 20 1 21 2 22
REMARK SMILES IDX 4 24 19 25 20 26 21 27 22 28 23 29 24 30 25 31 89 32 26 33
REMARK SMILES IDX 88 34 27 35 28 36 29 37 82 38 30 39 87 40 81 41 83 42 31 43
REMARK SMILES IDX 86 44 80 45 79 46 32 48 66 49 45 50 65 51 46 52 49 53 64 54
REMARK SMILES IDX 84 55 47 56 48 57 63 59 85 60 50 61 33 62 34 63 43 64 35 65
REMARK SMILES IDX 36 66 42 67 44 68 37 69 38 70 39 71 40 72 41 73 67 74 68 75
REMARK SMILES IDX 77 76 69 77 70 78 76 79 78 80 71 81 72 82 73 83 74 84 75 85
REMARK SMILES IDX 51 86 52 87 61 88 53 89 54 90 60 91 62 92 55 93 56 94 57 95
REMARK SMILES IDX 58 96 59 97
REMARK H PARENT 2 23 83 47 49 58
REMARK Flexibility Score: inf
ROOT
ATOM      1  O   UNL A   1      34.882  31.685  27.493  1.00  0.00    -0.374 OA
ENDROOT
BRANCH   1   2
ATOM      2  C   UNL A   1      34.478  30.324  27.670  1.00  0.00     0.202 C 
BRANCH   2   3
ATOM      3  C   UNL A   1      33.252  29.889  26.867  1.00  0.00     0.261 C 
BRANCH   3   4
ATOM      4  O   UNL A   1      33.202  28.452  26.772  1.00  0.00    -0.460 OA
BRANCH   4   5
ATOM      5  C   UNL A   1      32.046  27.862  27.139  1.00  0.00     0.338 C 
ATOM      6  O   UNL A   1      31.352  28.182  28.091  1.00  0.00    -0.246 OA
BRANCH   5   7
ATOM      7  C   UNL A   1      31.577  26.870  26.119  1.00  0.00     0.064 A 
ATOM      8  C   UNL A   1      31.441  24.458  25.642  1.00  0.00     0.071 A 
ATOM      9  C   UNL A   1      31.849  25.522  26.453  1.00  0.00     0.036 A 
ATOM     10  C   UNL A   1      30.950  24.746  24.361  1.00  0.00    -0.032 A 
ATOM     11  C   UNL A   1      30.639  26.084  24.047  1.00  0.00     0.009 A 
ATOM     12  C   UNL A   1      30.779  23.746  23.248  1.00  0.00     0.046 C 
ATOM     13  C   UNL A   1      30.891  27.156  24.928  1.00  0.00    -0.036 A 
ATOM     14  C   UNL A   1      30.495  28.528  24.452  1.00  0.00     0.045 C 
BRANCH   8  15
ATOM     15  S   UNL A   1      31.666  22.783  26.246  1.00  0.00     0.190 S 
ATOM     16  O   UNL A   1      30.493  22.065  25.778  1.00  0.00    -0.223 OA
ATOM     17  O   UNL A   1      31.925  22.873  27.673  1.00  0.00    -0.223 OA
BRANCH  15  18
ATOM     18  C   UNL A   1      33.080  21.993  25.551  1.00  0.00     0.199 C 
ATOM     19  C   UNL A   1      34.462  22.407  26.018  1.00  0.00     0.036 C 
BRANCH  18  20
ATOM     20  C   UNL A   1      32.891  20.514  25.314  1.00  0.00     0.238 C 
ATOM     21  C   UNL A   1      32.210  20.545  22.855  1.00  0.00     0.142 C 
ATOM     22  N   UNL A   1      32.516  19.970  24.132  1.00  0.00    -0.358 N 
ATOM     23  H   UNL A   1      32.439  18.988  24.155  1.00  0.00     0.163 HD
ATOM     24  O   UNL A   1      33.000  19.720  26.256  1.00  0.00    -0.274 OA
ENDBRANCH  18  20
ENDBRANCH  15  18
ENDBRANCH   8  15
ENDBRANCH   5   7
ENDBRANCH   4   5
ENDBRANCH   3   4
ENDBRANCH   2   3
ENDBRANCH   1   2
BRANCH   1  25
ATOM     25  C   UNL A   1      34.181  32.670  28.244  1.00  0.00     0.202 C 
BRANCH  25  26
ATOM     26  C   UNL A   1      34.827  33.132  29.556  1.00  0.00     0.261 C 
BRANCH  26  27
ATOM     27  O   UNL A   1      36.192  32.719  29.671  1.00  0.00    -0.460 OA
BRANCH  27  28
ATOM     28  C   UNL A   1      36.408  31.774  30.616  1.00  0.00     0.338 C 
ATOM     29  O   UNL A   1      35.683  31.483  31.556  1.00  0.00    -0.246 OA
BRANCH  28  30
ATOM     30  C   UNL A   1      37.601  31.004  30.244  1.00  0.00     0.060 A 
ATOM     31  C   UNL A   1      38.378  30.460  31.273  1.00  0.00     0.016 A 
ATOM     32  C   UNL A   1      37.970  30.856  28.906  1.00  0.00     0.016 A 
ATOM     33  C   UNL A   1      39.566  29.802  30.970  1.00  0.00     0.010 A 
ATOM     34  C   UNL A   1      39.162  30.202  28.604  1.00  0.00     0.010 A 
ATOM     35  C   UNL A   1      39.981  29.707  29.636  1.00  0.00    -0.014 A 
BRANCH  35  36
ATOM     36  C   UNL A   1      41.349  29.253  29.308  1.00  0.00     0.031 A 
ATOM     37  C   UNL A   1      42.454  30.273  29.314  1.00  0.00     0.074 A 
ATOM     38  C   UNL A   1      41.591  27.974  28.980  1.00  0.00     0.049 A 
ATOM     39  N   UNL A   1      43.689  30.158  28.906  1.00  0.00    -0.248 NA
ATOM     40  C   UNL A   1      42.111  31.606  29.837  1.00  0.00     0.031 C 
ATOM     41  C   UNL A   1      40.602  26.897  28.988  1.00  0.00     0.029 A 
ATOM     42  N   UNL A   1      42.744  27.371  28.548  1.00  0.00    -0.354 N 
ATOM     43  C   UNL A   1      44.264  31.408  29.100  1.00  0.00     0.074 A 
ATOM     44  C   UNL A   1      43.237  32.272  29.638  1.00  0.00     0.031 C 
ATOM     45  C   UNL A   1      41.186  25.766  28.555  1.00  0.00     0.029 A 
ATOM     46  C   UNL A   1      42.574  26.052  28.197  1.00  0.00     0.049 A 
ATOM     47  H   UNL A   1      43.609  27.836  28.495  1.00  0.00     0.167 HD
ATOM     48  C   UNL A   1      45.538  31.794  28.852  1.00  0.00     0.037 A 
ATOM     49  C   UNL A   1      43.433  25.193  27.616  1.00  0.00     0.037 A 
ATOM     50  C   UNL A   1      46.546  30.916  28.320  1.00  0.00     0.049 A 
ATOM     51  C   UNL A   1      44.828  25.660  27.289  1.00  0.00     0.074 A 
ATOM     52  C   UNL A   1      47.872  31.198  28.043  1.00  0.00     0.029 A 
ATOM     53  N   UNL A   1      46.339  29.587  27.981  1.00  0.00    -0.354 N 
ATOM     54  N   UNL A   1      45.366  26.843  27.479  1.00  0.00    -0.248 NA
ATOM     55  C   UNL A   1      45.733  24.682  26.671  1.00  0.00     0.031 C 
ATOM     56  C   UNL A   1      48.451  30.055  27.486  1.00  0.00     0.029 A 
ATOM     57  C   UNL A   1      47.505  29.040  27.479  1.00  0.00     0.049 A 
ATOM     58  H   UNL A   1      45.486  29.105  28.083  1.00  0.00     0.167 HD
ATOM     59  C   UNL A   1      46.685  26.735  27.047  1.00  0.00     0.074 A 
ATOM     60  C   UNL A   1      46.860  25.375  26.580  1.00  0.00     0.031 C 
ATOM     61  C   UNL A   1      47.665  27.673  27.046  1.00  0.00     0.037 A 
BRANCH  48  62
ATOM     62  C   UNL A   1      45.900  33.229  29.123  1.00  0.00     0.058 A 
ATOM     63  C   UNL A   1      46.359  33.655  30.378  1.00  0.00     0.135 A 
ATOM     64  C   UNL A   1      45.812  34.186  28.099  1.00  0.00     0.135 A 
ATOM     65  F   UNL A   1      46.443  32.788  31.400  1.00  0.00    -0.206 F 
ATOM     66  C   UNL A   1      46.692  34.985  30.617  1.00  0.00     0.059 A 
ATOM     67  C   UNL A   1      46.170  35.515  28.306  1.00  0.00     0.059 A 
ATOM     68  F   UNL A   1      45.373  33.834  26.880  1.00  0.00    -0.206 F 
ATOM     69  C   UNL A   1      46.595  35.907  29.574  1.00  0.00     0.060 A 
BRANCH  69  70
ATOM     70  S   UNL A   1      47.037  37.626  29.899  1.00  0.00     0.124 S 
ATOM     71  O   UNL A   1      47.258  38.129  28.547  1.00  0.00    -0.237 OA
ATOM     72  O   UNL A   1      45.848  38.130  30.577  1.00  0.00    -0.237 OA
ATOM     73  O   UNL A   1      48.232  37.519  30.731  1.00  0.00    -0.744 OA
ENDBRANCH  69  70
ENDBRANCH  48  62
BRANCH  49  74
ATOM     74  C   UNL A   1      42.995  23.807  27.298  1.00  0.00     0.058 A 
ATOM     75  C   UNL A   1      42.561  23.464  26.010  1.00  0.00     0.135 A 
ATOM     76  C   UNL A   1      43.010  22.796  28.273  1.00  0.00     0.135 A 
ATOM     77  F   UNL A   1      42.521  24.397  25.046  1.00  0.00    -0.206 F 
ATOM     78  C   UNL A   1      42.142  22.175  25.701  1.00  0.00     0.059 A 
ATOM     79  C   UNL A   1      42.622  21.493  27.982  1.00  0.00     0.059 A 
ATOM     80  F   UNL A   1      43.430  23.068  29.519  1.00  0.00    -0.206 F 
ATOM     81  C   UNL A   1      42.180  21.194  26.694  1.00  0.00     0.060 A 
BRANCH  81  82
ATOM     82  S   UNL A   1      41.680  19.512  26.268  1.00  0.00     0.124 S 
ATOM     83  O   UNL A   1      42.500  19.251  25.091  1.00  0.00    -0.237 OA
ATOM     84  O   UNL A   1      42.039  18.774  27.474  1.00  0.00    -0.237 OA
ATOM     85  O   UNL A   1      40.246  19.640  26.025  1.00  0.00    -0.744 OA
ENDBRANCH  81  82
ENDBRANCH  49  74
BRANCH  61  86
ATOM     86  C   UNL A   1      49.038  27.255  26.597  1.00  0.00     0.058 A 
ATOM     87  C   UNL A   1      50.010  26.792  27.497  1.00  0.00     0.135 A 
ATOM     88  C   UNL A   1      49.349  27.232  25.226  1.00  0.00     0.135 A 
ATOM     89  F   UNL A   1      49.766  26.800  28.817  1.00  0.00    -0.206 F 
ATOM     90  C   UNL A   1      51.245  26.329  27.054  1.00  0.00     0.059 A 
ATOM     91  C   UNL A   1      50.565  26.746  24.760  1.00  0.00     0.059 A 
ATOM     92  F   UNL A   1      48.451  27.655  24.322  1.00  0.00    -0.206 F 
ATOM     93  C   UNL A   1      51.510  26.301  25.683  1.00  0.00     0.060 A 
BRANCH  93  94
ATOM     94  S   UNL A   1      53.091  25.636  25.120  1.00  0.00     0.124 S 
ATOM     95  O   UNL A   1      54.034  26.369  25.958  1.00  0.00    -0.237 OA
ATOM     96  O   UNL A   1      52.953  24.213  25.416  1.00  0.00    -0.237 OA
ATOM     97  O   UNL A   1      53.117  25.975  23.700  1.00  0.00    -0.744 OA
ENDBRANCH  93  94
ENDBRANCH  61  86
ENDBRANCH  35  36
ENDBRANCH  28  30
ENDBRANCH  27  28
ENDBRANCH  26  27
ENDBRANCH  25  26
ENDBRANCH   1  25
TORSDOF 20
ENDMDL
MODEL 2
REMARK VINA RESULT:     -10.2      1.544      8.314
REMARK SMILES CNC(=O)[C@H](C)S(=O)(=O)c1cc(C(=O)OCCOCCOC(=O)c2ccc(-c3c4nc(c(-c5c(F)cc(S(=O)(=O)[O-])cc5F)c5ccc([nH]5)c(-c5c(F)cc(S(=O)(=O)[O-])cc5F)c5nc(c(-c6c(F)cc(S(=O)(=O)[O-])cc6F)c6ccc3[nH]6)C=C5)C=C4)cc2)c(C)cc1C
REMARK SMILES IDX 18 1 17 2 16 3 15 4 13 5 14 6 12 7 10 8 11 9 93 10 92 11
REMARK SMILES IDX 94 12 90 13 91 14 7 15 8 16 9 17 5 18 6 19 3 20 1 21 2 22
REMARK SMILES IDX 4 24 19 25 20 26 21 27 22 28 23 29 24 30 25 31 89 32 26 33
REMARK SMILES IDX 88 34 27 35 28 36 29 37 82 38 30 39 87 40 81 41 83 42 31 43
REMARK SMILES IDX 86 44 80 45 79 46 32 48 66 49 45 50 65 51 46 52 49 53 64 54
REMARK SMILES IDX 84 55 47 56 48 57 63 59 85 60 50 61 33 62 34 63 43 64 35 65
REMARK SMILES IDX 36 66 42 67 44 68 37 69 38 70 39 71 40 72 41 73 67 74 68 75
REMARK SMILES IDX 77 76 69 77 70 78 76 79 78 80 71 81 72 82 73 83 74 84 75 85
REMARK SMILES IDX 51 86 52 87 61 88 53 89 54 90 60 91 62 92 55 93 56 94 57 95
REMARK SMILES IDX 58 96 59 97
REMARK H PARENT 2 23 83 47 49 58
REMARK Flexibility Score: inf
ROOT
ATOM      1  O   UNL A   1      33.778  30.197  27.558  1.00  0.00    -0.374 OA
ENDROOT
BRANCH   1   2
ATOM      2  C   UNL A   1      32.751  30.327  26.572  1.00  0.00     0.202 C 
BRANCH   2   3
ATOM      3  C   UNL A   1      33.034  29.652  25.229  1.00  0.00     0.261 C 
BRANCH   3   4
ATOM      4  O   UNL A   1      32.749  28.242  25.310  1.00  0.00    -0.460 OA
BRANCH   4   5
ATOM      5  C   UNL A   1      32.203  27.672  24.216  1.00  0.00     0.338 C 
ATOM      6  O   UNL A   1      32.010  28.224  23.144  1.00  0.00    -0.246 OA
BRANCH   5   7
ATOM      7  C   UNL A   1      32.031  26.194  24.384  1.00  0.00     0.064 A 
ATOM      8  C   UNL A   1      33.246  24.125  24.941  1.00  0.00     0.071 A 
ATOM      9  C   UNL A   1      33.224  25.503  24.702  1.00  0.00     0.036 A 
ATOM     10  C   UNL A   1      32.099  23.378  24.639  1.00  0.00    -0.032 A 
ATOM     11  C   UNL A   1      30.901  24.069  24.365  1.00  0.00     0.009 A 
ATOM     12  C   UNL A   1      32.043  21.878  24.518  1.00  0.00     0.046 C 
ATOM     13  C   UNL A   1      30.829  25.475  24.287  1.00  0.00    -0.036 A 
ATOM     14  C   UNL A   1      29.476  26.065  23.995  1.00  0.00     0.045 C 
BRANCH   8  15
ATOM     15  S   UNL A   1      34.771  23.378  25.523  1.00  0.00     0.190 S 
ATOM     16  O   UNL A   1      34.363  22.535  26.634  1.00  0.00    -0.223 OA
ATOM     17  O   UNL A   1      35.716  24.457  25.754  1.00  0.00    -0.223 OA
BRANCH  15  18
ATOM     18  C   UNL A   1      35.521  22.334  24.316  1.00  0.00     0.199 C 
ATOM     19  C   UNL A   1      36.187  22.962  23.108  1.00  0.00     0.036 C 
BRANCH  18  20
ATOM     20  C   UNL A   1      36.237  21.145  24.907  1.00  0.00     0.238 C 
ATOM     21  C   UNL A   1      34.361  19.417  24.828  1.00  0.00     0.142 C 
ATOM     22  N   UNL A   1      35.673  19.927  25.096  1.00  0.00    -0.358 N 
ATOM     23  H   UNL A   1      36.284  19.266  25.496  1.00  0.00     0.163 HD
ATOM     24  O   UNL A   1      37.392  21.269  25.332  1.00  0.00    -0.274 OA
ENDBRANCH  18  20
ENDBRANCH  15  18
ENDBRANCH   8  15
ENDBRANCH   5   7
ENDBRANCH   4   5
ENDBRANCH   3   4
ENDBRANCH   2   3
ENDBRANCH   1   2
BRANCH   1  25
ATOM     25  C   UNL A   1      34.306  31.402  28.103  1.00  0.00     0.202 C 
BRANCH  25  26
ATOM     26  C   UNL A   1      35.400  31.260  29.170  1.00  0.00     0.261 C 
BRANCH  26  27
ATOM     27  O   UNL A   1      35.986  29.956  29.185  1.00  0.00    -0.460 OA
BRANCH  27  28
ATOM     28  C   UNL A   1      36.799  29.725  30.243  1.00  0.00     0.338 C 
ATOM     29  O   UNL A   1      36.472  29.396  31.373  1.00  0.00    -0.246 OA
BRANCH  28  30
ATOM     30  C   UNL A   1      38.192  29.763  29.780  1.00  0.00     0.060 A 
ATOM     31  C   UNL A   1      38.424  29.819  28.401  1.00  0.00     0.016 A 
ATOM     32  C   UNL A   1      39.250  29.705  30.688  1.00  0.00     0.016 A 
ATOM     33  C   UNL A   1      39.726  29.765  27.916  1.00  0.00     0.010 A 
ATOM     34  C   UNL A   1      40.554  29.646  30.201  1.00  0.00     0.010 A 
ATOM     35  C   UNL A   1      40.793  29.637  28.814  1.00  0.00    -0.014 A 
BRANCH  35  36
ATOM     36  C   UNL A   1      42.150  29.314  28.324  1.00  0.00     0.031 A 
ATOM     37  C   UNL A   1      42.445  27.891  27.942  1.00  0.00     0.074 A 
ATOM     38  C   UNL A   1      43.102  30.259  28.258  1.00  0.00     0.049 A 
ATOM     39  N   UNL A   1      43.588  27.332  27.645  1.00  0.00    -0.248 NA
ATOM     40  C   UNL A   1      41.295  26.971  27.904  1.00  0.00     0.031 C 
ATOM     41  C   UNL A   1      42.908  31.677  28.560  1.00  0.00     0.029 A 
ATOM     42  N   UNL A   1      44.431  30.160  27.938  1.00  0.00    -0.354 N 
ATOM     43  C   UNL A   1      43.299  25.993  27.410  1.00  0.00     0.074 A 
ATOM     44  C   UNL A   1      41.880  25.818  27.622  1.00  0.00     0.031 C 
ATOM     45  C   UNL A   1      44.086  32.312  28.436  1.00  0.00     0.029 A 
ATOM     46  C   UNL A   1      45.121  31.339  28.091  1.00  0.00     0.049 A 
ATOM     47  H   UNL A   1      44.851  29.325  27.629  1.00  0.00     0.167 HD
ATOM     48  C   UNL A   1      44.148  25.003  27.047  1.00  0.00     0.037 A 
ATOM     49  C   UNL A   1      46.441  31.588  28.000  1.00  0.00     0.037 A 
ATOM     50  C   UNL A   1      45.558  25.200  26.836  1.00  0.00     0.049 A 
ATOM     51  C   UNL A   1      47.378  30.458  27.657  1.00  0.00     0.074 A 
ATOM     52  C   UNL A   1      46.508  24.271  26.454  1.00  0.00     0.029 A 
ATOM     53  N   UNL A   1      46.220  26.409  26.996  1.00  0.00    -0.354 N 
ATOM     54  N   UNL A   1      47.098  29.196  27.432  1.00  0.00    -0.248 NA
ATOM     55  C   UNL A   1      48.807  30.783  27.555  1.00  0.00     0.031 C 
ATOM     56  C   UNL A   1      47.753  24.905  26.435  1.00  0.00     0.029 A 
ATOM     57  C   UNL A   1      47.569  26.246  26.739  1.00  0.00     0.049 A 
ATOM     58  H   UNL A   1      45.792  27.257  27.255  1.00  0.00     0.167 HD
ATOM     59  C   UNL A   1      48.309  28.587  27.116  1.00  0.00     0.074 A 
ATOM     60  C   UNL A   1      49.324  29.619  27.186  1.00  0.00     0.031 C 
ATOM     61  C   UNL A   1      48.558  27.295  26.787  1.00  0.00     0.037 A 
BRANCH  48  62
ATOM     62  C   UNL A   1      43.580  23.619  26.886  1.00  0.00     0.058 A 
ATOM     63  C   UNL A   1      43.334  22.784  27.986  1.00  0.00     0.135 A 
ATOM     64  C   UNL A   1      43.252  23.133  25.610  1.00  0.00     0.135 A 
ATOM     65  F   UNL A   1      43.648  23.188  29.228  1.00  0.00    -0.206 F 
ATOM     66  C   UNL A   1      42.807  21.506  27.825  1.00  0.00     0.059 A 
ATOM     67  C   UNL A   1      42.695  21.871  25.428  1.00  0.00     0.059 A 
ATOM     68  F   UNL A   1      43.473  23.888  24.521  1.00  0.00    -0.206 F 
ATOM     69  C   UNL A   1      42.490  21.059  26.542  1.00  0.00     0.060 A 
BRANCH  69  70
ATOM     70  S   UNL A   1      41.803  19.401  26.352  1.00  0.00     0.124 S 
ATOM     71  O   UNL A   1      40.383  19.694  26.182  1.00  0.00    -0.237 OA
ATOM     72  O   UNL A   1      42.496  18.911  25.165  1.00  0.00    -0.237 OA
ATOM     73  O   UNL A   1      42.161  18.739  27.602  1.00  0.00    -0.744 OA
ENDBRANCH  69  70
ENDBRANCH  48  62
BRANCH  49  74
ATOM     74  C   UNL A   1      46.956  32.962  28.248  1.00  0.00     0.058 A 
ATOM     75  C   UNL A   1      46.955  33.929  27.233  1.00  0.00     0.135 A 
ATOM     76  C   UNL A   1      47.451  33.338  29.508  1.00  0.00     0.135 A 
ATOM     77  F   UNL A   1      46.500  33.615  26.010  1.00  0.00    -0.206 F 
ATOM     78  C   UNL A   1      47.440  35.213  27.449  1.00  0.00     0.059 A 
ATOM     79  C   UNL A   1      47.915  34.625  29.756  1.00  0.00     0.059 A 
ATOM     80  F   UNL A   1      47.461  32.455  30.518  1.00  0.00    -0.206 F 
ATOM     81  C   UNL A   1      47.915  35.554  28.717  1.00  0.00     0.060 A 
BRANCH  81  82
ATOM     82  S   UNL A   1      48.496  37.240  28.999  1.00  0.00     0.124 S 
ATOM     83  O   UNL A   1      49.923  37.107  28.730  1.00  0.00    -0.237 OA
ATOM     84  O   UNL A   1      47.727  37.995  28.014  1.00  0.00    -0.237 OA
ATOM     85  O   UNL A   1      48.135  37.492  30.390  1.00  0.00    -0.744 OA
ENDBRANCH  81  82
ENDBRANCH  49  74
BRANCH  61  86
ATOM     86  C   UNL A   1      49.965  26.925  26.403  1.00  0.00     0.058 A 
ATOM     87  C   UNL A   1      50.874  26.385  27.326  1.00  0.00     0.135 A 
ATOM     88  C   UNL A   1      50.373  27.028  25.062  1.00  0.00     0.135 A 
ATOM     89  F   UNL A   1      50.536  26.271  28.620  1.00  0.00    -0.206 F 
ATOM     90  C   UNL A   1      52.142  25.968  26.934  1.00  0.00     0.059 A 
ATOM     91  C   UNL A   1      51.625  26.590  24.643  1.00  0.00     0.059 A 
ATOM     92  F   UNL A   1      49.538  27.528  24.137  1.00  0.00    -0.206 F 
ATOM     93  C   UNL A   1      52.505  26.066  25.589  1.00  0.00     0.060 A 
BRANCH  93  94
ATOM     94  S   UNL A   1      54.129  25.461  25.083  1.00  0.00     0.124 S 
ATOM     95  O   UNL A   1      53.911  24.019  25.058  1.00  0.00    -0.237 OA
ATOM     96  O   UNL A   1      54.307  26.099  23.782  1.00  0.00    -0.237 OA
ATOM     97  O   UNL A   1      55.016  25.944  26.138  1.00  0.00    -0.744 OA
ENDBRANCH  93  94
ENDBRANCH  61  86
ENDBRANCH  35  36
ENDBRANCH  28  30
ENDBRANCH  27  28
ENDBRANCH  26  27
ENDBRANCH  25  26
ENDBRANCH   1  25
TORSDOF 20
ENDMDL
MODEL 3
REMARK VINA RESULT:     -10.2      1.126      8.319
REMARK SMILES CNC(=O)[C@H](C)S(=O)(=O)c1cc(C(=O)OCCOCCOC(=O)c2ccc(-c3c4nc(c(-c5c(F)cc(S(=O)(=O)[O-])cc5F)c5ccc([nH]5)c(-c5c(F)cc(S(=O)(=O)[O-])cc5F)c5nc(c(-c6c(F)cc(S(=O)(=O)[O-])cc6F)c6ccc3[nH]6)C=C5)C=C4)cc2)c(C)cc1C
REMARK SMILES IDX 18 1 17 2 16 3 15 4 13 5 14 6 12 7 10 8 11 9 93 10 92 11
REMARK SMILES IDX 94 12 90 13 91 14 7 15 8 16 9 17 5 18 6 19 3 20 1 21 2 22
REMARK SMILES IDX 4 24 19 25 20 26 21 27 22 28 23 29 24 30 25 31 89 32 26 33
REMARK SMILES IDX 88 34 27 35 28 36 29 37 82 38 30 39 87 40 81 41 83 42 31 43
REMARK SMILES IDX 86 44 80 45 79 46 32 48 66 49 45 50 65 51 46 52 49 53 64 54
REMARK SMILES IDX 84 55 47 56 48 57 63 59 85 60 50 61 33 62 34 63 43 64 35 65
REMARK SMILES IDX 36 66 42 67 44 68 37 69 38 70 39 71 40 72 41 73 67 74 68 75
REMARK SMILES IDX 77 76 69 77 70 78 76 79 78 80 71 81 72 82 73 83 74 84 75 85
REMARK SMILES IDX 51 86 52 87 61 88 53 89 54 90 60 91 62 92 55 93 56 94 57 95
REMARK SMILES IDX 58 96 59 97
REMARK H PARENT 2 23 83 47 49 58
REMARK Flexibility Score: inf
ROOT
ATOM      1  O   UNL A   1      35.432  31.296  27.727  1.00  0.00    -0.374 OA
ENDROOT
BRANCH   1   2
ATOM      2  C   UNL A   1      34.752  30.053  27.533  1.00  0.00     0.202 C 
BRANCH   2   3
ATOM      3  C   UNL A   1      33.482  30.120  26.682  1.00  0.00     0.261 C 
BRANCH   3   4
ATOM      4  O   UNL A   1      33.156  28.814  26.168  1.00  0.00    -0.460 OA
BRANCH   4   5
ATOM      5  C   UNL A   1      32.053  28.225  26.671  1.00  0.00     0.338 C 
ATOM      6  O   UNL A   1      31.422  28.604  27.645  1.00  0.00    -0.246 OA
BRANCH   5   7
ATOM      7  C   UNL A   1      31.542  27.139  25.775  1.00  0.00     0.064 A 
ATOM      8  C   UNL A   1      31.379  24.691  25.550  1.00  0.00     0.071 A 
ATOM      9  C   UNL A   1      31.820  25.829  26.234  1.00  0.00     0.036 A 
ATOM     10  C   UNL A   1      30.842  24.852  24.265  1.00  0.00    -0.032 A 
ATOM     11  C   UNL A   1      30.526  26.154  23.827  1.00  0.00     0.009 A 
ATOM     12  C   UNL A   1      30.626  23.745  23.266  1.00  0.00     0.046 C 
ATOM     13  C   UNL A   1      30.815  27.307  24.586  1.00  0.00    -0.036 A 
ATOM     14  C   UNL A   1      30.408  28.627  23.987  1.00  0.00     0.045 C 
BRANCH   8  15
ATOM     15  S   UNL A   1      31.618  23.085  26.313  1.00  0.00     0.190 S 
ATOM     16  O   UNL A   1      30.408  22.345  25.994  1.00  0.00    -0.223 OA
ATOM     17  O   UNL A   1      31.964  23.318  27.704  1.00  0.00    -0.223 OA
BRANCH  15  18
ATOM     18  C   UNL A   1      32.976  22.198  25.622  1.00  0.00     0.199 C 
ATOM     19  C   UNL A   1      34.017  22.952  24.819  1.00  0.00     0.036 C 
BRANCH  18  20
ATOM     20  C   UNL A   1      33.511  21.114  26.524  1.00  0.00     0.238 C 
ATOM     21  C   UNL A   1      32.644  19.051  25.299  1.00  0.00     0.142 C 
ATOM     22  N   UNL A   1      33.328  19.787  26.321  1.00  0.00    -0.358 N 
ATOM     23  H   UNL A   1      33.745  19.220  27.009  1.00  0.00     0.163 HD
ATOM     24  O   UNL A   1      34.097  21.416  27.571  1.00  0.00    -0.274 OA
ENDBRANCH  18  20
ENDBRANCH  15  18
ENDBRANCH   8  15
ENDBRANCH   5   7
ENDBRANCH   4   5
ENDBRANCH   3   4
ENDBRANCH   2   3
ENDBRANCH   1   2
BRANCH   1  25
ATOM     25  C   UNL A   1      35.119  32.025  28.909  1.00  0.00     0.202 C 
BRANCH  25  26
ATOM     26  C   UNL A   1      35.507  31.381  30.246  1.00  0.00     0.261 C 
BRANCH  26  27
ATOM     27  O   UNL A   1      36.230  30.158  30.076  1.00  0.00    -0.460 OA
BRANCH  27  28
ATOM     28  C   UNL A   1      37.097  29.882  31.079  1.00  0.00     0.338 C 
ATOM     29  O   UNL A   1      36.828  29.538  32.220  1.00  0.00    -0.246 OA
BRANCH  28  30
ATOM     30  C   UNL A   1      38.461  29.894  30.536  1.00  0.00     0.060 A 
ATOM     31  C   UNL A   1      38.620  30.147  29.169  1.00  0.00     0.016 A 
ATOM     32  C   UNL A   1      39.560  29.619  31.352  1.00  0.00     0.016 A 
ATOM     33  C   UNL A   1      39.885  30.077  28.595  1.00  0.00     0.010 A 
ATOM     34  C   UNL A   1      40.825  29.544  30.776  1.00  0.00     0.010 A 
ATOM     35  C   UNL A   1      40.986  29.735  29.390  1.00  0.00    -0.014 A 
BRANCH  35  36
ATOM     36  C   UNL A   1      42.284  29.398  28.768  1.00  0.00     0.031 A 
ATOM     37  C   UNL A   1      42.498  27.986  28.299  1.00  0.00     0.074 A 
ATOM     38  C   UNL A   1      43.255  30.318  28.657  1.00  0.00     0.049 A 
ATOM     39  N   UNL A   1      43.592  27.410  27.878  1.00  0.00    -0.248 NA
ATOM     40  C   UNL A   1      41.320  27.101  28.324  1.00  0.00     0.031 C 
ATOM     41  C   UNL A   1      43.135  31.725  29.037  1.00  0.00     0.029 A 
ATOM     42  N   UNL A   1      44.548  30.196  28.217  1.00  0.00    -0.354 N 
ATOM     43  C   UNL A   1      43.241  26.092  27.611  1.00  0.00     0.074 A 
ATOM     44  C   UNL A   1      41.841  25.947  27.941  1.00  0.00     0.031 C 
ATOM     45  C   UNL A   1      44.317  32.332  28.836  1.00  0.00     0.029 A 
ATOM     46  C   UNL A   1      45.286  31.347  28.358  1.00  0.00     0.049 A 
ATOM     47  H   UNL A   1      44.912  29.365  27.835  1.00  0.00     0.167 HD
ATOM     48  C   UNL A   1      44.022  25.096  27.131  1.00  0.00     0.037 A 
ATOM     49  C   UNL A   1      46.600  31.563  28.161  1.00  0.00     0.037 A 
ATOM     50  C   UNL A   1      45.414  25.263  26.804  1.00  0.00     0.049 A 
ATOM     51  C   UNL A   1      47.467  30.425  27.686  1.00  0.00     0.074 A 
ATOM     52  C   UNL A   1      46.296  24.326  26.298  1.00  0.00     0.029 A 
ATOM     53  N   UNL A   1      46.126  26.444  26.957  1.00  0.00    -0.354 N 
ATOM     54  N   UNL A   1      47.128  29.182  27.432  1.00  0.00    -0.248 NA
ATOM     55  C   UNL A   1      48.891  30.714  27.471  1.00  0.00     0.031 C 
ATOM     56  C   UNL A   1      47.554  24.925  26.196  1.00  0.00     0.029 A 
ATOM     57  C   UNL A   1      47.441  26.255  26.573  1.00  0.00     0.049 A 
ATOM     58  H   UNL A   1      45.749  27.291  27.289  1.00  0.00     0.167 HD
ATOM     59  C   UNL A   1      48.286  28.555  26.984  1.00  0.00     0.074 A 
ATOM     60  C   UNL A   1      49.335  29.553  27.008  1.00  0.00     0.031 C 
ATOM     61  C   UNL A   1      48.464  27.273  26.579  1.00  0.00     0.037 A 
BRANCH  48  62
ATOM     62  C   UNL A   1      43.399  23.737  26.961  1.00  0.00     0.058 A 
ATOM     63  C   UNL A   1      42.924  23.287  25.720  1.00  0.00     0.135 A 
ATOM     64  C   UNL A   1      43.302  22.862  28.055  1.00  0.00     0.135 A 
ATOM     65  F   UNL A   1      42.972  24.090  24.644  1.00  0.00    -0.206 F 
ATOM     66  C   UNL A   1      42.351  22.027  25.574  1.00  0.00     0.059 A 
ATOM     67  C   UNL A   1      42.761  21.586  27.926  1.00  0.00     0.059 A 
ATOM     68  F   UNL A   1      43.735  23.243  29.267  1.00  0.00    -0.206 F 
ATOM     69  C   UNL A   1      42.275  21.184  26.683  1.00  0.00     0.060 A 
BRANCH  69  70
ATOM     70  S   UNL A   1      41.533  19.552  26.475  1.00  0.00     0.124 S 
ATOM     71  O   UNL A   1      41.633  19.014  27.828  1.00  0.00    -0.237 OA
ATOM     72  O   UNL A   1      40.186  19.878  26.020  1.00  0.00    -0.237 OA
ATOM     73  O   UNL A   1      42.390  18.912  25.482  1.00  0.00    -0.744 OA
ENDBRANCH  69  70
ENDBRANCH  48  62
BRANCH  49  74
ATOM     74  C   UNL A   1      47.179  32.909  28.421  1.00  0.00     0.058 A 
ATOM     75  C   UNL A   1      47.647  33.260  29.695  1.00  0.00     0.135 A 
ATOM     76  C   UNL A   1      47.283  33.867  27.400  1.00  0.00     0.135 A 
ATOM     77  F   UNL A   1      47.562  32.381  30.706  1.00  0.00    -0.206 F 
ATOM     78  C   UNL A   1      48.183  34.517  29.954  1.00  0.00     0.059 A 
ATOM     79  C   UNL A   1      47.840  35.121  27.627  1.00  0.00     0.059 A 
ATOM     80  F   UNL A   1      46.862  33.577  26.159  1.00  0.00    -0.206 F 
ATOM     81  C   UNL A   1      48.279  35.440  28.911  1.00  0.00     0.060 A 
BRANCH  81  82
ATOM     82  S   UNL A   1      49.021  37.051  29.248  1.00  0.00     0.124 S 
ATOM     83  O   UNL A   1      49.706  36.801  30.511  1.00  0.00    -0.237 OA
ATOM     84  O   UNL A   1      49.878  37.240  28.082  1.00  0.00    -0.237 OA
ATOM     85  O   UNL A   1      47.868  37.944  29.320  1.00  0.00    -0.744 OA
ENDBRANCH  81  82
ENDBRANCH  49  74
BRANCH  61  86
ATOM     86  C   UNL A   1      49.819  26.881  26.055  1.00  0.00     0.058 A 
ATOM     87  C   UNL A   1      50.188  27.079  24.716  1.00  0.00     0.135 A 
ATOM     88  C   UNL A   1      50.793  26.385  26.938  1.00  0.00     0.135 A 
ATOM     89  F   UNL A   1      49.293  27.545  23.830  1.00  0.00    -0.206 F 
ATOM     90  C   UNL A   1      51.474  26.791  24.269  1.00  0.00     0.059 A 
ATOM     91  C   UNL A   1      52.091  26.118  26.520  1.00  0.00     0.059 A 
ATOM     92  F   UNL A   1      50.494  26.186  28.232  1.00  0.00    -0.206 F 
ATOM     93  C   UNL A   1      52.421  26.320  25.181  1.00  0.00     0.060 A 
BRANCH  93  94
ATOM     94  S   UNL A   1      54.103  26.012  24.601  1.00  0.00     0.124 S 
ATOM     95  O   UNL A   1      54.253  24.587  24.875  1.00  0.00    -0.237 OA
ATOM     96  O   UNL A   1      54.018  26.381  23.191  1.00  0.00    -0.237 OA
ATOM     97  O   UNL A   1      54.916  26.900  25.427  1.00  0.00    -0.744 OA
ENDBRANCH  93  94
ENDBRANCH  61  86
ENDBRANCH  35  36
ENDBRANCH  28  30
ENDBRANCH  27  28
ENDBRANCH  26  27
ENDBRANCH  25  26
ENDBRANCH   1  25
TORSDOF 20
ENDMDL
