MODEL 1
REMARK VINA RESULT:     -10.3      0.000      0.000
REMARK SMILES CC1C[NH+]([C@H]2COC[C@@H]2C(=O)OCCOCCOC(=O)c2ccc(-c3c4nc(c(-c5c(F)cc(S(=O)(=O)[O-])cc5F)c5ccc([nH]5)c(-c5c(F)cc(S(=O)(=O)[O-])cc5F)c5nc(c(-c6c(F)cc(S(=O)(=O)[O-])cc6F)c6ccc3[nH]6)C=C5)C=C4)cc2)C1
REMARK SMILES IDX 16 1 15 2 14 3 13 4 12 5 10 6 11 7 9 8 5 9 6 10 7 11 8 12
REMARK SMILES IDX 4 13 1 14 2 15 3 16 87 17 17 19 18 20 19 21 20 22 21 23
REMARK SMILES IDX 22 24 86 25 23 26 85 27 24 28 25 29 26 30 79 31 27 32 84 33
REMARK SMILES IDX 78 34 80 35 28 36 83 37 77 38 76 39 29 41 63 42 42 43 62 44
REMARK SMILES IDX 43 45 46 46 61 47 81 48 44 49 45 50 60 52 82 53 47 54 30 55
REMARK SMILES IDX 31 56 40 57 32 58 33 59 39 60 41 61 34 62 35 63 36 64 37 65
REMARK SMILES IDX 38 66 64 67 65 68 74 69 66 70 67 71 73 72 75 73 68 74 69 75
REMARK SMILES IDX 70 76 71 77 72 78 48 79 49 80 58 81 50 82 51 83 57 84 59 85
REMARK SMILES IDX 52 86 53 87 54 88 55 89 56 90
REMARK H PARENT 4 18 80 40 46 51
REMARK Flexibility Score: inf
ROOT
ATOM      1  C   UNL A   1      37.795  31.683  35.083  1.00  0.00     0.202 C 
ENDROOT
BRANCH   1   2
ATOM      2  O   UNL A   1      36.990  32.764  35.554  1.00  0.00    -0.374 OA
BRANCH   2   3
ATOM      3  C   UNL A   1      36.915  33.910  34.703  1.00  0.00     0.202 C 
BRANCH   3   4
ATOM      4  C   UNL A   1      35.497  34.406  34.412  1.00  0.00     0.261 C 
BRANCH   4   5
ATOM      5  O   UNL A   1      35.520  35.650  33.684  1.00  0.00    -0.463 OA
BRANCH   5   6
ATOM      6  C   UNL A   1      34.313  36.187  33.377  1.00  0.00     0.317 C 
ATOM      7  O   UNL A   1      33.890  37.250  33.821  1.00  0.00    -0.252 OA
BRANCH   6   8
ATOM      8  C   UNL A   1      33.525  35.384  32.366  1.00  0.00     0.185 C 
ATOM      9  C   UNL A   1      34.066  35.316  30.943  1.00  0.00     0.227 C 
ATOM     10  C   UNL A   1      33.356  36.494  30.261  1.00  0.00     0.226 C 
ATOM     11  O   UNL A   1      32.150  36.775  30.987  1.00  0.00    -0.374 OA
ATOM     12  C   UNL A   1      32.155  36.019  32.207  1.00  0.00     0.182 C 
BRANCH   9  13
ATOM     13  N   UNL A   1      33.856  33.949  30.420  1.00  0.00    -0.329 N 
ATOM     14  C   UNL A   1      35.549  32.144  28.022  1.00  0.00     0.020 C 
ATOM     15  C   UNL A   1      34.548  32.482  29.106  1.00  0.00     0.096 C 
ATOM     16  C   UNL A   1      35.085  33.121  30.415  1.00  0.00     0.271 C 
ATOM     17  C   UNL A   1      33.781  33.820  28.948  1.00  0.00     0.271 C 
ATOM     18  H   UNL A   1      33.045  33.704  30.987  1.00  0.00     0.348 HD
ENDBRANCH   9  13
ENDBRANCH   6   8
ENDBRANCH   5   6
ENDBRANCH   4   5
ENDBRANCH   3   4
ENDBRANCH   2   3
ENDBRANCH   1   2
BRANCH   1  19
ATOM     19  C   UNL A   1      37.734  31.423  33.574  1.00  0.00     0.261 C 
BRANCH  19  20
ATOM     20  O   UNL A   1      37.443  30.042  33.289  1.00  0.00    -0.460 OA
BRANCH  20  21
ATOM     21  C   UNL A   1      37.015  29.801  32.028  1.00  0.00     0.338 C 
ATOM     22  O   UNL A   1      35.915  30.069  31.560  1.00  0.00    -0.246 OA
BRANCH  21  23
ATOM     23  C   UNL A   1      38.132  29.313  31.195  1.00  0.00     0.060 A 
ATOM     24  C   UNL A   1      39.137  28.578  31.835  1.00  0.00     0.016 A 
ATOM     25  C   UNL A   1      38.235  29.617  29.834  1.00  0.00     0.016 A 
ATOM     26  C   UNL A   1      40.283  28.204  31.137  1.00  0.00     0.010 A 
ATOM     27  C   UNL A   1      39.389  29.245  29.135  1.00  0.00     0.010 A 
ATOM     28  C   UNL A   1      40.437  28.577  29.794  1.00  0.00    -0.014 A 
BRANCH  28  29
ATOM     29  C   UNL A   1      41.764  28.429  29.148  1.00  0.00     0.031 A 
ATOM     30  C   UNL A   1      42.147  27.084  28.589  1.00  0.00     0.074 A 
ATOM     31  C   UNL A   1      42.592  29.480  29.012  1.00  0.00     0.049 A 
ATOM     32  N   UNL A   1      43.256  26.713  28.004  1.00  0.00    -0.248 NA
ATOM     33  C   UNL A   1      41.142  26.013  28.704  1.00  0.00     0.031 C 
ATOM     34  C   UNL A   1      42.314  30.842  29.467  1.00  0.00     0.029 A 
ATOM     35  N   UNL A   1      43.840  29.564  28.447  1.00  0.00    -0.354 N 
ATOM     36  C   UNL A   1      43.084  25.372  27.681  1.00  0.00     0.074 A 
ATOM     37  C   UNL A   1      41.778  24.983  28.166  1.00  0.00     0.031 C 
ATOM     38  C   UNL A   1      43.365  31.625  29.169  1.00  0.00     0.029 A 
ATOM     39  C   UNL A   1      44.400  30.817  28.526  1.00  0.00     0.049 A 
ATOM     40  H   UNL A   1      44.291  28.798  28.022  1.00  0.00     0.167 HD
ATOM     41  C   UNL A   1      43.930  24.542  27.027  1.00  0.00     0.037 A 
ATOM     42  C   UNL A   1      45.615  31.253  28.139  1.00  0.00     0.037 A 
ATOM     43  C   UNL A   1      45.228  24.931  26.542  1.00  0.00     0.049 A 
ATOM     44  C   UNL A   1      46.568  30.292  27.475  1.00  0.00     0.074 A 
ATOM     45  C   UNL A   1      46.167  24.161  25.878  1.00  0.00     0.029 A 
ATOM     46  N   UNL A   1      45.769  26.202  26.665  1.00  0.00    -0.354 N 
ATOM     47  N   UNL A   1      46.392  29.026  27.179  1.00  0.00    -0.248 NA
ATOM     48  C   UNL A   1      47.885  30.821  27.086  1.00  0.00     0.031 C 
ATOM     49  C   UNL A   1      47.290  24.957  25.631  1.00  0.00     0.029 A 
ATOM     50  C   UNL A   1      47.032  26.235  26.100  1.00  0.00     0.049 A 
ATOM     51  H   UNL A   1      45.320  26.968  27.092  1.00  0.00     0.167 HD
ATOM     52  C   UNL A   1      47.558  28.618  26.538  1.00  0.00     0.074 A 
ATOM     53  C   UNL A   1      48.430  29.772  26.486  1.00  0.00     0.031 C 
ATOM     54  C   UNL A   1      47.878  27.400  26.036  1.00  0.00     0.037 A 
BRANCH  41  55
ATOM     55  C   UNL A   1      43.484  23.123  26.806  1.00  0.00     0.058 A 
ATOM     56  C   UNL A   1      43.165  22.645  25.525  1.00  0.00     0.135 A 
ATOM     57  C   UNL A   1      43.411  22.222  27.879  1.00  0.00     0.135 A 
ATOM     58  F   UNL A   1      43.197  23.471  24.468  1.00  0.00    -0.206 F 
ATOM     59  C   UNL A   1      42.773  21.327  25.319  1.00  0.00     0.059 A 
ATOM     60  C   UNL A   1      43.046  20.892  27.693  1.00  0.00     0.059 A 
ATOM     61  F   UNL A   1      43.701  22.630  29.125  1.00  0.00    -0.206 F 
ATOM     62  C   UNL A   1      42.719  20.457  26.410  1.00  0.00     0.060 A 
BRANCH  62  63
ATOM     63  S   UNL A   1      42.225  18.744  26.123  1.00  0.00     0.124 S 
ATOM     64  O   UNL A   1      43.129  18.357  25.044  1.00  0.00    -0.237 OA
ATOM     65  O   UNL A   1      42.483  18.123  27.418  1.00  0.00    -0.237 OA
ATOM     66  O   UNL A   1      40.817  18.854  25.753  1.00  0.00    -0.744 OA
ENDBRANCH  62  63
ENDBRANCH  41  55
BRANCH  42  67
ATOM     67  C   UNL A   1      46.016  32.666  28.376  1.00  0.00     0.058 A 
ATOM     68  C   UNL A   1      45.795  33.657  27.407  1.00  0.00     0.135 A 
ATOM     69  C   UNL A   1      46.658  33.048  29.564  1.00  0.00     0.135 A 
ATOM     70  F   UNL A   1      45.193  33.339  26.250  1.00  0.00    -0.206 F 
ATOM     71  C   UNL A   1      46.220  34.968  27.594  1.00  0.00     0.059 A 
ATOM     72  C   UNL A   1      47.070  34.358  29.786  1.00  0.00     0.059 A 
ATOM     73  F   UNL A   1      46.884  32.142  30.529  1.00  0.00    -0.206 F 
ATOM     74  C   UNL A   1      46.861  35.308  28.786  1.00  0.00     0.060 A 
BRANCH  74  75
ATOM     75  S   UNL A   1      47.394  37.016  29.031  1.00  0.00     0.124 S 
ATOM     76  O   UNL A   1      48.175  37.255  27.823  1.00  0.00    -0.237 OA
ATOM     77  O   UNL A   1      46.122  37.726  29.121  1.00  0.00    -0.237 OA
ATOM     78  O   UNL A   1      48.156  36.953  30.275  1.00  0.00    -0.744 OA
ENDBRANCH  74  75
ENDBRANCH  42  67
BRANCH  54  79
ATOM     79  C   UNL A   1      49.201  27.262  25.335  1.00  0.00     0.058 A 
ATOM     80  C   UNL A   1      50.369  26.901  26.023  1.00  0.00     0.135 A 
ATOM     81  C   UNL A   1      49.287  27.444  23.945  1.00  0.00     0.135 A 
ATOM     82  F   UNL A   1      50.341  26.719  27.353  1.00  0.00    -0.206 F 
ATOM     83  C   UNL A   1      51.583  26.748  25.361  1.00  0.00     0.059 A 
ATOM     84  C   UNL A   1      50.485  27.273  23.259  1.00  0.00     0.059 A 
ATOM     85  F   UNL A   1      48.196  27.779  23.238  1.00  0.00    -0.206 F 
ATOM     86  C   UNL A   1      51.631  26.937  23.979  1.00  0.00     0.060 A 
BRANCH  86  87
ATOM     87  S   UNL A   1      53.206  26.707  23.126  1.00  0.00     0.124 S 
ATOM     88  O   UNL A   1      53.762  28.056  23.169  1.00  0.00    -0.237 OA
ATOM     89  O   UNL A   1      53.876  25.718  23.964  1.00  0.00    -0.237 OA
ATOM     90  O   UNL A   1      52.809  26.233  21.803  1.00  0.00    -0.744 OA
ENDBRANCH  86  87
ENDBRANCH  54  79
ENDBRANCH  28  29
ENDBRANCH  21  23
ENDBRANCH  20  21
ENDBRANCH  19  20
ENDBRANCH   1  19
TORSDOF 18
ENDMDL
MODEL 2
REMARK VINA RESULT:     -10.1      3.521      9.632
REMARK SMILES CC1C[NH+]([C@H]2COC[C@@H]2C(=O)OCCOCCOC(=O)c2ccc(-c3c4nc(c(-c5c(F)cc(S(=O)(=O)[O-])cc5F)c5ccc([nH]5)c(-c5c(F)cc(S(=O)(=O)[O-])cc5F)c5nc(c(-c6c(F)cc(S(=O)(=O)[O-])cc6F)c6ccc3[nH]6)C=C5)C=C4)cc2)C1
REMARK SMILES IDX 16 1 15 2 14 3 13 4 12 5 10 6 11 7 9 8 5 9 6 10 7 11 8 12
REMARK SMILES IDX 4 13 1 14 2 15 3 16 87 17 17 19 18 20 19 21 20 22 21 23
REMARK SMILES IDX 22 24 86 25 23 26 85 27 24 28 25 29 26 30 79 31 27 32 84 33
REMARK SMILES IDX 78 34 80 35 28 36 83 37 77 38 76 39 29 41 63 42 42 43 62 44
REMARK SMILES IDX 43 45 46 46 61 47 81 48 44 49 45 50 60 52 82 53 47 54 30 55
REMARK SMILES IDX 31 56 40 57 32 58 33 59 39 60 41 61 34 62 35 63 36 64 37 65
REMARK SMILES IDX 38 66 64 67 65 68 74 69 66 70 67 71 73 72 75 73 68 74 69 75
REMARK SMILES IDX 70 76 71 77 72 78 48 79 49 80 58 81 50 82 51 83 57 84 59 85
REMARK SMILES IDX 52 86 53 87 54 88 55 89 56 90
REMARK H PARENT 4 18 80 40 46 51
REMARK Flexibility Score: inf
ROOT
ATOM      1  C   UNL A   1      35.444  34.106  29.004  1.00  0.00     0.202 C 
ENDROOT
BRANCH   1   2
ATOM      2  O   UNL A   1      36.494  33.624  29.843  1.00  0.00    -0.374 OA
BRANCH   2   3
ATOM      3  C   UNL A   1      37.812  34.075  29.523  1.00  0.00     0.202 C 
BRANCH   3   4
ATOM      4  C   UNL A   1      38.594  34.673  30.696  1.00  0.00     0.261 C 
BRANCH   4   5
ATOM      5  O   UNL A   1      38.095  34.182  31.956  1.00  0.00    -0.463 OA
BRANCH   5   6
ATOM      6  C   UNL A   1      39.020  33.971  32.925  1.00  0.00     0.317 C 
ATOM      7  O   UNL A   1      39.991  34.693  33.131  1.00  0.00    -0.252 OA
BRANCH   6   8
ATOM      8  C   UNL A   1      38.726  32.774  33.802  1.00  0.00     0.185 C 
ATOM      9  C   UNL A   1      38.274  31.490  33.115  1.00  0.00     0.227 C 
ATOM     10  C   UNL A   1      36.745  31.625  33.132  1.00  0.00     0.226 C 
ATOM     11  O   UNL A   1      36.381  32.508  34.204  1.00  0.00    -0.374 OA
ATOM     12  C   UNL A   1      37.571  33.122  34.723  1.00  0.00     0.182 C 
BRANCH   9  13
ATOM     13  N   UNL A   1      38.902  30.340  33.800  1.00  0.00    -0.329 N 
ATOM     14  C   UNL A   1      41.928  28.769  33.299  1.00  0.00     0.020 C 
ATOM     15  C   UNL A   1      40.585  29.109  33.908  1.00  0.00     0.096 C 
ATOM     16  C   UNL A   1      40.294  30.599  34.237  1.00  0.00     0.271 C 
ATOM     17  C   UNL A   1      39.395  29.252  32.925  1.00  0.00     0.271 C 
ATOM     18  H   UNL A   1      38.156  30.147  34.467  1.00  0.00     0.348 HD
ENDBRANCH   9  13
ENDBRANCH   6   8
ENDBRANCH   5   6
ENDBRANCH   4   5
ENDBRANCH   3   4
ENDBRANCH   2   3
ENDBRANCH   1   2
BRANCH   1  19
ATOM     19  C   UNL A   1      34.126  33.326  29.083  1.00  0.00     0.261 C 
BRANCH  19  20
ATOM     20  O   UNL A   1      34.353  31.941  29.402  1.00  0.00    -0.460 OA
BRANCH  20  21
ATOM     21  C   UNL A   1      34.486  31.127  28.330  1.00  0.00     0.338 C 
ATOM     22  O   UNL A   1      33.753  31.074  27.350  1.00  0.00    -0.246 OA
BRANCH  21  23
ATOM     23  C   UNL A   1      35.767  30.397  28.400  1.00  0.00     0.060 A 
ATOM     24  C   UNL A   1      36.159  29.904  29.651  1.00  0.00     0.016 A 
ATOM     25  C   UNL A   1      36.603  30.251  27.289  1.00  0.00     0.016 A 
ATOM     26  C   UNL A   1      37.415  29.325  29.813  1.00  0.00     0.010 A 
ATOM     27  C   UNL A   1      37.868  29.674  27.454  1.00  0.00     0.010 A 
ATOM     28  C   UNL A   1      38.296  29.250  28.726  1.00  0.00    -0.014 A 
BRANCH  28  29
ATOM     29  C   UNL A   1      39.719  28.902  28.967  1.00  0.00     0.031 A 
ATOM     30  C   UNL A   1      40.613  29.933  29.604  1.00  0.00     0.074 A 
ATOM     31  C   UNL A   1      40.194  27.678  28.677  1.00  0.00     0.049 A 
ATOM     32  N   UNL A   1      41.887  29.864  29.890  1.00  0.00    -0.248 NA
ATOM     33  C   UNL A   1      39.986  31.215  29.969  1.00  0.00     0.031 C 
ATOM     34  C   UNL A   1      39.414  26.580  28.105  1.00  0.00     0.029 A 
ATOM     35  N   UNL A   1      41.452  27.152  28.829  1.00  0.00    -0.354 N 
ATOM     36  C   UNL A   1      42.214  31.086  30.466  1.00  0.00     0.074 A 
ATOM     37  C   UNL A   1      41.013  31.892  30.459  1.00  0.00     0.031 C 
ATOM     38  C   UNL A   1      40.216  25.512  27.947  1.00  0.00     0.029 A 
ATOM     39  C   UNL A   1      41.569  25.858  28.382  1.00  0.00     0.049 A 
ATOM     40  H   UNL A   1      42.202  27.655  29.222  1.00  0.00     0.167 HD
ATOM     41  C   UNL A   1      43.401  31.495  30.971  1.00  0.00     0.037 A 
ATOM     42  C   UNL A   1      42.647  25.053  28.315  1.00  0.00     0.037 A 
ATOM     43  C   UNL A   1      44.594  30.690  30.980  1.00  0.00     0.049 A 
ATOM     44  C   UNL A   1      43.976  25.556  28.819  1.00  0.00     0.074 A 
ATOM     45  C   UNL A   1      45.852  31.019  31.456  1.00  0.00     0.029 A 
ATOM     46  N   UNL A   1      44.677  29.394  30.494  1.00  0.00    -0.354 N 
ATOM     47  N   UNL A   1      44.270  26.716  29.360  1.00  0.00    -0.248 NA
ATOM     48  C   UNL A   1      45.122  24.640  28.710  1.00  0.00     0.031 C 
ATOM     49  C   UNL A   1      46.704  29.933  31.226  1.00  0.00     0.029 A 
ATOM     50  C   UNL A   1      45.965  28.912  30.649  1.00  0.00     0.049 A 
ATOM     51  H   UNL A   1      43.929  28.891  30.097  1.00  0.00     0.167 HD
ATOM     52  C   UNL A   1      45.621  26.653  29.687  1.00  0.00     0.074 A 
ATOM     53  C   UNL A   1      46.086  25.341  29.288  1.00  0.00     0.031 C 
ATOM     54  C   UNL A   1      46.406  27.594  30.267  1.00  0.00     0.037 A 
BRANCH  41  55
ATOM     55  C   UNL A   1      43.475  32.882  31.545  1.00  0.00     0.058 A 
ATOM     56  C   UNL A   1      43.320  33.116  32.920  1.00  0.00     0.135 A 
ATOM     57  C   UNL A   1      43.740  33.985  30.718  1.00  0.00     0.135 A 
ATOM     58  F   UNL A   1      43.043  32.100  33.752  1.00  0.00    -0.206 F 
ATOM     59  C   UNL A   1      43.409  34.398  33.453  1.00  0.00     0.059 A 
ATOM     60  C   UNL A   1      43.858  35.272  31.232  1.00  0.00     0.059 A 
ATOM     61  F   UNL A   1      43.891  33.816  29.394  1.00  0.00    -0.206 F 
ATOM     62  C   UNL A   1      43.681  35.470  32.601  1.00  0.00     0.060 A 
BRANCH  62  63
ATOM     63  S   UNL A   1      43.811  37.125  33.310  1.00  0.00     0.124 S 
ATOM     64  O   UNL A   1      42.623  37.173  34.157  1.00  0.00    -0.237 OA
ATOM     65  O   UNL A   1      45.088  37.065  34.013  1.00  0.00    -0.237 OA
ATOM     66  O   UNL A   1      43.783  37.999  32.140  1.00  0.00    -0.744 OA
ENDBRANCH  62  63
ENDBRANCH  41  55
BRANCH  42  67
ATOM     67  C   UNL A   1      42.531  23.686  27.740  1.00  0.00     0.058 A 
ATOM     68  C   UNL A   1      42.433  22.555  28.566  1.00  0.00     0.135 A 
ATOM     69  C   UNL A   1      42.548  23.479  26.352  1.00  0.00     0.135 A 
ATOM     70  F   UNL A   1      42.423  22.700  29.901  1.00  0.00    -0.206 F 
ATOM     71  C   UNL A   1      42.384  21.269  28.039  1.00  0.00     0.059 A 
ATOM     72  C   UNL A   1      42.474  22.204  25.800  1.00  0.00     0.059 A 
ATOM     73  F   UNL A   1      42.629  24.528  25.517  1.00  0.00    -0.206 F 
ATOM     74  C   UNL A   1      42.410  21.104  26.654  1.00  0.00     0.060 A 
BRANCH  74  75
ATOM     75  S   UNL A   1      42.326  19.432  25.976  1.00  0.00     0.124 S 
ATOM     76  O   UNL A   1      43.282  19.514  24.878  1.00  0.00    -0.237 OA
ATOM     77  O   UNL A   1      42.731  18.616  27.116  1.00  0.00    -0.237 OA
ATOM     78  O   UNL A   1      40.925  19.300  25.586  1.00  0.00    -0.744 OA
ENDBRANCH  74  75
ENDBRANCH  42  67
BRANCH  54  79
ATOM     79  C   UNL A   1      47.833  27.225  30.560  1.00  0.00     0.058 A 
ATOM     80  C   UNL A   1      48.218  26.668  31.789  1.00  0.00     0.135 A 
ATOM     81  C   UNL A   1      48.821  27.384  29.574  1.00  0.00     0.135 A 
ATOM     82  F   UNL A   1      47.312  26.498  32.766  1.00  0.00    -0.206 F 
ATOM     83  C   UNL A   1      49.536  26.304  32.040  1.00  0.00     0.059 A 
ATOM     84  C   UNL A   1      50.141  27.004  29.794  1.00  0.00     0.059 A 
ATOM     85  F   UNL A   1      48.504  27.902  28.376  1.00  0.00    -0.206 F 
ATOM     86  C   UNL A   1      50.491  26.476  31.037  1.00  0.00     0.060 A 
BRANCH  86  87
ATOM     87  S   UNL A   1      52.194  25.972  31.363  1.00  0.00     0.124 S 
ATOM     88  O   UNL A   1      52.796  26.101  30.040  1.00  0.00    -0.237 OA
ATOM     89  O   UNL A   1      52.628  26.951  32.355  1.00  0.00    -0.237 OA
ATOM     90  O   UNL A   1      52.054  24.606  31.859  1.00  0.00    -0.744 OA
ENDBRANCH  86  87
ENDBRANCH  54  79
ENDBRANCH  28  29
ENDBRANCH  21  23
ENDBRANCH  20  21
ENDBRANCH  19  20
ENDBRANCH   1  19
TORSDOF 18
ENDMDL
MODEL 3
REMARK VINA RESULT:      -9.9      7.125     12.875
REMARK SMILES CC1C[NH+]([C@H]2COC[C@@H]2C(=O)OCCOCCOC(=O)c2ccc(-c3c4nc(c(-c5c(F)cc(S(=O)(=O)[O-])cc5F)c5ccc([nH]5)c(-c5c(F)cc(S(=O)(=O)[O-])cc5F)c5nc(c(-c6c(F)cc(S(=O)(=O)[O-])cc6F)c6ccc3[nH]6)C=C5)C=C4)cc2)C1
REMARK SMILES IDX 16 1 15 2 14 3 13 4 12 5 10 6 11 7 9 8 5 9 6 10 7 11 8 12
REMARK SMILES IDX 4 13 1 14 2 15 3 16 87 17 17 19 18 20 19 21 20 22 21 23
REMARK SMILES IDX 22 24 86 25 23 26 85 27 24 28 25 29 26 30 79 31 27 32 84 33
REMARK SMILES IDX 78 34 80 35 28 36 83 37 77 38 76 39 29 41 63 42 42 43 62 44
REMARK SMILES IDX 43 45 46 46 61 47 81 48 44 49 45 50 60 52 82 53 47 54 30 55
REMARK SMILES IDX 31 56 40 57 32 58 33 59 39 60 41 61 34 62 35 63 36 64 37 65
REMARK SMILES IDX 38 66 64 67 65 68 74 69 66 70 67 71 73 72 75 73 68 74 69 75
REMARK SMILES IDX 70 76 71 77 72 78 48 79 49 80 58 81 50 82 51 83 57 84 59 85
REMARK SMILES IDX 52 86 53 87 54 88 55 89 56 90
REMARK H PARENT 4 18 80 40 46 51
REMARK Flexibility Score: inf
ROOT
ATOM      1  C   UNL A   1      37.918  22.283  25.923  1.00  0.00     0.202 C 
ENDROOT
BRANCH   1   2
ATOM      2  O   UNL A   1      37.491  22.149  24.567  1.00  0.00    -0.374 OA
BRANCH   2   3
ATOM      3  C   UNL A   1      36.784  23.263  24.018  1.00  0.00     0.202 C 
BRANCH   3   4
ATOM      4  C   UNL A   1      35.705  23.856  24.929  1.00  0.00     0.261 C 
BRANCH   4   5
ATOM      5  O   UNL A   1      34.402  23.766  24.319  1.00  0.00    -0.463 OA
BRANCH   5   6
ATOM      6  C   UNL A   1      34.029  24.815  23.545  1.00  0.00     0.317 C 
ATOM      7  O   UNL A   1      34.135  24.853  22.323  1.00  0.00    -0.252 OA
BRANCH   6   8
ATOM      8  C   UNL A   1      33.394  25.951  24.318  1.00  0.00     0.185 C 
ATOM      9  C   UNL A   1      32.282  25.601  25.300  1.00  0.00     0.227 C 
ATOM     10  C   UNL A   1      31.020  25.749  24.438  1.00  0.00     0.226 C 
ATOM     11  O   UNL A   1      31.316  26.644  23.355  1.00  0.00    -0.374 OA
ATOM     12  C   UNL A   1      32.729  26.894  23.332  1.00  0.00     0.182 C 
BRANCH   9  13
ATOM     13  N   UNL A   1      32.432  26.441  26.506  1.00  0.00    -0.329 N 
ATOM     14  C   UNL A   1      32.114  29.843  26.964  1.00  0.00     0.020 C 
ATOM     15  C   UNL A   1      32.327  28.378  27.280  1.00  0.00     0.096 C 
ATOM     16  C   UNL A   1      31.290  27.359  26.734  1.00  0.00     0.271 C 
ATOM     17  C   UNL A   1      33.327  27.612  26.376  1.00  0.00     0.271 C 
ATOM     18  H   UNL A   1      32.666  25.701  27.167  1.00  0.00     0.348 HD
ENDBRANCH   9  13
ENDBRANCH   6   8
ENDBRANCH   5   6
ENDBRANCH   4   5
ENDBRANCH   3   4
ENDBRANCH   2   3
ENDBRANCH   1   2
BRANCH   1  19
ATOM     19  C   UNL A   1      39.246  23.020  26.128  1.00  0.00     0.261 C 
BRANCH  19  20
ATOM     20  O   UNL A   1      39.033  24.401  26.471  1.00  0.00    -0.460 OA
BRANCH  20  21
ATOM     21  C   UNL A   1      40.129  25.188  26.364  1.00  0.00     0.338 C 
ATOM     22  O   UNL A   1      40.813  25.364  25.363  1.00  0.00    -0.246 OA
BRANCH  21  23
ATOM     23  C   UNL A   1      40.316  25.976  27.598  1.00  0.00     0.060 A 
ATOM     24  C   UNL A   1      39.365  25.814  28.613  1.00  0.00     0.016 A 
ATOM     25  C   UNL A   1      41.353  26.901  27.742  1.00  0.00     0.016 A 
ATOM     26  C   UNL A   1      39.405  26.624  29.746  1.00  0.00     0.010 A 
ATOM     27  C   UNL A   1      41.390  27.718  28.878  1.00  0.00     0.010 A 
ATOM     28  C   UNL A   1      40.391  27.613  29.863  1.00  0.00    -0.014 A 
BRANCH  28  29
ATOM     29  C   UNL A   1      40.257  28.649  30.918  1.00  0.00     0.031 A 
ATOM     30  C   UNL A   1      41.164  28.575  32.118  1.00  0.00     0.074 A 
ATOM     31  C   UNL A   1      39.385  29.665  30.788  1.00  0.00     0.049 A 
ATOM     32  N   UNL A   1      41.215  29.350  33.169  1.00  0.00    -0.248 NA
ATOM     33  C   UNL A   1      42.149  27.479  32.133  1.00  0.00     0.031 C 
ATOM     34  C   UNL A   1      38.489  29.872  29.651  1.00  0.00     0.029 A 
ATOM     35  N   UNL A   1      39.113  30.717  31.625  1.00  0.00    -0.354 N 
ATOM     36  C   UNL A   1      42.231  28.840  33.968  1.00  0.00     0.074 A 
ATOM     37  C   UNL A   1      42.749  27.667  33.298  1.00  0.00     0.031 C 
ATOM     38  C   UNL A   1      37.761  30.981  29.866  1.00  0.00     0.029 A 
ATOM     39  C   UNL A   1      38.119  31.548  31.166  1.00  0.00     0.049 A 
ATOM     40  H   UNL A   1      39.587  30.864  32.476  1.00  0.00     0.167 HD
ATOM     41  C   UNL A   1      42.702  29.313  35.146  1.00  0.00     0.037 A 
ATOM     42  C   UNL A   1      37.554  32.628  31.738  1.00  0.00     0.037 A 
ATOM     43  C   UNL A   1      42.188  30.481  35.810  1.00  0.00     0.049 A 
ATOM     44  C   UNL A   1      38.048  33.096  33.084  1.00  0.00     0.074 A 
ATOM     45  C   UNL A   1      42.588  31.035  37.014  1.00  0.00     0.029 A 
ATOM     46  N   UNL A   1      41.163  31.280  35.324  1.00  0.00    -0.354 N 
ATOM     47  N   UNL A   1      39.008  32.600  33.828  1.00  0.00    -0.248 NA
ATOM     48  C   UNL A   1      37.384  34.272  33.666  1.00  0.00     0.031 C 
ATOM     49  C   UNL A   1      41.782  32.149  37.273  1.00  0.00     0.029 A 
ATOM     50  C   UNL A   1      40.911  32.315  36.208  1.00  0.00     0.049 A 
ATOM     51  H   UNL A   1      40.686  31.132  34.475  1.00  0.00     0.167 HD
ATOM     52  C   UNL A   1      39.089  33.425  34.946  1.00  0.00     0.074 A 
ATOM     53  C   UNL A   1      38.082  34.454  34.778  1.00  0.00     0.031 C 
ATOM     54  C   UNL A   1      39.920  33.343  36.014  1.00  0.00     0.037 A 
BRANCH  41  55
ATOM     55  C   UNL A   1      43.825  28.558  35.802  1.00  0.00     0.058 A 
ATOM     56  C   UNL A   1      43.579  27.486  36.673  1.00  0.00     0.135 A 
ATOM     57  C   UNL A   1      45.162  28.886  35.526  1.00  0.00     0.135 A 
ATOM     58  F   UNL A   1      42.319  27.146  36.988  1.00  0.00    -0.206 F 
ATOM     59  C   UNL A   1      44.619  26.776  37.263  1.00  0.00     0.059 A 
ATOM     60  C   UNL A   1      46.218  28.173  36.085  1.00  0.00     0.059 A 
ATOM     61  F   UNL A   1      45.452  29.907  34.704  1.00  0.00    -0.206 F 
ATOM     62  C   UNL A   1      45.936  27.125  36.960  1.00  0.00     0.060 A 
BRANCH  62  63
ATOM     63  S   UNL A   1      47.276  26.182  37.719  1.00  0.00     0.124 S 
ATOM     64  O   UNL A   1      47.644  27.047  38.836  1.00  0.00    -0.237 OA
ATOM     65  O   UNL A   1      46.615  24.932  38.078  1.00  0.00    -0.237 OA
ATOM     66  O   UNL A   1      48.267  26.081  36.652  1.00  0.00    -0.744 OA
ENDBRANCH  62  63
ENDBRANCH  41  55
BRANCH  42  67
ATOM     67  C   UNL A   1      36.445  33.347  31.054  1.00  0.00     0.058 A 
ATOM     68  C   UNL A   1      36.683  34.145  29.925  1.00  0.00     0.135 A 
ATOM     69  C   UNL A   1      35.129  33.276  31.536  1.00  0.00     0.135 A 
ATOM     70  F   UNL A   1      37.927  34.254  29.431  1.00  0.00    -0.206 F 
ATOM     71  C   UNL A   1      35.664  34.869  29.314  1.00  0.00     0.059 A 
ATOM     72  C   UNL A   1      34.087  33.969  30.928  1.00  0.00     0.059 A 
ATOM     73  F   UNL A   1      34.844  32.517  32.607  1.00  0.00    -0.206 F 
ATOM     74  C   UNL A   1      34.369  34.777  29.827  1.00  0.00     0.060 A 
BRANCH  74  75
ATOM     75  S   UNL A   1      33.046  35.704  29.018  1.00  0.00     0.124 S 
ATOM     76  O   UNL A   1      32.423  34.670  28.200  1.00  0.00    -0.237 OA
ATOM     77  O   UNL A   1      32.263  36.179  30.154  1.00  0.00    -0.237 OA
ATOM     78  O   UNL A   1      33.766  36.742  28.285  1.00  0.00    -0.744 OA
ENDBRANCH  74  75
ENDBRANCH  42  67
BRANCH  54  79
ATOM     79  C   UNL A   1      39.821  34.421  37.058  1.00  0.00     0.058 A 
ATOM     80  C   UNL A   1      40.514  35.634  36.938  1.00  0.00     0.135 A 
ATOM     81  C   UNL A   1      38.977  34.253  38.168  1.00  0.00     0.135 A 
ATOM     82  F   UNL A   1      41.337  35.842  35.898  1.00  0.00    -0.206 F 
ATOM     83  C   UNL A   1      40.395  36.636  37.895  1.00  0.00     0.059 A 
ATOM     84  C   UNL A   1      38.822  35.252  39.124  1.00  0.00     0.059 A 
ATOM     85  F   UNL A   1      38.281  33.116  38.323  1.00  0.00    -0.206 F 
ATOM     86  C   UNL A   1      39.546  36.435  38.986  1.00  0.00     0.060 A 
BRANCH  86  87
ATOM     87  S   UNL A   1      39.374  37.755  40.206  1.00  0.00     0.124 S 
ATOM     88  O   UNL A   1      38.257  38.517  39.659  1.00  0.00    -0.237 OA
ATOM     89  O   UNL A   1      39.096  37.014  41.433  1.00  0.00    -0.237 OA
ATOM     90  O   UNL A   1      40.671  38.424  40.167  1.00  0.00    -0.744 OA
ENDBRANCH  86  87
ENDBRANCH  54  79
ENDBRANCH  28  29
ENDBRANCH  21  23
ENDBRANCH  20  21
ENDBRANCH  19  20
ENDBRANCH   1  19
TORSDOF 18
ENDMDL
