MODEL 1
REMARK VINA RESULT:     -11.4      0.000      0.000
REMARK SMILES O=C(COc1ccc(Br)cc1/C=C1\NC(=O)N(Cc2ccc(F)cc2)C1=O)OCCOCCOC(=O)c1ccc(-c2c3nc(c(-c4c(F)cc(S(=O)(=O)[O-])cc4F)c4ccc([nH]4)c(-c4c(F)cc(S(=O)(=O)[O-])cc4F)c4nc(c(-c5c(F)cc(S(=O)(=O)[O-])cc5F)c5ccc2[nH]5)C=C4)C=C3)cc1
REMARK SMILES IDX 30 1 29 2 28 3 2 4 1 5 3 6 4 7 5 8 6 9 11 10 7 11 10 12 8 13
REMARK SMILES IDX 9 14 12 15 13 16 14 17 26 18 15 19 17 21 27 22 16 23 18 24
REMARK SMILES IDX 19 25 20 26 25 27 21 28 24 29 22 30 23 31 31 32 32 33 33 34
REMARK SMILES IDX 34 35 35 36 36 37 37 38 38 39 102 40 39 41 101 42 40 43
REMARK SMILES IDX 41 44 42 45 95 46 43 47 100 48 94 49 96 50 44 51 99 52 93 53
REMARK SMILES IDX 92 54 45 56 79 57 58 58 78 59 59 60 62 61 77 62 97 63 60 64
REMARK SMILES IDX 61 65 76 67 98 68 63 69 46 70 47 71 56 72 48 73 49 74 55 75
REMARK SMILES IDX 57 76 50 77 51 78 52 79 53 80 54 81 80 82 81 83 90 84 82 85
REMARK SMILES IDX 83 86 89 87 91 88 84 89 85 90 86 91 87 92 88 93 64 94 65 95
REMARK SMILES IDX 74 96 66 97 67 98 73 99 75 100 68 101 69 102 70 103 71 104
REMARK SMILES IDX 72 105
REMARK H PARENT 14 20 96 55 62 66
REMARK Flexibility Score: inf
ROOT
ATOM      1  C   UNL A   1      41.460  21.937  26.129  1.00  0.00     0.202 C 
ENDROOT
BRANCH   1   2
ATOM      2  C   UNL A   1      40.120  22.337  26.746  1.00  0.00     0.261 C 
BRANCH   2   3
ATOM      3  O   UNL A   1      38.997  22.202  25.860  1.00  0.00    -0.461 OA
BRANCH   3   4
ATOM      4  C   UNL A   1      37.918  23.018  25.867  1.00  0.00     0.344 C 
ATOM      5  O   UNL A   1      37.911  24.027  26.573  1.00  0.00    -0.248 OA
BRANCH   4   6
ATOM      6  C   UNL A   1      36.688  22.641  25.055  1.00  0.00     0.351 C 
BRANCH   6   7
ATOM      7  O   UNL A   1      35.518  22.272  25.757  1.00  0.00    -0.481 OA
BRANCH   7   8
ATOM      8  C   UNL A   1      35.014  21.063  25.371  1.00  0.00     0.127 A 
ATOM      9  C   UNL A   1      35.840  20.011  24.970  1.00  0.00     0.048 A 
ATOM     10  C   UNL A   1      33.625  20.893  25.463  1.00  0.00     0.020 A 
ATOM     11  C   UNL A   1      35.279  18.807  24.561  1.00  0.00     0.019 A 
ATOM     12  C   UNL A   1      33.067  19.680  25.051  1.00  0.00     0.027 A 
ATOM     13  C   UNL A   1      33.895  18.655  24.582  1.00  0.00     0.018 A 
ATOM     14  Br  UNL A   1      33.134  17.031  23.985  1.00  0.00    -0.051 Br
BRANCH  10  15
ATOM     15  C   UNL A   1      32.774  21.931  26.061  1.00  0.00     0.044 C 
ATOM     16  C   UNL A   1      32.346  23.045  25.462  1.00  0.00     0.109 C 
ATOM     17  N   UNL A   1      32.492  23.443  24.168  1.00  0.00    -0.303 N 
ATOM     18  C   UNL A   1      31.552  24.105  26.147  1.00  0.00     0.278 C 
ATOM     19  C   UNL A   1      31.799  24.626  23.956  1.00  0.00     0.329 C 
ATOM     20  H   UNL A   1      33.012  22.962  23.484  1.00  0.00     0.172 HD
ATOM     21  N   UNL A   1      31.204  24.978  25.148  1.00  0.00    -0.254 N 
ATOM     22  O   UNL A   1      31.294  24.148  27.339  1.00  0.00    -0.267 OA
ATOM     23  O   UNL A   1      31.736  25.215  22.889  1.00  0.00    -0.248 OA
BRANCH  21  24
ATOM     24  C   UNL A   1      30.286  26.082  25.319  1.00  0.00     0.166 C 
BRANCH  24  25
ATOM     25  C   UNL A   1      31.045  27.352  25.660  1.00  0.00    -0.028 A 
ATOM     26  C   UNL A   1      31.430  28.239  24.637  1.00  0.00     0.008 A 
ATOM     27  C   UNL A   1      31.449  27.624  26.976  1.00  0.00     0.008 A 
ATOM     28  C   UNL A   1      32.233  29.344  24.912  1.00  0.00     0.039 A 
ATOM     29  C   UNL A   1      32.232  28.748  27.253  1.00  0.00     0.039 A 
ATOM     30  C   UNL A   1      32.627  29.589  26.218  1.00  0.00     0.123 A 
ATOM     31  F   UNL A   1      33.407  30.645  26.484  1.00  0.00    -0.207 F 
ENDBRANCH  24  25
ENDBRANCH  21  24
ENDBRANCH  10  15
ENDBRANCH   7   8
ENDBRANCH   6   7
ENDBRANCH   4   6
ENDBRANCH   3   4
ENDBRANCH   2   3
ENDBRANCH   1   2
BRANCH   1  32
ATOM     32  O   UNL A   1      42.657  22.208  26.849  1.00  0.00    -0.374 OA
BRANCH  32  33
ATOM     33  C   UNL A   1      43.317  23.460  26.644  1.00  0.00     0.202 C 
BRANCH  33  34
ATOM     34  C   UNL A   1      43.133  24.217  25.326  1.00  0.00     0.261 C 
BRANCH  34  35
ATOM     35  O   UNL A   1      42.918  25.619  25.521  1.00  0.00    -0.460 OA
BRANCH  35  36
ATOM     36  C   UNL A   1      41.662  25.941  25.915  1.00  0.00     0.338 C 
ATOM     37  O   UNL A   1      40.617  25.633  25.367  1.00  0.00    -0.246 OA
BRANCH  36  38
ATOM     38  C   UNL A   1      41.721  26.536  27.261  1.00  0.00     0.060 A 
ATOM     39  C   UNL A   1      40.760  26.126  28.196  1.00  0.00     0.016 A 
ATOM     40  C   UNL A   1      42.671  27.505  27.586  1.00  0.00     0.016 A 
ATOM     41  C   UNL A   1      40.700  26.738  29.442  1.00  0.00     0.010 A 
ATOM     42  C   UNL A   1      42.604  28.126  28.832  1.00  0.00     0.010 A 
ATOM     43  C   UNL A   1      41.590  27.776  29.741  1.00  0.00    -0.014 A 
BRANCH  43  44
ATOM     44  C   UNL A   1      41.348  28.622  30.929  1.00  0.00     0.031 A 
ATOM     45  C   UNL A   1      40.228  29.623  30.871  1.00  0.00     0.074 A 
ATOM     46  C   UNL A   1      42.099  28.480  32.034  1.00  0.00     0.049 A 
ATOM     47  N   UNL A   1      39.876  30.521  31.752  1.00  0.00    -0.248 NA
ATOM     48  C   UNL A   1      39.395  29.614  29.655  1.00  0.00     0.031 C 
ATOM     49  C   UNL A   1      43.174  27.503  32.202  1.00  0.00     0.029 A 
ATOM     50  N   UNL A   1      42.074  29.165  33.220  1.00  0.00    -0.354 N 
ATOM     51  C   UNL A   1      38.791  31.187  31.196  1.00  0.00     0.074 A 
ATOM     52  C   UNL A   1      38.560  30.616  29.890  1.00  0.00     0.031 C 
ATOM     53  C   UNL A   1      43.715  27.659  33.422  1.00  0.00     0.029 A 
ATOM     54  C   UNL A   1      43.050  28.770  34.102  1.00  0.00     0.049 A 
ATOM     55  H   UNL A   1      41.419  29.872  33.421  1.00  0.00     0.167 HD
ATOM     56  C   UNL A   1      38.050  32.180  31.739  1.00  0.00     0.037 A 
ATOM     57  C   UNL A   1      43.383  29.270  35.309  1.00  0.00     0.037 A 
ATOM     58  C   UNL A   1      38.291  32.728  33.047  1.00  0.00     0.049 A 
ATOM     59  C   UNL A   1      42.589  30.425  35.860  1.00  0.00     0.074 A 
ATOM     60  C   UNL A   1      37.593  33.726  33.701  1.00  0.00     0.029 A 
ATOM     61  N   UNL A   1      39.310  32.326  33.899  1.00  0.00    -0.354 N 
ATOM     62  N   UNL A   1      41.560  31.045  35.330  1.00  0.00    -0.248 NA
ATOM     63  C   UNL A   1      42.999  30.952  37.167  1.00  0.00     0.031 C 
ATOM     64  C   UNL A   1      38.223  33.967  34.925  1.00  0.00     0.029 A 
ATOM     65  C   UNL A   1      39.276  33.075  35.062  1.00  0.00     0.049 A 
ATOM     66  H   UNL A   1      39.962  31.613  33.705  1.00  0.00     0.167 HD
ATOM     67  C   UNL A   1      41.184  32.018  36.251  1.00  0.00     0.074 A 
ATOM     68  C   UNL A   1      42.088  31.895  37.376  1.00  0.00     0.031 C 
ATOM     69  C   UNL A   1      40.183  32.930  36.173  1.00  0.00     0.037 A 
BRANCH  56  70
ATOM     70  C   UNL A   1      36.917  32.745  30.929  1.00  0.00     0.058 A 
ATOM     71  C   UNL A   1      37.170  33.669  29.902  1.00  0.00     0.135 A 
ATOM     72  C   UNL A   1      35.577  32.439  31.217  1.00  0.00     0.135 A 
ATOM     73  F   UNL A   1      38.432  33.988  29.575  1.00  0.00    -0.206 F 
ATOM     74  C   UNL A   1      36.135  34.292  29.211  1.00  0.00     0.059 A 
ATOM     75  C   UNL A   1      34.527  33.029  30.520  1.00  0.00     0.059 A 
ATOM     76  F   UNL A   1      35.281  31.540  32.170  1.00  0.00    -0.206 F 
ATOM     77  C   UNL A   1      34.817  33.969  29.532  1.00  0.00     0.060 A 
BRANCH  77  78
ATOM     78  S   UNL A   1      33.487  34.789  28.626  1.00  0.00     0.124 S 
ATOM     79  O   UNL A   1      34.176  35.944  28.062  1.00  0.00    -0.237 OA
ATOM     80  O   UNL A   1      33.087  33.757  27.674  1.00  0.00    -0.237 OA
ATOM     81  O   UNL A   1      32.505  35.087  29.664  1.00  0.00    -0.744 OA
ENDBRANCH  77  78
ENDBRANCH  56  70
BRANCH  57  82
ATOM     82  C   UNL A   1      44.517  28.678  36.066  1.00  0.00     0.058 A 
ATOM     83  C   UNL A   1      44.329  27.579  36.920  1.00  0.00     0.135 A 
ATOM     84  C   UNL A   1      45.808  29.218  35.973  1.00  0.00     0.135 A 
ATOM     85  F   UNL A   1      43.112  27.028  37.052  1.00  0.00    -0.206 F 
ATOM     86  C   UNL A   1      45.373  27.055  37.674  1.00  0.00     0.059 A 
ATOM     87  C   UNL A   1      46.876  28.692  36.696  1.00  0.00     0.059 A 
ATOM     88  F   UNL A   1      46.041  30.261  35.160  1.00  0.00    -0.206 F 
ATOM     89  C   UNL A   1      46.644  27.620  37.556  1.00  0.00     0.060 A 
BRANCH  89  90
ATOM     90  S   UNL A   1      47.981  26.930  38.553  1.00  0.00     0.124 S 
ATOM     91  O   UNL A   1      48.765  28.123  38.854  1.00  0.00    -0.237 OA
ATOM     92  O   UNL A   1      47.254  26.345  39.675  1.00  0.00    -0.237 OA
ATOM     93  O   UNL A   1      48.615  25.973  37.651  1.00  0.00    -0.744 OA
ENDBRANCH  89  90
ENDBRANCH  57  82
BRANCH  69  94
ATOM     94  C   UNL A   1      39.989  33.857  37.342  1.00  0.00     0.058 A 
ATOM     95  C   UNL A   1      39.092  33.524  38.370  1.00  0.00     0.135 A 
ATOM     96  C   UNL A   1      40.613  35.113  37.396  1.00  0.00     0.135 A 
ATOM     97  F   UNL A   1      38.461  32.339  38.361  1.00  0.00    -0.206 F 
ATOM     98  C   UNL A   1      38.803  34.413  39.399  1.00  0.00     0.059 A 
ATOM     99  C   UNL A   1      40.362  36.006  38.434  1.00  0.00     0.059 A 
ATOM    100  F   UNL A   1      41.486  35.476  36.442  1.00  0.00    -0.206 F 
ATOM    101  C   UNL A   1      39.441  35.653  39.420  1.00  0.00     0.060 A 
BRANCH 101 102
ATOM    102  S   UNL A   1      39.056  36.792  40.766  1.00  0.00     0.124 S 
ATOM    103  O   UNL A   1      40.387  37.187  41.215  1.00  0.00    -0.237 OA
ATOM    104  O   UNL A   1      38.283  37.824  40.083  1.00  0.00    -0.237 OA
ATOM    105  O   UNL A   1      38.297  35.967  41.702  1.00  0.00    -0.744 OA
ENDBRANCH 101 102
ENDBRANCH  69  94
ENDBRANCH  43  44
ENDBRANCH  36  38
ENDBRANCH  35  36
ENDBRANCH  34  35
ENDBRANCH  33  34
ENDBRANCH  32  33
ENDBRANCH   1  32
TORSDOF 22
ENDMDL
MODEL 2
REMARK VINA RESULT:     -11.3      6.240     11.905
REMARK SMILES O=C(COc1ccc(Br)cc1/C=C1\NC(=O)N(Cc2ccc(F)cc2)C1=O)OCCOCCOC(=O)c1ccc(-c2c3nc(c(-c4c(F)cc(S(=O)(=O)[O-])cc4F)c4ccc([nH]4)c(-c4c(F)cc(S(=O)(=O)[O-])cc4F)c4nc(c(-c5c(F)cc(S(=O)(=O)[O-])cc5F)c5ccc2[nH]5)C=C4)C=C3)cc1
REMARK SMILES IDX 30 1 29 2 28 3 2 4 1 5 3 6 4 7 5 8 6 9 11 10 7 11 10 12 8 13
REMARK SMILES IDX 9 14 12 15 13 16 14 17 26 18 15 19 17 21 27 22 16 23 18 24
REMARK SMILES IDX 19 25 20 26 25 27 21 28 24 29 22 30 23 31 31 32 32 33 33 34
REMARK SMILES IDX 34 35 35 36 36 37 37 38 38 39 102 40 39 41 101 42 40 43
REMARK SMILES IDX 41 44 42 45 95 46 43 47 100 48 94 49 96 50 44 51 99 52 93 53
REMARK SMILES IDX 92 54 45 56 79 57 58 58 78 59 59 60 62 61 77 62 97 63 60 64
REMARK SMILES IDX 61 65 76 67 98 68 63 69 46 70 47 71 56 72 48 73 49 74 55 75
REMARK SMILES IDX 57 76 50 77 51 78 52 79 53 80 54 81 80 82 81 83 90 84 82 85
REMARK SMILES IDX 83 86 89 87 91 88 84 89 85 90 86 91 87 92 88 93 64 94 65 95
REMARK SMILES IDX 74 96 66 97 67 98 73 99 75 100 68 101 69 102 70 103 71 104
REMARK SMILES IDX 72 105
REMARK H PARENT 14 20 96 55 62 66
REMARK Flexibility Score: inf
ROOT
ATOM      1  C   UNL A   1      34.408  32.439  28.639  1.00  0.00     0.202 C 
ENDROOT
BRANCH   1   2
ATOM      2  C   UNL A   1      34.726  31.156  27.873  1.00  0.00     0.261 C 
BRANCH   2   3
ATOM      3  O   UNL A   1      33.571  30.457  27.382  1.00  0.00    -0.461 OA
BRANCH   3   4
ATOM      4  C   UNL A   1      33.621  29.331  26.633  1.00  0.00     0.344 C 
ATOM      5  O   UNL A   1      34.153  28.315  27.079  1.00  0.00    -0.248 OA
BRANCH   4   6
ATOM      6  C   UNL A   1      33.082  29.354  25.211  1.00  0.00     0.351 C 
BRANCH   6   7
ATOM      7  O   UNL A   1      31.914  28.607  24.933  1.00  0.00    -0.481 OA
BRANCH   7   8
ATOM      8  C   UNL A   1      31.025  29.268  24.135  1.00  0.00     0.127 A 
ATOM      9  C   UNL A   1      30.310  30.380  24.586  1.00  0.00     0.048 A 
ATOM     10  C   UNL A   1      30.910  28.827  22.809  1.00  0.00     0.020 A 
ATOM     11  C   UNL A   1      29.397  31.003  23.743  1.00  0.00     0.019 A 
ATOM     12  C   UNL A   1      29.990  29.459  21.967  1.00  0.00     0.027 A 
ATOM     13  C   UNL A   1      29.225  30.526  22.446  1.00  0.00     0.018 A 
ATOM     14  Br  UNL A   1      27.952  31.351  21.319  1.00  0.00    -0.051 Br
BRANCH  10  15
ATOM     15  C   UNL A   1      31.796  27.781  22.280  1.00  0.00     0.044 C 
ATOM     16  C   UNL A   1      31.825  26.501  22.662  1.00  0.00     0.109 C 
ATOM     17  N   UNL A   1      31.008  25.837  23.526  1.00  0.00    -0.303 N 
ATOM     18  C   UNL A   1      32.805  25.502  22.147  1.00  0.00     0.278 C 
ATOM     19  C   UNL A   1      31.340  24.491  23.549  1.00  0.00     0.329 C 
ATOM     20  H   UNL A   1      30.288  26.252  24.055  1.00  0.00     0.172 HD
ATOM     21  N   UNL A   1      32.391  24.306  22.677  1.00  0.00    -0.254 N 
ATOM     22  O   UNL A   1      33.754  25.740  21.419  1.00  0.00    -0.267 OA
ATOM     23  O   UNL A   1      30.772  23.645  24.221  1.00  0.00    -0.248 OA
BRANCH  21  24
ATOM     24  C   UNL A   1      32.950  23.022  22.317  1.00  0.00     0.166 C 
BRANCH  24  25
ATOM     25  C   UNL A   1      33.995  22.597  23.332  1.00  0.00    -0.028 A 
ATOM     26  C   UNL A   1      35.305  23.105  23.249  1.00  0.00     0.008 A 
ATOM     27  C   UNL A   1      33.705  21.635  24.311  1.00  0.00     0.008 A 
ATOM     28  C   UNL A   1      36.310  22.635  24.092  1.00  0.00     0.039 A 
ATOM     29  C   UNL A   1      34.709  21.185  25.173  1.00  0.00     0.039 A 
ATOM     30  C   UNL A   1      36.003  21.678  25.047  1.00  0.00     0.123 A 
ATOM     31  F   UNL A   1      36.969  21.218  25.852  1.00  0.00    -0.207 F 
ENDBRANCH  24  25
ENDBRANCH  21  24
ENDBRANCH  10  15
ENDBRANCH   7   8
ENDBRANCH   6   7
ENDBRANCH   4   6
ENDBRANCH   3   4
ENDBRANCH   2   3
ENDBRANCH   1   2
BRANCH   1  32
ATOM     32  O   UNL A   1      35.460  33.115  29.317  1.00  0.00    -0.374 OA
BRANCH  32  33
ATOM     33  C   UNL A   1      35.355  33.314  30.730  1.00  0.00     0.202 C 
BRANCH  33  34
ATOM     34  C   UNL A   1      35.323  32.110  31.674  1.00  0.00     0.261 C 
BRANCH  34  35
ATOM     35  O   UNL A   1      36.615  31.523  31.862  1.00  0.00    -0.460 OA
BRANCH  35  36
ATOM     36  C   UNL A   1      36.792  30.346  31.214  1.00  0.00     0.338 C 
ATOM     37  O   UNL A   1      35.931  29.543  30.899  1.00  0.00    -0.246 OA
BRANCH  36  38
ATOM     38  C   UNL A   1      38.179  30.272  30.724  1.00  0.00     0.060 A 
ATOM     39  C   UNL A   1      38.379  30.258  29.337  1.00  0.00     0.016 A 
ATOM     40  C   UNL A   1      39.256  30.178  31.606  1.00  0.00     0.016 A 
ATOM     41  C   UNL A   1      39.657  30.076  28.823  1.00  0.00     0.010 A 
ATOM     42  C   UNL A   1      40.537  29.985  31.090  1.00  0.00     0.010 A 
ATOM     43  C   UNL A   1      40.731  29.887  29.701  1.00  0.00    -0.014 A 
BRANCH  43  44
ATOM     44  C   UNL A   1      42.024  29.402  29.175  1.00  0.00     0.031 A 
ATOM     45  C   UNL A   1      43.164  30.377  29.084  1.00  0.00     0.074 A 
ATOM     46  C   UNL A   1      42.175  28.118  28.810  1.00  0.00     0.049 A 
ATOM     47  N   UNL A   1      44.360  30.206  28.588  1.00  0.00    -0.248 NA
ATOM     48  C   UNL A   1      42.923  31.729  29.620  1.00  0.00     0.031 C 
ATOM     49  C   UNL A   1      41.142  27.087  28.908  1.00  0.00     0.029 A 
ATOM     50  N   UNL A   1      43.256  27.466  28.275  1.00  0.00    -0.354 N 
ATOM     51  C   UNL A   1      45.009  31.424  28.744  1.00  0.00     0.074 A 
ATOM     52  C   UNL A   1      44.068  32.338  29.348  1.00  0.00     0.031 C 
ATOM     53  C   UNL A   1      41.639  25.930  28.438  1.00  0.00     0.029 A 
ATOM     54  C   UNL A   1      43.006  26.150  27.972  1.00  0.00     0.049 A 
ATOM     55  H   UNL A   1      44.126  27.900  28.124  1.00  0.00     0.167 HD
ATOM     56  C   UNL A   1      46.283  31.743  28.418  1.00  0.00     0.037 A 
ATOM     57  C   UNL A   1      43.789  25.238  27.361  1.00  0.00     0.037 A 
ATOM     58  C   UNL A   1      47.208  30.814  27.825  1.00  0.00     0.049 A 
ATOM     59  C   UNL A   1      45.179  25.639  26.940  1.00  0.00     0.074 A 
ATOM     60  C   UNL A   1      48.527  31.027  27.467  1.00  0.00     0.029 A 
ATOM     61  N   UNL A   1      46.911  29.498  27.501  1.00  0.00    -0.354 N 
ATOM     62  N   UNL A   1      45.787  26.792  27.097  1.00  0.00    -0.248 NA
ATOM     63  C   UNL A   1      45.988  24.621  26.259  1.00  0.00     0.031 C 
ATOM     64  C   UNL A   1      49.010  29.857  26.875  1.00  0.00     0.029 A 
ATOM     65  C   UNL A   1      48.013  28.895  26.922  1.00  0.00     0.049 A 
ATOM     66  H   UNL A   1      46.044  29.059  27.658  1.00  0.00     0.167 HD
ATOM     67  C   UNL A   1      47.058  26.630  26.557  1.00  0.00     0.074 A 
ATOM     68  C   UNL A   1      47.136  25.264  26.082  1.00  0.00     0.031 C 
ATOM     69  C   UNL A   1      48.070  27.529  26.462  1.00  0.00     0.037 A 
BRANCH  56  70
ATOM     70  C   UNL A   1      46.755  33.145  28.685  1.00  0.00     0.058 A 
ATOM     71  C   UNL A   1      47.279  33.491  29.941  1.00  0.00     0.135 A 
ATOM     72  C   UNL A   1      46.618  34.166  27.730  1.00  0.00     0.135 A 
ATOM     73  F   UNL A   1      47.445  32.553  30.886  1.00  0.00    -0.206 F 
ATOM     74  C   UNL A   1      47.619  34.804  30.252  1.00  0.00     0.059 A 
ATOM     75  C   UNL A   1      46.978  35.480  28.010  1.00  0.00     0.059 A 
ATOM     76  F   UNL A   1      46.149  33.883  26.504  1.00  0.00    -0.206 F 
ATOM     77  C   UNL A   1      47.459  35.792  29.281  1.00  0.00     0.060 A 
BRANCH  77  78
ATOM     78  S   UNL A   1      47.904  37.490  29.703  1.00  0.00     0.124 S 
ATOM     79  O   UNL A   1      48.448  37.334  31.047  1.00  0.00    -0.237 OA
ATOM     80  O   UNL A   1      48.870  37.820  28.658  1.00  0.00    -0.237 OA
ATOM     81  O   UNL A   1      46.633  38.204  29.618  1.00  0.00    -0.744 OA
ENDBRANCH  77  78
ENDBRANCH  56  70
BRANCH  57  82
ATOM     82  C   UNL A   1      43.270  23.866  27.114  1.00  0.00     0.058 A 
ATOM     83  C   UNL A   1      43.364  22.865  28.094  1.00  0.00     0.135 A 
ATOM     84  C   UNL A   1      42.695  23.522  25.883  1.00  0.00     0.135 A 
ATOM     85  F   UNL A   1      43.913  23.139  29.288  1.00  0.00    -0.206 F 
ATOM     86  C   UNL A   1      42.932  21.566  27.853  1.00  0.00     0.059 A 
ATOM     87  C   UNL A   1      42.228  22.235  25.627  1.00  0.00     0.059 A 
ATOM     88  F   UNL A   1      42.571  24.447  24.919  1.00  0.00    -0.206 F 
ATOM     89  C   UNL A   1      42.367  21.260  26.614  1.00  0.00     0.060 A 
BRANCH  89  90
ATOM     90  S   UNL A   1      41.823  19.564  26.319  1.00  0.00     0.124 S 
ATOM     91  O   UNL A   1      42.599  19.211  25.134  1.00  0.00    -0.237 OA
ATOM     92  O   UNL A   1      42.213  18.899  27.557  1.00  0.00    -0.237 OA
ATOM     93  O   UNL A   1      40.385  19.702  26.108  1.00  0.00    -0.744 OA
ENDBRANCH  89  90
ENDBRANCH  57  82
BRANCH  69  94
ATOM     94  C   UNL A   1      49.361  27.067  25.842  1.00  0.00     0.058 A 
ATOM     95  C   UNL A   1      50.380  26.529  26.645  1.00  0.00     0.135 A 
ATOM     96  C   UNL A   1      49.626  27.245  24.477  1.00  0.00     0.135 A 
ATOM     97  F   UNL A   1      50.181  26.346  27.961  1.00  0.00    -0.206 F 
ATOM     98  C   UNL A   1      51.625  26.207  26.120  1.00  0.00     0.059 A 
ATOM     99  C   UNL A   1      50.855  26.900  23.923  1.00  0.00     0.059 A 
ATOM    100  F   UNL A   1      48.682  27.748  23.664  1.00  0.00    -0.206 F 
ATOM    101  C   UNL A   1      51.854  26.399  24.757  1.00  0.00     0.060 A 
BRANCH 101 102
ATOM    102  S   UNL A   1      53.476  25.969  24.092  1.00  0.00     0.124 S 
ATOM    103  O   UNL A   1      54.292  27.092  24.541  1.00  0.00    -0.237 OA
ATOM    104  O   UNL A   1      53.744  24.690  24.740  1.00  0.00    -0.237 OA
ATOM    105  O   UNL A   1      53.244  25.898  22.652  1.00  0.00    -0.744 OA
ENDBRANCH 101 102
ENDBRANCH  69  94
ENDBRANCH  43  44
ENDBRANCH  36  38
ENDBRANCH  35  36
ENDBRANCH  34  35
ENDBRANCH  33  34
ENDBRANCH  32  33
ENDBRANCH   1  32
TORSDOF 22
ENDMDL
MODEL 3
REMARK VINA RESULT:     -10.8      6.275     11.978
REMARK SMILES O=C(COc1ccc(Br)cc1/C=C1\NC(=O)N(Cc2ccc(F)cc2)C1=O)OCCOCCOC(=O)c1ccc(-c2c3nc(c(-c4c(F)cc(S(=O)(=O)[O-])cc4F)c4ccc([nH]4)c(-c4c(F)cc(S(=O)(=O)[O-])cc4F)c4nc(c(-c5c(F)cc(S(=O)(=O)[O-])cc5F)c5ccc2[nH]5)C=C4)C=C3)cc1
REMARK SMILES IDX 30 1 29 2 28 3 2 4 1 5 3 6 4 7 5 8 6 9 11 10 7 11 10 12 8 13
REMARK SMILES IDX 9 14 12 15 13 16 14 17 26 18 15 19 17 21 27 22 16 23 18 24
REMARK SMILES IDX 19 25 20 26 25 27 21 28 24 29 22 30 23 31 31 32 32 33 33 34
REMARK SMILES IDX 34 35 35 36 36 37 37 38 38 39 102 40 39 41 101 42 40 43
REMARK SMILES IDX 41 44 42 45 95 46 43 47 100 48 94 49 96 50 44 51 99 52 93 53
REMARK SMILES IDX 92 54 45 56 79 57 58 58 78 59 59 60 62 61 77 62 97 63 60 64
REMARK SMILES IDX 61 65 76 67 98 68 63 69 46 70 47 71 56 72 48 73 49 74 55 75
REMARK SMILES IDX 57 76 50 77 51 78 52 79 53 80 54 81 80 82 81 83 90 84 82 85
REMARK SMILES IDX 83 86 89 87 91 88 84 89 85 90 86 91 87 92 88 93 64 94 65 95
REMARK SMILES IDX 74 96 66 97 67 98 73 99 75 100 68 101 69 102 70 103 71 104
REMARK SMILES IDX 72 105
REMARK H PARENT 14 20 96 55 62 66
REMARK Flexibility Score: inf
ROOT
ATOM      1  C   UNL A   1      34.887  31.592  27.622  1.00  0.00     0.202 C 
ENDROOT
BRANCH   1   2
ATOM      2  C   UNL A   1      35.023  30.118  28.003  1.00  0.00     0.261 C 
BRANCH   2   3
ATOM      3  O   UNL A   1      34.471  29.204  27.042  1.00  0.00    -0.461 OA
BRANCH   3   4
ATOM      4  C   UNL A   1      33.163  28.865  26.974  1.00  0.00     0.344 C 
ATOM      5  O   UNL A   1      32.322  29.524  27.585  1.00  0.00    -0.248 OA
BRANCH   4   6
ATOM      6  C   UNL A   1      32.750  27.624  26.197  1.00  0.00     0.351 C 
BRANCH   6   7
ATOM      7  O   UNL A   1      32.752  27.695  24.785  1.00  0.00    -0.481 OA
BRANCH   7   8
ATOM      8  C   UNL A   1      31.586  28.180  24.266  1.00  0.00     0.127 A 
ATOM      9  C   UNL A   1      31.269  29.541  24.303  1.00  0.00     0.048 A 
ATOM     10  C   UNL A   1      30.743  27.262  23.625  1.00  0.00     0.020 A 
ATOM     11  C   UNL A   1      30.057  29.983  23.785  1.00  0.00     0.019 A 
ATOM     12  C   UNL A   1      29.526  27.714  23.106  1.00  0.00     0.027 A 
ATOM     13  C   UNL A   1      29.183  29.065  23.210  1.00  0.00     0.018 A 
ATOM     14  Br  UNL A   1      27.519  29.666  22.544  1.00  0.00    -0.051 Br
BRANCH  10  15
ATOM     15  C   UNL A   1      31.160  25.868  23.420  1.00  0.00     0.044 C 
ATOM     16  C   UNL A   1      31.251  24.923  24.359  1.00  0.00     0.109 C 
ATOM     17  N   UNL A   1      30.897  24.973  25.674  1.00  0.00    -0.303 N 
ATOM     18  C   UNL A   1      31.761  23.545  24.106  1.00  0.00     0.278 C 
ATOM     19  C   UNL A   1      31.072  23.726  26.257  1.00  0.00     0.329 C 
ATOM     20  H   UNL A   1      30.566  25.774  26.141  1.00  0.00     0.172 HD
ATOM     21  N   UNL A   1      31.546  22.874  25.283  1.00  0.00    -0.254 N 
ATOM     22  O   UNL A   1      32.256  23.146  23.065  1.00  0.00    -0.267 OA
ATOM     23  O   UNL A   1      30.825  23.462  27.422  1.00  0.00    -0.248 OA
BRANCH  21  24
ATOM     24  C   UNL A   1      31.738  21.451  25.453  1.00  0.00     0.166 C 
BRANCH  24  25
ATOM     25  C   UNL A   1      33.219  21.115  25.459  1.00  0.00    -0.028 A 
ATOM     26  C   UNL A   1      34.129  21.958  26.122  1.00  0.00     0.008 A 
ATOM     27  C   UNL A   1      33.715  20.016  24.742  1.00  0.00     0.008 A 
ATOM     28  C   UNL A   1      35.503  21.737  26.036  1.00  0.00     0.039 A 
ATOM     29  C   UNL A   1      35.091  19.781  24.679  1.00  0.00     0.039 A 
ATOM     30  C   UNL A   1      35.972  20.649  25.315  1.00  0.00     0.123 A 
ATOM     31  F   UNL A   1      37.291  20.440  25.223  1.00  0.00    -0.207 F 
ENDBRANCH  24  25
ENDBRANCH  21  24
ENDBRANCH  10  15
ENDBRANCH   7   8
ENDBRANCH   6   7
ENDBRANCH   4   6
ENDBRANCH   3   4
ENDBRANCH   2   3
ENDBRANCH   1   2
BRANCH   1  32
ATOM     32  O   UNL A   1      35.955  32.482  27.923  1.00  0.00    -0.374 OA
BRANCH  32  33
ATOM     33  C   UNL A   1      35.849  33.323  29.075  1.00  0.00     0.202 C 
BRANCH  33  34
ATOM     34  C   UNL A   1      35.843  32.707  30.477  1.00  0.00     0.261 C 
BRANCH  34  35
ATOM     35  O   UNL A   1      37.139  32.256  30.886  1.00  0.00    -0.460 OA
BRANCH  35  36
ATOM     36  C   UNL A   1      37.187  30.949  31.242  1.00  0.00     0.338 C 
ATOM     37  O   UNL A   1      36.327  30.314  31.827  1.00  0.00    -0.246 OA
BRANCH  36  38
ATOM     38  C   UNL A   1      38.359  30.322  30.606  1.00  0.00     0.060 A 
ATOM     39  C   UNL A   1      39.357  29.808  31.446  1.00  0.00     0.016 A 
ATOM     40  C   UNL A   1      38.493  30.277  29.218  1.00  0.00     0.016 A 
ATOM     41  C   UNL A   1      40.533  29.309  30.898  1.00  0.00     0.010 A 
ATOM     42  C   UNL A   1      39.677  29.786  28.670  1.00  0.00     0.010 A 
ATOM     43  C   UNL A   1      40.715  29.346  29.510  1.00  0.00    -0.014 A 
BRANCH  43  44
ATOM     44  C   UNL A   1      42.058  29.099  28.946  1.00  0.00     0.031 A 
ATOM     45  C   UNL A   1      42.385  27.711  28.470  1.00  0.00     0.074 A 
ATOM     46  C   UNL A   1      42.951  30.098  28.845  1.00  0.00     0.049 A 
ATOM     47  N   UNL A   1      43.513  27.239  28.013  1.00  0.00    -0.248 NA
ATOM     48  C   UNL A   1      41.294  26.721  28.521  1.00  0.00     0.031 C 
ATOM     49  C   UNL A   1      42.709  31.487  29.233  1.00  0.00     0.029 A 
ATOM     50  N   UNL A   1      44.244  30.092  28.391  1.00  0.00    -0.354 N 
ATOM     51  C   UNL A   1      43.272  25.900  27.730  1.00  0.00     0.074 A 
ATOM     52  C   UNL A   1      41.903  25.623  28.097  1.00  0.00     0.031 C 
ATOM     53  C   UNL A   1      43.825  32.201  29.008  1.00  0.00     0.029 A 
ATOM     54  C   UNL A   1      44.868  31.312  28.500  1.00  0.00     0.049 A 
ATOM     55  H   UNL A   1      44.683  29.292  28.022  1.00  0.00     0.167 HD
ATOM     56  C   UNL A   1      44.122  24.989  27.201  1.00  0.00     0.037 A 
ATOM     57  C   UNL A   1      46.145  31.658  28.242  1.00  0.00     0.037 A 
ATOM     58  C   UNL A   1      45.480  25.288  26.833  1.00  0.00     0.049 A 
ATOM     59  C   UNL A   1      47.092  30.608  27.723  1.00  0.00     0.074 A 
ATOM     60  C   UNL A   1      46.423  24.445  26.276  1.00  0.00     0.029 A 
ATOM     61  N   UNL A   1      46.089  26.526  26.989  1.00  0.00    -0.354 N 
ATOM     62  N   UNL A   1      46.854  29.345  27.452  1.00  0.00    -0.248 NA
ATOM     63  C   UNL A   1      48.478  31.023  27.476  1.00  0.00     0.031 C 
ATOM     64  C   UNL A   1      47.619  25.156  26.146  1.00  0.00     0.029 A 
ATOM     65  C   UNL A   1      47.404  26.461  26.563  1.00  0.00     0.049 A 
ATOM     66  H   UNL A   1      45.650  27.330  27.350  1.00  0.00     0.167 HD
ATOM     67  C   UNL A   1      48.053  28.823  26.980  1.00  0.00     0.074 A 
ATOM     68  C   UNL A   1      49.011  29.910  26.989  1.00  0.00     0.031 C 
ATOM     69  C   UNL A   1      48.338  27.560  26.575  1.00  0.00     0.037 A 
BRANCH  56  70
ATOM     70  C   UNL A   1      43.620  23.587  26.991  1.00  0.00     0.058 A 
ATOM     71  C   UNL A   1      43.270  23.144  25.705  1.00  0.00     0.135 A 
ATOM     72  C   UNL A   1      43.408  22.710  28.066  1.00  0.00     0.135 A 
ATOM     73  F   UNL A   1      43.464  23.936  24.640  1.00  0.00    -0.206 F 
ATOM     74  C   UNL A   1      42.699  21.892  25.498  1.00  0.00     0.059 A 
ATOM     75  C   UNL A   1      42.864  21.443  27.878  1.00  0.00     0.059 A 
ATOM     76  F   UNL A   1      43.751  23.074  29.312  1.00  0.00    -0.206 F 
ATOM     77  C   UNL A   1      42.495  21.051  26.591  1.00  0.00     0.060 A 
BRANCH  77  78
ATOM     78  S   UNL A   1      41.751  19.432  26.302  1.00  0.00     0.124 S 
ATOM     79  O   UNL A   1      42.409  19.014  25.070  1.00  0.00    -0.237 OA
ATOM     80  O   UNL A   1      42.132  18.703  27.509  1.00  0.00    -0.237 OA
ATOM     81  O   UNL A   1      40.326  19.730  26.184  1.00  0.00    -0.744 OA
ENDBRANCH  77  78
ENDBRANCH  56  70
BRANCH  57  82
ATOM     82  C   UNL A   1      46.592  33.057  28.474  1.00  0.00     0.058 A 
ATOM     83  C   UNL A   1      46.555  34.013  27.446  1.00  0.00     0.135 A 
ATOM     84  C   UNL A   1      47.091  33.459  29.721  1.00  0.00     0.135 A 
ATOM     85  F   UNL A   1      46.094  33.680  26.230  1.00  0.00    -0.206 F 
ATOM     86  C   UNL A   1      47.022  35.309  27.638  1.00  0.00     0.059 A 
ATOM     87  C   UNL A   1      47.537  34.759  29.947  1.00  0.00     0.059 A 
ATOM     88  F   UNL A   1      47.134  32.585  30.739  1.00  0.00    -0.206 F 
ATOM     89  C   UNL A   1      47.514  35.672  28.893  1.00  0.00     0.060 A 
BRANCH  89  90
ATOM     90  S   UNL A   1      48.125  37.355  29.117  1.00  0.00     0.124 S 
ATOM     91  O   UNL A   1      49.569  37.155  29.034  1.00  0.00    -0.237 OA
ATOM     92  O   UNL A   1      47.514  38.053  27.991  1.00  0.00    -0.237 OA
ATOM     93  O   UNL A   1      47.618  37.726  30.434  1.00  0.00    -0.744 OA
ENDBRANCH  89  90
ENDBRANCH  57  82
BRANCH  69  94
ATOM     94  C   UNL A   1      49.732  27.279  26.085  1.00  0.00     0.058 A 
ATOM     95  C   UNL A   1      50.014  27.278  24.709  1.00  0.00     0.135 A 
ATOM     96  C   UNL A   1      50.762  26.917  26.966  1.00  0.00     0.135 A 
ATOM     97  F   UNL A   1      49.061  27.608  23.822  1.00  0.00    -0.206 F 
ATOM     98  C   UNL A   1      51.261  26.905  24.223  1.00  0.00     0.059 A 
ATOM     99  C   UNL A   1      52.028  26.570  26.503  1.00  0.00     0.059 A 
ATOM    100  F   UNL A   1      50.547  26.910  28.292  1.00  0.00    -0.206 F 
ATOM    101  C   UNL A   1      52.261  26.549  25.128  1.00  0.00     0.060 A 
BRANCH 101 102
ATOM    102  S   UNL A   1      53.876  26.073  24.477  1.00  0.00     0.124 S 
ATOM    103  O   UNL A   1      54.774  26.922  25.251  1.00  0.00    -0.237 OA
ATOM    104  O   UNL A   1      53.923  24.648  24.788  1.00  0.00    -0.237 OA
ATOM    105  O   UNL A   1      53.777  26.394  23.056  1.00  0.00    -0.744 OA
ENDBRANCH 101 102
ENDBRANCH  69  94
ENDBRANCH  43  44
ENDBRANCH  36  38
ENDBRANCH  35  36
ENDBRANCH  34  35
ENDBRANCH  33  34
ENDBRANCH  32  33
ENDBRANCH   1  32
TORSDOF 22
ENDMDL
