MODEL 1
REMARK VINA RESULT:     -11.9      0.000      0.000
REMARK SMILES Cc1c[nH]c(C[N@@H+](C)[C@@H](C(=O)OCCOCCOC(=O)c2ccc(-c3c4nc(c(-c5c(F)cc(S(=O)(=O)[O-])cc5F)c5ccc([nH]5)c(-c5c(F)cc(S(=O)(=O)[O-])cc5F)c5nc(c(-c6c(F)cc(S(=O)(=O)[O-])cc6F)c6ccc3[nH]6)C=C5)C=C4)cc2)c2ccc(NC(=O)N3CCCC3)cc2)n1
REMARK SMILES IDX 15 1 14 2 13 3 12 4 10 5 11 6 9 7 7 8 8 9 6 11 5 12 1 13
REMARK SMILES IDX 2 14 3 15 101 16 4 17 87 19 88 20 100 21 89 22 99 23 90 24
REMARK SMILES IDX 91 25 92 26 93 28 94 29 95 30 98 31 96 32 97 33 16 34 17 35
REMARK SMILES IDX 18 36 19 37 20 38 21 39 22 40 86 41 23 42 85 43 24 44 25 45
REMARK SMILES IDX 26 46 79 47 27 48 84 49 78 50 80 51 28 52 83 53 77 54 76 55
REMARK SMILES IDX 29 57 63 58 42 59 62 60 43 61 46 62 61 63 81 64 44 65 45 66
REMARK SMILES IDX 60 68 82 69 47 70 30 71 31 72 40 73 32 74 33 75 39 76 41 77
REMARK SMILES IDX 34 78 35 79 36 80 37 81 38 82 64 83 65 84 74 85 66 86 67 87
REMARK SMILES IDX 73 88 75 89 68 90 69 91 70 92 71 93 72 94 48 95 49 96 58 97
REMARK SMILES IDX 50 98 51 99 57 100 59 101 52 102 53 103 54 104 55 105 56 106
REMARK H PARENT 7 10 4 18 91 27 80 56 46 67
REMARK Flexibility Score: inf
ROOT
ATOM      1  O   UNL A   1      38.755  21.793  25.704  1.00  0.00    -0.374 OA
ENDROOT
BRANCH   1   2
ATOM      2  C   UNL A   1      38.211  20.652  25.039  1.00  0.00     0.202 C 
BRANCH   2   3
ATOM      3  C   UNL A   1      36.686  20.530  25.065  1.00  0.00     0.261 C 
BRANCH   3   4
ATOM      4  O   UNL A   1      36.046  21.640  24.405  1.00  0.00    -0.459 OA
BRANCH   4   5
ATOM      5  C   UNL A   1      35.259  22.387  25.230  1.00  0.00     0.369 C 
ATOM      6  O   UNL A   1      35.720  23.124  26.100  1.00  0.00    -0.245 OA
BRANCH   5   7
ATOM      7  C   UNL A   1      33.747  22.359  24.888  1.00  0.00     0.326 C 
BRANCH   7   8
ATOM      8  N   UNL A   1      33.196  21.109  24.272  1.00  0.00    -0.316 N 
ATOM      9  C   UNL A   1      32.471  21.405  23.030  1.00  0.00     0.334 C 
ATOM     10  H   UNL A   1      34.068  20.600  24.133  1.00  0.00     0.349 HD
BRANCH   8  11
ATOM     11  C   UNL A   1      32.416  20.144  25.066  1.00  0.00     0.339 C 
BRANCH  11  12
ATOM     12  C   UNL A   1      32.838  18.694  25.067  1.00  0.00     0.161 A 
ATOM     13  C   UNL A   1      32.512  15.160  25.493  1.00  0.00     0.068 C 
ATOM     14  C   UNL A   1      32.988  16.545  25.285  1.00  0.00     0.056 A 
ATOM     15  C   UNL A   1      34.228  16.964  24.864  1.00  0.00     0.107 A 
ATOM     16  N   UNL A   1      32.158  17.632  25.471  1.00  0.00    -0.233 NA
ATOM     17  N   UNL A   1      34.115  18.316  24.723  1.00  0.00    -0.344 N 
ATOM     18  H   UNL A   1      34.831  18.922  24.423  1.00  0.00     0.167 HD
ENDBRANCH  11  12
ENDBRANCH   8  11
ENDBRANCH   7   8
BRANCH   7  19
ATOM     19  C   UNL A   1      33.253  23.673  24.285  1.00  0.00     0.021 A 
ATOM     20  C   UNL A   1      33.969  24.377  23.310  1.00  0.00     0.012 A 
ATOM     21  C   UNL A   1      32.047  24.234  24.733  1.00  0.00     0.012 A 
ATOM     22  C   UNL A   1      33.425  25.515  22.713  1.00  0.00     0.027 A 
ATOM     23  C   UNL A   1      31.477  25.333  24.081  1.00  0.00     0.027 A 
ATOM     24  C   UNL A   1      32.120  25.911  22.991  1.00  0.00     0.042 A 
BRANCH  24  25
ATOM     25  N   UNL A   1      31.419  26.862  22.227  1.00  0.00    -0.308 N 
ATOM     26  C   UNL A   1      30.944  28.098  22.548  1.00  0.00     0.321 C 
ATOM     27  H   UNL A   1      31.241  26.586  21.299  1.00  0.00     0.171 HD
ATOM     28  O   UNL A   1      30.001  28.554  21.895  1.00  0.00    -0.248 OA
ATOM     29  N   UNL A   1      31.498  28.800  23.578  1.00  0.00    -0.325 N 
ATOM     30  C   UNL A   1      32.909  29.011  23.839  1.00  0.00     0.121 C 
ATOM     31  C   UNL A   1      30.715  29.733  24.352  1.00  0.00     0.121 C 
ATOM     32  C   UNL A   1      32.933  29.382  25.311  1.00  0.00     0.023 C 
ATOM     33  C   UNL A   1      31.610  30.119  25.530  1.00  0.00     0.023 C 
ENDBRANCH  24  25
ENDBRANCH   7  19
ENDBRANCH   5   7
ENDBRANCH   4   5
ENDBRANCH   3   4
ENDBRANCH   2   3
ENDBRANCH   1   2
BRANCH   1  34
ATOM     34  C   UNL A   1      39.843  21.558  26.592  1.00  0.00     0.202 C 
BRANCH  34  35
ATOM     35  C   UNL A   1      41.123  22.371  26.338  1.00  0.00     0.261 C 
BRANCH  35  36
ATOM     36  O   UNL A   1      40.905  23.790  26.440  1.00  0.00    -0.460 OA
BRANCH  36  37
ATOM     37  C   UNL A   1      41.920  24.466  27.030  1.00  0.00     0.338 C 
ATOM     38  O   UNL A   1      43.122  24.296  26.835  1.00  0.00    -0.246 OA
BRANCH  37  39
ATOM     39  C   UNL A   1      41.414  25.606  27.810  1.00  0.00     0.060 A 
ATOM     40  C   UNL A   1      42.277  26.697  27.973  1.00  0.00     0.016 A 
ATOM     41  C   UNL A   1      40.179  25.574  28.462  1.00  0.00     0.016 A 
ATOM     42  C   UNL A   1      41.937  27.734  28.839  1.00  0.00     0.010 A 
ATOM     43  C   UNL A   1      39.843  26.614  29.338  1.00  0.00     0.010 A 
ATOM     44  C   UNL A   1      40.740  27.676  29.564  1.00  0.00    -0.014 A 
BRANCH  44  45
ATOM     45  C   UNL A   1      40.533  28.638  30.676  1.00  0.00     0.031 A 
ATOM     46  C   UNL A   1      41.406  28.535  31.901  1.00  0.00     0.074 A 
ATOM     47  C   UNL A   1      39.637  29.637  30.567  1.00  0.00     0.049 A 
ATOM     48  N   UNL A   1      41.414  29.276  32.978  1.00  0.00    -0.248 NA
ATOM     49  C   UNL A   1      42.409  27.457  31.908  1.00  0.00     0.031 C 
ATOM     50  C   UNL A   1      38.770  29.871  29.413  1.00  0.00     0.029 A 
ATOM     51  N   UNL A   1      39.313  30.646  31.440  1.00  0.00    -0.354 N 
ATOM     52  C   UNL A   1      42.413  28.753  33.792  1.00  0.00     0.074 A 
ATOM     53  C   UNL A   1      42.971  27.614  33.097  1.00  0.00     0.031 C 
ATOM     54  C   UNL A   1      38.008  30.953  29.652  1.00  0.00     0.029 A 
ATOM     55  C   UNL A   1      38.311  31.470  30.985  1.00  0.00     0.049 A 
ATOM     56  H   UNL A   1      39.756  30.768  32.311  1.00  0.00     0.167 HD
ATOM     57  C   UNL A   1      42.833  29.188  35.003  1.00  0.00     0.037 A 
ATOM     58  C   UNL A   1      37.697  32.511  31.584  1.00  0.00     0.037 A 
ATOM     59  C   UNL A   1      42.284  30.330  35.686  1.00  0.00     0.049 A 
ATOM     60  C   UNL A   1      38.141  32.937  32.960  1.00  0.00     0.074 A 
ATOM     61  C   UNL A   1      42.655  30.860  36.909  1.00  0.00     0.029 A 
ATOM     62  N   UNL A   1      41.246  31.115  35.208  1.00  0.00    -0.354 N 
ATOM     63  N   UNL A   1      39.099  32.443  33.708  1.00  0.00    -0.248 NA
ATOM     64  C   UNL A   1      37.425  34.065  33.572  1.00  0.00     0.031 C 
ATOM     65  C   UNL A   1      41.807  31.936  37.194  1.00  0.00     0.029 A 
ATOM     66  C   UNL A   1      40.946  32.111  36.124  1.00  0.00     0.049 A 
ATOM     67  H   UNL A   1      40.789  30.984  34.346  1.00  0.00     0.167 HD
ATOM     68  C   UNL A   1      39.119  33.217  34.864  1.00  0.00     0.074 A 
ATOM     69  C   UNL A   1      38.085  34.219  34.712  1.00  0.00     0.031 C 
ATOM     70  C   UNL A   1      39.921  33.109  35.953  1.00  0.00     0.037 A 
BRANCH  57  71
ATOM     71  C   UNL A   1      43.930  28.417  35.685  1.00  0.00     0.058 A 
ATOM     72  C   UNL A   1      45.286  28.719  35.482  1.00  0.00     0.135 A 
ATOM     73  C   UNL A   1      43.617  27.396  36.597  1.00  0.00     0.135 A 
ATOM     74  F   UNL A   1      45.643  29.672  34.606  1.00  0.00    -0.206 F 
ATOM     75  C   UNL A   1      46.293  28.027  36.148  1.00  0.00     0.059 A 
ATOM     76  C   UNL A   1      44.606  26.708  37.293  1.00  0.00     0.059 A 
ATOM     77  F   UNL A   1      42.336  27.063  36.824  1.00  0.00    -0.206 F 
ATOM     78  C   UNL A   1      45.942  27.025  37.055  1.00  0.00     0.060 A 
BRANCH  78  79
ATOM     79  S   UNL A   1      47.259  26.152  37.928  1.00  0.00     0.124 S 
ATOM     80  O   UNL A   1      47.409  26.975  39.125  1.00  0.00    -0.237 OA
ATOM     81  O   UNL A   1      46.673  24.831  38.137  1.00  0.00    -0.237 OA
ATOM     82  O   UNL A   1      48.378  26.198  36.991  1.00  0.00    -0.744 OA
ENDBRANCH  78  79
ENDBRANCH  57  71
BRANCH  58  83
ATOM     83  C   UNL A   1      36.578  33.212  30.898  1.00  0.00     0.058 A 
ATOM     84  C   UNL A   1      36.811  34.086  29.825  1.00  0.00     0.135 A 
ATOM     85  C   UNL A   1      35.250  33.034  31.317  1.00  0.00     0.135 A 
ATOM     86  F   UNL A   1      38.063  34.299  29.394  1.00  0.00    -0.206 F 
ATOM     87  C   UNL A   1      35.772  34.775  29.206  1.00  0.00     0.059 A 
ATOM     88  C   UNL A   1      34.191  33.690  30.696  1.00  0.00     0.059 A 
ATOM     89  F   UNL A   1      34.971  32.201  32.332  1.00  0.00    -0.206 F 
ATOM     90  C   UNL A   1      34.464  34.569  29.650  1.00  0.00     0.060 A 
BRANCH  90  91
ATOM     91  S   UNL A   1      33.119  35.440  28.820  1.00  0.00     0.124 S 
ATOM     92  O   UNL A   1      32.500  34.364  28.055  1.00  0.00    -0.237 OA
ATOM     93  O   UNL A   1      32.344  35.952  29.945  1.00  0.00    -0.237 OA
ATOM     94  O   UNL A   1      33.813  36.456  28.033  1.00  0.00    -0.744 OA
ENDBRANCH  90  91
ENDBRANCH  58  83
BRANCH  70  95
ATOM     95  C   UNL A   1      39.746  34.123  37.050  1.00  0.00     0.058 A 
ATOM     96  C   UNL A   1      39.027  33.830  38.219  1.00  0.00     0.135 A 
ATOM     97  C   UNL A   1      40.355  35.385  36.955  1.00  0.00     0.135 A 
ATOM     98  F   UNL A   1      38.420  32.640  38.359  1.00  0.00    -0.206 F 
ATOM     99  C   UNL A   1      38.898  34.761  39.245  1.00  0.00     0.059 A 
ATOM    100  C   UNL A   1      40.264  36.321  37.980  1.00  0.00     0.059 A 
ATOM    101  F   UNL A   1      41.065  35.712  35.863  1.00  0.00    -0.206 F 
ATOM    102  C   UNL A   1      39.523  36.003  39.117  1.00  0.00     0.060 A 
BRANCH 102 103
ATOM    103  S   UNL A   1      39.376  37.190  40.470  1.00  0.00     0.124 S 
ATOM    104  O   UNL A   1      38.517  36.468  41.402  1.00  0.00    -0.237 OA
ATOM    105  O   UNL A   1      40.763  37.361  40.888  1.00  0.00    -0.237 OA
ATOM    106  O   UNL A   1      38.771  38.357  39.834  1.00  0.00    -0.744 OA
ENDBRANCH 102 103
ENDBRANCH  70  95
ENDBRANCH  44  45
ENDBRANCH  37  39
ENDBRANCH  36  37
ENDBRANCH  35  36
ENDBRANCH  34  35
ENDBRANCH   1  34
TORSDOF 22
ENDMDL
MODEL 2
REMARK VINA RESULT:     -11.5      0.656      7.927
REMARK SMILES Cc1c[nH]c(C[N@@H+](C)[C@@H](C(=O)OCCOCCOC(=O)c2ccc(-c3c4nc(c(-c5c(F)cc(S(=O)(=O)[O-])cc5F)c5ccc([nH]5)c(-c5c(F)cc(S(=O)(=O)[O-])cc5F)c5nc(c(-c6c(F)cc(S(=O)(=O)[O-])cc6F)c6ccc3[nH]6)C=C5)C=C4)cc2)c2ccc(NC(=O)N3CCCC3)cc2)n1
REMARK SMILES IDX 15 1 14 2 13 3 12 4 10 5 11 6 9 7 7 8 8 9 6 11 5 12 1 13
REMARK SMILES IDX 2 14 3 15 101 16 4 17 87 19 88 20 100 21 89 22 99 23 90 24
REMARK SMILES IDX 91 25 92 26 93 28 94 29 95 30 98 31 96 32 97 33 16 34 17 35
REMARK SMILES IDX 18 36 19 37 20 38 21 39 22 40 86 41 23 42 85 43 24 44 25 45
REMARK SMILES IDX 26 46 79 47 27 48 84 49 78 50 80 51 28 52 83 53 77 54 76 55
REMARK SMILES IDX 29 57 63 58 42 59 62 60 43 61 46 62 61 63 81 64 44 65 45 66
REMARK SMILES IDX 60 68 82 69 47 70 30 71 31 72 40 73 32 74 33 75 39 76 41 77
REMARK SMILES IDX 34 78 35 79 36 80 37 81 38 82 64 83 65 84 74 85 66 86 67 87
REMARK SMILES IDX 73 88 75 89 68 90 69 91 70 92 71 93 72 94 48 95 49 96 58 97
REMARK SMILES IDX 50 98 51 99 57 100 59 101 52 102 53 103 54 104 55 105 56 106
REMARK H PARENT 7 10 4 18 91 27 80 56 46 67
REMARK Flexibility Score: inf
ROOT
ATOM      1  O   UNL A   1      38.942  21.901  26.371  1.00  0.00    -0.374 OA
ENDROOT
BRANCH   1   2
ATOM      2  C   UNL A   1      38.060  21.689  25.267  1.00  0.00     0.202 C 
BRANCH   2   3
ATOM      3  C   UNL A   1      36.569  21.862  25.563  1.00  0.00     0.261 C 
BRANCH   3   4
ATOM      4  O   UNL A   1      35.876  22.504  24.475  1.00  0.00    -0.459 OA
BRANCH   4   5
ATOM      5  C   UNL A   1      34.986  23.454  24.878  1.00  0.00     0.369 C 
ATOM      6  O   UNL A   1      35.333  24.569  25.265  1.00  0.00    -0.245 OA
BRANCH   5   7
ATOM      7  C   UNL A   1      33.496  23.081  24.667  1.00  0.00     0.326 C 
BRANCH   7   8
ATOM      8  N   UNL A   1      33.170  21.645  24.388  1.00  0.00    -0.316 N 
ATOM      9  C   UNL A   1      32.168  21.526  23.321  1.00  0.00     0.334 C 
ATOM     10  H   UNL A   1      34.099  21.318  24.124  1.00  0.00     0.349 HD
BRANCH   8  11
ATOM     11  C   UNL A   1      32.828  20.714  25.476  1.00  0.00     0.339 C 
BRANCH  11  12
ATOM     12  C   UNL A   1      33.062  19.236  25.269  1.00  0.00     0.161 A 
ATOM     13  C   UNL A   1      34.128  16.265  23.593  1.00  0.00     0.068 C 
ATOM     14  C   UNL A   1      33.533  17.266  24.504  1.00  0.00     0.056 A 
ATOM     15  C   UNL A   1      32.960  17.060  25.737  1.00  0.00     0.107 A 
ATOM     16  N   UNL A   1      33.527  18.612  24.198  1.00  0.00    -0.233 NA
ATOM     17  N   UNL A   1      32.677  18.308  26.208  1.00  0.00    -0.344 N 
ATOM     18  H   UNL A   1      32.266  18.511  27.080  1.00  0.00     0.167 HD
ENDBRANCH  11  12
ENDBRANCH   8  11
ENDBRANCH   7   8
BRANCH   7  19
ATOM     19  C   UNL A   1      32.744  24.111  23.824  1.00  0.00     0.021 A 
ATOM     20  C   UNL A   1      31.452  24.550  24.136  1.00  0.00     0.012 A 
ATOM     21  C   UNL A   1      33.342  24.632  22.666  1.00  0.00     0.012 A 
ATOM     22  C   UNL A   1      30.851  25.570  23.398  1.00  0.00     0.027 A 
ATOM     23  C   UNL A   1      32.763  25.702  21.974  1.00  0.00     0.027 A 
ATOM     24  C   UNL A   1      31.559  26.248  22.411  1.00  0.00     0.042 A 
BRANCH  24  25
ATOM     25  N   UNL A   1      31.122  27.454  21.832  1.00  0.00    -0.308 N 
ATOM     26  C   UNL A   1      30.875  28.675  22.383  1.00  0.00     0.321 C 
ATOM     27  H   UNL A   1      30.968  27.407  20.861  1.00  0.00     0.171 HD
ATOM     28  O   UNL A   1      30.096  29.435  21.802  1.00  0.00    -0.248 OA
ATOM     29  N   UNL A   1      31.472  29.033  23.557  1.00  0.00    -0.325 N 
ATOM     30  C   UNL A   1      32.871  28.890  23.910  1.00  0.00     0.121 C 
ATOM     31  C   UNL A   1      30.828  29.940  24.475  1.00  0.00     0.121 C 
ATOM     32  C   UNL A   1      32.849  28.955  25.428  1.00  0.00     0.023 C 
ATOM     33  C   UNL A   1      31.683  29.895  25.742  1.00  0.00     0.023 C 
ENDBRANCH  24  25
ENDBRANCH   7  19
ENDBRANCH   5   7
ENDBRANCH   4   5
ENDBRANCH   3   4
ENDBRANCH   2   3
ENDBRANCH   1   2
BRANCH   1  34
ATOM     34  C   UNL A   1      40.276  21.424  26.226  1.00  0.00     0.202 C 
BRANCH  34  35
ATOM     35  C   UNL A   1      41.399  22.437  26.502  1.00  0.00     0.261 C 
BRANCH  35  36
ATOM     36  O   UNL A   1      40.931  23.798  26.489  1.00  0.00    -0.460 OA
BRANCH  36  37
ATOM     37  C   UNL A   1      41.909  24.722  26.651  1.00  0.00     0.338 C 
ATOM     38  O   UNL A   1      42.962  24.790  26.021  1.00  0.00    -0.246 OA
BRANCH  37  39
ATOM     39  C   UNL A   1      41.475  25.798  27.555  1.00  0.00     0.060 A 
ATOM     40  C   UNL A   1      42.300  26.927  27.641  1.00  0.00     0.016 A 
ATOM     41  C   UNL A   1      40.358  25.670  28.384  1.00  0.00     0.016 A 
ATOM     42  C   UNL A   1      42.048  27.906  28.600  1.00  0.00     0.010 A 
ATOM     43  C   UNL A   1      40.112  26.652  29.353  1.00  0.00     0.010 A 
ATOM     44  C   UNL A   1      40.981  27.751  29.494  1.00  0.00    -0.014 A 
BRANCH  44  45
ATOM     45  C   UNL A   1      40.902  28.651  30.673  1.00  0.00     0.031 A 
ATOM     46  C   UNL A   1      39.842  29.722  30.702  1.00  0.00     0.074 A 
ATOM     47  C   UNL A   1      41.709  28.470  31.735  1.00  0.00     0.049 A 
ATOM     48  N   UNL A   1      39.579  30.602  31.632  1.00  0.00    -0.248 NA
ATOM     49  C   UNL A   1      38.955  29.805  29.530  1.00  0.00     0.031 C 
ATOM     50  C   UNL A   1      42.740  27.439  31.845  1.00  0.00     0.029 A 
ATOM     51  N   UNL A   1      41.784  29.147  32.926  1.00  0.00    -0.354 N 
ATOM     52  C   UNL A   1      38.504  31.348  31.157  1.00  0.00     0.074 A 
ATOM     53  C   UNL A   1      38.181  30.834  29.844  1.00  0.00     0.031 C 
ATOM     54  C   UNL A   1      43.348  27.556  33.039  1.00  0.00     0.029 A 
ATOM     55  C   UNL A   1      42.772  28.686  33.764  1.00  0.00     0.049 A 
ATOM     56  H   UNL A   1      41.186  29.894  33.160  1.00  0.00     0.167 HD
ATOM     57  C   UNL A   1      37.841  32.359  31.764  1.00  0.00     0.037 A 
ATOM     58  C   UNL A   1      43.175  29.136  34.970  1.00  0.00     0.037 A 
ATOM     59  C   UNL A   1      38.157  32.859  33.077  1.00  0.00     0.049 A 
ATOM     60  C   UNL A   1      42.460  30.306  35.597  1.00  0.00     0.074 A 
ATOM     61  C   UNL A   1      37.531  33.871  33.785  1.00  0.00     0.029 A 
ATOM     62  N   UNL A   1      39.187  32.390  33.876  1.00  0.00    -0.354 N 
ATOM     63  N   UNL A   1      41.435  30.986  35.143  1.00  0.00    -0.248 NA
ATOM     64  C   UNL A   1      42.953  30.766  36.903  1.00  0.00     0.031 C 
ATOM     65  C   UNL A   1      38.215  34.046  34.992  1.00  0.00     0.029 A 
ATOM     66  C   UNL A   1      39.232  33.107  35.061  1.00  0.00     0.049 A 
ATOM     67  H   UNL A   1      39.798  31.655  33.638  1.00  0.00     0.167 HD
ATOM     68  C   UNL A   1      41.143  31.935  36.119  1.00  0.00     0.074 A 
ATOM     69  C   UNL A   1      42.093  31.732  37.193  1.00  0.00     0.031 C 
ATOM     70  C   UNL A   1      40.176  32.886  36.126  1.00  0.00     0.037 A 
BRANCH  57  71
ATOM     71  C   UNL A   1      36.716  33.014  31.011  1.00  0.00     0.058 A 
ATOM     72  C   UNL A   1      35.371  32.784  31.339  1.00  0.00     0.135 A 
ATOM     73  C   UNL A   1      36.990  33.927  29.979  1.00  0.00     0.135 A 
ATOM     74  F   UNL A   1      35.050  31.905  32.302  1.00  0.00    -0.206 F 
ATOM     75  C   UNL A   1      34.337  33.425  30.662  1.00  0.00     0.059 A 
ATOM     76  C   UNL A   1      35.975  34.599  29.307  1.00  0.00     0.059 A 
ATOM     77  F   UNL A   1      38.260  34.180  29.622  1.00  0.00    -0.206 F 
ATOM     78  C   UNL A   1      34.650  34.334  29.650  1.00  0.00     0.060 A 
BRANCH  78  79
ATOM     79  S   UNL A   1      33.298  35.175  28.797  1.00  0.00     0.124 S 
ATOM     80  O   UNL A   1      32.488  35.635  29.922  1.00  0.00    -0.237 OA
ATOM     81  O   UNL A   1      34.000  36.217  28.053  1.00  0.00    -0.237 OA
ATOM     82  O   UNL A   1      32.701  34.121  27.983  1.00  0.00    -0.744 OA
ENDBRANCH  78  79
ENDBRANCH  57  71
BRANCH  58  83
ATOM     83  C   UNL A   1      44.329  28.495  35.657  1.00  0.00     0.058 A 
ATOM     84  C   UNL A   1      45.649  28.888  35.389  1.00  0.00     0.135 A 
ATOM     85  C   UNL A   1      44.132  27.461  36.587  1.00  0.00     0.135 A 
ATOM     86  F   UNL A   1      45.891  29.863  34.501  1.00  0.00    -0.206 F 
ATOM     87  C   UNL A   1      46.733  28.264  36.000  1.00  0.00     0.059 A 
ATOM     88  C   UNL A   1      45.198  26.842  37.231  1.00  0.00     0.059 A 
ATOM     89  F   UNL A   1      42.888  27.055  36.888  1.00  0.00    -0.206 F 
ATOM     90  C   UNL A   1      46.497  27.242  36.921  1.00  0.00     0.060 A 
BRANCH  90  91
ATOM     91  S   UNL A   1      47.907  26.463  37.734  1.00  0.00     0.124 S 
ATOM     92  O   UNL A   1      47.775  26.963  39.097  1.00  0.00    -0.237 OA
ATOM     93  O   UNL A   1      47.625  25.044  37.543  1.00  0.00    -0.237 OA
ATOM     94  O   UNL A   1      49.051  26.973  36.982  1.00  0.00    -0.744 OA
ENDBRANCH  90  91
ENDBRANCH  58  83
BRANCH  70  95
ATOM     95  C   UNL A   1      40.065  33.756  37.348  1.00  0.00     0.058 A 
ATOM     96  C   UNL A   1      40.819  34.932  37.490  1.00  0.00     0.135 A 
ATOM     97  C   UNL A   1      39.147  33.439  38.364  1.00  0.00     0.135 A 
ATOM     98  F   UNL A   1      41.713  35.278  36.551  1.00  0.00    -0.206 F 
ATOM     99  C   UNL A   1      40.685  35.749  38.607  1.00  0.00     0.059 A 
ATOM    100  C   UNL A   1      38.976  34.257  39.476  1.00  0.00     0.059 A 
ATOM    101  F   UNL A   1      38.393  32.333  38.272  1.00  0.00    -0.206 F 
ATOM    102  C   UNL A   1      39.759  35.405  39.594  1.00  0.00     0.060 A 
BRANCH 102 103
ATOM    103  S   UNL A   1      39.571  36.492  41.023  1.00  0.00     0.124 S 
ATOM    104  O   UNL A   1      39.146  35.552  42.055  1.00  0.00    -0.237 OA
ATOM    105  O   UNL A   1      40.914  37.040  41.179  1.00  0.00    -0.237 OA
ATOM    106  O   UNL A   1      38.556  37.450  40.590  1.00  0.00    -0.744 OA
ENDBRANCH 102 103
ENDBRANCH  70  95
ENDBRANCH  44  45
ENDBRANCH  37  39
ENDBRANCH  36  37
ENDBRANCH  35  36
ENDBRANCH  34  35
ENDBRANCH   1  34
TORSDOF 22
ENDMDL
MODEL 3
REMARK VINA RESULT:     -11.1      3.014      4.014
REMARK SMILES Cc1c[nH]c(C[N@@H+](C)[C@@H](C(=O)OCCOCCOC(=O)c2ccc(-c3c4nc(c(-c5c(F)cc(S(=O)(=O)[O-])cc5F)c5ccc([nH]5)c(-c5c(F)cc(S(=O)(=O)[O-])cc5F)c5nc(c(-c6c(F)cc(S(=O)(=O)[O-])cc6F)c6ccc3[nH]6)C=C5)C=C4)cc2)c2ccc(NC(=O)N3CCCC3)cc2)n1
REMARK SMILES IDX 15 1 14 2 13 3 12 4 10 5 11 6 9 7 7 8 8 9 6 11 5 12 1 13
REMARK SMILES IDX 2 14 3 15 101 16 4 17 87 19 88 20 100 21 89 22 99 23 90 24
REMARK SMILES IDX 91 25 92 26 93 28 94 29 95 30 98 31 96 32 97 33 16 34 17 35
REMARK SMILES IDX 18 36 19 37 20 38 21 39 22 40 86 41 23 42 85 43 24 44 25 45
REMARK SMILES IDX 26 46 79 47 27 48 84 49 78 50 80 51 28 52 83 53 77 54 76 55
REMARK SMILES IDX 29 57 63 58 42 59 62 60 43 61 46 62 61 63 81 64 44 65 45 66
REMARK SMILES IDX 60 68 82 69 47 70 30 71 31 72 40 73 32 74 33 75 39 76 41 77
REMARK SMILES IDX 34 78 35 79 36 80 37 81 38 82 64 83 65 84 74 85 66 86 67 87
REMARK SMILES IDX 73 88 75 89 68 90 69 91 70 92 71 93 72 94 48 95 49 96 58 97
REMARK SMILES IDX 50 98 51 99 57 100 59 101 52 102 53 103 54 104 55 105 56 106
REMARK H PARENT 7 10 4 18 91 27 80 56 46 67
REMARK Flexibility Score: inf
ROOT
ATOM      1  O   UNL A   1      34.098  24.397  26.147  1.00  0.00    -0.374 OA
ENDROOT
BRANCH   1   2
ATOM      2  C   UNL A   1      34.166  23.168  26.872  1.00  0.00     0.202 C 
BRANCH   2   3
ATOM      3  C   UNL A   1      32.833  22.631  27.398  1.00  0.00     0.261 C 
BRANCH   3   4
ATOM      4  O   UNL A   1      32.085  21.949  26.371  1.00  0.00    -0.459 OA
BRANCH   4   5
ATOM      5  C   UNL A   1      30.949  22.602  25.997  1.00  0.00     0.369 C 
ATOM      6  O   UNL A   1      29.961  22.684  26.725  1.00  0.00    -0.245 OA
BRANCH   5   7
ATOM      7  C   UNL A   1      31.049  23.365  24.652  1.00  0.00     0.326 C 
BRANCH   7   8
ATOM      8  N   UNL A   1      32.153  22.982  23.714  1.00  0.00    -0.316 N 
ATOM      9  C   UNL A   1      32.527  24.106  22.847  1.00  0.00     0.334 C 
ATOM     10  H   UNL A   1      32.865  22.729  24.399  1.00  0.00     0.349 HD
BRANCH   8  11
ATOM     11  C   UNL A   1      32.075  21.754  22.904  1.00  0.00     0.339 C 
BRANCH  11  12
ATOM     12  C   UNL A   1      32.675  20.481  23.453  1.00  0.00     0.161 A 
ATOM     13  C   UNL A   1      33.121  16.962  23.891  1.00  0.00     0.068 C 
ATOM     14  C   UNL A   1      33.151  18.438  23.987  1.00  0.00     0.056 A 
ATOM     15  C   UNL A   1      33.992  19.225  24.738  1.00  0.00     0.107 A 
ATOM     16  N   UNL A   1      32.295  19.230  23.248  1.00  0.00    -0.233 NA
ATOM     17  N   UNL A   1      33.687  20.506  24.384  1.00  0.00    -0.344 N 
ATOM     18  H   UNL A   1      34.121  21.317  24.737  1.00  0.00     0.167 HD
ENDBRANCH  11  12
ENDBRANCH   8  11
ENDBRANCH   7   8
BRANCH   7  19
ATOM     19  C   UNL A   1      30.794  24.865  24.804  1.00  0.00     0.021 A 
ATOM     20  C   UNL A   1      31.178  25.589  25.938  1.00  0.00     0.012 A 
ATOM     21  C   UNL A   1      30.123  25.562  23.788  1.00  0.00     0.012 A 
ATOM     22  C   UNL A   1      31.021  26.975  25.983  1.00  0.00     0.027 A 
ATOM     23  C   UNL A   1      30.033  26.958  23.810  1.00  0.00     0.027 A 
ATOM     24  C   UNL A   1      30.584  27.679  24.865  1.00  0.00     0.042 A 
BRANCH  24  25
ATOM     25  N   UNL A   1      30.673  29.078  24.747  1.00  0.00    -0.308 N 
ATOM     26  C   UNL A   1      31.480  29.982  25.369  1.00  0.00     0.321 C 
ATOM     27  H   UNL A   1      30.041  29.472  24.103  1.00  0.00     0.171 HD
ATOM     28  O   UNL A   1      31.098  31.152  25.453  1.00  0.00    -0.248 OA
ATOM     29  N   UNL A   1      32.677  29.588  25.892  1.00  0.00    -0.325 N 
ATOM     30  C   UNL A   1      33.686  28.764  25.255  1.00  0.00     0.121 C 
ATOM     31  C   UNL A   1      33.245  30.253  27.040  1.00  0.00     0.121 C 
ATOM     32  C   UNL A   1      34.499  28.248  26.430  1.00  0.00     0.023 C 
ATOM     33  C   UNL A   1      34.433  29.384  27.454  1.00  0.00     0.023 C 
ENDBRANCH  24  25
ENDBRANCH   7  19
ENDBRANCH   5   7
ENDBRANCH   4   5
ENDBRANCH   3   4
ENDBRANCH   2   3
ENDBRANCH   1   2
BRANCH   1  34
ATOM     34  C   UNL A   1      35.101  24.615  25.160  1.00  0.00     0.202 C 
BRANCH  34  35
ATOM     35  C   UNL A   1      36.219  23.564  25.076  1.00  0.00     0.261 C 
BRANCH  35  36
ATOM     36  O   UNL A   1      37.533  24.146  25.155  1.00  0.00    -0.460 OA
BRANCH  36  37
ATOM     37  C   UNL A   1      38.370  23.511  26.011  1.00  0.00     0.338 C 
ATOM     38  O   UNL A   1      38.605  22.305  26.044  1.00  0.00    -0.246 OA
BRANCH  37  39
ATOM     39  C   UNL A   1      39.154  24.476  26.797  1.00  0.00     0.060 A 
ATOM     40  C   UNL A   1      38.900  24.530  28.173  1.00  0.00     0.016 A 
ATOM     41  C   UNL A   1      40.032  25.384  26.201  1.00  0.00     0.016 A 
ATOM     42  C   UNL A   1      39.473  25.532  28.951  1.00  0.00     0.010 A 
ATOM     43  C   UNL A   1      40.602  26.396  26.985  1.00  0.00     0.010 A 
ATOM     44  C   UNL A   1      40.290  26.502  28.354  1.00  0.00    -0.014 A 
BRANCH  44  45
ATOM     45  C   UNL A   1      40.657  27.707  29.140  1.00  0.00     0.031 A 
ATOM     46  C   UNL A   1      42.009  27.761  29.803  1.00  0.00     0.074 A 
ATOM     47  C   UNL A   1      39.833  28.770  29.197  1.00  0.00     0.049 A 
ATOM     48  N   UNL A   1      42.544  28.716  30.518  1.00  0.00    -0.248 NA
ATOM     49  C   UNL A   1      42.876  26.584  29.631  1.00  0.00     0.031 C 
ATOM     50  C   UNL A   1      38.522  28.858  28.556  1.00  0.00     0.029 A 
ATOM     51  N   UNL A   1      39.983  29.983  29.821  1.00  0.00    -0.354 N 
ATOM     52  C   UNL A   1      43.804  28.255  30.886  1.00  0.00     0.074 A 
ATOM     53  C   UNL A   1      43.943  26.923  30.339  1.00  0.00     0.031 C 
ATOM     54  C   UNL A   1      37.984  30.060  28.825  1.00  0.00     0.029 A 
ATOM     55  C   UNL A   1      38.897  30.816  29.680  1.00  0.00     0.049 A 
ATOM     56  H   UNL A   1      40.792  30.235  30.323  1.00  0.00     0.167 HD
ATOM     57  C   UNL A   1      44.760  28.888  31.605  1.00  0.00     0.037 A 
ATOM     58  C   UNL A   1      38.661  32.039  30.197  1.00  0.00     0.037 A 
ATOM     59  C   UNL A   1      44.624  30.219  32.137  1.00  0.00     0.049 A 
ATOM     60  C   UNL A   1      39.718  32.697  31.047  1.00  0.00     0.074 A 
ATOM     61  C   UNL A   1      45.544  30.953  32.864  1.00  0.00     0.029 A 
ATOM     62  N   UNL A   1      43.495  31.012  32.003  1.00  0.00    -0.354 N 
ATOM     63  N   UNL A   1      40.910  32.255  31.370  1.00  0.00    -0.248 NA
ATOM     64  C   UNL A   1      39.400  34.021  31.600  1.00  0.00     0.031 C 
ATOM     65  C   UNL A   1      44.953  32.171  33.213  1.00  0.00     0.029 A 
ATOM     66  C   UNL A   1      43.685  32.219  32.656  1.00  0.00     0.049 A 
ATOM     67  H   UNL A   1      42.678  30.757  31.517  1.00  0.00     0.167 HD
ATOM     68  C   UNL A   1      41.494  33.258  32.138  1.00  0.00     0.074 A 
ATOM     69  C   UNL A   1      40.529  34.334  32.221  1.00  0.00     0.031 C 
ATOM     70  C   UNL A   1      42.719  33.286  32.721  1.00  0.00     0.037 A 
BRANCH  57  71
ATOM     71  C   UNL A   1      46.039  28.145  31.881  1.00  0.00     0.058 A 
ATOM     72  C   UNL A   1      47.169  28.284  31.061  1.00  0.00     0.135 A 
ATOM     73  C   UNL A   1      46.151  27.323  33.014  1.00  0.00     0.135 A 
ATOM     74  F   UNL A   1      47.112  29.041  29.953  1.00  0.00    -0.206 F 
ATOM     75  C   UNL A   1      48.361  27.624  31.347  1.00  0.00     0.059 A 
ATOM     76  C   UNL A   1      47.339  26.674  33.334  1.00  0.00     0.059 A 
ATOM     77  F   UNL A   1      45.097  27.151  33.830  1.00  0.00    -0.206 F 
ATOM     78  C   UNL A   1      48.437  26.823  32.488  1.00  0.00     0.060 A 
BRANCH  78  79
ATOM     79  S   UNL A   1      49.996  25.992  32.857  1.00  0.00     0.124 S 
ATOM     80  O   UNL A   1      49.929  25.882  34.312  1.00  0.00    -0.237 OA
ATOM     81  O   UNL A   1      49.864  24.739  32.120  1.00  0.00    -0.237 OA
ATOM     82  O   UNL A   1      51.004  26.915  32.344  1.00  0.00    -0.744 OA
ENDBRANCH  78  79
ENDBRANCH  57  71
BRANCH  58  83
ATOM     83  C   UNL A   1      37.360  32.717  29.946  1.00  0.00     0.058 A 
ATOM     84  C   UNL A   1      36.233  32.452  30.740  1.00  0.00     0.135 A 
ATOM     85  C   UNL A   1      37.214  33.632  28.891  1.00  0.00     0.135 A 
ATOM     86  F   UNL A   1      36.318  31.578  31.753  1.00  0.00    -0.206 F 
ATOM     87  C   UNL A   1      35.004  33.054  30.484  1.00  0.00     0.059 A 
ATOM     88  C   UNL A   1      36.004  34.267  28.633  1.00  0.00     0.059 A 
ATOM     89  F   UNL A   1      38.264  33.928  28.108  1.00  0.00    -0.206 F 
ATOM     90  C   UNL A   1      34.900  33.961  29.428  1.00  0.00     0.060 A 
BRANCH  90  91
ATOM     91  S   UNL A   1      33.311  34.762  29.125  1.00  0.00     0.124 S 
ATOM     92  O   UNL A   1      32.706  34.725  30.451  1.00  0.00    -0.237 OA
ATOM     93  O   UNL A   1      33.718  36.078  28.644  1.00  0.00    -0.237 OA
ATOM     94  O   UNL A   1      32.689  33.901  28.122  1.00  0.00    -0.744 OA
ENDBRANCH  90  91
ENDBRANCH  58  83
BRANCH  70  95
ATOM     95  C   UNL A   1      43.107  34.534  33.465  1.00  0.00     0.058 A 
ATOM     96  C   UNL A   1      42.893  34.668  34.846  1.00  0.00     0.135 A 
ATOM     97  C   UNL A   1      43.755  35.587  32.798  1.00  0.00     0.135 A 
ATOM     98  F   UNL A   1      42.273  33.694  35.531  1.00  0.00    -0.206 F 
ATOM     99  C   UNL A   1      43.286  35.811  35.534  1.00  0.00     0.059 A 
ATOM    100  C   UNL A   1      44.182  36.727  33.471  1.00  0.00     0.059 A 
ATOM    101  F   UNL A   1      43.996  35.504  31.480  1.00  0.00    -0.206 F 
ATOM    102  C   UNL A   1      43.932  36.835  34.838  1.00  0.00     0.060 A 
BRANCH 102 103
ATOM    103  S   UNL A   1      44.467  38.299  35.749  1.00  0.00     0.124 S 
ATOM    104  O   UNL A   1      43.831  38.087  37.045  1.00  0.00    -0.237 OA
ATOM    105  O   UNL A   1      45.921  38.168  35.727  1.00  0.00    -0.237 OA
ATOM    106  O   UNL A   1      43.932  39.405  34.960  1.00  0.00    -0.744 OA
ENDBRANCH 102 103
ENDBRANCH  70  95
ENDBRANCH  44  45
ENDBRANCH  37  39
ENDBRANCH  36  37
ENDBRANCH  35  36
ENDBRANCH  34  35
ENDBRANCH   1  34
TORSDOF 22
ENDMDL
