MODEL 1
REMARK VINA RESULT:     -11.0      0.000      0.000
REMARK SMILES CCCCn1cc(C(N)=O)c2cc(C(=O)OCCOCCOC(=O)c3ccc(-c4c5nc(c(-c6c(F)cc(S(=O)(=O)[O-])cc6F)c6ccc([nH]6)c(-c6c(F)cc(S(=O)(=O)[O-])cc6F)c6nc(c(-c7c(F)cc(S(=O)(=O)[O-])cc7F)c7ccc4[nH]7)C=C6)C=C5)cc3)cnc21
REMARK SMILES IDX 19 1 18 2 17 3 16 4 14 5 15 6 13 7 5 8 6 9 93 10 7 11 11 12
REMARK SMILES IDX 92 13 12 14 91 15 4 16 3 17 2 18 1 19 8 20 9 21 10 22 20 25
REMARK SMILES IDX 21 26 22 27 23 28 24 29 25 30 26 31 90 32 27 33 89 34 28 35
REMARK SMILES IDX 29 36 30 37 83 38 31 39 88 40 82 41 84 42 32 43 87 44 81 45
REMARK SMILES IDX 80 46 33 48 67 49 46 50 66 51 47 52 50 53 65 54 85 55 48 56
REMARK SMILES IDX 49 57 64 59 86 60 51 61 34 62 35 63 44 64 36 65 37 66 43 67
REMARK SMILES IDX 45 68 38 69 39 70 40 71 41 72 42 73 68 74 69 75 78 76 70 77
REMARK SMILES IDX 71 78 77 79 79 80 72 81 73 82 74 83 75 84 76 85 52 86 53 87
REMARK SMILES IDX 62 88 54 89 55 90 61 91 63 92 56 93 57 94 58 95 59 96 60 97
REMARK H PARENT 9 23 9 24 84 47 50 58
REMARK Flexibility Score: inf
ROOT
ATOM      1  O   UNL A   1      41.866  21.037  27.339  1.00  0.00    -0.374 OA
ENDROOT
BRANCH   1   2
ATOM      2  C   UNL A   1      40.450  21.153  27.200  1.00  0.00     0.202 C 
BRANCH   2   3
ATOM      3  C   UNL A   1      39.906  22.045  26.081  1.00  0.00     0.261 C 
BRANCH   3   4
ATOM      4  O   UNL A   1      38.478  22.216  26.148  1.00  0.00    -0.460 OA
BRANCH   4   5
ATOM      5  C   UNL A   1      37.788  21.481  25.248  1.00  0.00     0.339 C 
ATOM      6  O   UNL A   1      37.979  20.304  24.955  1.00  0.00    -0.246 OA
BRANCH   5   7
ATOM      7  C   UNL A   1      36.594  22.196  24.786  1.00  0.00     0.079 A 
ATOM      8  N   UNL A   1      33.050  23.768  23.621  1.00  0.00    -0.332 N 
ATOM      9  C   UNL A   1      32.317  23.785  24.775  1.00  0.00     0.102 A 
ATOM     10  C   UNL A   1      34.326  23.345  23.903  1.00  0.00     0.140 A 
ATOM     11  C   UNL A   1      33.044  23.183  25.790  1.00  0.00     0.066 A 
ATOM     12  C   UNL A   1      34.329  22.889  25.225  1.00  0.00     0.033 A 
ATOM     13  N   UNL A   1      35.361  23.329  23.032  1.00  0.00    -0.237 NA
ATOM     14  C   UNL A   1      35.501  22.253  25.660  1.00  0.00     0.030 A 
ATOM     15  C   UNL A   1      36.491  22.772  23.532  1.00  0.00     0.129 A 
BRANCH   8  16
ATOM     16  C   UNL A   1      32.535  24.109  22.306  1.00  0.00     0.123 C 
BRANCH  16  17
ATOM     17  C   UNL A   1      32.066  25.568  22.178  1.00  0.00     0.022 C 
BRANCH  17  18
ATOM     18  C   UNL A   1      33.084  26.576  21.625  1.00  0.00    -0.002 C 
ATOM     19  C   UNL A   1      33.636  27.540  22.663  1.00  0.00     0.004 C 
ENDBRANCH  17  18
ENDBRANCH  16  17
ENDBRANCH   8  16
BRANCH  11  20
ATOM     20  C   UNL A   1      32.475  22.934  27.107  1.00  0.00     0.250 C 
ATOM     21  N   UNL A   1      32.925  21.843  27.784  1.00  0.00    -0.366 N 
ATOM     22  O   UNL A   1      31.637  23.669  27.626  1.00  0.00    -0.269 OA
ATOM     23  H   UNL A   1      33.596  21.250  27.374  1.00  0.00     0.159 HD
ATOM     24  H   UNL A   1      32.579  21.645  28.685  1.00  0.00     0.159 HD
ENDBRANCH  11  20
ENDBRANCH   5   7
ENDBRANCH   4   5
ENDBRANCH   3   4
ENDBRANCH   2   3
ENDBRANCH   1   2
BRANCH   1  25
ATOM     25  C   UNL A   1      42.477  19.753  27.301  1.00  0.00     0.202 C 
BRANCH  25  26
ATOM     26  C   UNL A   1      42.821  19.122  25.957  1.00  0.00     0.261 C 
BRANCH  26  27
ATOM     27  O   UNL A   1      43.169  20.076  24.967  1.00  0.00    -0.460 OA
BRANCH  27  28
ATOM     28  C   UNL A   1      44.466  20.438  25.029  1.00  0.00     0.338 C 
ATOM     29  O   UNL A   1      45.440  19.685  25.076  1.00  0.00    -0.246 OA
BRANCH  28  30
ATOM     30  C   UNL A   1      44.570  21.885  25.162  1.00  0.00     0.060 A 
ATOM     31  C   UNL A   1      45.464  22.358  26.124  1.00  0.00     0.016 A 
ATOM     32  C   UNL A   1      43.583  22.702  24.587  1.00  0.00     0.016 A 
ATOM     33  C   UNL A   1      45.226  23.592  26.676  1.00  0.00     0.010 A 
ATOM     34  C   UNL A   1      43.340  23.930  25.149  1.00  0.00     0.010 A 
ATOM     35  C   UNL A   1      44.110  24.316  26.242  1.00  0.00    -0.014 A 
BRANCH  35  36
ATOM     36  C   UNL A   1      43.810  25.545  26.935  1.00  0.00     0.031 A 
ATOM     37  C   UNL A   1      44.823  26.593  26.703  1.00  0.00     0.074 A 
ATOM     38  C   UNL A   1      42.698  25.714  27.672  1.00  0.00     0.049 A 
ATOM     39  N   UNL A   1      45.722  27.005  27.532  1.00  0.00    -0.248 NA
ATOM     40  C   UNL A   1      44.988  27.093  25.331  1.00  0.00     0.031 C 
ATOM     41  C   UNL A   1      41.514  24.857  27.767  1.00  0.00     0.029 A 
ATOM     42  N   UNL A   1      42.372  26.773  28.455  1.00  0.00    -0.354 N 
ATOM     43  C   UNL A   1      46.423  27.992  26.853  1.00  0.00     0.074 A 
ATOM     44  C   UNL A   1      46.071  27.859  25.464  1.00  0.00     0.031 C 
ATOM     45  C   UNL A   1      40.519  25.545  28.379  1.00  0.00     0.029 A 
ATOM     46  C   UNL A   1      41.039  26.824  28.834  1.00  0.00     0.049 A 
ATOM     47  H   UNL A   1      43.030  27.450  28.732  1.00  0.00     0.167 HD
ATOM     48  C   UNL A   1      47.042  28.999  27.524  1.00  0.00     0.037 A 
ATOM     49  C   UNL A   1      40.420  27.891  29.405  1.00  0.00     0.037 A 
ATOM     50  C   UNL A   1      47.213  28.675  28.919  1.00  0.00     0.049 A 
ATOM     51  C   UNL A   1      41.492  28.723  30.028  1.00  0.00     0.074 A 
ATOM     52  C   UNL A   1      47.871  27.669  29.601  1.00  0.00     0.029 A 
ATOM     53  N   UNL A   1      46.326  29.219  29.818  1.00  0.00    -0.354 N 
ATOM     54  N   UNL A   1      42.216  28.329  31.042  1.00  0.00    -0.248 NA
ATOM     55  C   UNL A   1      42.083  29.781  29.219  1.00  0.00     0.031 C 
ATOM     56  C   UNL A   1      47.018  27.345  30.697  1.00  0.00     0.029 A 
ATOM     57  C   UNL A   1      45.924  28.211  30.658  1.00  0.00     0.049 A 
ATOM     58  H   UNL A   1      46.035  30.159  29.854  1.00  0.00     0.167 HD
ATOM     59  C   UNL A   1      43.502  28.771  30.761  1.00  0.00     0.074 A 
ATOM     60  C   UNL A   1      43.343  29.719  29.660  1.00  0.00     0.031 C 
ATOM     61  C   UNL A   1      44.604  28.124  31.247  1.00  0.00     0.037 A 
BRANCH  48  62
ATOM     62  C   UNL A   1      47.151  30.405  26.996  1.00  0.00     0.058 A 
ATOM     63  C   UNL A   1      48.398  31.060  27.036  1.00  0.00     0.135 A 
ATOM     64  C   UNL A   1      46.037  31.226  26.711  1.00  0.00     0.135 A 
ATOM     65  F   UNL A   1      49.520  30.376  27.310  1.00  0.00    -0.206 F 
ATOM     66  C   UNL A   1      48.518  32.439  26.872  1.00  0.00     0.059 A 
ATOM     67  C   UNL A   1      46.142  32.592  26.487  1.00  0.00     0.059 A 
ATOM     68  F   UNL A   1      44.780  30.767  26.736  1.00  0.00    -0.206 F 
ATOM     69  C   UNL A   1      47.379  33.197  26.612  1.00  0.00     0.060 A 
BRANCH  69  70
ATOM     70  S   UNL A   1      47.513  34.988  26.513  1.00  0.00     0.124 S 
ATOM     71  O   UNL A   1      46.503  35.299  25.508  1.00  0.00    -0.237 OA
ATOM     72  O   UNL A   1      47.202  35.388  27.881  1.00  0.00    -0.237 OA
ATOM     73  O   UNL A   1      48.898  35.199  26.103  1.00  0.00    -0.744 OA
ENDBRANCH  69  70
ENDBRANCH  48  62
BRANCH  49  74
ATOM     74  C   UNL A   1      39.075  28.435  29.066  1.00  0.00     0.058 A 
ATOM     75  C   UNL A   1      38.068  28.546  30.045  1.00  0.00     0.135 A 
ATOM     76  C   UNL A   1      38.834  29.119  27.857  1.00  0.00     0.135 A 
ATOM     77  F   UNL A   1      38.216  27.946  31.236  1.00  0.00    -0.206 F 
ATOM     78  C   UNL A   1      36.924  29.333  29.856  1.00  0.00     0.059 A 
ATOM     79  C   UNL A   1      37.699  29.899  27.642  1.00  0.00     0.059 A 
ATOM     80  F   UNL A   1      39.743  29.129  26.870  1.00  0.00    -0.206 F 
ATOM     81  C   UNL A   1      36.759  30.025  28.658  1.00  0.00     0.060 A 
BRANCH  81  82
ATOM     82  S   UNL A   1      35.378  31.178  28.473  1.00  0.00     0.124 S 
ATOM     83  O   UNL A   1      35.112  31.558  29.856  1.00  0.00    -0.237 OA
ATOM     84  O   UNL A   1      35.955  32.215  27.625  1.00  0.00    -0.237 OA
ATOM     85  O   UNL A   1      34.341  30.367  27.840  1.00  0.00    -0.744 OA
ENDBRANCH  81  82
ENDBRANCH  49  74
BRANCH  61  86
ATOM     86  C   UNL A   1      44.414  27.078  32.318  1.00  0.00     0.058 A 
ATOM     87  C   UNL A   1      44.236  25.705  32.067  1.00  0.00     0.135 A 
ATOM     88  C   UNL A   1      44.604  27.462  33.654  1.00  0.00     0.135 A 
ATOM     89  F   UNL A   1      44.148  25.239  30.814  1.00  0.00    -0.206 F 
ATOM     90  C   UNL A   1      44.215  24.765  33.101  1.00  0.00     0.059 A 
ATOM     91  C   UNL A   1      44.619  26.540  34.696  1.00  0.00     0.059 A 
ATOM     92  F   UNL A   1      44.841  28.750  33.955  1.00  0.00    -0.206 F 
ATOM     93  C   UNL A   1      44.415  25.191  34.413  1.00  0.00     0.060 A 
BRANCH  93  94
ATOM     94  S   UNL A   1      44.473  23.966  35.740  1.00  0.00     0.124 S 
ATOM     95  O   UNL A   1      43.633  22.897  35.210  1.00  0.00    -0.237 OA
ATOM     96  O   UNL A   1      45.899  23.666  35.830  1.00  0.00    -0.237 OA
ATOM     97  O   UNL A   1      43.921  24.680  36.890  1.00  0.00    -0.744 OA
ENDBRANCH  93  94
ENDBRANCH  61  86
ENDBRANCH  35  36
ENDBRANCH  28  30
ENDBRANCH  27  28
ENDBRANCH  26  27
ENDBRANCH  25  26
ENDBRANCH   1  25
TORSDOF 21
ENDMDL
MODEL 2
REMARK VINA RESULT:     -10.7      2.560      9.400
REMARK SMILES CCCCn1cc(C(N)=O)c2cc(C(=O)OCCOCCOC(=O)c3ccc(-c4c5nc(c(-c6c(F)cc(S(=O)(=O)[O-])cc6F)c6ccc([nH]6)c(-c6c(F)cc(S(=O)(=O)[O-])cc6F)c6nc(c(-c7c(F)cc(S(=O)(=O)[O-])cc7F)c7ccc4[nH]7)C=C6)C=C5)cc3)cnc21
REMARK SMILES IDX 19 1 18 2 17 3 16 4 14 5 15 6 13 7 5 8 6 9 93 10 7 11 11 12
REMARK SMILES IDX 92 13 12 14 91 15 4 16 3 17 2 18 1 19 8 20 9 21 10 22 20 25
REMARK SMILES IDX 21 26 22 27 23 28 24 29 25 30 26 31 90 32 27 33 89 34 28 35
REMARK SMILES IDX 29 36 30 37 83 38 31 39 88 40 82 41 84 42 32 43 87 44 81 45
REMARK SMILES IDX 80 46 33 48 67 49 46 50 66 51 47 52 50 53 65 54 85 55 48 56
REMARK SMILES IDX 49 57 64 59 86 60 51 61 34 62 35 63 44 64 36 65 37 66 43 67
REMARK SMILES IDX 45 68 38 69 39 70 40 71 41 72 42 73 68 74 69 75 78 76 70 77
REMARK SMILES IDX 71 78 77 79 79 80 72 81 73 82 74 83 75 84 76 85 52 86 53 87
REMARK SMILES IDX 62 88 54 89 55 90 61 91 63 92 56 93 57 94 58 95 59 96 60 97
REMARK H PARENT 9 23 9 24 84 47 50 58
REMARK Flexibility Score: inf
ROOT
ATOM      1  O   UNL A   1      33.069  29.173  25.417  1.00  0.00    -0.374 OA
ENDROOT
BRANCH   1   2
ATOM      2  C   UNL A   1      32.517  28.719  24.182  1.00  0.00     0.202 C 
BRANCH   2   3
ATOM      3  C   UNL A   1      31.371  27.705  24.233  1.00  0.00     0.261 C 
BRANCH   3   4
ATOM      4  O   UNL A   1      31.645  26.595  25.108  1.00  0.00    -0.460 OA
BRANCH   4   5
ATOM      5  C   UNL A   1      31.450  25.383  24.545  1.00  0.00     0.339 C 
ATOM      6  O   UNL A   1      30.496  25.035  23.854  1.00  0.00    -0.246 OA
BRANCH   5   7
ATOM      7  C   UNL A   1      32.646  24.544  24.667  1.00  0.00     0.079 A 
ATOM      8  N   UNL A   1      35.769  22.085  25.432  1.00  0.00    -0.332 N 
ATOM      9  C   UNL A   1      35.192  20.846  25.482  1.00  0.00     0.102 A 
ATOM     10  C   UNL A   1      34.821  23.011  25.074  1.00  0.00     0.140 A 
ATOM     11  C   UNL A   1      33.818  20.975  25.354  1.00  0.00     0.066 A 
ATOM     12  C   UNL A   1      33.580  22.367  25.105  1.00  0.00     0.033 A 
ATOM     13  N   UNL A   1      35.057  24.315  24.799  1.00  0.00    -0.237 NA
ATOM     14  C   UNL A   1      32.452  23.183  24.935  1.00  0.00     0.030 A 
ATOM     15  C   UNL A   1      33.934  25.039  24.568  1.00  0.00     0.129 A 
BRANCH   8  16
ATOM     16  C   UNL A   1      37.159  22.366  25.748  1.00  0.00     0.123 C 
BRANCH  16  17
ATOM     17  C   UNL A   1      38.144  21.300  25.238  1.00  0.00     0.022 C 
BRANCH  17  18
ATOM     18  C   UNL A   1      39.496  21.204  25.961  1.00  0.00    -0.002 C 
ATOM     19  C   UNL A   1      39.766  22.343  26.933  1.00  0.00     0.004 C 
ENDBRANCH  17  18
ENDBRANCH  16  17
ENDBRANCH   8  16
BRANCH  11  20
ATOM     20  C   UNL A   1      32.917  19.840  25.500  1.00  0.00     0.250 C 
ATOM     21  N   UNL A   1      33.008  19.114  26.647  1.00  0.00    -0.366 N 
ATOM     22  O   UNL A   1      32.080  19.534  24.651  1.00  0.00    -0.269 OA
ATOM     23  H   UNL A   1      33.677  19.354  27.330  1.00  0.00     0.159 HD
ATOM     24  H   UNL A   1      32.408  18.348  26.794  1.00  0.00     0.159 HD
ENDBRANCH  11  20
ENDBRANCH   5   7
ENDBRANCH   4   5
ENDBRANCH   3   4
ENDBRANCH   2   3
ENDBRANCH   1   2
BRANCH   1  25
ATOM     25  C   UNL A   1      32.366  30.135  26.195  1.00  0.00     0.202 C 
BRANCH  25  26
ATOM     26  C   UNL A   1      33.109  30.931  27.260  1.00  0.00     0.261 C 
BRANCH  26  27
ATOM     27  O   UNL A   1      34.506  30.682  27.269  1.00  0.00    -0.460 OA
BRANCH  27  28
ATOM     28  C   UNL A   1      35.205  31.665  27.868  1.00  0.00     0.338 C 
ATOM     29  O   UNL A   1      35.071  32.877  27.691  1.00  0.00    -0.246 OA
BRANCH  28  30
ATOM     30  C   UNL A   1      36.262  31.092  28.691  1.00  0.00     0.060 A 
ATOM     31  C   UNL A   1      37.372  31.903  28.930  1.00  0.00     0.016 A 
ATOM     32  C   UNL A   1      36.278  29.707  28.923  1.00  0.00     0.016 A 
ATOM     33  C   UNL A   1      38.573  31.292  29.191  1.00  0.00     0.010 A 
ATOM     34  C   UNL A   1      37.483  29.099  29.171  1.00  0.00     0.010 A 
ATOM     35  C   UNL A   1      38.624  29.894  29.214  1.00  0.00    -0.014 A 
BRANCH  35  36
ATOM     36  C   UNL A   1      39.923  29.282  29.355  1.00  0.00     0.031 A 
ATOM     37  C   UNL A   1      40.291  29.045  30.764  1.00  0.00     0.074 A 
ATOM     38  C   UNL A   1      40.681  28.932  28.302  1.00  0.00     0.049 A 
ATOM     39  N   UNL A   1      41.150  29.703  31.467  1.00  0.00    -0.248 NA
ATOM     40  C   UNL A   1      39.467  28.105  31.538  1.00  0.00     0.031 C 
ATOM     41  C   UNL A   1      40.324  28.879  26.883  1.00  0.00     0.029 A 
ATOM     42  N   UNL A   1      41.954  28.462  28.314  1.00  0.00    -0.354 N 
ATOM     43  C   UNL A   1      41.141  29.102  32.718  1.00  0.00     0.074 A 
ATOM     44  C   UNL A   1      39.961  28.278  32.763  1.00  0.00     0.031 C 
ATOM     45  C   UNL A   1      41.280  28.191  26.212  1.00  0.00     0.029 A 
ATOM     46  C   UNL A   1      42.368  27.880  27.125  1.00  0.00     0.049 A 
ATOM     47  H   UNL A   1      42.538  28.530  29.103  1.00  0.00     0.167 HD
ATOM     48  C   UNL A   1      42.238  29.135  33.520  1.00  0.00     0.037 A 
ATOM     49  C   UNL A   1      43.492  27.134  26.959  1.00  0.00     0.037 A 
ATOM     50  C   UNL A   1      43.163  30.158  33.102  1.00  0.00     0.049 A 
ATOM     51  C   UNL A   1      44.420  27.509  28.066  1.00  0.00     0.074 A 
ATOM     52  C   UNL A   1      43.085  31.532  32.967  1.00  0.00     0.029 A 
ATOM     53  N   UNL A   1      44.261  29.773  32.369  1.00  0.00    -0.354 N 
ATOM     54  N   UNL A   1      44.966  28.691  28.183  1.00  0.00    -0.248 NA
ATOM     55  C   UNL A   1      44.354  26.733  29.297  1.00  0.00     0.031 C 
ATOM     56  C   UNL A   1      43.830  31.831  31.788  1.00  0.00     0.029 A 
ATOM     57  C   UNL A   1      44.370  30.637  31.309  1.00  0.00     0.049 A 
ATOM     58  H   UNL A   1      44.859  29.016  32.568  1.00  0.00     0.167 HD
ATOM     59  C   UNL A   1      44.924  28.975  29.542  1.00  0.00     0.074 A 
ATOM     60  C   UNL A   1      44.600  27.702  30.184  1.00  0.00     0.031 C 
ATOM     61  C   UNL A   1      44.871  30.261  30.003  1.00  0.00     0.037 A 
BRANCH  48  62
ATOM     62  C   UNL A   1      42.630  28.008  34.438  1.00  0.00     0.058 A 
ATOM     63  C   UNL A   1      42.754  28.257  35.818  1.00  0.00     0.135 A 
ATOM     64  C   UNL A   1      43.153  26.775  33.988  1.00  0.00     0.135 A 
ATOM     65  F   UNL A   1      42.302  29.404  36.349  1.00  0.00    -0.206 F 
ATOM     66  C   UNL A   1      43.411  27.375  36.676  1.00  0.00     0.059 A 
ATOM     67  C   UNL A   1      43.758  25.856  34.835  1.00  0.00     0.059 A 
ATOM     68  F   UNL A   1      43.196  26.440  32.693  1.00  0.00    -0.206 F 
ATOM     69  C   UNL A   1      43.922  26.183  36.169  1.00  0.00     0.060 A 
BRANCH  69  70
ATOM     70  S   UNL A   1      44.867  25.097  37.247  1.00  0.00     0.124 S 
ATOM     71  O   UNL A   1      44.141  25.234  38.504  1.00  0.00    -0.237 OA
ATOM     72  O   UNL A   1      44.737  23.813  36.567  1.00  0.00    -0.237 OA
ATOM     73  O   UNL A   1      46.205  25.681  37.223  1.00  0.00    -0.744 OA
ENDBRANCH  69  70
ENDBRANCH  48  62
BRANCH  49  74
ATOM     74  C   UNL A   1      43.616  25.855  26.204  1.00  0.00     0.058 A 
ATOM     75  C   UNL A   1      44.693  25.632  25.324  1.00  0.00     0.135 A 
ATOM     76  C   UNL A   1      42.849  24.719  26.537  1.00  0.00     0.135 A 
ATOM     77  F   UNL A   1      45.491  26.649  24.964  1.00  0.00    -0.206 F 
ATOM     78  C   UNL A   1      45.022  24.355  24.852  1.00  0.00     0.059 A 
ATOM     79  C   UNL A   1      43.151  23.441  26.071  1.00  0.00     0.059 A 
ATOM     80  F   UNL A   1      41.831  24.797  27.406  1.00  0.00    -0.206 F 
ATOM     81  C   UNL A   1      44.257  23.260  25.250  1.00  0.00     0.060 A 
BRANCH  81  82
ATOM     82  S   UNL A   1      44.777  21.590  24.789  1.00  0.00     0.124 S 
ATOM     83  O   UNL A   1      44.787  21.666  23.333  1.00  0.00    -0.237 OA
ATOM     84  O   UNL A   1      46.082  21.485  25.432  1.00  0.00    -0.237 OA
ATOM     85  O   UNL A   1      43.736  20.740  25.361  1.00  0.00    -0.744 OA
ENDBRANCH  81  82
ENDBRANCH  49  74
BRANCH  61  86
ATOM     86  C   UNL A   1      45.133  31.388  29.034  1.00  0.00     0.058 A 
ATOM     87  C   UNL A   1      46.414  31.818  28.642  1.00  0.00     0.135 A 
ATOM     88  C   UNL A   1      44.039  31.928  28.342  1.00  0.00     0.135 A 
ATOM     89  F   UNL A   1      47.517  31.280  29.180  1.00  0.00    -0.206 F 
ATOM     90  C   UNL A   1      46.593  32.765  27.629  1.00  0.00     0.059 A 
ATOM     91  C   UNL A   1      44.195  32.848  27.309  1.00  0.00     0.059 A 
ATOM     92  F   UNL A   1      42.793  31.513  28.626  1.00  0.00    -0.206 F 
ATOM     93  C   UNL A   1      45.477  33.270  26.963  1.00  0.00     0.060 A 
BRANCH  93  94
ATOM     94  S   UNL A   1      45.713  34.429  25.598  1.00  0.00     0.124 S 
ATOM     95  O   UNL A   1      45.245  35.684  26.175  1.00  0.00    -0.237 OA
ATOM     96  O   UNL A   1      47.150  34.342  25.354  1.00  0.00    -0.237 OA
ATOM     97  O   UNL A   1      44.875  33.881  24.534  1.00  0.00    -0.744 OA
ENDBRANCH  93  94
ENDBRANCH  61  86
ENDBRANCH  35  36
ENDBRANCH  28  30
ENDBRANCH  27  28
ENDBRANCH  26  27
ENDBRANCH  25  26
ENDBRANCH   1  25
TORSDOF 21
ENDMDL
MODEL 3
REMARK VINA RESULT:     -10.6      3.008      3.887
REMARK SMILES CCCCn1cc(C(N)=O)c2cc(C(=O)OCCOCCOC(=O)c3ccc(-c4c5nc(c(-c6c(F)cc(S(=O)(=O)[O-])cc6F)c6ccc([nH]6)c(-c6c(F)cc(S(=O)(=O)[O-])cc6F)c6nc(c(-c7c(F)cc(S(=O)(=O)[O-])cc7F)c7ccc4[nH]7)C=C6)C=C5)cc3)cnc21
REMARK SMILES IDX 19 1 18 2 17 3 16 4 14 5 15 6 13 7 5 8 6 9 93 10 7 11 11 12
REMARK SMILES IDX 92 13 12 14 91 15 4 16 3 17 2 18 1 19 8 20 9 21 10 22 20 25
REMARK SMILES IDX 21 26 22 27 23 28 24 29 25 30 26 31 90 32 27 33 89 34 28 35
REMARK SMILES IDX 29 36 30 37 83 38 31 39 88 40 82 41 84 42 32 43 87 44 81 45
REMARK SMILES IDX 80 46 33 48 67 49 46 50 66 51 47 52 50 53 65 54 85 55 48 56
REMARK SMILES IDX 49 57 64 59 86 60 51 61 34 62 35 63 44 64 36 65 37 66 43 67
REMARK SMILES IDX 45 68 38 69 39 70 40 71 41 72 42 73 68 74 69 75 78 76 70 77
REMARK SMILES IDX 71 78 77 79 79 80 72 81 73 82 74 83 75 84 76 85 52 86 53 87
REMARK SMILES IDX 62 88 54 89 55 90 61 91 63 92 56 93 57 94 58 95 59 96 60 97
REMARK H PARENT 9 23 9 24 84 47 50 58
REMARK Flexibility Score: inf
ROOT
ATOM      1  O   UNL A   1      39.277  22.613  26.165  1.00  0.00    -0.374 OA
ENDROOT
BRANCH   1   2
ATOM      2  C   UNL A   1      38.048  23.341  26.169  1.00  0.00     0.202 C 
BRANCH   2   3
ATOM      3  C   UNL A   1      36.968  22.937  25.162  1.00  0.00     0.261 C 
BRANCH   3   4
ATOM      4  O   UNL A   1      36.081  24.022  24.830  1.00  0.00    -0.460 OA
BRANCH   4   5
ATOM      5  C   UNL A   1      34.771  23.691  24.841  1.00  0.00     0.339 C 
ATOM      6  O   UNL A   1      34.275  22.656  25.276  1.00  0.00    -0.246 OA
BRANCH   5   7
ATOM      7  C   UNL A   1      33.935  24.833  24.456  1.00  0.00     0.079 A 
ATOM      8  N   UNL A   1      31.314  27.830  23.729  1.00  0.00    -0.332 N 
ATOM      9  C   UNL A   1      31.281  28.516  24.912  1.00  0.00     0.102 A 
ATOM     10  C   UNL A   1      32.255  26.835  23.810  1.00  0.00     0.140 A 
ATOM     11  C   UNL A   1      32.056  27.852  25.849  1.00  0.00     0.066 A 
ATOM     12  C   UNL A   1      32.671  26.764  25.143  1.00  0.00     0.033 A 
ATOM     13  N   UNL A   1      32.653  26.041  22.789  1.00  0.00    -0.237 NA
ATOM     14  C   UNL A   1      33.511  25.692  25.477  1.00  0.00     0.030 A 
ATOM     15  C   UNL A   1      33.524  25.070  23.156  1.00  0.00     0.129 A 
BRANCH   8  16
ATOM     16  C   UNL A   1      30.453  28.101  22.590  1.00  0.00     0.123 C 
BRANCH  16  17
ATOM     17  C   UNL A   1      29.109  28.749  22.962  1.00  0.00     0.022 C 
BRANCH  17  18
ATOM     18  C   UNL A   1      28.896  30.204  22.517  1.00  0.00    -0.002 C 
ATOM     19  C   UNL A   1      28.032  31.026  23.461  1.00  0.00     0.004 C 
ENDBRANCH  17  18
ENDBRANCH  16  17
ENDBRANCH   8  16
BRANCH  11  20
ATOM     20  C   UNL A   1      32.113  28.268  27.244  1.00  0.00     0.250 C 
ATOM     21  N   UNL A   1      31.079  27.900  28.047  1.00  0.00    -0.366 N 
ATOM     22  O   UNL A   1      33.052  28.909  27.714  1.00  0.00    -0.269 OA
ATOM     23  H   UNL A   1      30.325  27.388  27.676  1.00  0.00     0.159 HD
ATOM     24  H   UNL A   1      31.084  28.147  29.001  1.00  0.00     0.159 HD
ENDBRANCH  11  20
ENDBRANCH   5   7
ENDBRANCH   4   5
ENDBRANCH   3   4
ENDBRANCH   2   3
ENDBRANCH   1   2
BRANCH   1  25
ATOM     25  C   UNL A   1      40.084  22.584  27.336  1.00  0.00     0.202 C 
BRANCH  25  26
ATOM     26  C   UNL A   1      41.418  21.847  27.312  1.00  0.00     0.261 C 
BRANCH  26  27
ATOM     27  O   UNL A   1      42.535  22.720  27.263  1.00  0.00    -0.460 OA
BRANCH  27  28
ATOM     28  C   UNL A   1      42.665  23.331  26.069  1.00  0.00     0.338 C 
ATOM     29  O   UNL A   1      42.797  22.783  24.972  1.00  0.00    -0.246 OA
BRANCH  28  30
ATOM     30  C   UNL A   1      42.759  24.772  26.257  1.00  0.00     0.060 A 
ATOM     31  C   UNL A   1      43.609  25.212  27.272  1.00  0.00     0.016 A 
ATOM     32  C   UNL A   1      41.794  25.606  25.669  1.00  0.00     0.016 A 
ATOM     33  C   UNL A   1      43.343  26.426  27.856  1.00  0.00     0.010 A 
ATOM     34  C   UNL A   1      41.523  26.814  26.263  1.00  0.00     0.010 A 
ATOM     35  C   UNL A   1      42.244  27.163  27.400  1.00  0.00    -0.014 A 
BRANCH  35  36
ATOM     36  C   UNL A   1      41.910  28.366  28.123  1.00  0.00     0.031 A 
ATOM     37  C   UNL A   1      42.962  29.397  28.029  1.00  0.00     0.074 A 
ATOM     38  C   UNL A   1      40.742  28.529  28.767  1.00  0.00     0.049 A 
ATOM     39  N   UNL A   1      43.793  29.748  28.952  1.00  0.00    -0.248 NA
ATOM     40  C   UNL A   1      43.258  29.955  26.702  1.00  0.00     0.031 C 
ATOM     41  C   UNL A   1      39.536  27.699  28.719  1.00  0.00     0.029 A 
ATOM     42  N   UNL A   1      40.371  29.559  29.569  1.00  0.00    -0.354 N 
ATOM     43  C   UNL A   1      44.572  30.747  28.385  1.00  0.00     0.074 A 
ATOM     44  C   UNL A   1      44.340  30.686  26.965  1.00  0.00     0.031 C 
ATOM     45  C   UNL A   1      38.506  28.383  29.274  1.00  0.00     0.029 A 
ATOM     46  C   UNL A   1      39.011  29.626  29.833  1.00  0.00     0.049 A 
ATOM     47  H   UNL A   1      41.016  30.206  29.934  1.00  0.00     0.167 HD
ATOM     48  C   UNL A   1      45.151  31.707  29.154  1.00  0.00     0.037 A 
ATOM     49  C   UNL A   1      38.368  30.681  30.398  1.00  0.00     0.037 A 
ATOM     50  C   UNL A   1      45.191  31.315  30.541  1.00  0.00     0.049 A 
ATOM     51  C   UNL A   1      39.398  31.456  31.150  1.00  0.00     0.074 A 
ATOM     52  C   UNL A   1      45.766  30.263  31.229  1.00  0.00     0.029 A 
ATOM     53  N   UNL A   1      44.241  31.840  31.385  1.00  0.00    -0.354 N 
ATOM     54  N   UNL A   1      40.021  30.999  32.204  1.00  0.00    -0.248 NA
ATOM     55  C   UNL A   1      40.080  32.535  30.448  1.00  0.00     0.031 C 
ATOM     56  C   UNL A   1      44.814  29.911  32.230  1.00  0.00     0.029 A 
ATOM     57  C   UNL A   1      43.745  30.805  32.138  1.00  0.00     0.049 A 
ATOM     58  H   UNL A   1      43.968  32.784  31.440  1.00  0.00     0.167 HD
ATOM     59  C   UNL A   1      41.336  31.421  32.057  1.00  0.00     0.074 A 
ATOM     60  C   UNL A   1      41.295  32.422  30.992  1.00  0.00     0.031 C 
ATOM     61  C   UNL A   1      42.377  30.724  32.605  1.00  0.00     0.037 A 
BRANCH  48  62
ATOM     62  C   UNL A   1      45.336  33.132  28.705  1.00  0.00     0.058 A 
ATOM     63  C   UNL A   1      46.618  33.711  28.763  1.00  0.00     0.135 A 
ATOM     64  C   UNL A   1      44.268  34.030  28.483  1.00  0.00     0.135 A 
ATOM     65  F   UNL A   1      47.703  32.949  28.982  1.00  0.00    -0.206 F 
ATOM     66  C   UNL A   1      46.817  35.088  28.677  1.00  0.00     0.059 A 
ATOM     67  C   UNL A   1      44.450  35.399  28.335  1.00  0.00     0.059 A 
ATOM     68  F   UNL A   1      42.987  33.644  28.500  1.00  0.00    -0.206 F 
ATOM     69  C   UNL A   1      45.721  35.924  28.477  1.00  0.00     0.060 A 
BRANCH  69  70
ATOM     70  S   UNL A   1      45.958  37.707  28.477  1.00  0.00     0.124 S 
ATOM     71  O   UNL A   1      46.589  37.916  27.179  1.00  0.00    -0.237 OA
ATOM     72  O   UNL A   1      44.588  38.191  28.610  1.00  0.00    -0.237 OA
ATOM     73  O   UNL A   1      46.813  37.933  29.639  1.00  0.00    -0.744 OA
ENDBRANCH  69  70
ENDBRANCH  48  62
BRANCH  49  74
ATOM     74  C   UNL A   1      37.069  31.274  29.970  1.00  0.00     0.058 A 
ATOM     75  C   UNL A   1      36.219  31.909  30.897  1.00  0.00     0.135 A 
ATOM     76  C   UNL A   1      36.761  31.485  28.610  1.00  0.00     0.135 A 
ATOM     77  F   UNL A   1      36.444  31.783  32.214  1.00  0.00    -0.206 F 
ATOM     78  C   UNL A   1      35.169  32.746  30.498  1.00  0.00     0.059 A 
ATOM     79  C   UNL A   1      35.715  32.304  28.190  1.00  0.00     0.059 A 
ATOM     80  F   UNL A   1      37.529  30.973  27.636  1.00  0.00    -0.206 F 
ATOM     81  C   UNL A   1      34.939  32.956  29.139  1.00  0.00     0.060 A 
BRANCH  81  82
ATOM     82  S   UNL A   1      33.701  34.168  28.618  1.00  0.00     0.124 S 
ATOM     83  O   UNL A   1      33.106  34.561  29.890  1.00  0.00    -0.237 OA
ATOM     84  O   UNL A   1      34.520  35.178  27.956  1.00  0.00    -0.237 OA
ATOM     85  O   UNL A   1      32.828  33.402  27.732  1.00  0.00    -0.744 OA
ENDBRANCH  81  82
ENDBRANCH  49  74
BRANCH  61  86
ATOM     86  C   UNL A   1      42.072  29.636  33.604  1.00  0.00     0.058 A 
ATOM     87  C   UNL A   1      41.825  28.293  33.267  1.00  0.00     0.135 A 
ATOM     88  C   UNL A   1      42.217  29.935  34.968  1.00  0.00     0.135 A 
ATOM     89  F   UNL A   1      41.773  27.901  31.987  1.00  0.00    -0.206 F 
ATOM     90  C   UNL A   1      41.697  27.300  34.244  1.00  0.00     0.059 A 
ATOM     91  C   UNL A   1      42.125  28.958  35.955  1.00  0.00     0.059 A 
ATOM     92  F   UNL A   1      42.514  31.188  35.353  1.00  0.00    -0.206 F 
ATOM     93  C   UNL A   1      41.855  27.642  35.586  1.00  0.00     0.060 A 
BRANCH  93  94
ATOM     94  S   UNL A   1      41.774  26.346  36.843  1.00  0.00     0.124 S 
ATOM     95  O   UNL A   1      41.782  25.132  36.034  1.00  0.00    -0.237 OA
ATOM     96  O   UNL A   1      42.980  26.592  37.629  1.00  0.00    -0.237 OA
ATOM     97  O   UNL A   1      40.519  26.622  37.539  1.00  0.00    -0.744 OA
ENDBRANCH  93  94
ENDBRANCH  61  86
ENDBRANCH  35  36
ENDBRANCH  28  30
ENDBRANCH  27  28
ENDBRANCH  26  27
ENDBRANCH  25  26
ENDBRANCH   1  25
TORSDOF 21
ENDMDL
