MODEL 1
REMARK VINA RESULT:      -7.7      0.000      0.000
REMARK SMILES NS(=O)(=O)c1ccc(C#Cc2cc(Cl)cc3c2O[C@H](C(F)(F)F)C(C(=O)OCCOCCOC(=O)c2ccc(-c4c5nc(c(-c6c(F)cc(S(=O)(=O)[O-])cc6F)c6ccc([nH]6)c(-c6c(F)cc(S(=O)(=O)[O-])cc6F)c6nc(c(-c7c(F)cc(S(=O)(=O)[O-])cc7F)c7ccc4[nH]7)C=C6)C=C5)cc2)=C3)cc1
REMARK SMILES IDX 29 1 28 2 27 3 25 4 26 5 24 6 11 7 12 8 17 9 13 10 16 11
REMARK SMILES IDX 18 12 14 13 15 14 102 15 19 16 10 17 9 18 8 19 5 20 6 21
REMARK SMILES IDX 104 22 7 23 103 24 2 25 3 26 4 27 1 28 20 31 21 32 22 33
REMARK SMILES IDX 23 34 30 35 31 36 32 37 33 38 34 39 35 40 36 41 37 42 101 43
REMARK SMILES IDX 38 44 100 45 39 46 40 47 41 48 94 49 42 50 99 51 93 52 95 53
REMARK SMILES IDX 43 54 98 55 92 56 91 57 44 59 78 60 57 61 77 62 58 63 61 64
REMARK SMILES IDX 76 65 96 66 59 67 60 68 75 70 97 71 62 72 45 73 46 74 55 75
REMARK SMILES IDX 47 76 48 77 54 78 56 79 49 80 50 81 51 82 52 83 53 84 79 85
REMARK SMILES IDX 80 86 89 87 81 88 82 89 88 90 90 91 83 92 84 93 85 94 86 95
REMARK SMILES IDX 87 96 63 97 64 98 73 99 65 100 66 101 72 102 74 103 67 104
REMARK SMILES IDX 68 105 69 106 70 107 71 108
REMARK H PARENT 1 29 1 30 95 58 61 69
REMARK Flexibility Score: inf
ROOT
ATOM      1  C   UNL A   1      50.359  19.645  35.564  1.00  0.00     0.202 C 
ENDROOT
BRANCH   1   2
ATOM      2  C   UNL A   1      49.753  19.975  36.932  1.00  0.00     0.261 C 
BRANCH   2   3
ATOM      3  O   UNL A   1      49.172  21.285  36.980  1.00  0.00    -0.460 OA
BRANCH   3   4
ATOM      4  C   UNL A   1      47.861  21.296  37.312  1.00  0.00     0.338 C 
ATOM      5  O   UNL A   1      47.351  20.794  38.302  1.00  0.00    -0.246 OA
BRANCH   4   6
ATOM      6  C   UNL A   1      47.109  22.148  36.369  1.00  0.00     0.087 C 
ATOM      7  C   UNL A   1      44.446  24.257  33.950  1.00  0.00     0.069 A 
ATOM      8  C   UNL A   1      43.611  25.217  34.533  1.00  0.00     0.041 A 
ATOM      9  C   UNL A   1      45.431  23.620  34.722  1.00  0.00     0.143 A 
ATOM     10  C   UNL A   1      43.765  25.548  35.876  1.00  0.00     0.043 A 
ATOM     11  C   UNL A   1      45.547  23.930  36.081  1.00  0.00     0.020 A 
ATOM     12  O   UNL A   1      46.257  22.722  34.101  1.00  0.00    -0.474 OA
ATOM     13  Cl  UNL A   1      42.734  26.724  36.593  1.00  0.00    -0.084 Cl
ATOM     14  C   UNL A   1      44.728  24.911  36.652  1.00  0.00     0.032 A 
ATOM     15  C   UNL A   1      46.448  23.171  36.925  1.00  0.00     0.027 C 
ATOM     16  C   UNL A   1      47.071  21.820  34.904  1.00  0.00     0.316 C 
BRANCH   7  17
ATOM     17  C   UNL A   1      44.235  23.917  32.576  1.00  0.00    -0.058 C 
ATOM     18  C   UNL A   1      44.049  23.642  31.419  1.00  0.00    -0.062 C 
BRANCH  18  19
ATOM     19  C   UNL A   1      43.884  23.361  30.028  1.00  0.00     0.025 A 
ATOM     20  C   UNL A   1      43.659  22.589  27.360  1.00  0.00     0.082 A 
ATOM     21  C   UNL A   1      44.794  23.286  27.783  1.00  0.00     0.023 A 
ATOM     22  C   UNL A   1      42.613  22.322  28.248  1.00  0.00     0.023 A 
ATOM     23  C   UNL A   1      44.903  23.675  29.121  1.00  0.00     0.018 A 
ATOM     24  C   UNL A   1      42.730  22.710  29.585  1.00  0.00     0.018 A 
BRANCH  20  25
ATOM     25  S   UNL A   1      43.558  21.979  25.705  1.00  0.00     0.238 S 
ATOM     26  O   UNL A   1      42.671  20.842  25.664  1.00  0.00    -0.207 OA
ATOM     27  O   UNL A   1      44.889  21.957  25.145  1.00  0.00    -0.207 OA
BRANCH  25  28
ATOM     28  N   UNL A   1      42.736  23.193  24.879  1.00  0.00    -0.225 NA
ATOM     29  H   UNL A   1      41.829  23.350  25.318  1.00  0.00     0.137 HD
ATOM     30  H   UNL A   1      42.599  22.912  23.907  1.00  0.00     0.137 HD
ENDBRANCH  25  28
ENDBRANCH  20  25
ENDBRANCH  18  19
ENDBRANCH   7  17
BRANCH  16  31
ATOM     31  C   UNL A   1      46.609  20.382  34.630  1.00  0.00     0.430 C 
ATOM     32  F   UNL A   1      46.844  19.581  35.696  1.00  0.00    -0.167 F 
ATOM     33  F   UNL A   1      45.282  20.320  34.376  1.00  0.00    -0.167 F 
ATOM     34  F   UNL A   1      47.254  19.848  33.567  1.00  0.00    -0.167 F 
ENDBRANCH  16  31
ENDBRANCH   4   6
ENDBRANCH   3   4
ENDBRANCH   2   3
ENDBRANCH   1   2
BRANCH   1  35
ATOM     35  O   UNL A   1      51.708  19.195  35.498  1.00  0.00    -0.374 OA
BRANCH  35  36
ATOM     36  C   UNL A   1      52.713  20.085  35.020  1.00  0.00     0.202 C 
BRANCH  36  37
ATOM     37  C   UNL A   1      53.108  20.067  33.536  1.00  0.00     0.261 C 
BRANCH  37  38
ATOM     38  O   UNL A   1      52.538  21.136  32.768  1.00  0.00    -0.460 OA
BRANCH  38  39
ATOM     39  C   UNL A   1      52.886  22.380  33.191  1.00  0.00     0.338 C 
ATOM     40  O   UNL A   1      54.013  22.818  33.341  1.00  0.00    -0.246 OA
BRANCH  39  41
ATOM     41  C   UNL A   1      51.677  23.224  33.255  1.00  0.00     0.060 A 
ATOM     42  C   UNL A   1      50.441  22.679  33.598  1.00  0.00     0.016 A 
ATOM     43  C   UNL A   1      51.809  24.596  33.004  1.00  0.00     0.016 A 
ATOM     44  C   UNL A   1      49.335  23.524  33.712  1.00  0.00     0.010 A 
ATOM     45  C   UNL A   1      50.703  25.436  33.119  1.00  0.00     0.010 A 
ATOM     46  C   UNL A   1      49.460  24.910  33.495  1.00  0.00    -0.014 A 
BRANCH  46  47
ATOM     47  C   UNL A   1      48.321  25.815  33.795  1.00  0.00     0.031 A 
ATOM     48  C   UNL A   1      48.086  26.357  35.175  1.00  0.00     0.074 A 
ATOM     49  C   UNL A   1      47.483  26.139  32.791  1.00  0.00     0.049 A 
ATOM     50  N   UNL A   1      47.184  27.215  35.574  1.00  0.00    -0.248 NA
ATOM     51  C   UNL A   1      48.971  25.871  36.245  1.00  0.00     0.031 C 
ATOM     52  C   UNL A   1      47.587  25.636  31.418  1.00  0.00     0.029 A 
ATOM     53  N   UNL A   1      46.395  26.975  32.756  1.00  0.00    -0.354 N 
ATOM     54  C   UNL A   1      47.403  27.396  36.934  1.00  0.00     0.074 A 
ATOM     55  C   UNL A   1      48.488  26.510  37.304  1.00  0.00     0.031 C 
ATOM     56  C   UNL A   1      46.635  26.209  30.668  1.00  0.00     0.029 A 
ATOM     57  C   UNL A   1      45.825  27.086  31.509  1.00  0.00     0.049 A 
ATOM     58  H   UNL A   1      46.054  27.449  33.547  1.00  0.00     0.167 HD
ATOM     59  C   UNL A   1      46.771  28.240  37.786  1.00  0.00     0.037 A 
ATOM     60  C   UNL A   1      44.772  27.812  31.085  1.00  0.00     0.037 A 
ATOM     61  C   UNL A   1      45.680  29.104  37.407  1.00  0.00     0.049 A 
ATOM     62  C   UNL A   1      44.054  28.700  32.064  1.00  0.00     0.074 A 
ATOM     63  C   UNL A   1      44.996  30.016  38.194  1.00  0.00     0.029 A 
ATOM     64  N   UNL A   1      45.103  29.158  36.146  1.00  0.00    -0.354 N 
ATOM     65  N   UNL A   1      44.322  28.914  33.331  1.00  0.00    -0.248 NA
ATOM     66  C   UNL A   1      42.895  29.448  31.561  1.00  0.00     0.031 C 
ATOM     67  C   UNL A   1      43.967  30.572  37.429  1.00  0.00     0.029 A 
ATOM     68  C   UNL A   1      44.052  30.063  36.144  1.00  0.00     0.049 A 
ATOM     69  H   UNL A   1      45.397  28.632  35.368  1.00  0.00     0.167 HD
ATOM     70  C   UNL A   1      43.382  29.841  33.767  1.00  0.00     0.074 A 
ATOM     71  C   UNL A   1      42.548  30.158  32.627  1.00  0.00     0.031 C 
ATOM     72  C   UNL A   1      43.227  30.380  35.002  1.00  0.00     0.037 A 
BRANCH  59  73
ATOM     73  C   UNL A   1      47.245  28.291  39.215  1.00  0.00     0.058 A 
ATOM     74  C   UNL A   1      46.713  27.435  40.193  1.00  0.00     0.135 A 
ATOM     75  C   UNL A   1      48.299  29.139  39.594  1.00  0.00     0.135 A 
ATOM     76  F   UNL A   1      45.698  26.608  39.890  1.00  0.00    -0.206 F 
ATOM     77  C   UNL A   1      47.195  27.431  41.497  1.00  0.00     0.059 A 
ATOM     78  C   UNL A   1      48.818  29.129  40.886  1.00  0.00     0.059 A 
ATOM     79  F   UNL A   1      48.848  29.976  38.700  1.00  0.00    -0.206 F 
ATOM     80  C   UNL A   1      48.252  28.277  41.833  1.00  0.00     0.060 A 
BRANCH  80  81
ATOM     81  S   UNL A   1      48.870  28.246  43.529  1.00  0.00     0.124 S 
ATOM     82  O   UNL A   1      50.162  27.587  43.357  1.00  0.00    -0.237 OA
ATOM     83  O   UNL A   1      48.923  29.666  43.864  1.00  0.00    -0.237 OA
ATOM     84  O   UNL A   1      47.864  27.470  44.247  1.00  0.00    -0.744 OA
ENDBRANCH  80  81
ENDBRANCH  59  73
BRANCH  60  85
ATOM     85  C   UNL A   1      44.359  27.749  29.658  1.00  0.00     0.058 A 
ATOM     86  C   UNL A   1      45.056  28.462  28.671  1.00  0.00     0.135 A 
ATOM     87  C   UNL A   1      43.281  26.949  29.244  1.00  0.00     0.135 A 
ATOM     88  F   UNL A   1      46.090  29.245  29.014  1.00  0.00    -0.206 F 
ATOM     89  C   UNL A   1      44.694  28.396  27.330  1.00  0.00     0.059 A 
ATOM     90  C   UNL A   1      42.919  26.842  27.905  1.00  0.00     0.059 A 
ATOM     91  F   UNL A   1      42.589  26.235  30.146  1.00  0.00    -0.206 F 
ATOM     92  C   UNL A   1      43.627  27.576  26.956  1.00  0.00     0.060 A 
BRANCH  92  93
ATOM     93  S   UNL A   1      43.202  27.460  25.205  1.00  0.00     0.124 S 
ATOM     94  O   UNL A   1      44.508  27.606  24.574  1.00  0.00    -0.237 OA
ATOM     95  O   UNL A   1      42.599  26.133  25.128  1.00  0.00    -0.237 OA
ATOM     96  O   UNL A   1      42.278  28.573  25.008  1.00  0.00    -0.744 OA
ENDBRANCH  92  93
ENDBRANCH  60  85
BRANCH  72  97
ATOM     97  C   UNL A   1      42.130  31.393  35.199  1.00  0.00     0.058 A 
ATOM     98  C   UNL A   1      40.862  31.024  35.673  1.00  0.00     0.135 A 
ATOM     99  C   UNL A   1      42.381  32.761  35.002  1.00  0.00     0.135 A 
ATOM    100  F   UNL A   1      40.563  29.731  35.871  1.00  0.00    -0.206 F 
ATOM    101  C   UNL A   1      39.880  31.975  35.937  1.00  0.00     0.059 A 
ATOM    102  C   UNL A   1      41.426  33.730  35.291  1.00  0.00     0.059 A 
ATOM    103  F   UNL A   1      43.580  33.172  34.558  1.00  0.00    -0.206 F 
ATOM    104  C   UNL A   1      40.175  33.327  35.753  1.00  0.00     0.060 A 
BRANCH 104 105
ATOM    105  S   UNL A   1      38.908  34.547  36.159  1.00  0.00     0.124 S 
ATOM    106  O   UNL A   1      38.769  34.362  37.600  1.00  0.00    -0.237 OA
ATOM    107  O   UNL A   1      39.535  35.795  35.737  1.00  0.00    -0.237 OA
ATOM    108  O   UNL A   1      37.760  34.126  35.361  1.00  0.00    -0.744 OA
ENDBRANCH 104 105
ENDBRANCH  72  97
ENDBRANCH  46  47
ENDBRANCH  39  41
ENDBRANCH  38  39
ENDBRANCH  37  38
ENDBRANCH  36  37
ENDBRANCH  35  36
ENDBRANCH   1  35
TORSDOF 22
ENDMDL
MODEL 2
REMARK VINA RESULT:      -7.5      0.523      7.789
REMARK SMILES NS(=O)(=O)c1ccc(C#Cc2cc(Cl)cc3c2O[C@H](C(F)(F)F)C(C(=O)OCCOCCOC(=O)c2ccc(-c4c5nc(c(-c6c(F)cc(S(=O)(=O)[O-])cc6F)c6ccc([nH]6)c(-c6c(F)cc(S(=O)(=O)[O-])cc6F)c6nc(c(-c7c(F)cc(S(=O)(=O)[O-])cc7F)c7ccc4[nH]7)C=C6)C=C5)cc2)=C3)cc1
REMARK SMILES IDX 29 1 28 2 27 3 25 4 26 5 24 6 11 7 12 8 17 9 13 10 16 11
REMARK SMILES IDX 18 12 14 13 15 14 102 15 19 16 10 17 9 18 8 19 5 20 6 21
REMARK SMILES IDX 104 22 7 23 103 24 2 25 3 26 4 27 1 28 20 31 21 32 22 33
REMARK SMILES IDX 23 34 30 35 31 36 32 37 33 38 34 39 35 40 36 41 37 42 101 43
REMARK SMILES IDX 38 44 100 45 39 46 40 47 41 48 94 49 42 50 99 51 93 52 95 53
REMARK SMILES IDX 43 54 98 55 92 56 91 57 44 59 78 60 57 61 77 62 58 63 61 64
REMARK SMILES IDX 76 65 96 66 59 67 60 68 75 70 97 71 62 72 45 73 46 74 55 75
REMARK SMILES IDX 47 76 48 77 54 78 56 79 49 80 50 81 51 82 52 83 53 84 79 85
REMARK SMILES IDX 80 86 89 87 81 88 82 89 88 90 90 91 83 92 84 93 85 94 86 95
REMARK SMILES IDX 87 96 63 97 64 98 73 99 65 100 66 101 72 102 74 103 67 104
REMARK SMILES IDX 68 105 69 106 70 107 71 108
REMARK H PARENT 1 29 1 30 95 58 61 69
REMARK Flexibility Score: inf
ROOT
ATOM      1  C   UNL A   1      50.350  19.612  37.213  1.00  0.00     0.202 C 
ENDROOT
BRANCH   1   2
ATOM      2  C   UNL A   1      49.992  20.858  38.028  1.00  0.00     0.261 C 
BRANCH   2   3
ATOM      3  O   UNL A   1      49.202  21.798  37.287  1.00  0.00    -0.460 OA
BRANCH   3   4
ATOM      4  C   UNL A   1      47.883  21.768  37.586  1.00  0.00     0.338 C 
ATOM      5  O   UNL A   1      47.367  21.270  38.575  1.00  0.00    -0.246 OA
BRANCH   4   6
ATOM      6  C   UNL A   1      47.126  22.567  36.604  1.00  0.00     0.087 C 
ATOM      7  C   UNL A   1      44.454  24.492  34.044  1.00  0.00     0.069 A 
ATOM      8  C   UNL A   1      43.523  25.388  34.581  1.00  0.00     0.041 A 
ATOM      9  C   UNL A   1      45.439  23.924  34.869  1.00  0.00     0.143 A 
ATOM     10  C   UNL A   1      43.580  25.723  35.930  1.00  0.00     0.043 A 
ATOM     11  C   UNL A   1      45.458  24.236  36.232  1.00  0.00     0.020 A 
ATOM     12  O   UNL A   1      46.359  23.089  34.293  1.00  0.00    -0.474 OA
ATOM     13  Cl  UNL A   1      42.430  26.820  36.591  1.00  0.00    -0.084 Cl
ATOM     14  C   UNL A   1      44.542  25.153  36.758  1.00  0.00     0.032 A 
ATOM     15  C   UNL A   1      46.364  23.538  37.123  1.00  0.00     0.027 C 
ATOM     16  C   UNL A   1      47.191  22.244  35.138  1.00  0.00     0.316 C 
BRANCH   7  17
ATOM     17  C   UNL A   1      44.343  24.144  32.660  1.00  0.00    -0.058 C 
ATOM     18  C   UNL A   1      44.236  23.848  31.499  1.00  0.00    -0.062 C 
BRANCH  18  19
ATOM     19  C   UNL A   1      44.083  23.564  30.107  1.00  0.00     0.025 A 
ATOM     20  C   UNL A   1      43.865  22.780  27.442  1.00  0.00     0.082 A 
ATOM     21  C   UNL A   1      45.037  23.399  27.885  1.00  0.00     0.023 A 
ATOM     22  C   UNL A   1      42.782  22.599  28.308  1.00  0.00     0.023 A 
ATOM     23  C   UNL A   1      45.142  23.794  29.222  1.00  0.00     0.018 A 
ATOM     24  C   UNL A   1      42.895  22.992  29.643  1.00  0.00     0.018 A 
BRANCH  20  25
ATOM     25  S   UNL A   1      43.759  22.160  25.791  1.00  0.00     0.238 S 
ATOM     26  O   UNL A   1      42.570  21.355  25.655  1.00  0.00    -0.207 OA
ATOM     27  O   UNL A   1      45.069  21.703  25.391  1.00  0.00    -0.207 OA
BRANCH  25  28
ATOM     28  N   UNL A   1      43.454  23.533  24.866  1.00  0.00    -0.225 NA
ATOM     29  H   UNL A   1      43.207  23.256  23.916  1.00  0.00     0.137 HD
ATOM     30  H   UNL A   1      44.288  24.120  24.843  1.00  0.00     0.137 HD
ENDBRANCH  25  28
ENDBRANCH  20  25
ENDBRANCH  18  19
ENDBRANCH   7  17
BRANCH  16  31
ATOM     31  C   UNL A   1      46.847  20.778  34.839  1.00  0.00     0.430 C 
ATOM     32  F   UNL A   1      47.921  19.975  35.029  1.00  0.00    -0.167 F 
ATOM     33  F   UNL A   1      45.864  20.318  35.645  1.00  0.00    -0.167 F 
ATOM     34  F   UNL A   1      46.437  20.616  33.561  1.00  0.00    -0.167 F 
ENDBRANCH  16  31
ENDBRANCH   4   6
ENDBRANCH   3   4
ENDBRANCH   2   3
ENDBRANCH   1   2
BRANCH   1  35
ATOM     35  O   UNL A   1      51.655  19.505  36.652  1.00  0.00    -0.374 OA
BRANCH  35  36
ATOM     36  C   UNL A   1      52.264  20.663  36.088  1.00  0.00     0.202 C 
BRANCH  36  37
ATOM     37  C   UNL A   1      53.084  20.543  34.795  1.00  0.00     0.261 C 
BRANCH  37  38
ATOM     38  O   UNL A   1      52.382  20.965  33.617  1.00  0.00    -0.460 OA
BRANCH  38  39
ATOM     39  C   UNL A   1      52.759  22.181  33.143  1.00  0.00     0.338 C 
ATOM     40  O   UNL A   1      53.816  22.468  32.609  1.00  0.00    -0.246 OA
BRANCH  39  41
ATOM     41  C   UNL A   1      51.601  23.094  33.181  1.00  0.00     0.060 A 
ATOM     42  C   UNL A   1      50.348  22.644  33.592  1.00  0.00     0.016 A 
ATOM     43  C   UNL A   1      51.800  24.438  32.836  1.00  0.00     0.016 A 
ATOM     44  C   UNL A   1      49.293  23.555  33.677  1.00  0.00     0.010 A 
ATOM     45  C   UNL A   1      50.746  25.345  32.923  1.00  0.00     0.010 A 
ATOM     46  C   UNL A   1      49.487  24.915  33.366  1.00  0.00    -0.014 A 
BRANCH  46  47
ATOM     47  C   UNL A   1      48.409  25.900  33.634  1.00  0.00     0.031 A 
ATOM     48  C   UNL A   1      47.470  26.356  32.555  1.00  0.00     0.074 A 
ATOM     49  C   UNL A   1      48.292  26.392  34.883  1.00  0.00     0.049 A 
ATOM     50  N   UNL A   1      46.434  27.149  32.653  1.00  0.00    -0.248 NA
ATOM     51  C   UNL A   1      47.727  25.865  31.192  1.00  0.00     0.031 C 
ATOM     52  C   UNL A   1      49.176  26.056  36.002  1.00  0.00     0.029 A 
ATOM     53  N   UNL A   1      47.381  27.261  35.430  1.00  0.00    -0.354 N 
ATOM     54  C   UNL A   1      45.897  27.235  31.374  1.00  0.00     0.074 A 
ATOM     55  C   UNL A   1      46.760  26.460  30.505  1.00  0.00     0.031 C 
ATOM     56  C   UNL A   1      48.737  26.671  37.109  1.00  0.00     0.029 A 
ATOM     57  C   UNL A   1      47.568  27.480  36.775  1.00  0.00     0.049 A 
ATOM     58  H   UNL A   1      46.663  27.688  34.910  1.00  0.00     0.167 HD
ATOM     59  C   UNL A   1      44.777  27.884  30.972  1.00  0.00     0.037 A 
ATOM     60  C   UNL A   1      46.877  28.242  37.646  1.00  0.00     0.037 A 
ATOM     61  C   UNL A   1      43.938  28.667  31.846  1.00  0.00     0.049 A 
ATOM     62  C   UNL A   1      45.668  28.995  37.161  1.00  0.00     0.074 A 
ATOM     63  C   UNL A   1      42.765  29.336  31.534  1.00  0.00     0.029 A 
ATOM     64  N   UNL A   1      44.181  28.899  33.192  1.00  0.00    -0.354 N 
ATOM     65  N   UNL A   1      45.132  29.007  35.963  1.00  0.00    -0.248 NA
ATOM     66  C   UNL A   1      44.966  29.834  38.141  1.00  0.00     0.031 C 
ATOM     67  C   UNL A   1      42.337  30.024  32.673  1.00  0.00     0.029 A 
ATOM     68  C   UNL A   1      43.200  29.728  33.715  1.00  0.00     0.049 A 
ATOM     69  H   UNL A   1      44.940  28.531  33.700  1.00  0.00     0.167 HD
ATOM     70  C   UNL A   1      44.016  29.831  36.054  1.00  0.00     0.074 A 
ATOM     71  C   UNL A   1      43.946  30.288  37.426  1.00  0.00     0.031 C 
ATOM     72  C   UNL A   1      43.131  30.176  35.086  1.00  0.00     0.037 A 
BRANCH  59  73
ATOM     73  C   UNL A   1      44.374  27.770  29.525  1.00  0.00     0.058 A 
ATOM     74  C   UNL A   1      43.283  26.979  29.129  1.00  0.00     0.135 A 
ATOM     75  C   UNL A   1      45.025  28.525  28.535  1.00  0.00     0.135 A 
ATOM     76  F   UNL A   1      42.629  26.229  30.031  1.00  0.00    -0.206 F 
ATOM     77  C   UNL A   1      42.866  26.925  27.803  1.00  0.00     0.059 A 
ATOM     78  C   UNL A   1      44.604  28.511  27.208  1.00  0.00     0.059 A 
ATOM     79  F   UNL A   1      46.071  29.303  28.857  1.00  0.00    -0.206 F 
ATOM     80  C   UNL A   1      43.529  27.700  26.851  1.00  0.00     0.060 A 
BRANCH  80  81
ATOM     81  S   UNL A   1      42.962  27.624  25.138  1.00  0.00     0.124 S 
ATOM     82  O   UNL A   1      44.229  27.569  24.414  1.00  0.00    -0.237 OA
ATOM     83  O   UNL A   1      42.173  26.396  25.129  1.00  0.00    -0.237 OA
ATOM     84  O   UNL A   1      42.201  28.858  24.974  1.00  0.00    -0.744 OA
ENDBRANCH  80  81
ENDBRANCH  59  73
BRANCH  60  85
ATOM     85  C   UNL A   1      47.299  28.301  39.071  1.00  0.00     0.058 A 
ATOM     86  C   UNL A   1      46.779  27.405  40.016  1.00  0.00     0.135 A 
ATOM     87  C   UNL A   1      48.254  29.231  39.512  1.00  0.00     0.135 A 
ATOM     88  F   UNL A   1      45.859  26.500  39.648  1.00  0.00    -0.206 F 
ATOM     89  C   UNL A   1      47.179  27.434  41.348  1.00  0.00     0.059 A 
ATOM     90  C   UNL A   1      48.694  29.260  40.831  1.00  0.00     0.059 A 
ATOM     91  F   UNL A   1      48.795  30.102  38.645  1.00  0.00    -0.206 F 
ATOM     92  C   UNL A   1      48.145  28.362  41.744  1.00  0.00     0.060 A 
BRANCH  92  93
ATOM     93  S   UNL A   1      48.694  28.355  43.464  1.00  0.00     0.124 S 
ATOM     94  O   UNL A   1      48.844  29.781  43.731  1.00  0.00    -0.237 OA
ATOM     95  O   UNL A   1      47.578  27.693  44.134  1.00  0.00    -0.237 OA
ATOM     96  O   UNL A   1      49.935  27.588  43.419  1.00  0.00    -0.744 OA
ENDBRANCH  92  93
ENDBRANCH  60  85
BRANCH  72  97
ATOM     97  C   UNL A   1      41.984  31.076  35.464  1.00  0.00     0.058 A 
ATOM     98  C   UNL A   1      42.115  32.473  35.474  1.00  0.00     0.135 A 
ATOM     99  C   UNL A   1      40.713  30.537  35.726  1.00  0.00     0.135 A 
ATOM    100  F   UNL A   1      43.307  33.043  35.240  1.00  0.00    -0.206 F 
ATOM    101  C   UNL A   1      41.029  33.303  35.739  1.00  0.00     0.059 A 
ATOM    102  C   UNL A   1      39.607  31.348  35.960  1.00  0.00     0.059 A 
ATOM    103  F   UNL A   1      40.528  29.207  35.721  1.00  0.00    -0.206 F 
ATOM    104  C   UNL A   1      39.776  32.731  35.970  1.00  0.00     0.060 A 
BRANCH 104 105
ATOM    105  S   UNL A   1      38.370  33.827  36.250  1.00  0.00     0.124 S 
ATOM    106  O   UNL A   1      37.253  32.888  36.225  1.00  0.00    -0.237 OA
ATOM    107  O   UNL A   1      38.683  34.404  37.553  1.00  0.00    -0.237 OA
ATOM    108  O   UNL A   1      38.431  34.757  35.126  1.00  0.00    -0.744 OA
ENDBRANCH 104 105
ENDBRANCH  72  97
ENDBRANCH  46  47
ENDBRANCH  39  41
ENDBRANCH  38  39
ENDBRANCH  37  38
ENDBRANCH  36  37
ENDBRANCH  35  36
ENDBRANCH   1  35
TORSDOF 22
ENDMDL
MODEL 3
REMARK VINA RESULT:      -7.4      5.147     10.045
REMARK SMILES NS(=O)(=O)c1ccc(C#Cc2cc(Cl)cc3c2O[C@H](C(F)(F)F)C(C(=O)OCCOCCOC(=O)c2ccc(-c4c5nc(c(-c6c(F)cc(S(=O)(=O)[O-])cc6F)c6ccc([nH]6)c(-c6c(F)cc(S(=O)(=O)[O-])cc6F)c6nc(c(-c7c(F)cc(S(=O)(=O)[O-])cc7F)c7ccc4[nH]7)C=C6)C=C5)cc2)=C3)cc1
REMARK SMILES IDX 29 1 28 2 27 3 25 4 26 5 24 6 11 7 12 8 17 9 13 10 16 11
REMARK SMILES IDX 18 12 14 13 15 14 102 15 19 16 10 17 9 18 8 19 5 20 6 21
REMARK SMILES IDX 104 22 7 23 103 24 2 25 3 26 4 27 1 28 20 31 21 32 22 33
REMARK SMILES IDX 23 34 30 35 31 36 32 37 33 38 34 39 35 40 36 41 37 42 101 43
REMARK SMILES IDX 38 44 100 45 39 46 40 47 41 48 94 49 42 50 99 51 93 52 95 53
REMARK SMILES IDX 43 54 98 55 92 56 91 57 44 59 78 60 57 61 77 62 58 63 61 64
REMARK SMILES IDX 76 65 96 66 59 67 60 68 75 70 97 71 62 72 45 73 46 74 55 75
REMARK SMILES IDX 47 76 48 77 54 78 56 79 49 80 50 81 51 82 52 83 53 84 79 85
REMARK SMILES IDX 80 86 89 87 81 88 82 89 88 90 90 91 83 92 84 93 85 94 86 95
REMARK SMILES IDX 87 96 63 97 64 98 73 99 65 100 66 101 72 102 74 103 67 104
REMARK SMILES IDX 68 105 69 106 70 107 71 108
REMARK H PARENT 1 29 1 30 95 58 61 69
REMARK Flexibility Score: inf
ROOT
ATOM      1  C   UNL A   1      45.729  26.734  25.988  1.00  0.00     0.202 C 
ENDROOT
BRANCH   1   2
ATOM      2  C   UNL A   1      46.066  27.597  27.207  1.00  0.00     0.261 C 
BRANCH   2   3
ATOM      3  O   UNL A   1      44.899  28.117  27.859  1.00  0.00    -0.460 OA
BRANCH   3   4
ATOM      4  C   UNL A   1      44.720  29.447  27.692  1.00  0.00     0.338 C 
ATOM      5  O   UNL A   1      44.719  30.060  26.635  1.00  0.00    -0.246 OA
BRANCH   4   6
ATOM      6  C   UNL A   1      44.367  30.074  28.981  1.00  0.00     0.087 C 
ATOM      7  C   UNL A   1      43.580  32.409  32.346  1.00  0.00     0.069 A 
ATOM      8  C   UNL A   1      42.527  33.330  32.304  1.00  0.00     0.041 A 
ATOM      9  C   UNL A   1      43.788  31.530  31.270  1.00  0.00     0.143 A 
ATOM     10  C   UNL A   1      41.681  33.367  31.200  1.00  0.00     0.043 A 
ATOM     11  C   UNL A   1      42.957  31.608  30.148  1.00  0.00     0.020 A 
ATOM     12  O   UNL A   1      44.801  30.614  31.373  1.00  0.00    -0.474 OA
ATOM     13  Cl  UNL A   1      40.391  34.505  31.147  1.00  0.00    -0.084 Cl
ATOM     14  C   UNL A   1      41.889  32.512  30.123  1.00  0.00     0.032 A 
ATOM     15  C   UNL A   1      43.255  30.821  28.968  1.00  0.00     0.027 C 
ATOM     16  C   UNL A   1      45.251  29.905  30.183  1.00  0.00     0.316 C 
BRANCH   7  17
ATOM     17  C   UNL A   1      44.451  32.423  33.481  1.00  0.00    -0.058 C 
ATOM     18  C   UNL A   1      45.185  32.422  34.435  1.00  0.00    -0.062 C 
BRANCH  18  19
ATOM     19  C   UNL A   1      46.113  32.420  35.522  1.00  0.00     0.025 A 
ATOM     20  C   UNL A   1      47.820  32.202  37.713  1.00  0.00     0.082 A 
ATOM     21  C   UNL A   1      46.637  32.937  37.831  1.00  0.00     0.023 A 
ATOM     22  C   UNL A   1      48.181  31.622  36.494  1.00  0.00     0.023 A 
ATOM     23  C   UNL A   1      45.784  33.048  36.728  1.00  0.00     0.018 A 
ATOM     24  C   UNL A   1      47.323  31.732  35.397  1.00  0.00     0.018 A 
BRANCH  20  25
ATOM     25  S   UNL A   1      48.849  31.945  39.126  1.00  0.00     0.238 S 
ATOM     26  O   UNL A   1      49.685  33.103  39.328  1.00  0.00    -0.207 OA
ATOM     27  O   UNL A   1      49.368  30.599  39.074  1.00  0.00    -0.207 OA
BRANCH  25  28
ATOM     28  N   UNL A   1      47.769  31.967  40.418  1.00  0.00    -0.225 NA
ATOM     29  H   UNL A   1      47.824  31.083  40.922  1.00  0.00     0.137 HD
ATOM     30  H   UNL A   1      46.820  32.100  40.066  1.00  0.00     0.137 HD
ENDBRANCH  25  28
ENDBRANCH  20  25
ENDBRANCH  18  19
ENDBRANCH   7  17
BRANCH  16  31
ATOM     31  C   UNL A   1      46.708  30.304  29.908  1.00  0.00     0.430 C 
ATOM     32  F   UNL A   1      47.188  31.108  30.885  1.00  0.00    -0.167 F 
ATOM     33  F   UNL A   1      47.522  29.225  29.850  1.00  0.00    -0.167 F 
ATOM     34  F   UNL A   1      46.826  30.969  28.736  1.00  0.00    -0.167 F 
ENDBRANCH  16  31
ENDBRANCH   4   6
ENDBRANCH   3   4
ENDBRANCH   2   3
ENDBRANCH   1   2
BRANCH   1  35
ATOM     35  O   UNL A   1      45.112  25.466  26.189  1.00  0.00    -0.374 OA
BRANCH  35  36
ATOM     36  C   UNL A   1      44.540  24.789  25.075  1.00  0.00     0.202 C 
BRANCH  36  37
ATOM     37  C   UNL A   1      43.098  24.264  25.156  1.00  0.00     0.261 C 
BRANCH  37  38
ATOM     38  O   UNL A   1      42.141  25.249  25.568  1.00  0.00    -0.460 OA
BRANCH  38  39
ATOM     39  C   UNL A   1      41.181  24.783  26.409  1.00  0.00     0.338 C 
ATOM     40  O   UNL A   1      40.724  23.655  26.452  1.00  0.00    -0.246 OA
BRANCH  39  41
ATOM     41  C   UNL A   1      40.899  25.808  27.433  1.00  0.00     0.060 A 
ATOM     42  C   UNL A   1      39.811  25.679  28.294  1.00  0.00     0.016 A 
ATOM     43  C   UNL A   1      41.778  26.894  27.548  1.00  0.00     0.016 A 
ATOM     44  C   UNL A   1      39.618  26.637  29.292  1.00  0.00     0.010 A 
ATOM     45  C   UNL A   1      41.582  27.847  28.546  1.00  0.00     0.010 A 
ATOM     46  C   UNL A   1      40.512  27.715  29.441  1.00  0.00    -0.014 A 
BRANCH  46  47
ATOM     47  C   UNL A   1      40.398  28.619  30.613  1.00  0.00     0.031 A 
ATOM     48  C   UNL A   1      41.297  28.482  31.807  1.00  0.00     0.074 A 
ATOM     49  C   UNL A   1      39.450  29.578  30.589  1.00  0.00     0.049 A 
ATOM     50  N   UNL A   1      41.369  29.241  32.869  1.00  0.00    -0.248 NA
ATOM     51  C   UNL A   1      42.231  27.344  31.814  1.00  0.00     0.031 C 
ATOM     52  C   UNL A   1      38.490  29.777  29.501  1.00  0.00     0.029 A 
ATOM     53  N   UNL A   1      39.145  30.570  31.487  1.00  0.00    -0.354 N 
ATOM     54  C   UNL A   1      42.371  28.695  33.663  1.00  0.00     0.074 A 
ATOM     55  C   UNL A   1      42.837  27.502  32.985  1.00  0.00     0.031 C 
ATOM     56  C   UNL A   1      37.737  30.852  29.772  1.00  0.00     0.029 A 
ATOM     57  C   UNL A   1      38.127  31.396  31.070  1.00  0.00     0.049 A 
ATOM     58  H   UNL A   1      39.610  30.680  32.347  1.00  0.00     0.167 HD
ATOM     59  C   UNL A   1      42.867  29.161  34.835  1.00  0.00     0.037 A 
ATOM     60  C   UNL A   1      37.571  32.471  31.661  1.00  0.00     0.037 A 
ATOM     61  C   UNL A   1      42.380  30.341  35.507  1.00  0.00     0.049 A 
ATOM     62  C   UNL A   1      38.105  32.935  32.988  1.00  0.00     0.074 A 
ATOM     63  C   UNL A   1      42.841  30.908  36.684  1.00  0.00     0.029 A 
ATOM     64  N   UNL A   1      41.321  31.128  35.076  1.00  0.00    -0.354 N 
ATOM     65  N   UNL A   1      39.102  32.449  33.690  1.00  0.00    -0.248 NA
ATOM     66  C   UNL A   1      37.445  34.094  33.605  1.00  0.00     0.031 C 
ATOM     67  C   UNL A   1      42.021  31.995  36.997  1.00  0.00     0.029 A 
ATOM     68  C   UNL A   1      41.093  32.154  35.981  1.00  0.00     0.049 A 
ATOM     69  H   UNL A   1      40.807  30.979  34.250  1.00  0.00     0.167 HD
ATOM     70  C   UNL A   1      39.206  33.259  34.815  1.00  0.00     0.074 A 
ATOM     71  C   UNL A   1      38.180  34.274  34.695  1.00  0.00     0.031 C 
ATOM     72  C   UNL A   1      40.074  33.167  35.853  1.00  0.00     0.037 A 
BRANCH  59  73
ATOM     73  C   UNL A   1      44.006  28.409  35.471  1.00  0.00     0.058 A 
ATOM     74  C   UNL A   1      45.332  28.595  35.049  1.00  0.00     0.135 A 
ATOM     75  C   UNL A   1      43.784  27.561  36.569  1.00  0.00     0.135 A 
ATOM     76  F   UNL A   1      45.604  29.387  33.998  1.00  0.00    -0.206 F 
ATOM     77  C   UNL A   1      46.394  27.954  35.678  1.00  0.00     0.059 A 
ATOM     78  C   UNL A   1      44.835  26.934  37.234  1.00  0.00     0.059 A 
ATOM     79  F   UNL A   1      42.538  27.349  37.019  1.00  0.00    -0.206 F 
ATOM     80  C   UNL A   1      46.136  27.130  36.774  1.00  0.00     0.060 A 
BRANCH  80  81
ATOM     81  S   UNL A   1      47.531  26.318  37.584  1.00  0.00     0.124 S 
ATOM     82  O   UNL A   1      47.959  25.378  36.552  1.00  0.00    -0.237 OA
ATOM     83  O   UNL A   1      48.434  27.436  37.836  1.00  0.00    -0.237 OA
ATOM     84  O   UNL A   1      46.934  25.714  38.771  1.00  0.00    -0.744 OA
ENDBRANCH  80  81
ENDBRANCH  59  73
BRANCH  60  85
ATOM     85  C   UNL A   1      36.465  33.197  30.980  1.00  0.00     0.058 A 
ATOM     86  C   UNL A   1      35.148  33.120  31.456  1.00  0.00     0.135 A 
ATOM     87  C   UNL A   1      36.706  34.009  29.860  1.00  0.00     0.135 A 
ATOM     88  F   UNL A   1      34.864  32.353  32.520  1.00  0.00    -0.206 F 
ATOM     89  C   UNL A   1      34.108  33.809  30.843  1.00  0.00     0.059 A 
ATOM     90  C   UNL A   1      35.688  34.734  29.247  1.00  0.00     0.059 A 
ATOM     91  F   UNL A   1      37.951  34.130  29.372  1.00  0.00    -0.206 F 
ATOM     92  C   UNL A   1      34.391  34.621  29.742  1.00  0.00     0.060 A 
BRANCH  92  93
ATOM     93  S   UNL A   1      33.040  35.551  28.988  1.00  0.00     0.124 S 
ATOM     94  O   UNL A   1      33.766  36.563  28.229  1.00  0.00    -0.237 OA
ATOM     95  O   UNL A   1      32.368  34.522  28.200  1.00  0.00    -0.237 OA
ATOM     96  O   UNL A   1      32.286  36.044  30.137  1.00  0.00    -0.744 OA
ENDBRANCH  92  93
ENDBRANCH  60  85
BRANCH  72  97
ATOM     97  C   UNL A   1      39.983  34.201  36.945  1.00  0.00     0.058 A 
ATOM     98  C   UNL A   1      40.629  35.442  36.841  1.00  0.00     0.135 A 
ATOM     99  C   UNL A   1      39.163  33.983  38.065  1.00  0.00     0.135 A 
ATOM    100  F   UNL A   1      41.432  35.702  35.798  1.00  0.00    -0.206 F 
ATOM    101  C   UNL A   1      40.471  36.427  37.812  1.00  0.00     0.059 A 
ATOM    102  C   UNL A   1      38.964  34.966  39.029  1.00  0.00     0.059 A 
ATOM    103  F   UNL A   1      38.514  32.817  38.211  1.00  0.00    -0.206 F 
ATOM    104  C   UNL A   1      39.627  36.184  38.897  1.00  0.00     0.060 A 
BRANCH 104 105
ATOM    105  S   UNL A   1      39.388  37.497  40.112  1.00  0.00     0.124 S 
ATOM    106  O   UNL A   1      40.746  38.004  40.272  1.00  0.00    -0.237 OA
ATOM    107  O   UNL A   1      38.455  38.386  39.427  1.00  0.00    -0.237 OA
ATOM    108  O   UNL A   1      38.842  36.796  41.271  1.00  0.00    -0.744 OA
ENDBRANCH 104 105
ENDBRANCH  72  97
ENDBRANCH  46  47
ENDBRANCH  39  41
ENDBRANCH  38  39
ENDBRANCH  37  38
ENDBRANCH  36  37
ENDBRANCH  35  36
ENDBRANCH   1  35
TORSDOF 22
ENDMDL
