MODEL 1
REMARK VINA RESULT:     -10.9      0.000      0.000
REMARK SMILES O=C(OCCOCCOC(=O)[C@@H]1C=C[C@H](NC(=O)[C@@H]2Cc3ccccc3O2)C1)c1ccc(-c2c3nc(c(-c4c(F)cc(S(=O)(=O)[O-])cc4F)c4ccc([nH]4)c(-c4c(F)cc(S(=O)(=O)[O-])cc4F)c4nc(c(-c5c(F)cc(S(=O)(=O)[O-])cc5F)c5ccc2[nH]5)C=C4)C=C3)cc1
REMARK SMILES IDX 5 1 4 2 3 3 2 4 1 5 29 6 30 7 94 8 31 9 93 10 32 11 33 12
REMARK SMILES IDX 34 13 87 14 35 15 92 16 86 17 88 18 36 19 91 20 85 21 84 22
REMARK SMILES IDX 37 24 71 25 50 26 70 27 51 28 54 29 69 30 89 31 52 32 53 33
REMARK SMILES IDX 68 35 90 36 55 37 38 38 39 39 48 40 40 41 41 42 47 43 49 44
REMARK SMILES IDX 42 45 43 46 44 47 45 48 46 49 72 50 73 51 82 52 74 53 75 54
REMARK SMILES IDX 81 55 83 56 76 57 77 58 78 59 79 60 80 61 56 62 57 63 66 64
REMARK SMILES IDX 58 65 59 66 65 67 67 68 60 69 61 70 62 71 63 72 64 73 6 74
REMARK SMILES IDX 7 75 8 76 9 77 10 78 11 79 12 80 13 81 28 82 14 83 15 84
REMARK SMILES IDX 16 85 17 86 18 88 19 89 20 90 27 91 21 92 26 93 22 94 25 95
REMARK SMILES IDX 23 96 24 97
REMARK H PARENT 88 23 54 34 16 87
REMARK Flexibility Score: inf
ROOT
ATOM      1  C   UNL A   1      33.906  30.692  27.421  1.00  0.00     0.202 C 
ENDROOT
BRANCH   1   2
ATOM      2  C   UNL A   1      35.208  30.876  28.228  1.00  0.00     0.261 C 
BRANCH   2   3
ATOM      3  O   UNL A   1      35.709  29.644  28.768  1.00  0.00    -0.460 OA
BRANCH   3   4
ATOM      4  C   UNL A   1      36.657  29.508  29.731  1.00  0.00     0.338 C 
ATOM      5  O   UNL A   1      36.312  29.443  30.909  1.00  0.00    -0.246 OA
BRANCH   4   6
ATOM      6  C   UNL A   1      38.107  29.418  29.405  1.00  0.00     0.060 A 
ATOM      7  C   UNL A   1      38.618  29.538  28.116  1.00  0.00     0.016 A 
ATOM      8  C   UNL A   1      39.015  29.243  30.457  1.00  0.00     0.016 A 
ATOM      9  C   UNL A   1      39.948  29.382  27.830  1.00  0.00     0.010 A 
ATOM     10  C   UNL A   1      40.384  29.144  30.192  1.00  0.00     0.010 A 
ATOM     11  C   UNL A   1      40.837  29.195  28.869  1.00  0.00    -0.014 A 
BRANCH  11  12
ATOM     12  C   UNL A   1      42.211  28.902  28.468  1.00  0.00     0.031 A 
ATOM     13  C   UNL A   1      42.502  27.527  27.973  1.00  0.00     0.074 A 
ATOM     14  C   UNL A   1      43.086  29.919  28.367  1.00  0.00     0.049 A 
ATOM     15  N   UNL A   1      43.644  26.994  27.651  1.00  0.00    -0.248 NA
ATOM     16  C   UNL A   1      41.343  26.630  27.804  1.00  0.00     0.031 C 
ATOM     17  C   UNL A   1      42.779  31.329  28.641  1.00  0.00     0.029 A 
ATOM     18  N   UNL A   1      44.389  29.934  27.970  1.00  0.00    -0.354 N 
ATOM     19  C   UNL A   1      43.353  25.683  27.303  1.00  0.00     0.074 A 
ATOM     20  C   UNL A   1      41.927  25.502  27.435  1.00  0.00     0.031 C 
ATOM     21  C   UNL A   1      43.870  32.071  28.399  1.00  0.00     0.029 A 
ATOM     22  C   UNL A   1      44.966  31.179  28.052  1.00  0.00     0.049 A 
ATOM     23  H   UNL A   1      44.870  29.134  27.655  1.00  0.00     0.167 HD
ATOM     24  C   UNL A   1      44.227  24.724  26.933  1.00  0.00     0.037 A 
ATOM     25  C   UNL A   1      46.257  31.527  27.924  1.00  0.00     0.037 A 
ATOM     26  C   UNL A   1      45.637  24.981  26.817  1.00  0.00     0.049 A 
ATOM     27  C   UNL A   1      47.232  30.424  27.621  1.00  0.00     0.074 A 
ATOM     28  C   UNL A   1      46.660  24.102  26.530  1.00  0.00     0.029 A 
ATOM     29  N   UNL A   1      46.216  26.238  26.983  1.00  0.00    -0.354 N 
ATOM     30  N   UNL A   1      46.987  29.149  27.414  1.00  0.00    -0.248 NA
ATOM     31  C   UNL A   1      48.648  30.787  27.552  1.00  0.00     0.031 C 
ATOM     32  C   UNL A   1      47.862  24.816  26.576  1.00  0.00     0.029 A 
ATOM     33  C   UNL A   1      47.585  26.154  26.826  1.00  0.00     0.049 A 
ATOM     34  H   UNL A   1      45.721  27.064  27.186  1.00  0.00     0.167 HD
ATOM     35  C   UNL A   1      48.216  28.557  27.168  1.00  0.00     0.074 A 
ATOM     36  C   UNL A   1      49.202  29.622  27.244  1.00  0.00     0.031 C 
ATOM     37  C   UNL A   1      48.513  27.260  26.902  1.00  0.00     0.037 A 
BRANCH  24  38
ATOM     38  C   UNL A   1      43.685  23.334  26.753  1.00  0.00     0.058 A 
ATOM     39  C   UNL A   1      43.298  22.528  27.835  1.00  0.00     0.135 A 
ATOM     40  C   UNL A   1      43.620  22.775  25.467  1.00  0.00     0.135 A 
ATOM     41  F   UNL A   1      43.379  22.996  29.092  1.00  0.00    -0.206 F 
ATOM     42  C   UNL A   1      42.901  21.206  27.653  1.00  0.00     0.059 A 
ATOM     43  C   UNL A   1      43.197  21.465  25.258  1.00  0.00     0.059 A 
ATOM     44  F   UNL A   1      43.998  23.491  24.398  1.00  0.00    -0.206 F 
ATOM     45  C   UNL A   1      42.860  20.682  26.359  1.00  0.00     0.060 A 
BRANCH  45  46
ATOM     46  S   UNL A   1      42.372  18.958  26.138  1.00  0.00     0.124 S 
ATOM     47  O   UNL A   1      42.565  18.426  27.484  1.00  0.00    -0.237 OA
ATOM     48  O   UNL A   1      40.987  19.079  25.697  1.00  0.00    -0.237 OA
ATOM     49  O   UNL A   1      43.307  18.465  25.132  1.00  0.00    -0.744 OA
ENDBRANCH  45  46
ENDBRANCH  24  38
BRANCH  25  50
ATOM     50  C   UNL A   1      46.679  32.934  28.158  1.00  0.00     0.058 A 
ATOM     51  C   UNL A   1      47.151  33.360  29.406  1.00  0.00     0.135 A 
ATOM     52  C   UNL A   1      46.660  33.878  27.115  1.00  0.00     0.135 A 
ATOM     53  F   UNL A   1      47.190  32.501  30.437  1.00  0.00    -0.206 F 
ATOM     54  C   UNL A   1      47.580  34.668  29.617  1.00  0.00     0.059 A 
ATOM     55  C   UNL A   1      47.111  35.183  27.293  1.00  0.00     0.059 A 
ATOM     56  F   UNL A   1      46.231  33.524  25.893  1.00  0.00    -0.206 F 
ATOM     57  C   UNL A   1      47.561  35.571  28.551  1.00  0.00     0.060 A 
BRANCH  57  58
ATOM     58  S   UNL A   1      48.165  37.250  28.825  1.00  0.00     0.124 S 
ATOM     59  O   UNL A   1      46.929  37.961  29.132  1.00  0.00    -0.237 OA
ATOM     60  O   UNL A   1      49.089  37.066  29.940  1.00  0.00    -0.237 OA
ATOM     61  O   UNL A   1      48.791  37.595  27.552  1.00  0.00    -0.744 OA
ENDBRANCH  57  58
ENDBRANCH  25  50
BRANCH  37  62
ATOM     62  C   UNL A   1      49.951  26.942  26.622  1.00  0.00     0.058 A 
ATOM     63  C   UNL A   1      50.850  26.626  27.650  1.00  0.00     0.135 A 
ATOM     64  C   UNL A   1      50.403  26.873  25.295  1.00  0.00     0.135 A 
ATOM     65  F   UNL A   1      50.462  26.689  28.933  1.00  0.00    -0.206 F 
ATOM     66  C   UNL A   1      52.161  26.265  27.370  1.00  0.00     0.059 A 
ATOM     67  C   UNL A   1      51.700  26.483  24.992  1.00  0.00     0.059 A 
ATOM     68  F   UNL A   1      49.572  27.156  24.280  1.00  0.00    -0.206 F 
ATOM     69  C   UNL A   1      52.573  26.188  26.038  1.00  0.00     0.060 A 
BRANCH  69  70
ATOM     70  S   UNL A   1      54.260  25.658  25.687  1.00  0.00     0.124 S 
ATOM     71  O   UNL A   1      54.136  25.174  24.315  1.00  0.00    -0.237 OA
ATOM     72  O   UNL A   1      55.017  26.894  25.858  1.00  0.00    -0.237 OA
ATOM     73  O   UNL A   1      54.510  24.631  26.695  1.00  0.00    -0.744 OA
ENDBRANCH  69  70
ENDBRANCH  37  62
ENDBRANCH  11  12
ENDBRANCH   4   6
ENDBRANCH   3   4
ENDBRANCH   2   3
ENDBRANCH   1   2
BRANCH   1  74
ATOM     74  O   UNL A   1      33.755  29.562  26.563  1.00  0.00    -0.374 OA
BRANCH  74  75
ATOM     75  C   UNL A   1      33.435  28.316  27.182  1.00  0.00     0.202 C 
BRANCH  75  76
ATOM     76  C   UNL A   1      31.951  28.209  27.498  1.00  0.00     0.261 C 
BRANCH  76  77
ATOM     77  O   UNL A   1      31.239  28.134  26.243  1.00  0.00    -0.463 OA
BRANCH  77  78
ATOM     78  C   UNL A   1      30.868  26.884  25.864  1.00  0.00     0.312 C 
ATOM     79  O   UNL A   1      30.510  26.013  26.652  1.00  0.00    -0.252 OA
BRANCH  78  80
ATOM     80  C   UNL A   1      31.032  26.658  24.354  1.00  0.00     0.124 C 
ATOM     81  C   UNL A   1      30.297  25.513  23.723  1.00  0.00    -0.014 C 
ATOM     82  C   UNL A   1      32.483  26.305  23.988  1.00  0.00     0.048 C 
ATOM     83  C   UNL A   1      31.125  24.545  23.301  1.00  0.00    -0.006 C 
ATOM     84  C   UNL A   1      32.573  24.824  23.620  1.00  0.00     0.106 C 
BRANCH  84  85
ATOM     85  N   UNL A   1      32.955  23.830  24.614  1.00  0.00    -0.347 N 
ATOM     86  C   UNL A   1      34.028  23.040  24.874  1.00  0.00     0.261 C 
ATOM     87  H   UNL A   1      32.241  23.694  25.277  1.00  0.00     0.164 HD
ATOM     88  O   UNL A   1      33.775  22.065  25.598  1.00  0.00    -0.271 OA
BRANCH  86  89
ATOM     89  C   UNL A   1      35.479  23.281  24.435  1.00  0.00     0.266 C 
ATOM     90  C   UNL A   1      36.279  21.983  24.269  1.00  0.00     0.095 C 
ATOM     91  O   UNL A   1      36.187  24.234  25.245  1.00  0.00    -0.480 OA
ATOM     92  C   UNL A   1      37.461  22.312  25.099  1.00  0.00    -0.002 A 
ATOM     93  C   UNL A   1      37.361  23.611  25.567  1.00  0.00     0.123 A 
ATOM     94  C   UNL A   1      38.485  21.485  25.531  1.00  0.00     0.008 A 
ATOM     95  C   UNL A   1      38.310  24.166  26.399  1.00  0.00     0.047 A 
ATOM     96  C   UNL A   1      39.422  22.005  26.428  1.00  0.00     0.001 A 
ATOM     97  C   UNL A   1      39.351  23.346  26.838  1.00  0.00     0.004 A 
ENDBRANCH  86  89
ENDBRANCH  84  85
ENDBRANCH  78  80
ENDBRANCH  77  78
ENDBRANCH  76  77
ENDBRANCH  75  76
ENDBRANCH  74  75
ENDBRANCH   1  74
TORSDOF 19
ENDMDL
MODEL 2
REMARK VINA RESULT:     -10.9      3.751      6.146
REMARK SMILES O=C(OCCOCCOC(=O)[C@@H]1C=C[C@H](NC(=O)[C@@H]2Cc3ccccc3O2)C1)c1ccc(-c2c3nc(c(-c4c(F)cc(S(=O)(=O)[O-])cc4F)c4ccc([nH]4)c(-c4c(F)cc(S(=O)(=O)[O-])cc4F)c4nc(c(-c5c(F)cc(S(=O)(=O)[O-])cc5F)c5ccc2[nH]5)C=C4)C=C3)cc1
REMARK SMILES IDX 5 1 4 2 3 3 2 4 1 5 29 6 30 7 94 8 31 9 93 10 32 11 33 12
REMARK SMILES IDX 34 13 87 14 35 15 92 16 86 17 88 18 36 19 91 20 85 21 84 22
REMARK SMILES IDX 37 24 71 25 50 26 70 27 51 28 54 29 69 30 89 31 52 32 53 33
REMARK SMILES IDX 68 35 90 36 55 37 38 38 39 39 48 40 40 41 41 42 47 43 49 44
REMARK SMILES IDX 42 45 43 46 44 47 45 48 46 49 72 50 73 51 82 52 74 53 75 54
REMARK SMILES IDX 81 55 83 56 76 57 77 58 78 59 79 60 80 61 56 62 57 63 66 64
REMARK SMILES IDX 58 65 59 66 65 67 67 68 60 69 61 70 62 71 63 72 64 73 6 74
REMARK SMILES IDX 7 75 8 76 9 77 10 78 11 79 12 80 13 81 28 82 14 83 15 84
REMARK SMILES IDX 16 85 17 86 18 88 19 89 20 90 27 91 21 92 26 93 22 94 25 95
REMARK SMILES IDX 23 96 24 97
REMARK H PARENT 88 23 54 34 16 87
REMARK Flexibility Score: inf
ROOT
ATOM      1  C   UNL A   1      36.275  33.470  33.614  1.00  0.00     0.202 C 
ENDROOT
BRANCH   1   2
ATOM      2  C   UNL A   1      36.161  31.979  33.235  1.00  0.00     0.261 C 
BRANCH   2   3
ATOM      3  O   UNL A   1      37.249  31.526  32.415  1.00  0.00    -0.460 OA
BRANCH   3   4
ATOM      4  C   UNL A   1      37.287  30.387  31.678  1.00  0.00     0.338 C 
ATOM      5  O   UNL A   1      36.270  29.705  31.572  1.00  0.00    -0.246 OA
BRANCH   4   6
ATOM      6  C   UNL A   1      38.522  29.940  30.975  1.00  0.00     0.060 A 
ATOM      7  C   UNL A   1      39.582  29.298  31.609  1.00  0.00     0.016 A 
ATOM      8  C   UNL A   1      38.608  30.140  29.592  1.00  0.00     0.016 A 
ATOM      9  C   UNL A   1      40.737  28.959  30.957  1.00  0.00     0.010 A 
ATOM     10  C   UNL A   1      39.754  29.744  28.896  1.00  0.00     0.010 A 
ATOM     11  C   UNL A   1      40.823  29.172  29.595  1.00  0.00    -0.014 A 
BRANCH  11  12
ATOM     12  C   UNL A   1      42.133  28.910  29.005  1.00  0.00     0.031 A 
ATOM     13  C   UNL A   1      42.365  27.557  28.423  1.00  0.00     0.074 A 
ATOM     14  C   UNL A   1      42.980  29.939  28.827  1.00  0.00     0.049 A 
ATOM     15  N   UNL A   1      43.457  27.050  27.932  1.00  0.00    -0.248 NA
ATOM     16  C   UNL A   1      41.199  26.654  28.375  1.00  0.00     0.031 C 
ATOM     17  C   UNL A   1      42.703  31.335  29.194  1.00  0.00     0.029 A 
ATOM     18  N   UNL A   1      44.219  29.985  28.262  1.00  0.00    -0.354 N 
ATOM     19  C   UNL A   1      43.131  25.750  27.576  1.00  0.00     0.074 A 
ATOM     20  C   UNL A   1      41.736  25.547  27.888  1.00  0.00     0.031 C 
ATOM     21  C   UNL A   1      43.748  32.098  28.838  1.00  0.00     0.029 A 
ATOM     22  C   UNL A   1      44.794  31.232  28.314  1.00  0.00     0.049 A 
ATOM     23  H   UNL A   1      44.659  29.202  27.855  1.00  0.00     0.167 HD
ATOM     24  C   UNL A   1      43.955  24.815  27.055  1.00  0.00     0.037 A 
ATOM     25  C   UNL A   1      46.054  31.600  28.029  1.00  0.00     0.037 A 
ATOM     26  C   UNL A   1      45.335  25.093  26.763  1.00  0.00     0.049 A 
ATOM     27  C   UNL A   1      46.986  30.520  27.557  1.00  0.00     0.074 A 
ATOM     28  C   UNL A   1      46.316  24.237  26.310  1.00  0.00     0.029 A 
ATOM     29  N   UNL A   1      45.922  26.349  26.900  1.00  0.00    -0.354 N 
ATOM     30  N   UNL A   1      46.724  29.251  27.336  1.00  0.00    -0.248 NA
ATOM     31  C   UNL A   1      48.379  30.903  27.315  1.00  0.00     0.031 C 
ATOM     32  C   UNL A   1      47.509  24.963  26.224  1.00  0.00     0.029 A 
ATOM     33  C   UNL A   1      47.258  26.288  26.559  1.00  0.00     0.049 A 
ATOM     34  H   UNL A   1      45.453  27.162  27.198  1.00  0.00     0.167 HD
ATOM     35  C   UNL A   1      47.914  28.683  26.906  1.00  0.00     0.074 A 
ATOM     36  C   UNL A   1      48.894  29.756  26.892  1.00  0.00     0.031 C 
ATOM     37  C   UNL A   1      48.181  27.401  26.553  1.00  0.00     0.037 A 
BRANCH  24  38
ATOM     38  C   UNL A   1      43.403  23.427  26.896  1.00  0.00     0.058 A 
ATOM     39  C   UNL A   1      43.202  22.564  27.985  1.00  0.00     0.135 A 
ATOM     40  C   UNL A   1      43.135  22.929  25.612  1.00  0.00     0.135 A 
ATOM     41  F   UNL A   1      43.481  22.972  29.234  1.00  0.00    -0.206 F 
ATOM     42  C   UNL A   1      42.792  21.246  27.803  1.00  0.00     0.059 A 
ATOM     43  C   UNL A   1      42.696  21.624  25.407  1.00  0.00     0.059 A 
ATOM     44  F   UNL A   1      43.329  23.702  24.532  1.00  0.00    -0.206 F 
ATOM     45  C   UNL A   1      42.547  20.784  26.508  1.00  0.00     0.060 A 
BRANCH  45  46
ATOM     46  S   UNL A   1      42.045  19.064  26.283  1.00  0.00     0.124 S 
ATOM     47  O   UNL A   1      42.168  18.544  27.641  1.00  0.00    -0.237 OA
ATOM     48  O   UNL A   1      40.684  19.200  25.777  1.00  0.00    -0.237 OA
ATOM     49  O   UNL A   1      43.018  18.548  25.325  1.00  0.00    -0.744 OA
ENDBRANCH  45  46
ENDBRANCH  24  38
BRANCH  25  50
ATOM     50  C   UNL A   1      46.494  33.002  28.259  1.00  0.00     0.058 A 
ATOM     51  C   UNL A   1      46.377  33.979  27.262  1.00  0.00     0.135 A 
ATOM     52  C   UNL A   1      47.005  33.405  29.507  1.00  0.00     0.135 A 
ATOM     53  F   UNL A   1      45.898  33.650  26.053  1.00  0.00    -0.206 F 
ATOM     54  C   UNL A   1      46.756  35.301  27.487  1.00  0.00     0.059 A 
ATOM     55  C   UNL A   1      47.363  34.725  29.765  1.00  0.00     0.059 A 
ATOM     56  F   UNL A   1      47.127  32.515  30.504  1.00  0.00    -0.206 F 
ATOM     57  C   UNL A   1      47.243  35.664  28.745  1.00  0.00     0.060 A 
BRANCH  57  58
ATOM     58  S   UNL A   1      47.686  37.390  29.039  1.00  0.00     0.124 S 
ATOM     59  O   UNL A   1      48.727  37.601  28.040  1.00  0.00    -0.237 OA
ATOM     60  O   UNL A   1      46.421  38.077  28.797  1.00  0.00    -0.237 OA
ATOM     61  O   UNL A   1      48.135  37.391  30.428  1.00  0.00    -0.744 OA
ENDBRANCH  57  58
ENDBRANCH  25  50
BRANCH  37  62
ATOM     62  C   UNL A   1      49.571  27.109  26.073  1.00  0.00     0.058 A 
ATOM     63  C   UNL A   1      50.565  26.629  26.937  1.00  0.00     0.135 A 
ATOM     64  C   UNL A   1      49.877  27.239  24.709  1.00  0.00     0.135 A 
ATOM     65  F   UNL A   1      50.317  26.500  28.249  1.00  0.00    -0.206 F 
ATOM     66  C   UNL A   1      51.827  26.297  26.464  1.00  0.00     0.059 A 
ATOM     67  C   UNL A   1      51.123  26.882  24.211  1.00  0.00     0.059 A 
ATOM     68  F   UNL A   1      48.952  27.685  23.846  1.00  0.00    -0.206 F 
ATOM     69  C   UNL A   1      52.093  26.420  25.098  1.00  0.00     0.060 A 
BRANCH  69  70
ATOM     70  S   UNL A   1      53.717  25.926  24.489  1.00  0.00     0.124 S 
ATOM     71  O   UNL A   1      53.587  26.195  23.060  1.00  0.00    -0.237 OA
ATOM     72  O   UNL A   1      54.608  26.818  25.224  1.00  0.00    -0.237 OA
ATOM     73  O   UNL A   1      53.804  24.517  24.858  1.00  0.00    -0.744 OA
ENDBRANCH  69  70
ENDBRANCH  37  62
ENDBRANCH  11  12
ENDBRANCH   4   6
ENDBRANCH   3   4
ENDBRANCH   2   3
ENDBRANCH   1   2
BRANCH   1  74
ATOM     74  O   UNL A   1      35.101  34.280  33.672  1.00  0.00    -0.374 OA
BRANCH  74  75
ATOM     75  C   UNL A   1      35.013  35.362  32.746  1.00  0.00     0.202 C 
BRANCH  75  76
ATOM     76  C   UNL A   1      33.583  35.593  32.283  1.00  0.00     0.261 C 
BRANCH  76  77
ATOM     77  O   UNL A   1      33.271  34.584  31.298  1.00  0.00    -0.463 OA
BRANCH  77  78
ATOM     78  C   UNL A   1      33.229  35.023  30.015  1.00  0.00     0.312 C 
ATOM     79  O   UNL A   1      32.673  36.063  29.670  1.00  0.00    -0.252 OA
BRANCH  78  80
ATOM     80  C   UNL A   1      33.875  34.032  29.035  1.00  0.00     0.124 C 
ATOM     81  C   UNL A   1      34.395  32.734  29.577  1.00  0.00    -0.014 C 
ATOM     82  C   UNL A   1      35.153  34.611  28.404  1.00  0.00     0.048 C 
ATOM     83  C   UNL A   1      35.734  32.657  29.526  1.00  0.00    -0.006 C 
ATOM     84  C   UNL A   1      36.377  33.913  28.994  1.00  0.00     0.106 C 
BRANCH  84  85
ATOM     85  N   UNL A   1      37.096  34.493  30.122  1.00  0.00    -0.347 N 
ATOM     86  C   UNL A   1      38.345  34.427  30.649  1.00  0.00     0.261 C 
ATOM     87  H   UNL A   1      36.519  35.097  30.642  1.00  0.00     0.164 HD
ATOM     88  O   UNL A   1      38.414  34.785  31.835  1.00  0.00    -0.271 OA
BRANCH  86  89
ATOM     89  C   UNL A   1      39.637  34.041  29.916  1.00  0.00     0.266 C 
ATOM     90  C   UNL A   1      40.839  33.890  30.856  1.00  0.00     0.095 C 
ATOM     91  O   UNL A   1      39.951  34.886  28.795  1.00  0.00    -0.480 OA
ATOM     92  C   UNL A   1      41.812  34.765  30.161  1.00  0.00    -0.002 A 
ATOM     93  C   UNL A   1      41.257  35.242  28.985  1.00  0.00     0.123 A 
ATOM     94  C   UNL A   1      43.044  35.223  30.595  1.00  0.00     0.008 A 
ATOM     95  C   UNL A   1      41.933  36.113  28.157  1.00  0.00     0.047 A 
ATOM     96  C   UNL A   1      43.718  36.158  29.805  1.00  0.00     0.001 A 
ATOM     97  C   UNL A   1      43.179  36.580  28.579  1.00  0.00     0.004 A 
ENDBRANCH  86  89
ENDBRANCH  84  85
ENDBRANCH  78  80
ENDBRANCH  77  78
ENDBRANCH  76  77
ENDBRANCH  75  76
ENDBRANCH  74  75
ENDBRANCH   1  74
TORSDOF 19
ENDMDL
MODEL 3
REMARK VINA RESULT:     -10.8      6.714     12.094
REMARK SMILES O=C(OCCOCCOC(=O)[C@@H]1C=C[C@H](NC(=O)[C@@H]2Cc3ccccc3O2)C1)c1ccc(-c2c3nc(c(-c4c(F)cc(S(=O)(=O)[O-])cc4F)c4ccc([nH]4)c(-c4c(F)cc(S(=O)(=O)[O-])cc4F)c4nc(c(-c5c(F)cc(S(=O)(=O)[O-])cc5F)c5ccc2[nH]5)C=C4)C=C3)cc1
REMARK SMILES IDX 5 1 4 2 3 3 2 4 1 5 29 6 30 7 94 8 31 9 93 10 32 11 33 12
REMARK SMILES IDX 34 13 87 14 35 15 92 16 86 17 88 18 36 19 91 20 85 21 84 22
REMARK SMILES IDX 37 24 71 25 50 26 70 27 51 28 54 29 69 30 89 31 52 32 53 33
REMARK SMILES IDX 68 35 90 36 55 37 38 38 39 39 48 40 40 41 41 42 47 43 49 44
REMARK SMILES IDX 42 45 43 46 44 47 45 48 46 49 72 50 73 51 82 52 74 53 75 54
REMARK SMILES IDX 81 55 83 56 76 57 77 58 78 59 79 60 80 61 56 62 57 63 66 64
REMARK SMILES IDX 58 65 59 66 65 67 67 68 60 69 61 70 62 71 63 72 64 73 6 74
REMARK SMILES IDX 7 75 8 76 9 77 10 78 11 79 12 80 13 81 28 82 14 83 15 84
REMARK SMILES IDX 16 85 17 86 18 88 19 89 20 90 27 91 21 92 26 93 22 94 25 95
REMARK SMILES IDX 23 96 24 97
REMARK H PARENT 88 23 54 34 16 87
REMARK Flexibility Score: inf
ROOT
ATOM      1  C   UNL A   1      41.380  22.303  27.089  1.00  0.00     0.202 C 
ENDROOT
BRANCH   1   2
ATOM      2  C   UNL A   1      42.158  23.071  26.002  1.00  0.00     0.261 C 
BRANCH   2   3
ATOM      3  O   UNL A   1      42.543  24.391  26.416  1.00  0.00    -0.460 OA
BRANCH   3   4
ATOM      4  C   UNL A   1      41.830  25.534  26.241  1.00  0.00     0.338 C 
ATOM      5  O   UNL A   1      41.424  25.822  25.117  1.00  0.00    -0.246 OA
BRANCH   4   6
ATOM      6  C   UNL A   1      41.508  26.446  27.373  1.00  0.00     0.060 A 
ATOM      7  C   UNL A   1      42.128  27.676  27.574  1.00  0.00     0.016 A 
ATOM      8  C   UNL A   1      40.497  26.067  28.265  1.00  0.00     0.016 A 
ATOM      9  C   UNL A   1      41.866  28.467  28.660  1.00  0.00     0.010 A 
ATOM     10  C   UNL A   1      40.170  26.891  29.345  1.00  0.00     0.010 A 
ATOM     11  C   UNL A   1      40.878  28.082  29.545  1.00  0.00    -0.014 A 
BRANCH  11  12
ATOM     12  C   UNL A   1      40.757  28.909  30.743  1.00  0.00     0.031 A 
ATOM     13  C   UNL A   1      39.639  29.893  30.787  1.00  0.00     0.074 A 
ATOM     14  C   UNL A   1      41.512  28.608  31.814  1.00  0.00     0.049 A 
ATOM     15  N   UNL A   1      39.375  30.797  31.683  1.00  0.00    -0.248 NA
ATOM     16  C   UNL A   1      38.675  29.843  29.670  1.00  0.00     0.031 C 
ATOM     17  C   UNL A   1      42.479  27.505  31.885  1.00  0.00     0.029 A 
ATOM     18  N   UNL A   1      41.559  29.170  33.055  1.00  0.00    -0.354 N 
ATOM     19  C   UNL A   1      38.255  31.467  31.211  1.00  0.00     0.074 A 
ATOM     20  C   UNL A   1      37.876  30.857  29.959  1.00  0.00     0.031 C 
ATOM     21  C   UNL A   1      43.020  27.473  33.112  1.00  0.00     0.029 A 
ATOM     22  C   UNL A   1      42.511  28.606  33.870  1.00  0.00     0.049 A 
ATOM     23  H   UNL A   1      40.969  29.906  33.340  1.00  0.00     0.167 HD
ATOM     24  C   UNL A   1      37.631  32.518  31.785  1.00  0.00     0.037 A 
ATOM     25  C   UNL A   1      42.958  29.019  35.068  1.00  0.00     0.037 A 
ATOM     26  C   UNL A   1      38.063  33.068  33.041  1.00  0.00     0.049 A 
ATOM     27  C   UNL A   1      42.325  30.258  35.638  1.00  0.00     0.074 A 
ATOM     28  C   UNL A   1      37.589  34.175  33.713  1.00  0.00     0.029 A 
ATOM     29  N   UNL A   1      39.087  32.529  33.816  1.00  0.00    -0.354 N 
ATOM     30  N   UNL A   1      41.346  30.980  35.141  1.00  0.00    -0.248 NA
ATOM     31  C   UNL A   1      42.858  30.752  36.909  1.00  0.00     0.031 C 
ATOM     32  C   UNL A   1      38.362  34.336  34.868  1.00  0.00     0.029 A 
ATOM     33  C   UNL A   1      39.275  33.292  34.951  1.00  0.00     0.049 A 
ATOM     34  H   UNL A   1      39.604  31.723  33.587  1.00  0.00     0.167 HD
ATOM     35  C   UNL A   1      41.127  32.007  36.048  1.00  0.00     0.074 A 
ATOM     36  C   UNL A   1      42.075  31.800  37.130  1.00  0.00     0.031 C 
ATOM     37  C   UNL A   1      40.231  33.024  36.001  1.00  0.00     0.037 A 
BRANCH  24  38
ATOM     38  C   UNL A   1      36.527  33.170  31.002  1.00  0.00     0.058 A 
ATOM     39  C   UNL A   1      36.769  33.949  29.859  1.00  0.00     0.135 A 
ATOM     40  C   UNL A   1      35.201  33.067  31.451  1.00  0.00     0.135 A 
ATOM     41  F   UNL A   1      38.023  34.117  29.407  1.00  0.00    -0.206 F 
ATOM     42  C   UNL A   1      35.743  34.632  29.213  1.00  0.00     0.059 A 
ATOM     43  C   UNL A   1      34.154  33.716  30.804  1.00  0.00     0.059 A 
ATOM     44  F   UNL A   1      34.914  32.353  32.551  1.00  0.00    -0.206 F 
ATOM     45  C   UNL A   1      34.438  34.513  29.698  1.00  0.00     0.060 A 
BRANCH  45  46
ATOM     46  S   UNL A   1      33.120  35.428  28.869  1.00  0.00     0.124 S 
ATOM     47  O   UNL A   1      32.372  35.956  30.006  1.00  0.00    -0.237 OA
ATOM     48  O   UNL A   1      33.864  36.410  28.090  1.00  0.00    -0.237 OA
ATOM     49  O   UNL A   1      32.432  34.403  28.090  1.00  0.00    -0.744 OA
ENDBRANCH  45  46
ENDBRANCH  24  38
BRANCH  25  50
ATOM     50  C   UNL A   1      44.081  28.309  35.733  1.00  0.00     0.058 A 
ATOM     51  C   UNL A   1      43.854  27.311  36.690  1.00  0.00     0.135 A 
ATOM     52  C   UNL A   1      45.418  28.586  35.391  1.00  0.00     0.135 A 
ATOM     53  F   UNL A   1      42.599  27.007  37.055  1.00  0.00    -0.206 F 
ATOM     54  C   UNL A   1      44.904  26.619  37.288  1.00  0.00     0.059 A 
ATOM     55  C   UNL A   1      46.483  27.889  35.953  1.00  0.00     0.059 A 
ATOM     56  F   UNL A   1      45.697  29.523  34.470  1.00  0.00    -0.206 F 
ATOM     57  C   UNL A   1      46.216  26.913  36.908  1.00  0.00     0.060 A 
BRANCH  57  58
ATOM     58  S   UNL A   1      47.567  25.976  37.656  1.00  0.00     0.124 S 
ATOM     59  O   UNL A   1      48.674  26.920  37.549  1.00  0.00    -0.237 OA
ATOM     60  O   UNL A   1      47.063  25.735  39.004  1.00  0.00    -0.237 OA
ATOM     61  O   UNL A   1      47.664  24.791  36.810  1.00  0.00    -0.744 OA
ENDBRANCH  57  58
ENDBRANCH  25  50
BRANCH  37  62
ATOM     62  C   UNL A   1      40.204  33.952  37.179  1.00  0.00     0.058 A 
ATOM     63  C   UNL A   1      41.016  35.093  37.238  1.00  0.00     0.135 A 
ATOM     64  C   UNL A   1      39.288  33.729  38.219  1.00  0.00     0.135 A 
ATOM     65  F   UNL A   1      41.912  35.337  36.270  1.00  0.00    -0.206 F 
ATOM     66  C   UNL A   1      40.929  35.980  38.302  1.00  0.00     0.059 A 
ATOM     67  C   UNL A   1      39.162  34.621  39.275  1.00  0.00     0.059 A 
ATOM     68  F   UNL A   1      38.484  32.655  38.196  1.00  0.00    -0.206 F 
ATOM     69  C   UNL A   1      39.994  35.739  39.311  1.00  0.00     0.060 A 
BRANCH  69  70
ATOM     70  S   UNL A   1      39.849  36.933  40.655  1.00  0.00     0.124 S 
ATOM     71  O   UNL A   1      39.858  38.197  39.924  1.00  0.00    -0.237 OA
ATOM     72  O   UNL A   1      38.576  36.561  41.264  1.00  0.00    -0.237 OA
ATOM     73  O   UNL A   1      41.030  36.670  41.471  1.00  0.00    -0.744 OA
ENDBRANCH  69  70
ENDBRANCH  37  62
ENDBRANCH  11  12
ENDBRANCH   4   6
ENDBRANCH   3   4
ENDBRANCH   2   3
ENDBRANCH   1   2
BRANCH   1  74
ATOM     74  O   UNL A   1      39.998  22.587  27.308  1.00  0.00    -0.374 OA
BRANCH  74  75
ATOM     75  C   UNL A   1      39.152  22.618  26.160  1.00  0.00     0.202 C 
BRANCH  75  76
ATOM     76  C   UNL A   1      37.901  23.448  26.403  1.00  0.00     0.261 C 
BRANCH  76  77
ATOM     77  O   UNL A   1      37.458  23.960  25.128  1.00  0.00    -0.463 OA
BRANCH  77  78
ATOM     78  C   UNL A   1      36.716  23.099  24.386  1.00  0.00     0.312 C 
ATOM     79  O   UNL A   1      37.088  22.630  23.314  1.00  0.00    -0.252 OA
BRANCH  78  80
ATOM     80  C   UNL A   1      35.328  22.849  24.995  1.00  0.00     0.124 C 
ATOM     81  C   UNL A   1      34.352  22.015  24.219  1.00  0.00    -0.014 C 
ATOM     82  C   UNL A   1      34.532  24.155  25.146  1.00  0.00     0.048 C 
ATOM     83  C   UNL A   1      33.311  22.732  23.769  1.00  0.00    -0.006 C 
ATOM     84  C   UNL A   1      33.415  24.199  24.104  1.00  0.00     0.106 C 
BRANCH  84  85
ATOM     85  N   UNL A   1      33.609  24.880  22.831  1.00  0.00    -0.347 N 
ATOM     86  C   UNL A   1      33.224  26.048  22.255  1.00  0.00     0.261 C 
ATOM     87  H   UNL A   1      34.171  24.349  22.223  1.00  0.00     0.164 HD
ATOM     88  O   UNL A   1      33.298  26.050  21.016  1.00  0.00    -0.271 OA
BRANCH  86  89
ATOM     89  C   UNL A   1      32.800  27.335  22.975  1.00  0.00     0.266 C 
ATOM     90  C   UNL A   1      33.984  28.117  23.555  1.00  0.00     0.095 C 
ATOM     91  O   UNL A   1      31.765  27.146  23.955  1.00  0.00    -0.480 OA
ATOM     92  C   UNL A   1      33.509  28.292  24.948  1.00  0.00    -0.002 A 
ATOM     93  C   UNL A   1      32.234  27.769  25.079  1.00  0.00     0.123 A 
ATOM     94  C   UNL A   1      34.199  28.751  26.058  1.00  0.00     0.008 A 
ATOM     95  C   UNL A   1      31.564  27.763  26.284  1.00  0.00     0.047 A 
ATOM     96  C   UNL A   1      33.565  28.692  27.302  1.00  0.00     0.001 A 
ATOM     97  C   UNL A   1      32.245  28.227  27.410  1.00  0.00     0.004 A 
ENDBRANCH  86  89
ENDBRANCH  84  85
ENDBRANCH  78  80
ENDBRANCH  77  78
ENDBRANCH  76  77
ENDBRANCH  75  76
ENDBRANCH  74  75
ENDBRANCH   1  74
TORSDOF 19
ENDMDL
