MODEL 1
REMARK VINA RESULT:     -10.5      0.000      0.000
REMARK SMILES C[NH+](C)Cc1noc(C[C@@](C)(C(=O)OCCOCCOC(=O)c2ccc(-c3c4nc(c(-c5c(F)cc(S(=O)(=O)[O-])cc5F)c5ccc([nH]5)c(-c5c(F)cc(S(=O)(=O)[O-])cc5F)c5nc(c(-c6c(F)cc(S(=O)(=O)[O-])cc6F)c6ccc3[nH]6)C=C5)C=C4)cc2)c2ccccc2)n1
REMARK SMILES IDX 16 1 15 2 14 3 12 4 13 5 10 6 11 7 9 8 8 9 5 10 6 11 95 12
REMARK SMILES IDX 7 13 4 14 2 15 1 16 3 17 89 19 90 20 94 21 91 22 93 23 92 24
REMARK SMILES IDX 17 25 18 26 19 27 20 28 21 29 22 30 23 31 24 32 88 33 25 34
REMARK SMILES IDX 87 35 26 36 27 37 28 38 81 39 29 40 86 41 80 42 82 43 30 44
REMARK SMILES IDX 85 45 79 46 78 47 31 49 65 50 44 51 64 52 45 53 48 54 63 55
REMARK SMILES IDX 83 56 46 57 47 58 62 60 84 61 49 62 32 63 33 64 42 65 34 66
REMARK SMILES IDX 35 67 41 68 43 69 36 70 37 71 38 72 39 73 40 74 66 75 67 76
REMARK SMILES IDX 76 77 68 78 69 79 75 80 77 81 70 82 71 83 72 84 73 85 74 86
REMARK SMILES IDX 50 87 51 88 60 89 52 90 53 91 59 92 61 93 54 94 55 95 56 96
REMARK SMILES IDX 57 97 58 98
REMARK H PARENT 2 18 82 48 48 59
REMARK Flexibility Score: inf
ROOT
ATOM      1  C   UNL A   1      32.589  30.382  26.349  1.00  0.00     0.202 C 
ENDROOT
BRANCH   1   2
ATOM      2  C   UNL A   1      31.665  29.159  26.303  1.00  0.00     0.261 C 
BRANCH   2   3
ATOM      3  O   UNL A   1      32.147  28.120  25.434  1.00  0.00    -0.463 OA
BRANCH   3   4
ATOM      4  C   UNL A   1      31.280  27.094  25.207  1.00  0.00     0.316 C 
ATOM      5  O   UNL A   1      30.771  26.426  26.104  1.00  0.00    -0.251 OA
BRANCH   4   6
ATOM      6  C   UNL A   1      30.974  26.854  23.702  1.00  0.00     0.099 C 
ATOM      7  C   UNL A   1      30.198  25.512  23.734  1.00  0.00     0.029 C 
BRANCH   6   8
ATOM      8  C   UNL A   1      32.298  26.708  22.885  1.00  0.00     0.123 C 
BRANCH   8   9
ATOM      9  C   UNL A   1      32.938  25.367  22.950  1.00  0.00     0.228 A 
ATOM     10  C   UNL A   1      34.003  23.614  23.386  1.00  0.00     0.226 A 
ATOM     11  N   UNL A   1      33.904  23.599  22.049  1.00  0.00    -0.056 NA
ATOM     12  N   UNL A   1      33.410  24.706  23.984  1.00  0.00    -0.190 NA
ATOM     13  O   UNL A   1      33.143  24.727  21.764  1.00  0.00    -0.339 OA
BRANCH  10  14
ATOM     14  C   UNL A   1      34.799  22.609  24.167  1.00  0.00     0.344 C 
BRANCH  14  15
ATOM     15  N   UNL A   1      36.168  23.010  24.561  1.00  0.00    -0.333 N 
ATOM     16  C   UNL A   1      36.222  23.538  25.922  1.00  0.00     0.332 C 
ATOM     17  C   UNL A   1      37.154  21.950  24.365  1.00  0.00     0.332 C 
ATOM     18  H   UNL A   1      36.421  23.767  23.928  1.00  0.00     0.348 HD
ENDBRANCH  14  15
ENDBRANCH  10  14
ENDBRANCH   8   9
ENDBRANCH   6   8
BRANCH   6  19
ATOM     19  C   UNL A   1      30.072  27.985  23.132  1.00  0.00    -0.030 A 
ATOM     20  C   UNL A   1      30.601  29.102  22.456  1.00  0.00     0.005 A 
ATOM     21  C   UNL A   1      28.671  27.939  23.275  1.00  0.00     0.005 A 
ATOM     22  C   UNL A   1      29.776  30.123  21.969  1.00  0.00     0.000 A 
ATOM     23  C   UNL A   1      27.843  28.945  22.766  1.00  0.00     0.000 A 
ATOM     24  C   UNL A   1      28.397  30.042  22.120  1.00  0.00     0.000 A 
ENDBRANCH   6  19
ENDBRANCH   4   6
ENDBRANCH   3   4
ENDBRANCH   2   3
ENDBRANCH   1   2
BRANCH   1  25
ATOM     25  O   UNL A   1      33.261  30.656  27.573  1.00  0.00    -0.374 OA
BRANCH  25  26
ATOM     26  C   UNL A   1      33.582  32.016  27.869  1.00  0.00     0.202 C 
BRANCH  26  27
ATOM     27  C   UNL A   1      34.940  32.318  28.520  1.00  0.00     0.261 C 
BRANCH  27  28
ATOM     28  O   UNL A   1      35.562  31.152  29.093  1.00  0.00    -0.460 OA
BRANCH  28  29
ATOM     29  C   UNL A   1      36.557  31.415  29.976  1.00  0.00     0.338 C 
ATOM     30  O   UNL A   1      36.474  32.081  31.002  1.00  0.00    -0.246 OA
BRANCH  29  31
ATOM     31  C   UNL A   1      37.758  30.630  29.650  1.00  0.00     0.060 A 
ATOM     32  C   UNL A   1      38.648  30.326  30.690  1.00  0.00     0.016 A 
ATOM     33  C   UNL A   1      38.066  30.294  28.331  1.00  0.00     0.016 A 
ATOM     34  C   UNL A   1      39.872  29.719  30.410  1.00  0.00     0.010 A 
ATOM     35  C   UNL A   1      39.300  29.697  28.051  1.00  0.00     0.010 A 
ATOM     36  C   UNL A   1      40.221  29.436  29.083  1.00  0.00    -0.014 A 
BRANCH  36  37
ATOM     37  C   UNL A   1      41.602  29.006  28.750  1.00  0.00     0.031 A 
ATOM     38  C   UNL A   1      42.699  30.035  28.735  1.00  0.00     0.074 A 
ATOM     39  C   UNL A   1      41.873  27.721  28.463  1.00  0.00     0.049 A 
ATOM     40  N   UNL A   1      43.946  29.911  28.366  1.00  0.00    -0.248 NA
ATOM     41  C   UNL A   1      42.337  31.387  29.193  1.00  0.00     0.031 C 
ATOM     42  C   UNL A   1      40.906  26.625  28.497  1.00  0.00     0.029 A 
ATOM     43  N   UNL A   1      43.044  27.124  28.068  1.00  0.00    -0.354 N 
ATOM     44  C   UNL A   1      44.517  31.168  28.531  1.00  0.00     0.074 A 
ATOM     45  C   UNL A   1      43.474  32.045  29.017  1.00  0.00     0.031 C 
ATOM     46  C   UNL A   1      41.518  25.492  28.113  1.00  0.00     0.029 A 
ATOM     47  C   UNL A   1      42.908  25.789  27.770  1.00  0.00     0.049 A 
ATOM     48  H   UNL A   1      43.900  27.607  28.004  1.00  0.00     0.167 HD
ATOM     49  C   UNL A   1      45.794  31.553  28.300  1.00  0.00     0.037 A 
ATOM     50  C   UNL A   1      43.794  24.917  27.249  1.00  0.00     0.037 A 
ATOM     51  C   UNL A   1      46.827  30.673  27.820  1.00  0.00     0.049 A 
ATOM     52  C   UNL A   1      45.191  25.385  26.931  1.00  0.00     0.074 A 
ATOM     53  C   UNL A   1      48.156  30.964  27.566  1.00  0.00     0.029 A 
ATOM     54  N   UNL A   1      46.645  29.332  27.514  1.00  0.00    -0.354 N 
ATOM     55  N   UNL A   1      45.720  26.574  27.097  1.00  0.00    -0.248 NA
ATOM     56  C   UNL A   1      46.111  24.395  26.350  1.00  0.00     0.031 C 
ATOM     57  C   UNL A   1      48.767  29.810  27.065  1.00  0.00     0.029 A 
ATOM     58  C   UNL A   1      47.832  28.787  27.054  1.00  0.00     0.049 A 
ATOM     59  H   UNL A   1      45.798  28.841  27.611  1.00  0.00     0.167 HD
ATOM     60  C   UNL A   1      47.041  26.467  26.672  1.00  0.00     0.074 A 
ATOM     61  C   UNL A   1      47.231  25.097  26.241  1.00  0.00     0.031 C 
ATOM     62  C   UNL A   1      48.009  27.416  26.645  1.00  0.00     0.037 A 
BRANCH  49  63
ATOM     63  C   UNL A   1      46.140  32.997  28.536  1.00  0.00     0.058 A 
ATOM     64  C   UNL A   1      46.027  33.961  27.522  1.00  0.00     0.135 A 
ATOM     65  C   UNL A   1      46.560  33.428  29.805  1.00  0.00     0.135 A 
ATOM     66  F   UNL A   1      45.647  33.600  26.286  1.00  0.00    -0.206 F 
ATOM     67  C   UNL A   1      46.344  35.296  27.750  1.00  0.00     0.059 A 
ATOM     68  C   UNL A   1      46.858  34.762  30.063  1.00  0.00     0.059 A 
ATOM     69  F   UNL A   1      46.687  32.546  30.810  1.00  0.00    -0.206 F 
ATOM     70  C   UNL A   1      46.760  35.687  29.024  1.00  0.00     0.060 A 
BRANCH  70  71
ATOM     71  S   UNL A   1      47.168  37.423  29.306  1.00  0.00     0.124 S 
ATOM     72  O   UNL A   1      47.584  37.843  27.971  1.00  0.00    -0.237 OA
ATOM     73  O   UNL A   1      45.898  37.970  29.774  1.00  0.00    -0.237 OA
ATOM     74  O   UNL A   1      48.229  37.365  30.305  1.00  0.00    -0.744 OA
ENDBRANCH  70  71
ENDBRANCH  49  63
BRANCH  50  75
ATOM     75  C   UNL A   1      43.379  23.517  26.971  1.00  0.00     0.058 A 
ATOM     76  C   UNL A   1      43.245  23.048  25.656  1.00  0.00     0.135 A 
ATOM     77  C   UNL A   1      43.113  22.617  28.016  1.00  0.00     0.135 A 
ATOM     78  F   UNL A   1      43.477  23.872  24.624  1.00  0.00    -0.206 F 
ATOM     79  C   UNL A   1      42.853  21.741  25.386  1.00  0.00     0.059 A 
ATOM     80  C   UNL A   1      42.742  21.299  27.771  1.00  0.00     0.059 A 
ATOM     81  F   UNL A   1      43.235  23.014  29.292  1.00  0.00    -0.206 F 
ATOM     82  C   UNL A   1      42.607  20.873  26.451  1.00  0.00     0.060 A 
BRANCH  82  83
ATOM     83  S   UNL A   1      42.151  19.163  26.089  1.00  0.00     0.124 S 
ATOM     84  O   UNL A   1      42.652  18.470  27.271  1.00  0.00    -0.237 OA
ATOM     85  O   UNL A   1      40.699  19.253  25.968  1.00  0.00    -0.237 OA
ATOM     86  O   UNL A   1      42.859  18.883  24.845  1.00  0.00    -0.744 OA
ENDBRANCH  82  83
ENDBRANCH  50  75
BRANCH  62  87
ATOM     87  C   UNL A   1      49.378  27.008  26.177  1.00  0.00     0.058 A 
ATOM     88  C   UNL A   1      50.283  26.351  27.025  1.00  0.00     0.135 A 
ATOM     89  C   UNL A   1      49.754  27.200  24.838  1.00  0.00     0.135 A 
ATOM     90  F   UNL A   1      49.975  26.148  28.316  1.00  0.00    -0.206 F 
ATOM     91  C   UNL A   1      51.517  25.906  26.563  1.00  0.00     0.059 A 
ATOM     92  C   UNL A   1      50.974  26.743  24.348  1.00  0.00     0.059 A 
ATOM     93  F   UNL A   1      48.921  27.815  23.984  1.00  0.00    -0.206 F 
ATOM     94  C   UNL A   1      51.851  26.100  25.221  1.00  0.00     0.060 A 
BRANCH  94  95
ATOM     95  S   UNL A   1      53.430  25.461  24.618  1.00  0.00     0.124 S 
ATOM     96  O   UNL A   1      54.363  26.464  25.121  1.00  0.00    -0.237 OA
ATOM     97  O   UNL A   1      53.501  24.151  25.257  1.00  0.00    -0.237 OA
ATOM     98  O   UNL A   1      53.255  25.437  23.169  1.00  0.00    -0.744 OA
ENDBRANCH  94  95
ENDBRANCH  62  87
ENDBRANCH  36  37
ENDBRANCH  29  31
ENDBRANCH  28  29
ENDBRANCH  27  28
ENDBRANCH  26  27
ENDBRANCH  25  26
ENDBRANCH   1  25
TORSDOF 22
ENDMDL
MODEL 2
REMARK VINA RESULT:     -10.4      2.756      8.408
REMARK SMILES C[NH+](C)Cc1noc(C[C@@](C)(C(=O)OCCOCCOC(=O)c2ccc(-c3c4nc(c(-c5c(F)cc(S(=O)(=O)[O-])cc5F)c5ccc([nH]5)c(-c5c(F)cc(S(=O)(=O)[O-])cc5F)c5nc(c(-c6c(F)cc(S(=O)(=O)[O-])cc6F)c6ccc3[nH]6)C=C5)C=C4)cc2)c2ccccc2)n1
REMARK SMILES IDX 16 1 15 2 14 3 12 4 13 5 10 6 11 7 9 8 8 9 5 10 6 11 95 12
REMARK SMILES IDX 7 13 4 14 2 15 1 16 3 17 89 19 90 20 94 21 91 22 93 23 92 24
REMARK SMILES IDX 17 25 18 26 19 27 20 28 21 29 22 30 23 31 24 32 88 33 25 34
REMARK SMILES IDX 87 35 26 36 27 37 28 38 81 39 29 40 86 41 80 42 82 43 30 44
REMARK SMILES IDX 85 45 79 46 78 47 31 49 65 50 44 51 64 52 45 53 48 54 63 55
REMARK SMILES IDX 83 56 46 57 47 58 62 60 84 61 49 62 32 63 33 64 42 65 34 66
REMARK SMILES IDX 35 67 41 68 43 69 36 70 37 71 38 72 39 73 40 74 66 75 67 76
REMARK SMILES IDX 76 77 68 78 69 79 75 80 77 81 70 82 71 83 72 84 73 85 74 86
REMARK SMILES IDX 50 87 51 88 60 89 52 90 53 91 59 92 61 93 54 94 55 95 56 96
REMARK SMILES IDX 57 97 58 98
REMARK H PARENT 2 18 82 48 48 59
REMARK Flexibility Score: inf
ROOT
ATOM      1  C   UNL A   1      37.717  22.468  25.699  1.00  0.00     0.202 C 
ENDROOT
BRANCH   1   2
ATOM      2  C   UNL A   1      36.282  21.978  25.925  1.00  0.00     0.261 C 
BRANCH   2   3
ATOM      3  O   UNL A   1      35.310  23.036  25.881  1.00  0.00    -0.463 OA
BRANCH   3   4
ATOM      4  C   UNL A   1      34.108  22.755  26.457  1.00  0.00     0.316 C 
ATOM      5  O   UNL A   1      33.991  22.126  27.506  1.00  0.00    -0.251 OA
BRANCH   4   6
ATOM      6  C   UNL A   1      32.891  23.324  25.676  1.00  0.00     0.099 C 
ATOM      7  C   UNL A   1      31.772  23.303  26.749  1.00  0.00     0.029 C 
BRANCH   6   8
ATOM      8  C   UNL A   1      32.522  22.394  24.475  1.00  0.00     0.123 C 
BRANCH   8   9
ATOM      9  C   UNL A   1      32.766  20.944  24.697  1.00  0.00     0.228 A 
ATOM     10  C   UNL A   1      33.338  18.927  24.675  1.00  0.00     0.226 A 
ATOM     11  N   UNL A   1      32.152  18.912  25.301  1.00  0.00    -0.056 NA
ATOM     12  N   UNL A   1      33.754  20.181  24.283  1.00  0.00    -0.190 NA
ATOM     13  O   UNL A   1      31.804  20.255  25.373  1.00  0.00    -0.339 OA
BRANCH  10  14
ATOM     14  C   UNL A   1      34.095  17.682  24.309  1.00  0.00     0.344 C 
BRANCH  14  15
ATOM     15  N   UNL A   1      34.200  16.640  25.353  1.00  0.00    -0.333 N 
ATOM     16  C   UNL A   1      33.117  15.663  25.275  1.00  0.00     0.332 C 
ATOM     17  C   UNL A   1      35.505  15.983  25.378  1.00  0.00     0.332 C 
ATOM     18  H   UNL A   1      34.105  17.135  26.240  1.00  0.00     0.348 HD
ENDBRANCH  14  15
ENDBRANCH  10  14
ENDBRANCH   8   9
ENDBRANCH   6   8
BRANCH   6  19
ATOM     19  C   UNL A   1      33.163  24.782  25.208  1.00  0.00    -0.030 A 
ATOM     20  C   UNL A   1      33.369  25.112  23.854  1.00  0.00     0.005 A 
ATOM     21  C   UNL A   1      33.220  25.843  26.133  1.00  0.00     0.005 A 
ATOM     22  C   UNL A   1      33.636  26.427  23.453  1.00  0.00     0.000 A 
ATOM     23  C   UNL A   1      33.460  27.160  25.731  1.00  0.00     0.000 A 
ATOM     24  C   UNL A   1      33.677  27.452  24.391  1.00  0.00     0.000 A 
ENDBRANCH   6  19
ENDBRANCH   4   6
ENDBRANCH   3   4
ENDBRANCH   2   3
ENDBRANCH   1   2
BRANCH   1  25
ATOM     25  O   UNL A   1      38.773  21.531  25.886  1.00  0.00    -0.374 OA
BRANCH  25  26
ATOM     26  C   UNL A   1      38.660  20.262  25.242  1.00  0.00     0.202 C 
BRANCH  26  27
ATOM     27  C   UNL A   1      39.731  19.200  25.534  1.00  0.00     0.261 C 
BRANCH  27  28
ATOM     28  O   UNL A   1      40.569  19.539  26.656  1.00  0.00    -0.460 OA
BRANCH  28  29
ATOM     29  C   UNL A   1      41.847  19.859  26.334  1.00  0.00     0.338 C 
ATOM     30  O   UNL A   1      42.629  19.188  25.669  1.00  0.00    -0.246 OA
BRANCH  29  31
ATOM     31  C   UNL A   1      42.149  21.242  26.733  1.00  0.00     0.060 A 
ATOM     32  C   UNL A   1      42.117  22.236  25.742  1.00  0.00     0.016 A 
ATOM     33  C   UNL A   1      42.569  21.546  28.028  1.00  0.00     0.016 A 
ATOM     34  C   UNL A   1      42.543  23.530  26.035  1.00  0.00     0.010 A 
ATOM     35  C   UNL A   1      43.008  22.842  28.316  1.00  0.00     0.010 A 
ATOM     36  C   UNL A   1      43.028  23.831  27.315  1.00  0.00    -0.014 A 
BRANCH  36  37
ATOM     37  C   UNL A   1      43.694  25.132  27.573  1.00  0.00     0.031 A 
ATOM     38  C   UNL A   1      42.866  26.287  28.066  1.00  0.00     0.074 A 
ATOM     39  C   UNL A   1      45.014  25.283  27.367  1.00  0.00     0.049 A 
ATOM     40  N   UNL A   1      43.209  27.535  28.248  1.00  0.00    -0.248 NA
ATOM     41  C   UNL A   1      41.460  25.994  28.392  1.00  0.00     0.031 C 
ATOM     42  C   UNL A   1      45.929  24.226  26.942  1.00  0.00     0.029 A 
ATOM     43  N   UNL A   1      45.811  26.396  27.472  1.00  0.00    -0.354 N 
ATOM     44  C   UNL A   1      42.062  28.181  28.695  1.00  0.00     0.074 A 
ATOM     45  C   UNL A   1      41.008  27.191  28.739  1.00  0.00     0.031 C 
ATOM     46  C   UNL A   1      47.160  24.747  26.799  1.00  0.00     0.029 A 
ATOM     47  C   UNL A   1      47.112  26.180  27.084  1.00  0.00     0.049 A 
ATOM     48  H   UNL A   1      45.482  27.266  27.795  1.00  0.00     0.167 HD
ATOM     49  C   UNL A   1      41.905  29.482  29.039  1.00  0.00     0.037 A 
ATOM     50  C   UNL A   1      48.135  27.046  26.943  1.00  0.00     0.037 A 
ATOM     51  C   UNL A   1      42.959  30.460  28.996  1.00  0.00     0.049 A 
ATOM     52  C   UNL A   1      47.919  28.502  27.261  1.00  0.00     0.074 A 
ATOM     53  C   UNL A   1      42.904  31.800  29.336  1.00  0.00     0.029 A 
ATOM     54  N   UNL A   1      44.259  30.205  28.581  1.00  0.00    -0.354 N 
ATOM     55  N   UNL A   1      46.832  29.101  27.689  1.00  0.00    -0.248 NA
ATOM     56  C   UNL A   1      49.066  29.405  27.075  1.00  0.00     0.031 C 
ATOM     57  C   UNL A   1      44.158  32.366  29.085  1.00  0.00     0.029 A 
ATOM     58  C   UNL A   1      45.009  31.367  28.636  1.00  0.00     0.049 A 
ATOM     59  H   UNL A   1      44.597  29.328  28.291  1.00  0.00     0.167 HD
ATOM     60  C   UNL A   1      47.172  30.440  27.852  1.00  0.00     0.074 A 
ATOM     61  C   UNL A   1      48.566  30.565  27.478  1.00  0.00     0.031 C 
ATOM     62  C   UNL A   1      46.401  31.471  28.276  1.00  0.00     0.037 A 
BRANCH  49  63
ATOM     63  C   UNL A   1      40.534  29.928  29.464  1.00  0.00     0.058 A 
ATOM     64  C   UNL A   1      39.463  29.995  28.559  1.00  0.00     0.135 A 
ATOM     65  C   UNL A   1      40.281  30.265  30.804  1.00  0.00     0.135 A 
ATOM     66  F   UNL A   1      39.654  29.700  27.263  1.00  0.00    -0.206 F 
ATOM     67  C   UNL A   1      38.195  30.404  28.962  1.00  0.00     0.059 A 
ATOM     68  C   UNL A   1      39.016  30.653  31.234  1.00  0.00     0.059 A 
ATOM     69  F   UNL A   1      41.271  30.221  31.710  1.00  0.00    -0.206 F 
ATOM     70  C   UNL A   1      37.983  30.733  30.302  1.00  0.00     0.060 A 
BRANCH  70  71
ATOM     71  S   UNL A   1      36.333  31.263  30.810  1.00  0.00     0.124 S 
ATOM     72  O   UNL A   1      35.659  31.387  29.521  1.00  0.00    -0.237 OA
ATOM     73  O   UNL A   1      35.893  30.153  31.650  1.00  0.00    -0.237 OA
ATOM     74  O   UNL A   1      36.580  32.518  31.513  1.00  0.00    -0.744 OA
ENDBRANCH  70  71
ENDBRANCH  49  63
BRANCH  50  75
ATOM     75  C   UNL A   1      49.452  26.562  26.452  1.00  0.00     0.058 A 
ATOM     76  C   UNL A   1      49.799  26.652  25.097  1.00  0.00     0.135 A 
ATOM     77  C   UNL A   1      50.394  26.003  27.332  1.00  0.00     0.135 A 
ATOM     78  F   UNL A   1      48.929  27.167  24.216  1.00  0.00    -0.206 F 
ATOM     79  C   UNL A   1      51.028  26.197  24.627  1.00  0.00     0.059 A 
ATOM     80  C   UNL A   1      51.638  25.564  26.891  1.00  0.00     0.059 A 
ATOM     81  F   UNL A   1      50.114  25.903  28.641  1.00  0.00    -0.206 F 
ATOM     82  C   UNL A   1      51.941  25.658  25.533  1.00  0.00     0.060 A 
BRANCH  82  83
ATOM     83  S   UNL A   1      53.554  25.120  24.923  1.00  0.00     0.124 S 
ATOM     84  O   UNL A   1      54.454  25.739  25.890  1.00  0.00    -0.237 OA
ATOM     85  O   UNL A   1      53.440  23.667  24.994  1.00  0.00    -0.237 OA
ATOM     86  O   UNL A   1      53.603  25.672  23.573  1.00  0.00    -0.744 OA
ENDBRANCH  82  83
ENDBRANCH  50  75
BRANCH  62  87
ATOM     87  C   UNL A   1      47.048  32.822  28.407  1.00  0.00     0.058 A 
ATOM     88  C   UNL A   1      46.990  33.772  27.376  1.00  0.00     0.135 A 
ATOM     89  C   UNL A   1      47.658  33.200  29.615  1.00  0.00     0.135 A 
ATOM     90  F   UNL A   1      46.424  33.459  26.200  1.00  0.00    -0.206 F 
ATOM     91  C   UNL A   1      47.522  35.048  27.535  1.00  0.00     0.059 A 
ATOM     92  C   UNL A   1      48.176  34.478  29.804  1.00  0.00     0.059 A 
ATOM     93  F   UNL A   1      47.731  32.331  30.635  1.00  0.00    -0.206 F 
ATOM     94  C   UNL A   1      48.107  35.394  28.755  1.00  0.00     0.060 A 
BRANCH  94  95
ATOM     95  S   UNL A   1      48.737  37.073  28.970  1.00  0.00     0.124 S 
ATOM     96  O   UNL A   1      49.769  37.133  27.940  1.00  0.00    -0.237 OA
ATOM     97  O   UNL A   1      47.550  37.886  28.726  1.00  0.00    -0.237 OA
ATOM     98  O   UNL A   1      49.223  37.080  30.346  1.00  0.00    -0.744 OA
ENDBRANCH  94  95
ENDBRANCH  62  87
ENDBRANCH  36  37
ENDBRANCH  29  31
ENDBRANCH  28  29
ENDBRANCH  27  28
ENDBRANCH  26  27
ENDBRANCH  25  26
ENDBRANCH   1  25
TORSDOF 22
ENDMDL
MODEL 3
REMARK VINA RESULT:     -10.1      2.618      8.697
REMARK SMILES C[NH+](C)Cc1noc(C[C@@](C)(C(=O)OCCOCCOC(=O)c2ccc(-c3c4nc(c(-c5c(F)cc(S(=O)(=O)[O-])cc5F)c5ccc([nH]5)c(-c5c(F)cc(S(=O)(=O)[O-])cc5F)c5nc(c(-c6c(F)cc(S(=O)(=O)[O-])cc6F)c6ccc3[nH]6)C=C5)C=C4)cc2)c2ccccc2)n1
REMARK SMILES IDX 16 1 15 2 14 3 12 4 13 5 10 6 11 7 9 8 8 9 5 10 6 11 95 12
REMARK SMILES IDX 7 13 4 14 2 15 1 16 3 17 89 19 90 20 94 21 91 22 93 23 92 24
REMARK SMILES IDX 17 25 18 26 19 27 20 28 21 29 22 30 23 31 24 32 88 33 25 34
REMARK SMILES IDX 87 35 26 36 27 37 28 38 81 39 29 40 86 41 80 42 82 43 30 44
REMARK SMILES IDX 85 45 79 46 78 47 31 49 65 50 44 51 64 52 45 53 48 54 63 55
REMARK SMILES IDX 83 56 46 57 47 58 62 60 84 61 49 62 32 63 33 64 42 65 34 66
REMARK SMILES IDX 35 67 41 68 43 69 36 70 37 71 38 72 39 73 40 74 66 75 67 76
REMARK SMILES IDX 76 77 68 78 69 79 75 80 77 81 70 82 71 83 72 84 73 85 74 86
REMARK SMILES IDX 50 87 51 88 60 89 52 90 53 91 59 92 61 93 54 94 55 95 56 96
REMARK SMILES IDX 57 97 58 98
REMARK H PARENT 2 18 82 48 48 59
REMARK Flexibility Score: inf
ROOT
ATOM      1  C   UNL A   1      36.838  21.625  24.851  1.00  0.00     0.202 C 
ENDROOT
BRANCH   1   2
ATOM      2  C   UNL A   1      35.569  21.457  25.696  1.00  0.00     0.261 C 
BRANCH   2   3
ATOM      3  O   UNL A   1      35.034  22.706  26.166  1.00  0.00    -0.463 OA
BRANCH   3   4
ATOM      4  C   UNL A   1      34.218  23.362  25.294  1.00  0.00     0.316 C 
ATOM      5  O   UNL A   1      34.548  23.655  24.147  1.00  0.00    -0.251 OA
BRANCH   4   6
ATOM      6  C   UNL A   1      32.815  23.690  25.877  1.00  0.00     0.099 C 
ATOM      7  C   UNL A   1      32.889  23.054  27.290  1.00  0.00     0.029 C 
BRANCH   6   8
ATOM      8  C   UNL A   1      31.691  23.016  25.026  1.00  0.00     0.123 C 
BRANCH   8   9
ATOM      9  C   UNL A   1      31.913  21.581  24.705  1.00  0.00     0.228 A 
ATOM     10  C   UNL A   1      32.355  19.532  24.636  1.00  0.00     0.226 A 
ATOM     11  N   UNL A   1      32.499  19.930  23.363  1.00  0.00    -0.056 NA
ATOM     12  N   UNL A   1      31.989  20.539  25.504  1.00  0.00    -0.190 NA
ATOM     13  O   UNL A   1      32.144  21.272  23.397  1.00  0.00    -0.339 OA
BRANCH  10  14
ATOM     14  C   UNL A   1      32.687  18.147  25.112  1.00  0.00     0.344 C 
BRANCH  14  15
ATOM     15  N   UNL A   1      33.663  17.385  24.303  1.00  0.00    -0.333 N 
ATOM     16  C   UNL A   1      35.034  17.849  24.503  1.00  0.00     0.332 C 
ATOM     17  C   UNL A   1      33.561  15.941  24.492  1.00  0.00     0.332 C 
ATOM     18  H   UNL A   1      33.415  17.572  23.332  1.00  0.00     0.348 HD
ENDBRANCH  14  15
ENDBRANCH  10  14
ENDBRANCH   8   9
ENDBRANCH   6   8
BRANCH   6  19
ATOM     19  C   UNL A   1      32.605  25.227  25.988  1.00  0.00    -0.030 A 
ATOM     20  C   UNL A   1      33.683  26.133  26.037  1.00  0.00     0.005 A 
ATOM     21  C   UNL A   1      31.311  25.780  26.050  1.00  0.00     0.005 A 
ATOM     22  C   UNL A   1      33.475  27.512  26.161  1.00  0.00     0.000 A 
ATOM     23  C   UNL A   1      31.102  27.159  26.146  1.00  0.00     0.000 A 
ATOM     24  C   UNL A   1      32.185  28.026  26.211  1.00  0.00     0.000 A 
ENDBRANCH   6  19
ENDBRANCH   4   6
ENDBRANCH   3   4
ENDBRANCH   2   3
ENDBRANCH   1   2
BRANCH   1  25
ATOM     25  O   UNL A   1      37.950  20.791  25.157  1.00  0.00    -0.374 OA
BRANCH  25  26
ATOM     26  C   UNL A   1      39.118  21.409  25.701  1.00  0.00     0.202 C 
BRANCH  26  27
ATOM     27  C   UNL A   1      40.109  20.533  26.480  1.00  0.00     0.261 C 
BRANCH  27  28
ATOM     28  O   UNL A   1      40.769  19.556  25.651  1.00  0.00    -0.460 OA
BRANCH  28  29
ATOM     29  C   UNL A   1      42.070  19.333  25.964  1.00  0.00     0.338 C 
ATOM     30  O   UNL A   1      42.655  18.255  25.956  1.00  0.00    -0.246 OA
BRANCH  29  31
ATOM     31  C   UNL A   1      42.783  20.607  26.149  1.00  0.00     0.060 A 
ATOM     32  C   UNL A   1      42.859  21.137  27.445  1.00  0.00     0.016 A 
ATOM     33  C   UNL A   1      43.270  21.328  25.058  1.00  0.00     0.016 A 
ATOM     34  C   UNL A   1      43.387  22.410  27.651  1.00  0.00     0.010 A 
ATOM     35  C   UNL A   1      43.788  22.610  25.266  1.00  0.00     0.010 A 
ATOM     36  C   UNL A   1      43.820  23.170  26.556  1.00  0.00    -0.014 A 
BRANCH  36  37
ATOM     37  C   UNL A   1      44.168  24.601  26.733  1.00  0.00     0.031 A 
ATOM     38  C   UNL A   1      45.599  25.030  26.555  1.00  0.00     0.074 A 
ATOM     39  C   UNL A   1      43.225  25.506  27.052  1.00  0.00     0.049 A 
ATOM     40  N   UNL A   1      46.148  26.196  26.769  1.00  0.00    -0.248 NA
ATOM     41  C   UNL A   1      46.536  24.000  26.074  1.00  0.00     0.031 C 
ATOM     42  C   UNL A   1      41.798  25.222  27.200  1.00  0.00     0.029 A 
ATOM     43  N   UNL A   1      43.332  26.846  27.327  1.00  0.00    -0.354 N 
ATOM     44  C   UNL A   1      47.496  26.040  26.465  1.00  0.00     0.074 A 
ATOM     45  C   UNL A   1      47.684  24.662  26.069  1.00  0.00     0.031 C 
ATOM     46  C   UNL A   1      41.165  26.351  27.563  1.00  0.00     0.029 A 
ATOM     47  C   UNL A   1      42.146  27.425  27.711  1.00  0.00     0.049 A 
ATOM     48  H   UNL A   1      44.178  27.345  27.256  1.00  0.00     0.167 HD
ATOM     49  C   UNL A   1      48.485  26.965  26.512  1.00  0.00     0.037 A 
ATOM     50  C   UNL A   1      41.888  28.669  28.161  1.00  0.00     0.037 A 
ATOM     51  C   UNL A   1      48.288  28.335  26.903  1.00  0.00     0.049 A 
ATOM     52  C   UNL A   1      43.016  29.662  28.274  1.00  0.00     0.074 A 
ATOM     53  C   UNL A   1      49.224  29.353  26.971  1.00  0.00     0.029 A 
ATOM     54  N   UNL A   1      47.075  28.879  27.301  1.00  0.00    -0.354 N 
ATOM     55  N   UNL A   1      44.285  29.506  27.979  1.00  0.00    -0.248 NA
ATOM     56  C   UNL A   1      42.681  31.000  28.786  1.00  0.00     0.031 C 
ATOM     57  C   UNL A   1      48.585  30.501  27.451  1.00  0.00     0.029 A 
ATOM     58  C   UNL A   1      47.242  30.212  27.635  1.00  0.00     0.049 A 
ATOM     59  H   UNL A   1      46.222  28.389  27.339  1.00  0.00     0.167 HD
ATOM     60  C   UNL A   1      44.892  30.731  28.238  1.00  0.00     0.074 A 
ATOM     61  C   UNL A   1      43.851  31.619  28.714  1.00  0.00     0.031 C 
ATOM     62  C   UNL A   1      46.191  31.088  28.091  1.00  0.00     0.037 A 
BRANCH  49  63
ATOM     63  C   UNL A   1      49.875  26.516  26.157  1.00  0.00     0.058 A 
ATOM     64  C   UNL A   1      50.434  26.765  24.894  1.00  0.00     0.135 A 
ATOM     65  C   UNL A   1      50.671  25.854  27.106  1.00  0.00     0.135 A 
ATOM     66  F   UNL A   1      49.710  27.379  23.944  1.00  0.00    -0.206 F 
ATOM     67  C   UNL A   1      51.724  26.351  24.575  1.00  0.00     0.059 A 
ATOM     68  C   UNL A   1      51.971  25.453  26.818  1.00  0.00     0.059 A 
ATOM     69  F   UNL A   1      50.183  25.588  28.329  1.00  0.00    -0.206 F 
ATOM     70  C   UNL A   1      52.484  25.694  25.544  1.00  0.00     0.060 A 
BRANCH  70  71
ATOM     71  S   UNL A   1      54.156  25.162  25.116  1.00  0.00     0.124 S 
ATOM     72  O   UNL A   1      54.907  25.599  26.289  1.00  0.00    -0.237 OA
ATOM     73  O   UNL A   1      53.996  23.720  24.968  1.00  0.00    -0.237 OA
ATOM     74  O   UNL A   1      54.439  25.889  23.883  1.00  0.00    -0.744 OA
ENDBRANCH  70  71
ENDBRANCH  49  63
BRANCH  50  75
ATOM     75  C   UNL A   1      40.506  29.040  28.564  1.00  0.00     0.058 A 
ATOM     76  C   UNL A   1      39.535  29.368  27.607  1.00  0.00     0.135 A 
ATOM     77  C   UNL A   1      40.127  29.069  29.917  1.00  0.00     0.135 A 
ATOM     78  F   UNL A   1      39.852  29.366  26.304  1.00  0.00    -0.206 F 
ATOM     79  C   UNL A   1      38.240  29.722  27.975  1.00  0.00     0.059 A 
ATOM     80  C   UNL A   1      38.833  29.396  30.307  1.00  0.00     0.059 A 
ATOM     81  F   UNL A   1      41.017  28.754  30.871  1.00  0.00    -0.206 F 
ATOM     82  C   UNL A   1      37.898  29.729  29.327  1.00  0.00     0.060 A 
BRANCH  82  83
ATOM     83  S   UNL A   1      36.201  30.137  29.791  1.00  0.00     0.124 S 
ATOM     84  O   UNL A   1      36.041  29.369  31.021  1.00  0.00    -0.237 OA
ATOM     85  O   UNL A   1      36.265  31.587  29.946  1.00  0.00    -0.237 OA
ATOM     86  O   UNL A   1      35.421  29.670  28.649  1.00  0.00    -0.744 OA
ENDBRANCH  82  83
ENDBRANCH  50  75
BRANCH  62  87
ATOM     87  C   UNL A   1      46.567  32.510  28.403  1.00  0.00     0.058 A 
ATOM     88  C   UNL A   1      47.070  32.883  29.659  1.00  0.00     0.135 A 
ATOM     89  C   UNL A   1      46.501  33.494  27.403  1.00  0.00     0.135 A 
ATOM     90  F   UNL A   1      47.146  31.983  30.651  1.00  0.00    -0.206 F 
ATOM     91  C   UNL A   1      47.489  34.185  29.914  1.00  0.00     0.059 A 
ATOM     92  C   UNL A   1      46.937  34.796  27.629  1.00  0.00     0.059 A 
ATOM     93  F   UNL A   1      46.036  33.186  26.182  1.00  0.00    -0.206 F 
ATOM     94  C   UNL A   1      47.425  35.133  28.890  1.00  0.00     0.060 A 
BRANCH  94  95
ATOM     95  S   UNL A   1      48.031  36.803  29.216  1.00  0.00     0.124 S 
ATOM     96  O   UNL A   1      49.411  36.542  29.611  1.00  0.00    -0.237 OA
ATOM     97  O   UNL A   1      47.855  37.458  27.923  1.00  0.00    -0.237 OA
ATOM     98  O   UNL A   1      47.153  37.282  30.279  1.00  0.00    -0.744 OA
ENDBRANCH  94  95
ENDBRANCH  62  87
ENDBRANCH  36  37
ENDBRANCH  29  31
ENDBRANCH  28  29
ENDBRANCH  27  28
ENDBRANCH  26  27
ENDBRANCH  25  26
ENDBRANCH   1  25
TORSDOF 22
ENDMDL
