MODEL 1
REMARK VINA RESULT:      -9.2      0.000      0.000
REMARK SMILES NS(=O)(=O)c1ccc(-n2nc(C(=O)NCCCC(=O)OCCOCCOC(=O)c3ccc(-c4c5nc(c(-c6c(F)cc(S(=O)(=O)[O-])cc6F)c6ccc([nH]6)c(-c6c(F)cc(S(=O)(=O)[O-])cc6F)c6nc(c(-c7c(F)cc(S(=O)(=O)[O-])cc7F)c7ccc4[nH]7)C=C6)C=C5)cc3)cc2-c2ccccc2)cc1
REMARK SMILES IDX 21 1 20 2 18 3 19 4 17 5 16 6 15 7 14 8 12 9 13 10 11 12
REMARK SMILES IDX 9 13 10 14 96 15 95 16 8 17 5 18 6 19 104 20 7 21 103 22
REMARK SMILES IDX 2 23 3 24 4 25 1 26 97 29 98 30 102 31 99 32 101 33 100 34
REMARK SMILES IDX 22 35 23 36 24 37 25 38 26 39 27 40 28 41 29 42 30 43 94 44
REMARK SMILES IDX 31 45 93 46 32 47 33 48 34 49 87 50 35 51 92 52 86 53 88 54
REMARK SMILES IDX 36 55 91 56 85 57 84 58 37 60 71 61 50 62 70 63 51 64 54 65
REMARK SMILES IDX 69 66 89 67 52 68 53 69 68 71 90 72 55 73 38 74 39 75 48 76
REMARK SMILES IDX 40 77 41 78 47 79 49 80 42 81 43 82 44 83 45 84 46 85 72 86
REMARK SMILES IDX 73 87 82 88 74 89 75 90 81 91 83 92 76 93 77 94 78 95 79 96
REMARK SMILES IDX 80 97 56 98 57 99 66 100 58 101 59 102 65 103 67 104 60 105
REMARK SMILES IDX 61 106 62 107 63 108 64 109
REMARK H PARENT 14 11 1 27 1 28 88 59 54 70
REMARK Flexibility Score: inf
ROOT
ATOM      1  C   UNL A   1      39.827  26.285  28.394  1.00  0.00     0.261 C 
ENDROOT
BRANCH   1   2
ATOM      2  O   UNL A   1      40.080  27.210  27.323  1.00  0.00    -0.463 OA
BRANCH   2   3
ATOM      3  C   UNL A   1      39.436  28.398  27.349  1.00  0.00     0.305 C 
ATOM      4  O   UNL A   1      39.708  29.358  26.641  1.00  0.00    -0.252 OA
BRANCH   3   5
ATOM      5  C   UNL A   1      38.331  28.429  28.388  1.00  0.00     0.124 C 
BRANCH   5   6
ATOM      6  C   UNL A   1      37.606  29.762  28.623  1.00  0.00     0.033 C 
BRANCH   6   7
ATOM      7  C   UNL A   1      36.160  29.653  29.105  1.00  0.00     0.117 C 
BRANCH   7   8
ATOM      8  N   UNL A   1      35.391  30.841  28.799  1.00  0.00    -0.351 N 
ATOM      9  C   UNL A   1      34.299  31.113  28.001  1.00  0.00     0.271 C 
ATOM     10  O   UNL A   1      33.913  32.285  28.039  1.00  0.00    -0.267 OA
ATOM     11  H   UNL A   1      35.724  31.639  29.269  1.00  0.00     0.163 HD
BRANCH   9  12
ATOM     12  C   UNL A   1      33.614  30.078  27.195  1.00  0.00     0.151 A 
ATOM     13  N   UNL A   1      33.264  28.113  26.383  1.00  0.00    -0.232 N 
ATOM     14  N   UNL A   1      33.838  28.758  27.426  1.00  0.00    -0.162 NA
ATOM     15  C   UNL A   1      32.527  28.977  25.606  1.00  0.00     0.075 A 
ATOM     16  C   UNL A   1      32.685  30.222  26.143  1.00  0.00     0.065 A 
BRANCH  13  17
ATOM     17  C   UNL A   1      33.294  26.705  26.206  1.00  0.00     0.065 A 
ATOM     18  C   UNL A   1      33.013  24.099  25.265  1.00  0.00     0.082 A 
ATOM     19  C   UNL A   1      34.146  24.833  24.914  1.00  0.00     0.024 A 
ATOM     20  C   UNL A   1      32.028  24.655  26.094  1.00  0.00     0.024 A 
ATOM     21  C   UNL A   1      34.288  26.134  25.391  1.00  0.00     0.030 A 
ATOM     22  C   UNL A   1      32.174  25.960  26.581  1.00  0.00     0.030 A 
BRANCH  18  23
ATOM     23  S   UNL A   1      32.902  22.441  24.663  1.00  0.00     0.238 S 
ATOM     24  O   UNL A   1      33.231  22.460  23.248  1.00  0.00    -0.207 OA
ATOM     25  O   UNL A   1      31.724  21.821  25.188  1.00  0.00    -0.207 OA
BRANCH  23  26
ATOM     26  N   UNL A   1      34.203  21.641  25.378  1.00  0.00    -0.225 NA
ATOM     27  H   UNL A   1      35.021  21.715  24.773  1.00  0.00     0.137 HD
ATOM     28  H   UNL A   1      33.966  20.658  25.510  1.00  0.00     0.137 HD
ENDBRANCH  23  26
ENDBRANCH  18  23
ENDBRANCH  13  17
BRANCH  15  29
ATOM     29  C   UNL A   1      31.800  28.577  24.433  1.00  0.00     0.000 A 
ATOM     30  C   UNL A   1      32.397  28.580  23.178  1.00  0.00     0.010 A 
ATOM     31  C   UNL A   1      30.432  28.356  24.583  1.00  0.00     0.010 A 
ATOM     32  C   UNL A   1      31.596  28.413  22.064  1.00  0.00     0.001 A 
ATOM     33  C   UNL A   1      29.635  28.200  23.472  1.00  0.00     0.001 A 
ATOM     34  C   UNL A   1      30.220  28.251  22.219  1.00  0.00     0.000 A 
ENDBRANCH  15  29
ENDBRANCH   9  12
ENDBRANCH   7   8
ENDBRANCH   6   7
ENDBRANCH   5   6
ENDBRANCH   3   5
ENDBRANCH   2   3
ENDBRANCH   1   2
BRANCH   1  35
ATOM     35  C   UNL A   1      40.040  24.849  27.917  1.00  0.00     0.202 C 
BRANCH  35  36
ATOM     36  O   UNL A   1      41.385  24.504  27.578  1.00  0.00    -0.374 OA
BRANCH  36  37
ATOM     37  C   UNL A   1      42.431  24.926  28.448  1.00  0.00     0.202 C 
BRANCH  37  38
ATOM     38  C   UNL A   1      43.838  24.944  27.870  1.00  0.00     0.261 C 
BRANCH  38  39
ATOM     39  O   UNL A   1      43.822  25.281  26.489  1.00  0.00    -0.460 OA
BRANCH  39  40
ATOM     40  C   UNL A   1      44.970  25.824  26.010  1.00  0.00     0.338 C 
ATOM     41  O   UNL A   1      45.994  25.240  25.704  1.00  0.00    -0.246 OA
BRANCH  40  42
ATOM     42  C   UNL A   1      44.831  27.283  26.101  1.00  0.00     0.060 A 
ATOM     43  C   UNL A   1      45.807  27.953  26.838  1.00  0.00     0.016 A 
ATOM     44  C   UNL A   1      43.584  27.853  25.833  1.00  0.00     0.016 A 
ATOM     45  C   UNL A   1      45.420  29.062  27.560  1.00  0.00     0.010 A 
ATOM     46  C   UNL A   1      43.186  28.909  26.606  1.00  0.00     0.010 A 
ATOM     47  C   UNL A   1      44.076  29.451  27.526  1.00  0.00    -0.014 A 
BRANCH  47  48
ATOM     48  C   UNL A   1      43.639  30.589  28.316  1.00  0.00     0.031 A 
ATOM     49  C   UNL A   1      44.201  31.841  27.740  1.00  0.00     0.074 A 
ATOM     50  C   UNL A   1      42.726  30.491  29.312  1.00  0.00     0.049 A 
ATOM     51  N   UNL A   1      45.178  32.549  28.198  1.00  0.00    -0.248 NA
ATOM     52  C   UNL A   1      43.840  32.192  26.352  1.00  0.00     0.031 C 
ATOM     53  C   UNL A   1      41.933  29.325  29.705  1.00  0.00     0.029 A 
ATOM     54  N   UNL A   1      42.228  31.470  30.130  1.00  0.00    -0.354 N 
ATOM     55  C   UNL A   1      45.321  33.602  27.298  1.00  0.00     0.074 A 
ATOM     56  C   UNL A   1      44.687  33.184  26.085  1.00  0.00     0.031 C 
ATOM     57  C   UNL A   1      40.926  29.708  30.530  1.00  0.00     0.029 A 
ATOM     58  C   UNL A   1      41.050  31.123  30.830  1.00  0.00     0.049 A 
ATOM     59  H   UNL A   1      42.658  32.350  30.224  1.00  0.00     0.167 HD
ATOM     60  C   UNL A   1      45.654  34.846  27.734  1.00  0.00     0.037 A 
ATOM     61  C   UNL A   1      40.247  32.004  31.510  1.00  0.00     0.037 A 
ATOM     62  C   UNL A   1      46.187  34.775  29.073  1.00  0.00     0.049 A 
ATOM     63  C   UNL A   1      41.099  33.217  31.719  1.00  0.00     0.074 A 
ATOM     64  C   UNL A   1      47.264  34.126  29.646  1.00  0.00     0.029 A 
ATOM     65  N   UNL A   1      45.323  35.077  30.099  1.00  0.00    -0.354 N 
ATOM     66  N   UNL A   1      42.150  33.224  32.497  1.00  0.00    -0.248 NA
ATOM     67  C   UNL A   1      41.082  34.259  30.698  1.00  0.00     0.031 C 
ATOM     68  C   UNL A   1      46.784  33.665  30.906  1.00  0.00     0.029 A 
ATOM     69  C   UNL A   1      45.481  34.134  31.081  1.00  0.00     0.049 A 
ATOM     70  H   UNL A   1      44.699  35.838  30.125  1.00  0.00     0.167 HD
ATOM     71  C   UNL A   1      43.099  33.978  31.818  1.00  0.00     0.074 A 
ATOM     72  C   UNL A   1      42.360  34.652  30.752  1.00  0.00     0.031 C 
ATOM     73  C   UNL A   1      44.433  33.743  31.997  1.00  0.00     0.037 A 
BRANCH  60  74
ATOM     74  C   UNL A   1      45.098  36.129  27.158  1.00  0.00     0.058 A 
ATOM     75  C   UNL A   1      46.004  37.165  26.851  1.00  0.00     0.135 A 
ATOM     76  C   UNL A   1      43.733  36.500  27.165  1.00  0.00     0.135 A 
ATOM     77  F   UNL A   1      47.324  36.927  26.802  1.00  0.00    -0.206 F 
ATOM     78  C   UNL A   1      45.596  38.484  26.672  1.00  0.00     0.059 A 
ATOM     79  C   UNL A   1      43.301  37.800  26.933  1.00  0.00     0.059 A 
ATOM     80  F   UNL A   1      42.749  35.653  27.487  1.00  0.00    -0.206 F 
ATOM     81  C   UNL A   1      44.242  38.794  26.735  1.00  0.00     0.060 A 
BRANCH  81  82
ATOM     82  S   UNL A   1      43.724  40.510  26.603  1.00  0.00     0.124 S 
ATOM     83  O   UNL A   1      44.299  40.887  25.318  1.00  0.00    -0.237 OA
ATOM     84  O   UNL A   1      42.270  40.386  26.643  1.00  0.00    -0.237 OA
ATOM     85  O   UNL A   1      44.328  41.132  27.777  1.00  0.00    -0.744 OA
ENDBRANCH  81  82
ENDBRANCH  60  74
BRANCH  61  86
ATOM     86  C   UNL A   1      38.750  32.049  31.743  1.00  0.00     0.058 A 
ATOM     87  C   UNL A   1      38.198  31.705  33.001  1.00  0.00     0.135 A 
ATOM     88  C   UNL A   1      37.857  32.716  30.884  1.00  0.00     0.135 A 
ATOM     89  F   UNL A   1      38.917  30.987  33.878  1.00  0.00    -0.206 F 
ATOM     90  C   UNL A   1      36.927  32.136  33.429  1.00  0.00     0.059 A 
ATOM     91  C   UNL A   1      36.603  33.185  31.299  1.00  0.00     0.059 A 
ATOM     92  F   UNL A   1      38.214  33.045  29.637  1.00  0.00    -0.206 F 
ATOM     93  C   UNL A   1      36.157  32.926  32.586  1.00  0.00     0.060 A 
BRANCH  93  94
ATOM     94  S   UNL A   1      34.641  33.734  33.174  1.00  0.00     0.124 S 
ATOM     95  O   UNL A   1      34.872  33.788  34.613  1.00  0.00    -0.237 OA
ATOM     96  O   UNL A   1      34.657  35.018  32.482  1.00  0.00    -0.237 OA
ATOM     97  O   UNL A   1      33.595  32.808  32.746  1.00  0.00    -0.744 OA
ENDBRANCH  93  94
ENDBRANCH  61  86
BRANCH  73  98
ATOM     98  C   UNL A   1      44.844  32.831  33.126  1.00  0.00     0.058 A 
ATOM     99  C   UNL A   1      44.936  33.223  34.475  1.00  0.00     0.135 A 
ATOM    100  C   UNL A   1      44.978  31.466  32.848  1.00  0.00     0.135 A 
ATOM    101  F   UNL A   1      44.716  34.493  34.840  1.00  0.00    -0.206 F 
ATOM    102  C   UNL A   1      45.184  32.303  35.495  1.00  0.00     0.059 A 
ATOM    103  C   UNL A   1      45.191  30.526  33.850  1.00  0.00     0.059 A 
ATOM    104  F   UNL A   1      44.835  31.022  31.589  1.00  0.00    -0.206 F 
ATOM    105  C   UNL A   1      45.306  30.952  35.171  1.00  0.00     0.060 A 
BRANCH 105 106
ATOM    106  S   UNL A   1      45.548  29.750  36.495  1.00  0.00     0.124 S 
ATOM    107  O   UNL A   1      44.928  30.420  37.633  1.00  0.00    -0.237 OA
ATOM    108  O   UNL A   1      44.844  28.576  35.988  1.00  0.00    -0.237 OA
ATOM    109  O   UNL A   1      47.001  29.612  36.568  1.00  0.00    -0.744 OA
ENDBRANCH 105 106
ENDBRANCH  73  98
ENDBRANCH  47  48
ENDBRANCH  40  42
ENDBRANCH  39  40
ENDBRANCH  38  39
ENDBRANCH  37  38
ENDBRANCH  36  37
ENDBRANCH  35  36
ENDBRANCH   1  35
TORSDOF 25
ENDMDL
MODEL 2
REMARK VINA RESULT:      -9.0      3.698      7.059
REMARK SMILES NS(=O)(=O)c1ccc(-n2nc(C(=O)NCCCC(=O)OCCOCCOC(=O)c3ccc(-c4c5nc(c(-c6c(F)cc(S(=O)(=O)[O-])cc6F)c6ccc([nH]6)c(-c6c(F)cc(S(=O)(=O)[O-])cc6F)c6nc(c(-c7c(F)cc(S(=O)(=O)[O-])cc7F)c7ccc4[nH]7)C=C6)C=C5)cc3)cc2-c2ccccc2)cc1
REMARK SMILES IDX 21 1 20 2 18 3 19 4 17 5 16 6 15 7 14 8 12 9 13 10 11 12
REMARK SMILES IDX 9 13 10 14 96 15 95 16 8 17 5 18 6 19 104 20 7 21 103 22
REMARK SMILES IDX 2 23 3 24 4 25 1 26 97 29 98 30 102 31 99 32 101 33 100 34
REMARK SMILES IDX 22 35 23 36 24 37 25 38 26 39 27 40 28 41 29 42 30 43 94 44
REMARK SMILES IDX 31 45 93 46 32 47 33 48 34 49 87 50 35 51 92 52 86 53 88 54
REMARK SMILES IDX 36 55 91 56 85 57 84 58 37 60 71 61 50 62 70 63 51 64 54 65
REMARK SMILES IDX 69 66 89 67 52 68 53 69 68 71 90 72 55 73 38 74 39 75 48 76
REMARK SMILES IDX 40 77 41 78 47 79 49 80 42 81 43 82 44 83 45 84 46 85 72 86
REMARK SMILES IDX 73 87 82 88 74 89 75 90 81 91 83 92 76 93 77 94 78 95 79 96
REMARK SMILES IDX 80 97 56 98 57 99 66 100 58 101 59 102 65 103 67 104 60 105
REMARK SMILES IDX 61 106 62 107 63 108 64 109
REMARK H PARENT 14 11 1 27 1 28 88 59 54 70
REMARK Flexibility Score: inf
ROOT
ATOM      1  C   UNL A   1      37.872  29.213  29.072  1.00  0.00     0.261 C 
ENDROOT
BRANCH   1   2
ATOM      2  O   UNL A   1      38.782  28.318  28.410  1.00  0.00    -0.463 OA
BRANCH   2   3
ATOM      3  C   UNL A   1      39.297  27.295  29.128  1.00  0.00     0.305 C 
ATOM      4  O   UNL A   1      38.905  26.949  30.235  1.00  0.00    -0.252 OA
BRANCH   3   5
ATOM      5  C   UNL A   1      40.454  26.619  28.417  1.00  0.00     0.124 C 
BRANCH   5   6
ATOM      6  C   UNL A   1      40.122  25.573  27.344  1.00  0.00     0.033 C 
BRANCH   6   7
ATOM      7  C   UNL A   1      39.471  24.286  27.853  1.00  0.00     0.117 C 
BRANCH   7   8
ATOM      8  N   UNL A   1      39.923  23.121  27.123  1.00  0.00    -0.351 N 
ATOM      9  C   UNL A   1      39.343  22.256  26.218  1.00  0.00     0.271 C 
ATOM     10  O   UNL A   1      40.098  21.378  25.788  1.00  0.00    -0.267 OA
ATOM     11  H   UNL A   1      40.861  22.892  27.316  1.00  0.00     0.163 HD
BRANCH   9  12
ATOM     12  C   UNL A   1      37.942  22.389  25.762  1.00  0.00     0.151 A 
ATOM     13  N   UNL A   1      35.923  23.142  25.767  1.00  0.00    -0.232 N 
ATOM     14  N   UNL A   1      37.185  23.451  26.146  1.00  0.00    -0.162 NA
ATOM     15  C   UNL A   1      35.897  22.006  24.993  1.00  0.00     0.075 A 
ATOM     16  C   UNL A   1      37.181  21.546  24.924  1.00  0.00     0.065 A 
BRANCH  13  17
ATOM     17  C   UNL A   1      34.796  23.970  26.010  1.00  0.00     0.065 A 
ATOM     18  C   UNL A   1      32.323  25.249  25.936  1.00  0.00     0.082 A 
ATOM     19  C   UNL A   1      32.471  24.094  26.703  1.00  0.00     0.024 A 
ATOM     20  C   UNL A   1      33.405  25.775  25.216  1.00  0.00     0.024 A 
ATOM     21  C   UNL A   1      33.711  23.460  26.745  1.00  0.00     0.030 A 
ATOM     22  C   UNL A   1      34.654  25.142  25.265  1.00  0.00     0.030 A 
BRANCH  18  23
ATOM     23  S   UNL A   1      30.740  26.034  25.949  1.00  0.00     0.238 S 
ATOM     24  O   UNL A   1      29.783  25.095  26.508  1.00  0.00    -0.207 OA
ATOM     25  O   UNL A   1      30.536  26.719  24.710  1.00  0.00    -0.207 OA
BRANCH  23  26
ATOM     26  N   UNL A   1      30.871  27.236  27.125  1.00  0.00    -0.225 NA
ATOM     27  H   UNL A   1      31.446  26.897  27.895  1.00  0.00     0.137 HD
ATOM     28  H   UNL A   1      29.942  27.473  27.473  1.00  0.00     0.137 HD
ENDBRANCH  23  26
ENDBRANCH  18  23
ENDBRANCH  13  17
BRANCH  15  29
ATOM     29  C   UNL A   1      34.697  21.440  24.440  1.00  0.00     0.000 A 
ATOM     30  C   UNL A   1      33.955  22.118  23.481  1.00  0.00     0.010 A 
ATOM     31  C   UNL A   1      34.220  20.271  25.030  1.00  0.00     0.010 A 
ATOM     32  C   UNL A   1      32.699  21.641  23.156  1.00  0.00     0.001 A 
ATOM     33  C   UNL A   1      32.966  19.803  24.714  1.00  0.00     0.001 A 
ATOM     34  C   UNL A   1      32.205  20.503  23.794  1.00  0.00     0.000 A 
ENDBRANCH  15  29
ENDBRANCH   9  12
ENDBRANCH   7   8
ENDBRANCH   6   7
ENDBRANCH   5   6
ENDBRANCH   3   5
ENDBRANCH   2   3
ENDBRANCH   1   2
BRANCH   1  35
ATOM     35  C   UNL A   1      36.990  29.926  28.049  1.00  0.00     0.202 C 
BRANCH  35  36
ATOM     36  O   UNL A   1      35.897  29.162  27.535  1.00  0.00    -0.374 OA
BRANCH  36  37
ATOM     37  C   UNL A   1      34.679  29.839  27.240  1.00  0.00     0.202 C 
BRANCH  37  38
ATOM     38  C   UNL A   1      34.614  31.318  27.592  1.00  0.00     0.261 C 
BRANCH  38  39
ATOM     39  O   UNL A   1      34.184  31.509  28.933  1.00  0.00    -0.460 OA
BRANCH  39  40
ATOM     40  C   UNL A   1      34.162  32.799  29.358  1.00  0.00     0.338 C 
ATOM     41  O   UNL A   1      33.720  33.766  28.764  1.00  0.00    -0.246 OA
BRANCH  40  42
ATOM     42  C   UNL A   1      34.944  32.860  30.599  1.00  0.00     0.060 A 
ATOM     43  C   UNL A   1      35.223  34.134  31.092  1.00  0.00     0.016 A 
ATOM     44  C   UNL A   1      35.692  31.741  30.973  1.00  0.00     0.016 A 
ATOM     45  C   UNL A   1      36.437  34.331  31.718  1.00  0.00     0.010 A 
ATOM     46  C   UNL A   1      36.923  31.954  31.529  1.00  0.00     0.010 A 
ATOM     47  C   UNL A   1      37.324  33.253  31.817  1.00  0.00    -0.014 A 
BRANCH  47  48
ATOM     48  C   UNL A   1      38.625  33.452  32.431  1.00  0.00     0.031 A 
ATOM     49  C   UNL A   1      39.635  33.745  31.377  1.00  0.00     0.074 A 
ATOM     50  C   UNL A   1      38.808  33.517  33.772  1.00  0.00     0.049 A 
ATOM     51  N   UNL A   1      40.543  32.954  30.915  1.00  0.00    -0.248 NA
ATOM     52  C   UNL A   1      39.434  34.942  30.535  1.00  0.00     0.031 C 
ATOM     53  C   UNL A   1      37.792  33.532  34.827  1.00  0.00     0.029 A 
ATOM     54  N   UNL A   1      39.966  33.699  34.481  1.00  0.00    -0.354 N 
ATOM     55  C   UNL A   1      41.214  33.693  29.944  1.00  0.00     0.074 A 
ATOM     56  C   UNL A   1      40.336  34.761  29.573  1.00  0.00     0.031 C 
ATOM     57  C   UNL A   1      38.354  33.912  36.002  1.00  0.00     0.029 A 
ATOM     58  C   UNL A   1      39.788  34.064  35.835  1.00  0.00     0.049 A 
ATOM     59  H   UNL A   1      40.856  33.583  34.078  1.00  0.00     0.167 HD
ATOM     60  C   UNL A   1      42.556  33.556  29.775  1.00  0.00     0.037 A 
ATOM     61  C   UNL A   1      40.778  34.526  36.665  1.00  0.00     0.037 A 
ATOM     62  C   UNL A   1      43.014  32.344  30.408  1.00  0.00     0.049 A 
ATOM     63  C   UNL A   1      42.057  34.125  35.996  1.00  0.00     0.074 A 
ATOM     64  C   UNL A   1      42.711  31.005  30.255  1.00  0.00     0.029 A 
ATOM     65  N   UNL A   1      43.584  32.474  31.653  1.00  0.00    -0.354 N 
ATOM     66  N   UNL A   1      42.434  32.880  35.867  1.00  0.00    -0.248 NA
ATOM     67  C   UNL A   1      42.661  35.053  35.046  1.00  0.00     0.031 C 
ATOM     68  C   UNL A   1      42.689  30.481  31.580  1.00  0.00     0.029 A 
ATOM     69  C   UNL A   1      43.071  31.494  32.462  1.00  0.00     0.049 A 
ATOM     70  H   UNL A   1      44.246  33.153  31.918  1.00  0.00     0.167 HD
ATOM     71  C   UNL A   1      42.977  32.796  34.592  1.00  0.00     0.074 A 
ATOM     72  C   UNL A   1      43.159  34.181  34.162  1.00  0.00     0.031 C 
ATOM     73  C   UNL A   1      42.941  31.620  33.896  1.00  0.00     0.037 A 
BRANCH  60  74
ATOM     74  C   UNL A   1      43.495  34.696  29.448  1.00  0.00     0.058 A 
ATOM     75  C   UNL A   1      43.535  35.795  30.329  1.00  0.00     0.135 A 
ATOM     76  C   UNL A   1      44.123  34.899  28.196  1.00  0.00     0.135 A 
ATOM     77  F   UNL A   1      42.983  35.714  31.550  1.00  0.00    -0.206 F 
ATOM     78  C   UNL A   1      44.061  37.031  29.959  1.00  0.00     0.059 A 
ATOM     79  C   UNL A   1      44.703  36.107  27.828  1.00  0.00     0.059 A 
ATOM     80  F   UNL A   1      44.130  33.979  27.226  1.00  0.00    -0.206 F 
ATOM     81  C   UNL A   1      44.626  37.180  28.697  1.00  0.00     0.060 A 
BRANCH  81  82
ATOM     82  S   UNL A   1      45.215  38.799  28.181  1.00  0.00     0.124 S 
ATOM     83  O   UNL A   1      44.111  39.653  28.600  1.00  0.00    -0.237 OA
ATOM     84  O   UNL A   1      46.450  38.925  28.948  1.00  0.00    -0.237 OA
ATOM     85  O   UNL A   1      45.389  38.647  26.740  1.00  0.00    -0.744 OA
ENDBRANCH  81  82
ENDBRANCH  60  74
BRANCH  61  86
ATOM     86  C   UNL A   1      40.770  35.523  37.806  1.00  0.00     0.058 A 
ATOM     87  C   UNL A   1      40.232  35.178  39.070  1.00  0.00     0.135 A 
ATOM     88  C   UNL A   1      41.549  36.694  37.810  1.00  0.00     0.135 A 
ATOM     89  F   UNL A   1      39.398  34.132  39.184  1.00  0.00    -0.206 F 
ATOM     90  C   UNL A   1      40.578  35.843  40.263  1.00  0.00     0.059 A 
ATOM     91  C   UNL A   1      41.935  37.352  38.987  1.00  0.00     0.059 A 
ATOM     92  F   UNL A   1      42.068  37.183  36.678  1.00  0.00    -0.206 F 
ATOM     93  C   UNL A   1      41.479  36.899  40.216  1.00  0.00     0.060 A 
BRANCH  93  94
ATOM     94  S   UNL A   1      42.169  37.618  41.733  1.00  0.00     0.124 S 
ATOM     95  O   UNL A   1      43.288  36.721  42.004  1.00  0.00    -0.237 OA
ATOM     96  O   UNL A   1      42.529  38.972  41.327  1.00  0.00    -0.237 OA
ATOM     97  O   UNL A   1      41.055  37.524  42.672  1.00  0.00    -0.744 OA
ENDBRANCH  93  94
ENDBRANCH  61  86
BRANCH  73  98
ATOM     98  C   UNL A   1      42.532  30.372  34.638  1.00  0.00     0.058 A 
ATOM     99  C   UNL A   1      41.225  29.850  34.661  1.00  0.00     0.135 A 
ATOM    100  C   UNL A   1      43.544  29.583  35.198  1.00  0.00     0.135 A 
ATOM    101  F   UNL A   1      40.217  30.490  34.055  1.00  0.00    -0.206 F 
ATOM    102  C   UNL A   1      40.934  28.616  35.246  1.00  0.00     0.059 A 
ATOM    103  C   UNL A   1      43.285  28.336  35.755  1.00  0.00     0.059 A 
ATOM    104  F   UNL A   1      44.821  29.997  35.148  1.00  0.00    -0.206 F 
ATOM    105  C   UNL A   1      41.975  27.864  35.788  1.00  0.00     0.060 A 
BRANCH 105 106
ATOM    106  S   UNL A   1      41.615  26.234  36.474  1.00  0.00     0.124 S 
ATOM    107  O   UNL A   1      40.821  26.567  37.653  1.00  0.00    -0.237 OA
ATOM    108  O   UNL A   1      40.893  25.584  35.384  1.00  0.00    -0.237 OA
ATOM    109  O   UNL A   1      42.939  25.681  36.750  1.00  0.00    -0.744 OA
ENDBRANCH 105 106
ENDBRANCH  73  98
ENDBRANCH  47  48
ENDBRANCH  40  42
ENDBRANCH  39  40
ENDBRANCH  38  39
ENDBRANCH  37  38
ENDBRANCH  36  37
ENDBRANCH  35  36
ENDBRANCH   1  35
TORSDOF 25
ENDMDL
MODEL 3
REMARK VINA RESULT:      -8.8      5.111     10.549
REMARK SMILES NS(=O)(=O)c1ccc(-n2nc(C(=O)NCCCC(=O)OCCOCCOC(=O)c3ccc(-c4c5nc(c(-c6c(F)cc(S(=O)(=O)[O-])cc6F)c6ccc([nH]6)c(-c6c(F)cc(S(=O)(=O)[O-])cc6F)c6nc(c(-c7c(F)cc(S(=O)(=O)[O-])cc7F)c7ccc4[nH]7)C=C6)C=C5)cc3)cc2-c2ccccc2)cc1
REMARK SMILES IDX 21 1 20 2 18 3 19 4 17 5 16 6 15 7 14 8 12 9 13 10 11 12
REMARK SMILES IDX 9 13 10 14 96 15 95 16 8 17 5 18 6 19 104 20 7 21 103 22
REMARK SMILES IDX 2 23 3 24 4 25 1 26 97 29 98 30 102 31 99 32 101 33 100 34
REMARK SMILES IDX 22 35 23 36 24 37 25 38 26 39 27 40 28 41 29 42 30 43 94 44
REMARK SMILES IDX 31 45 93 46 32 47 33 48 34 49 87 50 35 51 92 52 86 53 88 54
REMARK SMILES IDX 36 55 91 56 85 57 84 58 37 60 71 61 50 62 70 63 51 64 54 65
REMARK SMILES IDX 69 66 89 67 52 68 53 69 68 71 90 72 55 73 38 74 39 75 48 76
REMARK SMILES IDX 40 77 41 78 47 79 49 80 42 81 43 82 44 83 45 84 46 85 72 86
REMARK SMILES IDX 73 87 82 88 74 89 75 90 81 91 83 92 76 93 77 94 78 95 79 96
REMARK SMILES IDX 80 97 56 98 57 99 66 100 58 101 59 102 65 103 67 104 60 105
REMARK SMILES IDX 61 106 62 107 63 108 64 109
REMARK H PARENT 14 11 1 27 1 28 88 59 54 70
REMARK Flexibility Score: inf
ROOT
ATOM      1  C   UNL A   1      46.089  23.731  25.152  1.00  0.00     0.261 C 
ENDROOT
BRANCH   1   2
ATOM      2  O   UNL A   1      46.743  23.825  26.429  1.00  0.00    -0.463 OA
BRANCH   2   3
ATOM      3  C   UNL A   1      47.528  24.902  26.658  1.00  0.00     0.305 C 
ATOM      4  O   UNL A   1      47.752  25.792  25.847  1.00  0.00    -0.252 OA
BRANCH   3   5
ATOM      5  C   UNL A   1      48.136  24.884  28.048  1.00  0.00     0.124 C 
BRANCH   5   6
ATOM      6  C   UNL A   1      48.137  26.195  28.846  1.00  0.00     0.033 C 
BRANCH   6   7
ATOM      7  C   UNL A   1      49.405  26.479  29.651  1.00  0.00     0.117 C 
BRANCH   7   8
ATOM      8  N   UNL A   1      49.159  27.377  30.760  1.00  0.00    -0.351 N 
ATOM      9  C   UNL A   1      49.041  27.225  32.126  1.00  0.00     0.271 C 
ATOM     10  O   UNL A   1      48.857  28.276  32.747  1.00  0.00    -0.267 OA
ATOM     11  H   UNL A   1      49.049  28.313  30.473  1.00  0.00     0.163 HD
BRANCH   9  12
ATOM     12  C   UNL A   1      49.170  25.916  32.804  1.00  0.00     0.151 A 
ATOM     13  N   UNL A   1      48.867  24.455  34.358  1.00  0.00    -0.232 N 
ATOM     14  N   UNL A   1      48.331  25.574  33.816  1.00  0.00    -0.162 NA
ATOM     15  C   UNL A   1      49.911  23.982  33.597  1.00  0.00     0.075 A 
ATOM     16  C   UNL A   1      50.078  24.862  32.568  1.00  0.00     0.065 A 
BRANCH  13  17
ATOM     17  C   UNL A   1      48.322  23.776  35.480  1.00  0.00     0.065 A 
ATOM     18  C   UNL A   1      47.690  21.935  37.471  1.00  0.00     0.082 A 
ATOM     19  C   UNL A   1      48.719  22.850  37.689  1.00  0.00     0.024 A 
ATOM     20  C   UNL A   1      46.966  21.943  36.269  1.00  0.00     0.024 A 
ATOM     21  C   UNL A   1      49.030  23.774  36.695  1.00  0.00     0.030 A 
ATOM     22  C   UNL A   1      47.273  22.879  35.272  1.00  0.00     0.030 A 
BRANCH  18  23
ATOM     23  S   UNL A   1      47.312  20.810  38.780  1.00  0.00     0.238 S 
ATOM     24  O   UNL A   1      45.904  20.467  38.679  1.00  0.00    -0.207 OA
ATOM     25  O   UNL A   1      47.925  21.263  39.991  1.00  0.00    -0.207 OA
BRANCH  23  26
ATOM     26  N   UNL A   1      48.113  19.386  38.362  1.00  0.00    -0.225 NA
ATOM     27  H   UNL A   1      47.515  18.586  38.569  1.00  0.00     0.137 HD
ATOM     28  H   UNL A   1      48.977  19.312  38.900  1.00  0.00     0.137 HD
ENDBRANCH  23  26
ENDBRANCH  18  23
ENDBRANCH  13  17
BRANCH  15  29
ATOM     29  C   UNL A   1      50.669  22.805  33.921  1.00  0.00     0.000 A 
ATOM     30  C   UNL A   1      50.183  21.534  33.637  1.00  0.00     0.010 A 
ATOM     31  C   UNL A   1      51.822  22.984  34.682  1.00  0.00     0.010 A 
ATOM     32  C   UNL A   1      50.837  20.440  34.173  1.00  0.00     0.001 A 
ATOM     33  C   UNL A   1      52.466  21.896  35.223  1.00  0.00     0.001 A 
ATOM     34  C   UNL A   1      51.957  20.632  34.983  1.00  0.00     0.000 A 
ENDBRANCH  15  29
ENDBRANCH   9  12
ENDBRANCH   7   8
ENDBRANCH   6   7
ENDBRANCH   5   6
ENDBRANCH   3   5
ENDBRANCH   2   3
ENDBRANCH   1   2
BRANCH   1  35
ATOM     35  C   UNL A   1      45.635  22.296  24.894  1.00  0.00     0.202 C 
BRANCH  35  36
ATOM     36  O   UNL A   1      44.719  21.755  25.849  1.00  0.00    -0.374 OA
BRANCH  36  37
ATOM     37  C   UNL A   1      43.746  20.818  25.397  1.00  0.00     0.202 C 
BRANCH  37  38
ATOM     38  C   UNL A   1      42.368  20.899  26.036  1.00  0.00     0.261 C 
BRANCH  38  39
ATOM     39  O   UNL A   1      41.694  22.091  25.654  1.00  0.00    -0.460 OA
BRANCH  39  40
ATOM     40  C   UNL A   1      40.918  22.653  26.616  1.00  0.00     0.338 C 
ATOM     41  O   UNL A   1      39.970  22.148  27.191  1.00  0.00    -0.246 OA
BRANCH  40  42
ATOM     42  C   UNL A   1      41.306  24.065  26.716  1.00  0.00     0.060 A 
ATOM     43  C   UNL A   1      42.464  24.339  27.443  1.00  0.00     0.016 A 
ATOM     44  C   UNL A   1      40.339  25.043  26.468  1.00  0.00     0.016 A 
ATOM     45  C   UNL A   1      42.503  25.507  28.176  1.00  0.00     0.010 A 
ATOM     46  C   UNL A   1      40.350  26.164  27.250  1.00  0.00     0.010 A 
ATOM     47  C   UNL A   1      41.383  26.347  28.161  1.00  0.00    -0.014 A 
BRANCH  47  48
ATOM     48  C   UNL A   1      41.387  27.558  28.963  1.00  0.00     0.031 A 
ATOM     49  C   UNL A   1      42.476  28.461  28.498  1.00  0.00     0.074 A 
ATOM     50  C   UNL A   1      40.424  27.849  29.870  1.00  0.00     0.049 A 
ATOM     51  N   UNL A   1      43.609  28.689  29.072  1.00  0.00    -0.248 NA
ATOM     52  C   UNL A   1      42.434  28.939  27.101  1.00  0.00     0.031 C 
ATOM     53  C   UNL A   1      39.180  27.122  30.136  1.00  0.00     0.029 A 
ATOM     54  N   UNL A   1      40.302  28.941  30.686  1.00  0.00    -0.354 N 
ATOM     55  C   UNL A   1      44.268  29.589  28.238  1.00  0.00     0.074 A 
ATOM     56  C   UNL A   1      43.640  29.483  26.956  1.00  0.00     0.031 C 
ATOM     57  C   UNL A   1      38.350  27.889  30.887  1.00  0.00     0.029 A 
ATOM     58  C   UNL A   1      39.024  29.119  31.263  1.00  0.00     0.049 A 
ATOM     59  H   UNL A   1      41.050  29.558  30.858  1.00  0.00     0.167 HD
ATOM     60  C   UNL A   1      45.046  30.574  28.760  1.00  0.00     0.037 A 
ATOM     61  C   UNL A   1      38.600  30.252  31.911  1.00  0.00     0.037 A 
ATOM     62  C   UNL A   1      45.364  30.278  30.135  1.00  0.00     0.049 A 
ATOM     63  C   UNL A   1      39.857  30.992  32.250  1.00  0.00     0.074 A 
ATOM     64  C   UNL A   1      46.008  29.233  30.769  1.00  0.00     0.029 A 
ATOM     65  N   UNL A   1      44.609  30.910  31.094  1.00  0.00    -0.354 N 
ATOM     66  N   UNL A   1      40.731  30.552  33.116  1.00  0.00    -0.248 NA
ATOM     67  C   UNL A   1      40.379  31.951  31.282  1.00  0.00     0.031 C 
ATOM     68  C   UNL A   1      45.258  29.010  31.959  1.00  0.00     0.029 A 
ATOM     69  C   UNL A   1      44.260  29.982  32.041  1.00  0.00     0.049 A 
ATOM     70  H   UNL A   1      44.362  31.863  31.101  1.00  0.00     0.167 HD
ATOM     71  C   UNL A   1      41.970  30.839  32.559  1.00  0.00     0.074 A 
ATOM     72  C   UNL A   1      41.692  31.768  31.465  1.00  0.00     0.031 C 
ATOM     73  C   UNL A   1      43.059  30.064  32.843  1.00  0.00     0.037 A 
BRANCH  60  74
ATOM     74  C   UNL A   1      45.138  31.975  28.198  1.00  0.00     0.058 A 
ATOM     75  C   UNL A   1      46.400  32.438  27.773  1.00  0.00     0.135 A 
ATOM     76  C   UNL A   1      44.139  32.969  28.322  1.00  0.00     0.135 A 
ATOM     77  F   UNL A   1      47.422  31.582  27.608  1.00  0.00    -0.206 F 
ATOM     78  C   UNL A   1      46.678  33.790  27.592  1.00  0.00     0.059 A 
ATOM     79  C   UNL A   1      44.380  34.318  28.091  1.00  0.00     0.059 A 
ATOM     80  F   UNL A   1      42.903  32.710  28.762  1.00  0.00    -0.206 F 
ATOM     81  C   UNL A   1      45.663  34.724  27.772  1.00  0.00     0.060 A 
BRANCH  81  82
ATOM     82  S   UNL A   1      46.044  36.476  27.635  1.00  0.00     0.124 S 
ATOM     83  O   UNL A   1      45.033  37.060  28.507  1.00  0.00    -0.237 OA
ATOM     84  O   UNL A   1      47.418  36.522  28.126  1.00  0.00    -0.237 OA
ATOM     85  O   UNL A   1      45.883  36.742  26.209  1.00  0.00    -0.744 OA
ENDBRANCH  81  82
ENDBRANCH  60  74
BRANCH  61  86
ATOM     86  C   UNL A   1      37.245  30.921  32.013  1.00  0.00     0.058 A 
ATOM     87  C   UNL A   1      36.840  31.567  33.207  1.00  0.00     0.135 A 
ATOM     88  C   UNL A   1      36.453  31.232  30.892  1.00  0.00     0.135 A 
ATOM     89  F   UNL A   1      37.456  31.286  34.366  1.00  0.00    -0.206 F 
ATOM     90  C   UNL A   1      35.843  32.561  33.247  1.00  0.00     0.059 A 
ATOM     91  C   UNL A   1      35.481  32.242  30.899  1.00  0.00     0.059 A 
ATOM     92  F   UNL A   1      36.672  30.648  29.708  1.00  0.00    -0.206 F 
ATOM     93  C   UNL A   1      35.205  32.933  32.070  1.00  0.00     0.060 A 
BRANCH  93  94
ATOM     94  S   UNL A   1      34.116  34.383  32.004  1.00  0.00     0.124 S 
ATOM     95  O   UNL A   1      33.039  33.987  32.906  1.00  0.00    -0.237 OA
ATOM     96  O   UNL A   1      34.971  35.465  32.478  1.00  0.00    -0.237 OA
ATOM     97  O   UNL A   1      33.752  34.450  30.591  1.00  0.00    -0.744 OA
ENDBRANCH  93  94
ENDBRANCH  61  86
BRANCH  73  98
ATOM     98  C   UNL A   1      42.937  29.057  33.960  1.00  0.00     0.058 A 
ATOM     99  C   UNL A   1      43.039  29.368  35.329  1.00  0.00     0.135 A 
ATOM    100  C   UNL A   1      42.525  27.761  33.629  1.00  0.00     0.135 A 
ATOM    101  F   UNL A   1      43.324  30.613  35.733  1.00  0.00    -0.206 F 
ATOM    102  C   UNL A   1      42.777  28.422  36.321  1.00  0.00     0.059 A 
ATOM    103  C   UNL A   1      42.225  26.811  34.600  1.00  0.00     0.059 A 
ATOM    104  F   UNL A   1      42.346  27.423  32.341  1.00  0.00    -0.206 F 
ATOM    105  C   UNL A   1      42.366  27.144  35.945  1.00  0.00     0.060 A 
BRANCH 105 106
ATOM    106  S   UNL A   1      41.951  25.942  37.225  1.00  0.00     0.124 S 
ATOM    107  O   UNL A   1      42.218  24.675  36.553  1.00  0.00    -0.237 OA
ATOM    108  O   UNL A   1      42.871  26.297  38.302  1.00  0.00    -0.237 OA
ATOM    109  O   UNL A   1      40.542  26.216  37.505  1.00  0.00    -0.744 OA
ENDBRANCH 105 106
ENDBRANCH  73  98
ENDBRANCH  47  48
ENDBRANCH  40  42
ENDBRANCH  39  40
ENDBRANCH  38  39
ENDBRANCH  37  38
ENDBRANCH  36  37
ENDBRANCH  35  36
ENDBRANCH   1  35
TORSDOF 25
ENDMDL
