MODEL 1
REMARK VINA RESULT:     -10.6      0.000      0.000
REMARK SMILES O=C(COc1cc(-c2ccncc2)nc(Nc2ccccc2Br)n1)OCCOCCOC(=O)c1ccc(-c2c3nc(c(-c4c(F)cc(S(=O)(=O)[O-])cc4F)c4ccc([nH]4)c(-c4c(F)cc(S(=O)(=O)[O-])cc4F)c4nc(c(-c5c(F)cc(S(=O)(=O)[O-])cc5F)c5ccc2[nH]5)C=C4)C=C3)cc1
REMARK SMILES IDX 27 1 26 2 25 3 2 4 1 5 3 6 4 7 5 8 6 9 24 10 7 11 15 12
REMARK SMILES IDX 14 13 8 14 9 15 13 16 10 17 12 18 11 19 16 20 17 22 18 23
REMARK SMILES IDX 22 24 19 25 21 26 23 27 20 28 28 29 29 30 30 31 31 32 32 33
REMARK SMILES IDX 33 34 34 35 35 36 99 37 36 38 98 39 37 40 38 41 39 42 92 43
REMARK SMILES IDX 40 44 97 45 91 46 93 47 41 48 96 49 90 50 89 51 42 53 76 54
REMARK SMILES IDX 55 55 75 56 56 57 59 58 74 59 94 60 57 61 58 62 73 64 95 65
REMARK SMILES IDX 60 66 43 67 44 68 53 69 45 70 46 71 52 72 54 73 47 74 48 75
REMARK SMILES IDX 49 76 50 77 51 78 77 79 78 80 87 81 79 82 80 83 86 84 88 85
REMARK SMILES IDX 81 86 82 87 83 88 84 89 85 90 61 91 62 92 71 93 63 94 64 95
REMARK SMILES IDX 70 96 72 97 65 98 66 99 67 100 68 101 69 102
REMARK H PARENT 16 21 93 52 59 63
REMARK Flexibility Score: inf
ROOT
ATOM      1  C   UNL A   1      30.624  26.492  25.346  1.00  0.00     0.202 C 
ENDROOT
BRANCH   1   2
ATOM      2  C   UNL A   1      30.477  25.034  24.915  1.00  0.00     0.261 C 
BRANCH   2   3
ATOM      3  O   UNL A   1      31.463  24.143  25.466  1.00  0.00    -0.461 OA
BRANCH   3   4
ATOM      4  C   UNL A   1      31.432  23.645  26.726  1.00  0.00     0.344 C 
ATOM      5  O   UNL A   1      30.352  23.372  27.249  1.00  0.00    -0.248 OA
BRANCH   4   6
ATOM      6  C   UNL A   1      32.738  23.435  27.480  1.00  0.00     0.353 C 
BRANCH   6   7
ATOM      7  O   UNL A   1      33.089  22.098  27.778  1.00  0.00    -0.466 OA
BRANCH   7   8
ATOM      8  C   UNL A   1      33.587  21.454  26.689  1.00  0.00     0.219 A 
ATOM      9  C   UNL A   1      33.082  20.283  26.209  1.00  0.00     0.097 A 
ATOM     10  N   UNL A   1      34.629  22.066  26.155  1.00  0.00    -0.177 NA
ATOM     11  C   UNL A   1      33.819  19.673  25.220  1.00  0.00     0.080 A 
ATOM     12  C   UNL A   1      35.261  21.462  25.147  1.00  0.00     0.231 A 
ATOM     13  N   UNL A   1      34.912  20.253  24.669  1.00  0.00    -0.212 NA
BRANCH  11  14
ATOM     14  C   UNL A   1      33.496  18.277  24.884  1.00  0.00     0.004 A 
ATOM     15  C   UNL A   1      32.637  17.511  25.689  1.00  0.00     0.030 A 
ATOM     16  C   UNL A   1      34.194  17.613  23.871  1.00  0.00     0.030 A 
ATOM     17  C   UNL A   1      32.545  16.144  25.474  1.00  0.00     0.111 A 
ATOM     18  C   UNL A   1      34.039  16.242  23.734  1.00  0.00     0.111 A 
ATOM     19  N   UNL A   1      33.234  15.493  24.516  1.00  0.00    -0.265 NA
ENDBRANCH  11  14
BRANCH  12  20
ATOM     20  N   UNL A   1      36.313  22.167  24.555  1.00  0.00    -0.323 N 
ATOM     21  H   UNL A   1      36.220  22.432  23.611  1.00  0.00     0.170 HD
BRANCH  20  22
ATOM     22  C   UNL A   1      37.500  22.521  25.232  1.00  0.00     0.055 A 
ATOM     23  C   UNL A   1      37.631  23.835  25.712  1.00  0.00     0.027 A 
ATOM     24  C   UNL A   1      38.472  21.576  25.632  1.00  0.00     0.041 A 
ATOM     25  C   UNL A   1      38.679  24.190  26.571  1.00  0.00     0.002 A 
ATOM     26  C   UNL A   1      39.517  21.933  26.493  1.00  0.00     0.018 A 
ATOM     27  Br  UNL A   1      38.474  19.782  24.983  1.00  0.00    -0.049 Br
ATOM     28  C   UNL A   1      39.615  23.239  26.968  1.00  0.00     0.001 A 
ENDBRANCH  20  22
ENDBRANCH  12  20
ENDBRANCH   7   8
ENDBRANCH   6   7
ENDBRANCH   4   6
ENDBRANCH   3   4
ENDBRANCH   2   3
ENDBRANCH   1   2
BRANCH   1  29
ATOM     29  O   UNL A   1      31.875  26.926  25.865  1.00  0.00    -0.374 OA
BRANCH  29  30
ATOM     30  C   UNL A   1      32.681  27.795  25.064  1.00  0.00     0.202 C 
BRANCH  30  31
ATOM     31  C   UNL A   1      34.132  28.059  25.467  1.00  0.00     0.261 C 
BRANCH  31  32
ATOM     32  O   UNL A   1      34.268  28.333  26.868  1.00  0.00    -0.460 OA
BRANCH  32  33
ATOM     33  C   UNL A   1      34.507  29.633  27.157  1.00  0.00     0.338 C 
ATOM     34  O   UNL A   1      33.750  30.578  26.971  1.00  0.00    -0.246 OA
BRANCH  33  35
ATOM     35  C   UNL A   1      35.736  29.747  27.959  1.00  0.00     0.060 A 
ATOM     36  C   UNL A   1      36.905  30.135  27.290  1.00  0.00     0.016 A 
ATOM     37  C   UNL A   1      35.762  29.430  29.319  1.00  0.00     0.016 A 
ATOM     38  C   UNL A   1      38.121  30.120  27.957  1.00  0.00     0.010 A 
ATOM     39  C   UNL A   1      36.988  29.408  29.987  1.00  0.00     0.010 A 
ATOM     40  C   UNL A   1      38.174  29.698  29.291  1.00  0.00    -0.014 A 
BRANCH  40  41
ATOM     41  C   UNL A   1      39.493  29.367  29.875  1.00  0.00     0.031 A 
ATOM     42  C   UNL A   1      39.987  30.185  31.038  1.00  0.00     0.074 A 
ATOM     43  C   UNL A   1      40.192  28.311  29.425  1.00  0.00     0.049 A 
ATOM     44  N   UNL A   1      41.097  30.073  31.718  1.00  0.00    -0.248 NA
ATOM     45  C   UNL A   1      39.112  31.279  31.494  1.00  0.00     0.031 C 
ATOM     46  C   UNL A   1      39.782  27.433  28.328  1.00  0.00     0.029 A 
ATOM     47  N   UNL A   1      41.392  27.797  29.839  1.00  0.00    -0.354 N 
ATOM     48  C   UNL A   1      41.049  31.071  32.684  1.00  0.00     0.074 A 
ATOM     49  C   UNL A   1      39.827  31.813  32.472  1.00  0.00     0.031 C 
ATOM     50  C   UNL A   1      40.725  26.494  28.148  1.00  0.00     0.029 A 
ATOM     51  C   UNL A   1      41.812  26.719  29.098  1.00  0.00     0.049 A 
ATOM     52  H   UNL A   1      41.904  28.164  30.595  1.00  0.00     0.167 HD
ATOM     53  C   UNL A   1      41.937  31.332  33.672  1.00  0.00     0.037 A 
ATOM     54  C   UNL A   1      42.956  26.011  29.171  1.00  0.00     0.037 A 
ATOM     55  C   UNL A   1      43.154  30.589  33.867  1.00  0.00     0.049 A 
ATOM     56  C   UNL A   1      43.959  26.361  30.240  1.00  0.00     0.074 A 
ATOM     57  C   UNL A   1      44.133  30.774  34.827  1.00  0.00     0.029 A 
ATOM     58  N   UNL A   1      43.559  29.516  33.084  1.00  0.00    -0.354 N 
ATOM     59  N   UNL A   1      43.898  27.301  31.154  1.00  0.00    -0.248 NA
ATOM     60  C   UNL A   1      45.179  25.545  30.297  1.00  0.00     0.031 C 
ATOM     61  C   UNL A   1      45.150  29.841  34.597  1.00  0.00     0.029 A 
ATOM     62  C   UNL A   1      44.779  29.038  33.529  1.00  0.00     0.049 A 
ATOM     63  H   UNL A   1      43.052  29.150  32.324  1.00  0.00     0.167 HD
ATOM     64  C   UNL A   1      45.059  27.173  31.911  1.00  0.00     0.074 A 
ATOM     65  C   UNL A   1      45.790  26.051  31.360  1.00  0.00     0.031 C 
ATOM     66  C   UNL A   1      45.485  27.915  32.964  1.00  0.00     0.037 A 
BRANCH  53  67
ATOM     67  C   UNL A   1      41.628  32.471  34.607  1.00  0.00     0.058 A 
ATOM     68  C   UNL A   1      42.109  33.769  34.370  1.00  0.00     0.135 A 
ATOM     69  C   UNL A   1      40.814  32.273  35.733  1.00  0.00     0.135 A 
ATOM     70  F   UNL A   1      42.910  34.012  33.321  1.00  0.00    -0.206 F 
ATOM     71  C   UNL A   1      41.810  34.824  35.226  1.00  0.00     0.059 A 
ATOM     72  C   UNL A   1      40.478  33.319  36.588  1.00  0.00     0.059 A 
ATOM     73  F   UNL A   1      40.332  31.050  36.013  1.00  0.00    -0.206 F 
ATOM     74  C   UNL A   1      40.991  34.590  36.331  1.00  0.00     0.060 A 
BRANCH  74  75
ATOM     75  S   UNL A   1      40.597  35.975  37.419  1.00  0.00     0.124 S 
ATOM     76  O   UNL A   1      39.621  36.708  36.618  1.00  0.00    -0.237 OA
ATOM     77  O   UNL A   1      40.069  35.302  38.601  1.00  0.00    -0.237 OA
ATOM     78  O   UNL A   1      41.883  36.640  37.603  1.00  0.00    -0.744 OA
ENDBRANCH  74  75
ENDBRANCH  53  67
BRANCH  54  79
ATOM     79  C   UNL A   1      43.221  24.921  28.194  1.00  0.00     0.058 A 
ATOM     80  C   UNL A   1      43.760  25.188  26.927  1.00  0.00     0.135 A 
ATOM     81  C   UNL A   1      42.929  23.585  28.511  1.00  0.00     0.135 A 
ATOM     82  F   UNL A   1      44.053  26.450  26.574  1.00  0.00    -0.206 F 
ATOM     83  C   UNL A   1      43.976  24.174  25.999  1.00  0.00     0.059 A 
ATOM     84  C   UNL A   1      43.164  22.551  27.611  1.00  0.00     0.059 A 
ATOM     85  F   UNL A   1      42.428  23.272  29.716  1.00  0.00    -0.206 F 
ATOM     86  C   UNL A   1      43.674  22.858  26.351  1.00  0.00     0.060 A 
BRANCH  86  87
ATOM     87  S   UNL A   1      43.986  21.544  25.152  1.00  0.00     0.124 S 
ATOM     88  O   UNL A   1      43.789  22.248  23.890  1.00  0.00    -0.237 OA
ATOM     89  O   UNL A   1      45.360  21.165  25.467  1.00  0.00    -0.237 OA
ATOM     90  O   UNL A   1      42.977  20.543  25.482  1.00  0.00    -0.744 OA
ENDBRANCH  86  87
ENDBRANCH  54  79
BRANCH  66  91
ATOM     91  C   UNL A   1      46.783  27.509  33.608  1.00  0.00     0.058 A 
ATOM     92  C   UNL A   1      46.831  26.573  34.653  1.00  0.00     0.135 A 
ATOM     93  C   UNL A   1      47.999  28.049  33.155  1.00  0.00     0.135 A 
ATOM     94  F   UNL A   1      45.699  26.028  35.125  1.00  0.00    -0.206 F 
ATOM     95  C   UNL A   1      48.034  26.217  35.254  1.00  0.00     0.059 A 
ATOM     96  C   UNL A   1      49.216  27.682  33.720  1.00  0.00     0.059 A 
ATOM     97  F   UNL A   1      48.011  28.937  32.149  1.00  0.00    -0.206 F 
ATOM     98  C   UNL A   1      49.222  26.780  34.783  1.00  0.00     0.060 A 
BRANCH  98  99
ATOM     99  S   UNL A   1      50.775  26.310  35.571  1.00  0.00     0.124 S 
ATOM    100  O   UNL A   1      51.210  27.579  36.143  1.00  0.00    -0.237 OA
ATOM    101  O   UNL A   1      50.345  25.295  36.529  1.00  0.00    -0.237 OA
ATOM    102  O   UNL A   1      51.581  25.812  34.461  1.00  0.00    -0.744 OA
ENDBRANCH  98  99
ENDBRANCH  66  91
ENDBRANCH  40  41
ENDBRANCH  33  35
ENDBRANCH  32  33
ENDBRANCH  31  32
ENDBRANCH  30  31
ENDBRANCH  29  30
ENDBRANCH   1  29
TORSDOF 22
ENDMDL
MODEL 2
REMARK VINA RESULT:     -10.2      3.363      9.130
REMARK SMILES O=C(COc1cc(-c2ccncc2)nc(Nc2ccccc2Br)n1)OCCOCCOC(=O)c1ccc(-c2c3nc(c(-c4c(F)cc(S(=O)(=O)[O-])cc4F)c4ccc([nH]4)c(-c4c(F)cc(S(=O)(=O)[O-])cc4F)c4nc(c(-c5c(F)cc(S(=O)(=O)[O-])cc5F)c5ccc2[nH]5)C=C4)C=C3)cc1
REMARK SMILES IDX 27 1 26 2 25 3 2 4 1 5 3 6 4 7 5 8 6 9 24 10 7 11 15 12
REMARK SMILES IDX 14 13 8 14 9 15 13 16 10 17 12 18 11 19 16 20 17 22 18 23
REMARK SMILES IDX 22 24 19 25 21 26 23 27 20 28 28 29 29 30 30 31 31 32 32 33
REMARK SMILES IDX 33 34 34 35 35 36 99 37 36 38 98 39 37 40 38 41 39 42 92 43
REMARK SMILES IDX 40 44 97 45 91 46 93 47 41 48 96 49 90 50 89 51 42 53 76 54
REMARK SMILES IDX 55 55 75 56 56 57 59 58 74 59 94 60 57 61 58 62 73 64 95 65
REMARK SMILES IDX 60 66 43 67 44 68 53 69 45 70 46 71 52 72 54 73 47 74 48 75
REMARK SMILES IDX 49 76 50 77 51 78 77 79 78 80 87 81 79 82 80 83 86 84 88 85
REMARK SMILES IDX 81 86 82 87 83 88 84 89 85 90 61 91 62 92 71 93 63 94 64 95
REMARK SMILES IDX 70 96 72 97 65 98 66 99 67 100 68 101 69 102
REMARK H PARENT 16 21 93 52 59 63
REMARK Flexibility Score: inf
ROOT
ATOM      1  C   UNL A   1      42.654  22.805  27.499  1.00  0.00     0.202 C 
ENDROOT
BRANCH   1   2
ATOM      2  C   UNL A   1      41.438  21.952  27.853  1.00  0.00     0.261 C 
BRANCH   2   3
ATOM      3  O   UNL A   1      40.578  21.642  26.743  1.00  0.00    -0.461 OA
BRANCH   3   4
ATOM      4  C   UNL A   1      39.401  22.264  26.484  1.00  0.00     0.344 C 
ATOM      5  O   UNL A   1      39.174  23.370  26.972  1.00  0.00    -0.248 OA
BRANCH   4   6
ATOM      6  C   UNL A   1      38.374  21.579  25.592  1.00  0.00     0.353 C 
BRANCH   6   7
ATOM      7  O   UNL A   1      37.661  22.407  24.696  1.00  0.00    -0.466 OA
BRANCH   7   8
ATOM      8  C   UNL A   1      36.326  22.398  24.957  1.00  0.00     0.219 A 
ATOM      9  C   UNL A   1      35.565  23.525  25.032  1.00  0.00     0.097 A 
ATOM     10  N   UNL A   1      35.845  21.183  25.155  1.00  0.00    -0.177 NA
ATOM     11  C   UNL A   1      34.279  23.351  25.490  1.00  0.00     0.080 A 
ATOM     12  C   UNL A   1      34.568  21.070  25.526  1.00  0.00     0.231 A 
ATOM     13  N   UNL A   1      33.758  22.125  25.736  1.00  0.00    -0.212 NA
BRANCH  11  14
ATOM     14  C   UNL A   1      33.519  24.549  25.881  1.00  0.00     0.004 A 
ATOM     15  C   UNL A   1      32.156  24.475  26.213  1.00  0.00     0.030 A 
ATOM     16  C   UNL A   1      34.080  25.821  25.734  1.00  0.00     0.030 A 
ATOM     17  C   UNL A   1      31.426  25.646  26.345  1.00  0.00     0.111 A 
ATOM     18  C   UNL A   1      33.268  26.935  25.884  1.00  0.00     0.111 A 
ATOM     19  N   UNL A   1      31.953  26.875  26.180  1.00  0.00    -0.265 NA
ENDBRANCH  11  14
BRANCH  12  20
ATOM     20  N   UNL A   1      34.067  19.771  25.656  1.00  0.00    -0.323 N 
ATOM     21  H   UNL A   1      34.125  19.338  26.539  1.00  0.00     0.170 HD
BRANCH  20  22
ATOM     22  C   UNL A   1      33.482  19.045  24.596  1.00  0.00     0.055 A 
ATOM     23  C   UNL A   1      32.556  19.700  23.767  1.00  0.00     0.027 A 
ATOM     24  C   UNL A   1      33.927  17.764  24.199  1.00  0.00     0.041 A 
ATOM     25  C   UNL A   1      32.104  19.110  22.579  1.00  0.00     0.002 A 
ATOM     26  C   UNL A   1      33.476  17.178  23.010  1.00  0.00     0.018 A 
ATOM     27  Br  UNL A   1      35.109  16.720  25.273  1.00  0.00    -0.049 Br
ATOM     28  C   UNL A   1      32.571  17.855  22.197  1.00  0.00     0.001 A 
ENDBRANCH  20  22
ENDBRANCH  12  20
ENDBRANCH   7   8
ENDBRANCH   6   7
ENDBRANCH   4   6
ENDBRANCH   3   4
ENDBRANCH   2   3
ENDBRANCH   1   2
BRANCH   1  29
ATOM     29  O   UNL A   1      43.249  22.643  26.217  1.00  0.00    -0.374 OA
BRANCH  29  30
ATOM     30  C   UNL A   1      43.141  23.714  25.275  1.00  0.00     0.202 C 
BRANCH  30  31
ATOM     31  C   UNL A   1      43.773  25.068  25.601  1.00  0.00     0.261 C 
BRANCH  31  32
ATOM     32  O   UNL A   1      42.980  26.167  25.131  1.00  0.00    -0.460 OA
BRANCH  32  33
ATOM     33  C   UNL A   1      41.779  26.284  25.743  1.00  0.00     0.338 C 
ATOM     34  O   UNL A   1      40.716  25.803  25.371  1.00  0.00    -0.246 OA
BRANCH  33  35
ATOM     35  C   UNL A   1      41.955  26.886  27.075  1.00  0.00     0.060 A 
ATOM     36  C   UNL A   1      41.186  26.361  28.123  1.00  0.00     0.016 A 
ATOM     37  C   UNL A   1      42.808  27.971  27.288  1.00  0.00     0.016 A 
ATOM     38  C   UNL A   1      41.198  26.977  29.365  1.00  0.00     0.010 A 
ATOM     39  C   UNL A   1      42.813  28.595  28.536  1.00  0.00     0.010 A 
ATOM     40  C   UNL A   1      41.966  28.132  29.558  1.00  0.00    -0.014 A 
BRANCH  40  41
ATOM     41  C   UNL A   1      41.710  28.958  30.760  1.00  0.00     0.031 A 
ATOM     42  C   UNL A   1      40.544  29.909  30.740  1.00  0.00     0.074 A 
ATOM     43  C   UNL A   1      42.458  28.801  31.865  1.00  0.00     0.049 A 
ATOM     44  N   UNL A   1      40.118  30.718  31.673  1.00  0.00    -0.248 NA
ATOM     45  C   UNL A   1      39.751  29.954  29.499  1.00  0.00     0.031 C 
ATOM     46  C   UNL A   1      43.587  27.881  31.998  1.00  0.00     0.029 A 
ATOM     47  N   UNL A   1      42.375  29.412  33.089  1.00  0.00    -0.354 N 
ATOM     48  C   UNL A   1      39.007  31.359  31.138  1.00  0.00     0.074 A 
ATOM     49  C   UNL A   1      38.853  30.885  29.781  1.00  0.00     0.031 C 
ATOM     50  C   UNL A   1      44.101  27.998  33.234  1.00  0.00     0.029 A 
ATOM     51  C   UNL A   1      43.353  29.016  33.967  1.00  0.00     0.049 A 
ATOM     52  H   UNL A   1      41.680  30.072  33.315  1.00  0.00     0.167 HD
ATOM     53  C   UNL A   1      38.178  32.248  31.733  1.00  0.00     0.037 A 
ATOM     54  C   UNL A   1      43.622  29.446  35.215  1.00  0.00     0.037 A 
ATOM     55  C   UNL A   1      38.349  32.717  33.083  1.00  0.00     0.049 A 
ATOM     56  C   UNL A   1      42.721  30.485  35.835  1.00  0.00     0.074 A 
ATOM     57  C   UNL A   1      37.577  33.627  33.784  1.00  0.00     0.029 A 
ATOM     58  N   UNL A   1      39.364  32.310  33.938  1.00  0.00    -0.354 N 
ATOM     59  N   UNL A   1      41.668  31.076  35.322  1.00  0.00    -0.248 NA
ATOM     60  C   UNL A   1      43.038  30.903  37.207  1.00  0.00     0.031 C 
ATOM     61  C   UNL A   1      38.153  33.804  35.047  1.00  0.00     0.029 A 
ATOM     62  C   UNL A   1      39.249  32.961  35.155  1.00  0.00     0.049 A 
ATOM     63  H   UNL A   1      40.063  31.655  33.712  1.00  0.00     0.167 HD
ATOM     64  C   UNL A   1      41.181  31.918  36.317  1.00  0.00     0.074 A 
ATOM     65  C   UNL A   1      42.043  31.740  37.468  1.00  0.00     0.031 C 
ATOM     66  C   UNL A   1      40.119  32.763  36.286  1.00  0.00     0.037 A 
BRANCH  53  67
ATOM     67  C   UNL A   1      37.024  32.777  30.925  1.00  0.00     0.058 A 
ATOM     68  C   UNL A   1      35.732  32.239  31.047  1.00  0.00     0.135 A 
ATOM     69  C   UNL A   1      37.201  33.855  30.043  1.00  0.00     0.135 A 
ATOM     70  F   UNL A   1      35.509  31.192  31.857  1.00  0.00    -0.206 F 
ATOM     71  C   UNL A   1      34.662  32.738  30.309  1.00  0.00     0.059 A 
ATOM     72  C   UNL A   1      36.140  34.389  29.317  1.00  0.00     0.059 A 
ATOM     73  F   UNL A   1      38.416  34.403  29.881  1.00  0.00    -0.206 F 
ATOM     74  C   UNL A   1      34.876  33.816  29.450  1.00  0.00     0.060 A 
BRANCH  74  75
ATOM     75  S   UNL A   1      33.472  34.464  28.517  1.00  0.00     0.124 S 
ATOM     76  O   UNL A   1      33.040  33.280  27.780  1.00  0.00    -0.237 OA
ATOM     77  O   UNL A   1      32.575  34.913  29.577  1.00  0.00    -0.237 OA
ATOM     78  O   UNL A   1      34.062  35.525  27.707  1.00  0.00    -0.744 OA
ENDBRANCH  74  75
ENDBRANCH  53  67
BRANCH  54  79
ATOM     79  C   UNL A   1      44.800  28.913  35.950  1.00  0.00     0.058 A 
ATOM     80  C   UNL A   1      46.038  29.572  35.926  1.00  0.00     0.135 A 
ATOM     81  C   UNL A   1      44.710  27.721  36.686  1.00  0.00     0.135 A 
ATOM     82  F   UNL A   1      46.177  30.714  35.233  1.00  0.00    -0.206 F 
ATOM     83  C   UNL A   1      47.151  29.057  36.583  1.00  0.00     0.059 A 
ATOM     84  C   UNL A   1      45.801  27.202  37.376  1.00  0.00     0.059 A 
ATOM     85  F   UNL A   1      43.545  27.059  36.756  1.00  0.00    -0.206 F 
ATOM     86  C   UNL A   1      47.022  27.869  37.305  1.00  0.00     0.060 A 
BRANCH  86  87
ATOM     87  S   UNL A   1      48.463  27.224  38.180  1.00  0.00     0.124 S 
ATOM     88  O   UNL A   1      47.879  26.840  39.461  1.00  0.00    -0.237 OA
ATOM     89  O   UNL A   1      48.881  26.127  37.313  1.00  0.00    -0.237 OA
ATOM     90  O   UNL A   1      49.372  28.366  38.217  1.00  0.00    -0.744 OA
ENDBRANCH  86  87
ENDBRANCH  54  79
BRANCH  66  91
ATOM     91  C   UNL A   1      39.815  33.528  37.546  1.00  0.00     0.058 A 
ATOM     92  C   UNL A   1      38.868  33.074  38.478  1.00  0.00     0.135 A 
ATOM     93  C   UNL A   1      40.499  34.721  37.834  1.00  0.00     0.135 A 
ATOM     94  F   UNL A   1      38.185  31.940  38.250  1.00  0.00    -0.206 F 
ATOM     95  C   UNL A   1      38.580  33.797  39.631  1.00  0.00     0.059 A 
ATOM     96  C   UNL A   1      40.250  35.442  38.997  1.00  0.00     0.059 A 
ATOM     97  F   UNL A   1      41.424  35.192  36.985  1.00  0.00    -0.206 F 
ATOM     98  C   UNL A   1      39.274  34.983  39.880  1.00  0.00     0.060 A 
BRANCH  98  99
ATOM     99  S   UNL A   1      38.892  35.910  41.380  1.00  0.00     0.124 S 
ATOM    100  O   UNL A   1      37.571  35.389  41.718  1.00  0.00    -0.237 OA
ATOM    101  O   UNL A   1      39.977  35.519  42.275  1.00  0.00    -0.237 OA
ATOM    102  O   UNL A   1      38.924  37.300  40.936  1.00  0.00    -0.744 OA
ENDBRANCH  98  99
ENDBRANCH  66  91
ENDBRANCH  40  41
ENDBRANCH  33  35
ENDBRANCH  32  33
ENDBRANCH  31  32
ENDBRANCH  30  31
ENDBRANCH  29  30
ENDBRANCH   1  29
TORSDOF 22
ENDMDL
MODEL 3
REMARK VINA RESULT:     -10.1      5.561     11.349
REMARK SMILES O=C(COc1cc(-c2ccncc2)nc(Nc2ccccc2Br)n1)OCCOCCOC(=O)c1ccc(-c2c3nc(c(-c4c(F)cc(S(=O)(=O)[O-])cc4F)c4ccc([nH]4)c(-c4c(F)cc(S(=O)(=O)[O-])cc4F)c4nc(c(-c5c(F)cc(S(=O)(=O)[O-])cc5F)c5ccc2[nH]5)C=C4)C=C3)cc1
REMARK SMILES IDX 27 1 26 2 25 3 2 4 1 5 3 6 4 7 5 8 6 9 24 10 7 11 15 12
REMARK SMILES IDX 14 13 8 14 9 15 13 16 10 17 12 18 11 19 16 20 17 22 18 23
REMARK SMILES IDX 22 24 19 25 21 26 23 27 20 28 28 29 29 30 30 31 31 32 32 33
REMARK SMILES IDX 33 34 34 35 35 36 99 37 36 38 98 39 37 40 38 41 39 42 92 43
REMARK SMILES IDX 40 44 97 45 91 46 93 47 41 48 96 49 90 50 89 51 42 53 76 54
REMARK SMILES IDX 55 55 75 56 56 57 59 58 74 59 94 60 57 61 58 62 73 64 95 65
REMARK SMILES IDX 60 66 43 67 44 68 53 69 45 70 46 71 52 72 54 73 47 74 48 75
REMARK SMILES IDX 49 76 50 77 51 78 77 79 78 80 87 81 79 82 80 83 86 84 88 85
REMARK SMILES IDX 81 86 82 87 83 88 84 89 85 90 61 91 62 92 71 93 63 94 64 95
REMARK SMILES IDX 70 96 72 97 65 98 66 99 67 100 68 101 69 102
REMARK H PARENT 16 21 93 52 59 63
REMARK Flexibility Score: inf
ROOT
ATOM      1  C   UNL A   1      42.520  19.364  25.754  1.00  0.00     0.202 C 
ENDROOT
BRANCH   1   2
ATOM      2  C   UNL A   1      43.772  18.922  25.001  1.00  0.00     0.261 C 
BRANCH   2   3
ATOM      3  O   UNL A   1      44.996  19.514  25.471  1.00  0.00    -0.461 OA
BRANCH   3   4
ATOM      4  C   UNL A   1      45.755  20.381  24.758  1.00  0.00     0.344 C 
ATOM      5  O   UNL A   1      46.902  20.071  24.440  1.00  0.00    -0.248 OA
BRANCH   4   6
ATOM      6  C   UNL A   1      45.175  21.734  24.365  1.00  0.00     0.353 C 
BRANCH   6   7
ATOM      7  O   UNL A   1      46.101  22.738  24.000  1.00  0.00    -0.466 OA
BRANCH   7   8
ATOM      8  C   UNL A   1      46.344  23.595  25.027  1.00  0.00     0.219 A 
ATOM      9  C   UNL A   1      46.049  23.316  26.327  1.00  0.00     0.097 A 
ATOM     10  N   UNL A   1      46.873  24.740  24.634  1.00  0.00    -0.177 NA
ATOM     11  C   UNL A   1      46.182  24.363  27.211  1.00  0.00     0.080 A 
ATOM     12  C   UNL A   1      47.049  25.695  25.549  1.00  0.00     0.231 A 
ATOM     13  N   UNL A   1      46.690  25.563  26.840  1.00  0.00    -0.212 NA
BRANCH  11  14
ATOM     14  C   UNL A   1      45.592  24.211  28.551  1.00  0.00     0.004 A 
ATOM     15  C   UNL A   1      44.608  23.244  28.811  1.00  0.00     0.030 A 
ATOM     16  C   UNL A   1      45.847  25.159  29.547  1.00  0.00     0.030 A 
ATOM     17  C   UNL A   1      43.914  23.289  30.011  1.00  0.00     0.111 A 
ATOM     18  C   UNL A   1      45.099  25.124  30.714  1.00  0.00     0.111 A 
ATOM     19  N   UNL A   1      44.136  24.214  30.965  1.00  0.00    -0.265 NA
ENDBRANCH  11  14
BRANCH  12  20
ATOM     20  N   UNL A   1      47.678  26.867  25.119  1.00  0.00    -0.323 N 
ATOM     21  H   UNL A   1      47.349  27.726  25.470  1.00  0.00     0.170 HD
BRANCH  20  22
ATOM     22  C   UNL A   1      48.759  26.890  24.210  1.00  0.00     0.055 A 
ATOM     23  C   UNL A   1      48.515  27.304  22.890  1.00  0.00     0.027 A 
ATOM     24  C   UNL A   1      50.104  26.716  24.607  1.00  0.00     0.041 A 
ATOM     25  C   UNL A   1      49.571  27.553  22.004  1.00  0.00     0.002 A 
ATOM     26  C   UNL A   1      51.158  26.969  23.720  1.00  0.00     0.018 A 
ATOM     27  Br  UNL A   1      50.580  26.067  26.337  1.00  0.00    -0.049 Br
ATOM     28  C   UNL A   1      50.891  27.394  22.421  1.00  0.00     0.001 A 
ENDBRANCH  20  22
ENDBRANCH  12  20
ENDBRANCH   7   8
ENDBRANCH   6   7
ENDBRANCH   4   6
ENDBRANCH   3   4
ENDBRANCH   2   3
ENDBRANCH   1   2
BRANCH   1  29
ATOM     29  O   UNL A   1      42.670  19.943  27.044  1.00  0.00    -0.374 OA
BRANCH  29  30
ATOM     30  C   UNL A   1      41.877  21.087  27.376  1.00  0.00     0.202 C 
BRANCH  30  31
ATOM     31  C   UNL A   1      41.733  22.222  26.360  1.00  0.00     0.261 C 
BRANCH  31  32
ATOM     32  O   UNL A   1      41.212  23.420  26.951  1.00  0.00    -0.460 OA
BRANCH  32  33
ATOM     33  C   UNL A   1      42.001  24.506  26.786  1.00  0.00     0.338 C 
ATOM     34  O   UNL A   1      42.902  24.642  25.968  1.00  0.00    -0.246 OA
BRANCH  33  35
ATOM     35  C   UNL A   1      41.477  25.628  27.583  1.00  0.00     0.060 A 
ATOM     36  C   UNL A   1      42.266  26.783  27.662  1.00  0.00     0.016 A 
ATOM     37  C   UNL A   1      40.271  25.537  28.282  1.00  0.00     0.016 A 
ATOM     38  C   UNL A   1      41.899  27.816  28.512  1.00  0.00     0.010 A 
ATOM     39  C   UNL A   1      39.906  26.573  29.143  1.00  0.00     0.010 A 
ATOM     40  C   UNL A   1      40.749  27.688  29.300  1.00  0.00    -0.014 A 
BRANCH  40  41
ATOM     41  C   UNL A   1      40.557  28.627  30.428  1.00  0.00     0.031 A 
ATOM     42  C   UNL A   1      41.441  28.482  31.638  1.00  0.00     0.074 A 
ATOM     43  C   UNL A   1      39.668  29.630  30.336  1.00  0.00     0.049 A 
ATOM     44  N   UNL A   1      41.468  29.192  32.734  1.00  0.00    -0.248 NA
ATOM     45  C   UNL A   1      42.427  27.388  31.607  1.00  0.00     0.031 C 
ATOM     46  C   UNL A   1      38.790  29.877  29.192  1.00  0.00     0.029 A 
ATOM     47  N   UNL A   1      39.359  30.629  31.220  1.00  0.00    -0.354 N 
ATOM     48  C   UNL A   1      42.474  28.638  33.517  1.00  0.00     0.074 A 
ATOM     49  C   UNL A   1      43.001  27.503  32.795  1.00  0.00     0.031 C 
ATOM     50  C   UNL A   1      38.031  30.955  29.451  1.00  0.00     0.029 A 
ATOM     51  C   UNL A   1      38.353  31.456  30.786  1.00  0.00     0.049 A 
ATOM     52  H   UNL A   1      39.816  30.743  32.085  1.00  0.00     0.167 HD
ATOM     53  C   UNL A   1      42.931  29.054  34.722  1.00  0.00     0.037 A 
ATOM     54  C   UNL A   1      37.749  32.487  31.408  1.00  0.00     0.037 A 
ATOM     55  C   UNL A   1      42.391  30.183  35.432  1.00  0.00     0.049 A 
ATOM     56  C   UNL A   1      38.233  32.892  32.777  1.00  0.00     0.074 A 
ATOM     57  C   UNL A   1      42.767  30.686  36.665  1.00  0.00     0.029 A 
ATOM     58  N   UNL A   1      41.356  30.986  34.971  1.00  0.00    -0.354 N 
ATOM     59  N   UNL A   1      39.192  32.367  33.503  1.00  0.00    -0.248 NA
ATOM     60  C   UNL A   1      37.562  34.038  33.405  1.00  0.00     0.031 C 
ATOM     61  C   UNL A   1      41.930  31.765  36.969  1.00  0.00     0.029 A 
ATOM     62  C   UNL A   1      41.071  31.971  35.900  1.00  0.00     0.049 A 
ATOM     63  H   UNL A   1      40.894  30.871  34.110  1.00  0.00     0.167 HD
ATOM     64  C   UNL A   1      39.258  33.134  34.662  1.00  0.00     0.074 A 
ATOM     65  C   UNL A   1      38.255  34.172  34.528  1.00  0.00     0.031 C 
ATOM     66  C   UNL A   1      40.069  32.996  35.741  1.00  0.00     0.037 A 
BRANCH  53  67
ATOM     67  C   UNL A   1      44.059  28.278  35.346  1.00  0.00     0.058 A 
ATOM     68  C   UNL A   1      43.820  27.165  36.170  1.00  0.00     0.135 A 
ATOM     69  C   UNL A   1      45.395  28.628  35.095  1.00  0.00     0.135 A 
ATOM     70  F   UNL A   1      42.563  26.800  36.464  1.00  0.00    -0.206 F 
ATOM     71  C   UNL A   1      44.865  26.440  36.735  1.00  0.00     0.059 A 
ATOM     72  C   UNL A   1      46.456  27.900  35.626  1.00  0.00     0.059 A 
ATOM     73  F   UNL A   1      45.682  29.688  34.321  1.00  0.00    -0.206 F 
ATOM     74  C   UNL A   1      46.179  26.813  36.454  1.00  0.00     0.060 A 
BRANCH  74  75
ATOM     75  S   UNL A   1      47.521  25.848  37.179  1.00  0.00     0.124 S 
ATOM     76  O   UNL A   1      48.559  25.979  36.161  1.00  0.00    -0.237 OA
ATOM     77  O   UNL A   1      47.770  26.553  38.432  1.00  0.00    -0.237 OA
ATOM     78  O   UNL A   1      46.946  24.514  37.318  1.00  0.00    -0.744 OA
ENDBRANCH  74  75
ENDBRANCH  53  67
BRANCH  54  79
ATOM     79  C   UNL A   1      36.613  33.191  30.755  1.00  0.00     0.058 A 
ATOM     80  C   UNL A   1      36.821  34.109  29.715  1.00  0.00     0.135 A 
ATOM     81  C   UNL A   1      35.291  32.962  31.169  1.00  0.00     0.135 A 
ATOM     82  F   UNL A   1      38.066  34.366  29.285  1.00  0.00    -0.206 F 
ATOM     83  C   UNL A   1      35.762  34.795  29.127  1.00  0.00     0.059 A 
ATOM     84  C   UNL A   1      34.215  33.613  30.576  1.00  0.00     0.059 A 
ATOM     85  F   UNL A   1      35.035  32.080  32.148  1.00  0.00    -0.206 F 
ATOM     86  C   UNL A   1      34.462  34.540  29.566  1.00  0.00     0.060 A 
BRANCH  86  87
ATOM     87  S   UNL A   1      33.092  35.411  28.776  1.00  0.00     0.124 S 
ATOM     88  O   UNL A   1      33.799  36.428  28.004  1.00  0.00    -0.237 OA
ATOM     89  O   UNL A   1      32.459  34.346  28.004  1.00  0.00    -0.237 OA
ATOM     90  O   UNL A   1      32.312  35.904  29.907  1.00  0.00    -0.744 OA
ENDBRANCH  86  87
ENDBRANCH  54  79
BRANCH  66  91
ATOM     91  C   UNL A   1      39.927  34.013  36.840  1.00  0.00     0.058 A 
ATOM     92  C   UNL A   1      40.669  35.205  36.847  1.00  0.00     0.135 A 
ATOM     93  C   UNL A   1      39.017  33.801  37.890  1.00  0.00     0.135 A 
ATOM     94  F   UNL A   1      41.554  35.456  35.869  1.00  0.00    -0.206 F 
ATOM     95  C   UNL A   1      40.545  36.131  37.877  1.00  0.00     0.059 A 
ATOM     96  C   UNL A   1      38.853  34.730  38.912  1.00  0.00     0.059 A 
ATOM     97  F   UNL A   1      38.271  32.686  37.924  1.00  0.00    -0.206 F 
ATOM     98  C   UNL A   1      39.636  35.883  38.908  1.00  0.00     0.060 A 
BRANCH  98  99
ATOM     99  S   UNL A   1      39.484  37.094  40.237  1.00  0.00     0.124 S 
ATOM    100  O   UNL A   1      38.584  36.407  41.158  1.00  0.00    -0.237 OA
ATOM    101  O   UNL A   1      40.865  37.238  40.688  1.00  0.00    -0.237 OA
ATOM    102  O   UNL A   1      38.925  38.264  39.568  1.00  0.00    -0.744 OA
ENDBRANCH  98  99
ENDBRANCH  66  91
ENDBRANCH  40  41
ENDBRANCH  33  35
ENDBRANCH  32  33
ENDBRANCH  31  32
ENDBRANCH  30  31
ENDBRANCH  29  30
ENDBRANCH   1  29
TORSDOF 22
ENDMDL
