MODEL 1
REMARK VINA RESULT:     -10.9      0.000      0.000
REMARK SMILES CCn1cc(CN(C)C(=O)CCn2cc(C(=O)OCCOCCOC(=O)c3ccc(-c4c5nc(c(-c6c(F)cc(S(=O)(=O)[O-])cc6F)c6ccc([nH]6)c(-c6c(F)cc(S(=O)(=O)[O-])cc6F)c6nc(c(-c7c(F)cc(S(=O)(=O)[O-])cc7F)c7ccc4[nH]7)C=C6)C=C5)cc3)cn2)c(C)n1
REMARK SMILES IDX 19 1 18 2 16 3 17 4 15 5 13 6 14 7 94 8 93 9 12 10 11 11
REMARK SMILES IDX 9 12 10 13 7 14 8 15 6 16 5 17 3 18 4 19 97 20 95 21 96 22
REMARK SMILES IDX 2 23 1 24 20 25 21 26 22 27 23 28 24 29 25 30 26 31 27 32
REMARK SMILES IDX 28 33 92 34 29 35 91 36 30 37 31 38 32 39 85 40 33 41 90 42
REMARK SMILES IDX 84 43 86 44 34 45 89 46 83 47 82 48 35 50 69 51 48 52 68 53
REMARK SMILES IDX 49 54 52 55 67 56 87 57 50 58 51 59 66 61 88 62 53 63 36 64
REMARK SMILES IDX 37 65 46 66 38 67 39 68 45 69 47 70 40 71 41 72 42 73 43 74
REMARK SMILES IDX 44 75 70 76 71 77 80 78 72 79 73 80 79 81 81 82 74 83 75 84
REMARK SMILES IDX 76 85 77 86 78 87 54 88 55 89 64 90 56 91 57 92 63 93 65 94
REMARK SMILES IDX 58 95 59 96 60 97 61 98 62 99
REMARK H PARENT 86 49 52 60
REMARK Flexibility Score: inf
ROOT
ATOM      1  C   UNL A   1      40.293  21.357  26.087  1.00  0.00     0.261 C 
ENDROOT
BRANCH   1   2
ATOM      2  O   UNL A   1      38.886  21.523  26.347  1.00  0.00    -0.460 OA
BRANCH   2   3
ATOM      3  C   UNL A   1      38.082  21.317  25.274  1.00  0.00     0.341 C 
ATOM      4  O   UNL A   1      38.011  20.261  24.645  1.00  0.00    -0.246 OA
BRANCH   3   5
ATOM      5  C   UNL A   1      37.268  22.445  24.909  1.00  0.00     0.098 A 
ATOM      6  N   UNL A   1      35.539  23.507  24.117  1.00  0.00    -0.271 N 
ATOM      7  C   UNL A   1      36.532  22.631  23.752  1.00  0.00     0.124 A 
ATOM      8  N   UNL A   1      35.831  24.176  25.246  1.00  0.00    -0.181 NA
ATOM      9  C   UNL A   1      36.851  23.489  25.759  1.00  0.00     0.150 A 
BRANCH   6  10
ATOM     10  C   UNL A   1      34.212  23.624  23.537  1.00  0.00     0.154 C 
BRANCH  10  11
ATOM     11  C   UNL A   1      33.069  23.423  24.534  1.00  0.00     0.124 C 
BRANCH  11  12
ATOM     12  C   UNL A   1      31.834  24.280  24.265  1.00  0.00     0.224 C 
ATOM     13  O   UNL A   1      30.861  23.735  23.734  1.00  0.00    -0.275 OA
BRANCH  12  14
ATOM     14  N   UNL A   1      31.800  25.613  24.651  1.00  0.00    -0.341 N 
ATOM     15  C   UNL A   1      31.176  26.125  25.856  1.00  0.00     0.147 C 
BRANCH  14  16
ATOM     16  C   UNL A   1      32.161  26.652  23.689  1.00  0.00     0.158 C 
BRANCH  16  17
ATOM     17  C   UNL A   1      31.200  27.780  23.568  1.00  0.00     0.012 A 
ATOM     18  N   UNL A   1      29.456  28.978  22.965  1.00  0.00    -0.272 N 
ATOM     19  C   UNL A   1      30.054  27.768  22.796  1.00  0.00     0.114 A 
ATOM     20  N   UNL A   1      30.095  29.768  23.840  1.00  0.00    -0.178 NA
ATOM     21  C   UNL A   1      31.170  29.053  24.203  1.00  0.00     0.064 A 
ATOM     22  C   UNL A   1      32.149  29.640  25.147  1.00  0.00     0.069 C 
BRANCH  18  23
ATOM     23  C   UNL A   1      28.274  29.450  22.273  1.00  0.00     0.141 C 
ATOM     24  C   UNL A   1      28.493  30.729  21.485  1.00  0.00     0.029 C 
ENDBRANCH  18  23
ENDBRANCH  16  17
ENDBRANCH  14  16
ENDBRANCH  12  14
ENDBRANCH  11  12
ENDBRANCH  10  11
ENDBRANCH   6  10
ENDBRANCH   3   5
ENDBRANCH   2   3
ENDBRANCH   1   2
BRANCH   1  25
ATOM     25  C   UNL A   1      40.839  20.051  26.670  1.00  0.00     0.202 C 
BRANCH  25  26
ATOM     26  O   UNL A   1      41.497  19.160  25.772  1.00  0.00    -0.374 OA
BRANCH  26  27
ATOM     27  C   UNL A   1      42.678  18.482  26.179  1.00  0.00     0.202 C 
BRANCH  27  28
ATOM     28  C   UNL A   1      43.929  18.607  25.311  1.00  0.00     0.261 C 
BRANCH  28  29
ATOM     29  O   UNL A   1      44.711  19.772  25.587  1.00  0.00    -0.460 OA
BRANCH  29  30
ATOM     30  C   UNL A   1      44.443  20.814  24.758  1.00  0.00     0.338 C 
ATOM     31  O   UNL A   1      44.689  20.859  23.565  1.00  0.00    -0.246 OA
BRANCH  30  32
ATOM     32  C   UNL A   1      43.861  21.950  25.502  1.00  0.00     0.060 A 
ATOM     33  C   UNL A   1      43.333  22.986  24.725  1.00  0.00     0.016 A 
ATOM     34  C   UNL A   1      43.942  22.078  26.896  1.00  0.00     0.016 A 
ATOM     35  C   UNL A   1      43.009  24.192  25.322  1.00  0.00     0.010 A 
ATOM     36  C   UNL A   1      43.607  23.291  27.496  1.00  0.00     0.010 A 
ATOM     37  C   UNL A   1      43.204  24.365  26.696  1.00  0.00    -0.014 A 
BRANCH  37  38
ATOM     38  C   UNL A   1      43.074  25.733  27.195  1.00  0.00     0.031 A 
ATOM     39  C   UNL A   1      44.218  26.655  27.001  1.00  0.00     0.074 A 
ATOM     40  C   UNL A   1      41.973  26.168  27.841  1.00  0.00     0.049 A 
ATOM     41  N   UNL A   1      44.955  27.214  27.907  1.00  0.00    -0.248 NA
ATOM     42  C   UNL A   1      44.589  26.993  25.620  1.00  0.00     0.031 C 
ATOM     43  C   UNL A   1      40.658  25.524  27.858  1.00  0.00     0.029 A 
ATOM     44  N   UNL A   1      41.776  27.322  28.554  1.00  0.00    -0.354 N 
ATOM     45  C   UNL A   1      45.748  28.132  27.228  1.00  0.00     0.074 A 
ATOM     46  C   UNL A   1      45.559  27.887  25.819  1.00  0.00     0.031 C 
ATOM     47  C   UNL A   1      39.756  26.382  28.379  1.00  0.00     0.029 A 
ATOM     48  C   UNL A   1      40.449  27.569  28.859  1.00  0.00     0.049 A 
ATOM     49  H   UNL A   1      42.511  27.920  28.825  1.00  0.00     0.167 HD
ATOM     50  C   UNL A   1      46.337  29.186  27.851  1.00  0.00     0.037 A 
ATOM     51  C   UNL A   1      39.911  28.669  29.432  1.00  0.00     0.037 A 
ATOM     52  C   UNL A   1      46.337  29.096  29.282  1.00  0.00     0.049 A 
ATOM     53  C   UNL A   1      40.937  29.381  30.231  1.00  0.00     0.074 A 
ATOM     54  C   UNL A   1      47.157  28.591  30.264  1.00  0.00     0.029 A 
ATOM     55  N   UNL A   1      45.164  29.461  29.881  1.00  0.00    -0.354 N 
ATOM     56  N   UNL A   1      41.504  28.894  31.302  1.00  0.00    -0.248 NA
ATOM     57  C   UNL A   1      41.531  30.614  29.720  1.00  0.00     0.031 C 
ATOM     58  C   UNL A   1      46.390  28.557  31.467  1.00  0.00     0.029 A 
ATOM     59  C   UNL A   1      45.115  29.029  31.183  1.00  0.00     0.049 A 
ATOM     60  H   UNL A   1      44.448  29.968  29.436  1.00  0.00     0.167 HD
ATOM     61  C   UNL A   1      42.725  29.532  31.370  1.00  0.00     0.074 A 
ATOM     62  C   UNL A   1      42.626  30.679  30.482  1.00  0.00     0.031 C 
ATOM     63  C   UNL A   1      43.832  28.896  31.839  1.00  0.00     0.037 A 
BRANCH  50  64
ATOM     64  C   UNL A   1      46.559  30.510  27.176  1.00  0.00     0.058 A 
ATOM     65  C   UNL A   1      47.837  31.097  27.155  1.00  0.00     0.135 A 
ATOM     66  C   UNL A   1      45.479  31.344  26.814  1.00  0.00     0.135 A 
ATOM     67  F   UNL A   1      48.917  30.384  27.510  1.00  0.00    -0.206 F 
ATOM     68  C   UNL A   1      48.027  32.439  26.823  1.00  0.00     0.059 A 
ATOM     69  C   UNL A   1      45.651  32.671  26.439  1.00  0.00     0.059 A 
ATOM     70  F   UNL A   1      44.210  30.918  26.903  1.00  0.00    -0.206 F 
ATOM     71  C   UNL A   1      46.924  33.221  26.483  1.00  0.00     0.060 A 
BRANCH  71  72
ATOM     72  S   UNL A   1      47.142  34.976  26.135  1.00  0.00     0.124 S 
ATOM     73  O   UNL A   1      45.760  35.413  25.975  1.00  0.00    -0.237 OA
ATOM     74  O   UNL A   1      47.829  35.454  27.333  1.00  0.00    -0.237 OA
ATOM     75  O   UNL A   1      47.953  34.971  24.921  1.00  0.00    -0.744 OA
ENDBRANCH  71  72
ENDBRANCH  50  64
BRANCH  51  76
ATOM     76  C   UNL A   1      38.561  29.228  29.181  1.00  0.00     0.058 A 
ATOM     77  C   UNL A   1      37.670  29.507  30.228  1.00  0.00     0.135 A 
ATOM     78  C   UNL A   1      38.206  29.717  27.906  1.00  0.00     0.135 A 
ATOM     79  F   UNL A   1      37.953  29.116  31.479  1.00  0.00    -0.206 F 
ATOM     80  C   UNL A   1      36.502  30.245  30.028  1.00  0.00     0.059 A 
ATOM     81  C   UNL A   1      37.037  30.435  27.678  1.00  0.00     0.059 A 
ATOM     82  F   UNL A   1      39.031  29.581  26.857  1.00  0.00    -0.206 F 
ATOM     83  C   UNL A   1      36.198  30.713  28.749  1.00  0.00     0.060 A 
BRANCH  83  84
ATOM     84  S   UNL A   1      34.762  31.782  28.516  1.00  0.00     0.124 S 
ATOM     85  O   UNL A   1      34.511  32.249  29.874  1.00  0.00    -0.237 OA
ATOM     86  O   UNL A   1      35.271  32.779  27.580  1.00  0.00    -0.237 OA
ATOM     87  O   UNL A   1      33.752  30.877  27.969  1.00  0.00    -0.744 OA
ENDBRANCH  83  84
ENDBRANCH  51  76
BRANCH  63  88
ATOM     88  C   UNL A   1      43.655  27.854  32.894  1.00  0.00     0.058 A 
ATOM     89  C   UNL A   1      43.322  28.134  34.228  1.00  0.00     0.135 A 
ATOM     90  C   UNL A   1      43.770  26.505  32.523  1.00  0.00     0.135 A 
ATOM     91  F   UNL A   1      43.122  29.397  34.633  1.00  0.00    -0.206 F 
ATOM     92  C   UNL A   1      43.147  27.112  35.164  1.00  0.00     0.059 A 
ATOM     93  C   UNL A   1      43.577  25.469  33.433  1.00  0.00     0.059 A 
ATOM     94  F   UNL A   1      44.042  26.178  31.248  1.00  0.00    -0.206 F 
ATOM     95  C   UNL A   1      43.280  25.783  34.758  1.00  0.00     0.060 A 
BRANCH  95  96
ATOM     96  S   UNL A   1      42.979  24.456  35.947  1.00  0.00     0.124 S 
ATOM     97  O   UNL A   1      41.547  24.225  35.792  1.00  0.00    -0.237 OA
ATOM     98  O   UNL A   1      43.850  23.387  35.469  1.00  0.00    -0.237 OA
ATOM     99  O   UNL A   1      43.382  25.049  37.221  1.00  0.00    -0.744 OA
ENDBRANCH  95  96
ENDBRANCH  63  88
ENDBRANCH  37  38
ENDBRANCH  30  32
ENDBRANCH  29  30
ENDBRANCH  28  29
ENDBRANCH  27  28
ENDBRANCH  26  27
ENDBRANCH  25  26
ENDBRANCH   1  25
TORSDOF 24
ENDMDL
MODEL 2
REMARK VINA RESULT:     -10.3      2.020      3.366
REMARK SMILES CCn1cc(CN(C)C(=O)CCn2cc(C(=O)OCCOCCOC(=O)c3ccc(-c4c5nc(c(-c6c(F)cc(S(=O)(=O)[O-])cc6F)c6ccc([nH]6)c(-c6c(F)cc(S(=O)(=O)[O-])cc6F)c6nc(c(-c7c(F)cc(S(=O)(=O)[O-])cc7F)c7ccc4[nH]7)C=C6)C=C5)cc3)cn2)c(C)n1
REMARK SMILES IDX 19 1 18 2 16 3 17 4 15 5 13 6 14 7 94 8 93 9 12 10 11 11
REMARK SMILES IDX 9 12 10 13 7 14 8 15 6 16 5 17 3 18 4 19 97 20 95 21 96 22
REMARK SMILES IDX 2 23 1 24 20 25 21 26 22 27 23 28 24 29 25 30 26 31 27 32
REMARK SMILES IDX 28 33 92 34 29 35 91 36 30 37 31 38 32 39 85 40 33 41 90 42
REMARK SMILES IDX 84 43 86 44 34 45 89 46 83 47 82 48 35 50 69 51 48 52 68 53
REMARK SMILES IDX 49 54 52 55 67 56 87 57 50 58 51 59 66 61 88 62 53 63 36 64
REMARK SMILES IDX 37 65 46 66 38 67 39 68 45 69 47 70 40 71 41 72 42 73 43 74
REMARK SMILES IDX 44 75 70 76 71 77 80 78 72 79 73 80 79 81 81 82 74 83 75 84
REMARK SMILES IDX 76 85 77 86 78 87 54 88 55 89 64 90 56 91 57 92 63 93 65 94
REMARK SMILES IDX 58 95 59 96 60 97 61 98 62 99
REMARK H PARENT 86 49 52 60
REMARK Flexibility Score: inf
ROOT
ATOM      1  C   UNL A   1      41.164  21.438  27.156  1.00  0.00     0.261 C 
ENDROOT
BRANCH   1   2
ATOM      2  O   UNL A   1      40.315  21.970  26.122  1.00  0.00    -0.460 OA
BRANCH   2   3
ATOM      3  C   UNL A   1      39.255  22.689  26.569  1.00  0.00     0.341 C 
ATOM      4  O   UNL A   1      39.293  23.483  27.509  1.00  0.00    -0.246 OA
BRANCH   3   5
ATOM      5  C   UNL A   1      38.035  22.475  25.839  1.00  0.00     0.098 A 
ATOM      6  N   UNL A   1      36.421  22.914  24.444  1.00  0.00    -0.271 N 
ATOM      7  C   UNL A   1      37.015  23.378  25.592  1.00  0.00     0.124 A 
ATOM      8  N   UNL A   1      36.705  21.624  24.200  1.00  0.00    -0.181 NA
ATOM      9  C   UNL A   1      37.733  21.375  25.012  1.00  0.00     0.150 A 
BRANCH   6  10
ATOM     10  C   UNL A   1      35.718  23.695  23.440  1.00  0.00     0.154 C 
BRANCH  10  11
ATOM     11  C   UNL A   1      34.280  23.242  23.181  1.00  0.00     0.124 C 
BRANCH  11  12
ATOM     12  C   UNL A   1      33.228  23.943  24.039  1.00  0.00     0.224 C 
ATOM     13  O   UNL A   1      33.574  24.955  24.657  1.00  0.00    -0.275 OA
BRANCH  12  14
ATOM     14  N   UNL A   1      31.921  23.479  24.075  1.00  0.00    -0.341 N 
ATOM     15  C   UNL A   1      30.783  24.115  23.441  1.00  0.00     0.147 C 
BRANCH  14  16
ATOM     16  C   UNL A   1      31.553  22.433  25.028  1.00  0.00     0.158 C 
BRANCH  16  17
ATOM     17  C   UNL A   1      32.461  21.257  25.079  1.00  0.00     0.012 A 
ATOM     18  N   UNL A   1      33.442  19.357  24.565  1.00  0.00    -0.272 N 
ATOM     19  C   UNL A   1      32.465  20.217  24.170  1.00  0.00     0.114 A 
ATOM     20  N   UNL A   1      34.123  19.784  25.637  1.00  0.00    -0.178 NA
ATOM     21  C   UNL A   1      33.523  20.936  25.969  1.00  0.00     0.064 A 
ATOM     22  C   UNL A   1      33.992  21.683  27.160  1.00  0.00     0.069 C 
BRANCH  18  23
ATOM     23  C   UNL A   1      33.744  18.074  23.963  1.00  0.00     0.141 C 
ATOM     24  C   UNL A   1      32.754  17.650  22.891  1.00  0.00     0.029 C 
ENDBRANCH  18  23
ENDBRANCH  16  17
ENDBRANCH  14  16
ENDBRANCH  12  14
ENDBRANCH  11  12
ENDBRANCH  10  11
ENDBRANCH   6  10
ENDBRANCH   3   5
ENDBRANCH   2   3
ENDBRANCH   1   2
BRANCH   1  25
ATOM     25  C   UNL A   1      41.102  19.910  27.226  1.00  0.00     0.202 C 
BRANCH  25  26
ATOM     26  O   UNL A   1      41.441  19.188  26.044  1.00  0.00    -0.374 OA
BRANCH  26  27
ATOM     27  C   UNL A   1      42.573  18.328  26.034  1.00  0.00     0.202 C 
BRANCH  27  28
ATOM     28  C   UNL A   1      43.805  18.749  25.237  1.00  0.00     0.261 C 
BRANCH  28  29
ATOM     29  O   UNL A   1      43.753  20.096  24.760  1.00  0.00    -0.460 OA
BRANCH  29  30
ATOM     30  C   UNL A   1      44.955  20.729  24.791  1.00  0.00     0.338 C 
ATOM     31  O   UNL A   1      46.047  20.188  24.761  1.00  0.00    -0.246 OA
BRANCH  30  32
ATOM     32  C   UNL A   1      44.784  22.189  24.938  1.00  0.00     0.060 A 
ATOM     33  C   UNL A   1      45.787  22.855  25.649  1.00  0.00     0.016 A 
ATOM     34  C   UNL A   1      43.633  22.874  24.524  1.00  0.00     0.016 A 
ATOM     35  C   UNL A   1      45.583  24.161  26.059  1.00  0.00     0.010 A 
ATOM     36  C   UNL A   1      43.434  24.193  24.929  1.00  0.00     0.010 A 
ATOM     37  C   UNL A   1      44.382  24.809  25.751  1.00  0.00    -0.014 A 
BRANCH  37  38
ATOM     38  C   UNL A   1      44.151  26.084  26.428  1.00  0.00     0.031 A 
ATOM     39  C   UNL A   1      45.231  27.099  26.390  1.00  0.00     0.074 A 
ATOM     40  C   UNL A   1      43.012  26.352  27.100  1.00  0.00     0.049 A 
ATOM     41  N   UNL A   1      45.912  27.575  27.382  1.00  0.00    -0.248 NA
ATOM     42  C   UNL A   1      45.598  27.647  25.077  1.00  0.00     0.031 C 
ATOM     43  C   UNL A   1      41.745  25.625  26.997  1.00  0.00     0.029 A 
ATOM     44  N   UNL A   1      42.725  27.381  27.959  1.00  0.00    -0.354 N 
ATOM     45  C   UNL A   1      46.651  28.629  26.853  1.00  0.00     0.074 A 
ATOM     46  C   UNL A   1      46.500  28.568  25.420  1.00  0.00     0.031 C 
ATOM     47  C   UNL A   1      40.778  26.341  27.608  1.00  0.00     0.029 A 
ATOM     48  C   UNL A   1      41.379  27.495  28.261  1.00  0.00     0.049 A 
ATOM     49  H   UNL A   1      43.411  27.984  28.326  1.00  0.00     0.167 HD
ATOM     50  C   UNL A   1      47.155  29.624  27.628  1.00  0.00     0.037 A 
ATOM     51  C   UNL A   1      40.757  28.467  28.965  1.00  0.00     0.037 A 
ATOM     52  C   UNL A   1      47.139  29.339  29.033  1.00  0.00     0.049 A 
ATOM     53  C   UNL A   1      41.719  29.129  29.879  1.00  0.00     0.074 A 
ATOM     54  C   UNL A   1      47.978  28.759  29.957  1.00  0.00     0.029 A 
ATOM     55  N   UNL A   1      45.935  29.539  29.647  1.00  0.00    -0.354 N 
ATOM     56  N   UNL A   1      42.301  28.539  30.887  1.00  0.00    -0.248 NA
ATOM     57  C   UNL A   1      42.234  30.458  29.555  1.00  0.00     0.031 C 
ATOM     58  C   UNL A   1      47.196  28.509  31.125  1.00  0.00     0.029 A 
ATOM     59  C   UNL A   1      45.896  28.929  30.877  1.00  0.00     0.049 A 
ATOM     60  H   UNL A   1      45.192  30.053  29.258  1.00  0.00     0.167 HD
ATOM     61  C   UNL A   1      43.474  29.242  31.072  1.00  0.00     0.074 A 
ATOM     62  C   UNL A   1      43.309  30.490  30.346  1.00  0.00     0.031 C 
ATOM     63  C   UNL A   1      44.616  28.622  31.477  1.00  0.00     0.037 A 
BRANCH  50  64
ATOM     64  C   UNL A   1      47.294  31.040  27.145  1.00  0.00     0.058 A 
ATOM     65  C   UNL A   1      48.539  31.693  27.196  1.00  0.00     0.135 A 
ATOM     66  C   UNL A   1      46.166  31.856  26.915  1.00  0.00     0.135 A 
ATOM     67  F   UNL A   1      49.662  30.999  27.437  1.00  0.00    -0.206 F 
ATOM     68  C   UNL A   1      48.652  33.077  27.055  1.00  0.00     0.059 A 
ATOM     69  C   UNL A   1      46.260  33.230  26.730  1.00  0.00     0.059 A 
ATOM     70  F   UNL A   1      44.923  31.352  26.955  1.00  0.00    -0.206 F 
ATOM     71  C   UNL A   1      47.503  33.837  26.840  1.00  0.00     0.060 A 
BRANCH  71  72
ATOM     72  S   UNL A   1      47.621  35.634  26.742  1.00  0.00     0.124 S 
ATOM     73  O   UNL A   1      48.455  35.933  27.900  1.00  0.00    -0.237 OA
ATOM     74  O   UNL A   1      48.243  35.840  25.437  1.00  0.00    -0.237 OA
ATOM     75  O   UNL A   1      46.227  36.058  26.834  1.00  0.00    -0.744 OA
ENDBRANCH  71  72
ENDBRANCH  50  64
BRANCH  51  76
ATOM     76  C   UNL A   1      39.376  28.964  28.759  1.00  0.00     0.058 A 
ATOM     77  C   UNL A   1      38.514  29.219  29.836  1.00  0.00     0.135 A 
ATOM     78  C   UNL A   1      38.951  29.420  27.493  1.00  0.00     0.135 A 
ATOM     79  F   UNL A   1      38.860  28.857  31.080  1.00  0.00    -0.206 F 
ATOM     80  C   UNL A   1      37.307  29.902  29.672  1.00  0.00     0.059 A 
ATOM     81  C   UNL A   1      37.744  30.084  27.302  1.00  0.00     0.059 A 
ATOM     82  F   UNL A   1      39.741  29.305  26.415  1.00  0.00    -0.206 F 
ATOM     83  C   UNL A   1      36.935  30.340  28.401  1.00  0.00     0.060 A 
BRANCH  83  84
ATOM     84  S   UNL A   1      35.446  31.342  28.210  1.00  0.00     0.124 S 
ATOM     85  O   UNL A   1      35.978  32.559  27.606  1.00  0.00    -0.237 OA
ATOM     86  O   UNL A   1      34.623  30.505  27.343  1.00  0.00    -0.237 OA
ATOM     87  O   UNL A   1      34.956  31.486  29.579  1.00  0.00    -0.744 OA
ENDBRANCH  83  84
ENDBRANCH  51  76
BRANCH  63  88
ATOM     88  C   UNL A   1      44.495  27.435  32.376  1.00  0.00     0.058 A 
ATOM     89  C   UNL A   1      44.307  27.516  33.763  1.00  0.00     0.135 A 
ATOM     90  C   UNL A   1      44.512  26.157  31.795  1.00  0.00     0.135 A 
ATOM     91  F   UNL A   1      44.205  28.707  34.373  1.00  0.00    -0.206 F 
ATOM     92  C   UNL A   1      44.178  26.368  34.548  1.00  0.00     0.059 A 
ATOM     93  C   UNL A   1      44.361  25.000  32.554  1.00  0.00     0.059 A 
ATOM     94  F   UNL A   1      44.642  26.023  30.465  1.00  0.00    -0.206 F 
ATOM     95  C   UNL A   1      44.210  25.113  33.935  1.00  0.00     0.060 A 
BRANCH  95  96
ATOM     96  S   UNL A   1      43.967  23.629  34.936  1.00  0.00     0.124 S 
ATOM     97  O   UNL A   1      44.230  22.565  33.973  1.00  0.00    -0.237 OA
ATOM     98  O   UNL A   1      44.960  23.785  35.995  1.00  0.00    -0.237 OA
ATOM     99  O   UNL A   1      42.579  23.745  35.377  1.00  0.00    -0.744 OA
ENDBRANCH  95  96
ENDBRANCH  63  88
ENDBRANCH  37  38
ENDBRANCH  30  32
ENDBRANCH  29  30
ENDBRANCH  28  29
ENDBRANCH  27  28
ENDBRANCH  26  27
ENDBRANCH  25  26
ENDBRANCH   1  25
TORSDOF 24
ENDMDL
MODEL 3
REMARK VINA RESULT:      -9.8      2.574      9.964
REMARK SMILES CCn1cc(CN(C)C(=O)CCn2cc(C(=O)OCCOCCOC(=O)c3ccc(-c4c5nc(c(-c6c(F)cc(S(=O)(=O)[O-])cc6F)c6ccc([nH]6)c(-c6c(F)cc(S(=O)(=O)[O-])cc6F)c6nc(c(-c7c(F)cc(S(=O)(=O)[O-])cc7F)c7ccc4[nH]7)C=C6)C=C5)cc3)cn2)c(C)n1
REMARK SMILES IDX 19 1 18 2 16 3 17 4 15 5 13 6 14 7 94 8 93 9 12 10 11 11
REMARK SMILES IDX 9 12 10 13 7 14 8 15 6 16 5 17 3 18 4 19 97 20 95 21 96 22
REMARK SMILES IDX 2 23 1 24 20 25 21 26 22 27 23 28 24 29 25 30 26 31 27 32
REMARK SMILES IDX 28 33 92 34 29 35 91 36 30 37 31 38 32 39 85 40 33 41 90 42
REMARK SMILES IDX 84 43 86 44 34 45 89 46 83 47 82 48 35 50 69 51 48 52 68 53
REMARK SMILES IDX 49 54 52 55 67 56 87 57 50 58 51 59 66 61 88 62 53 63 36 64
REMARK SMILES IDX 37 65 46 66 38 67 39 68 45 69 47 70 40 71 41 72 42 73 43 74
REMARK SMILES IDX 44 75 70 76 71 77 80 78 72 79 73 80 79 81 81 82 74 83 75 84
REMARK SMILES IDX 76 85 77 86 78 87 54 88 55 89 64 90 56 91 57 92 63 93 65 94
REMARK SMILES IDX 58 95 59 96 60 97 61 98 62 99
REMARK H PARENT 86 49 52 60
REMARK Flexibility Score: inf
ROOT
ATOM      1  C   UNL A   1      31.748  30.796  26.620  1.00  0.00     0.261 C 
ENDROOT
BRANCH   1   2
ATOM      2  O   UNL A   1      31.460  30.281  25.306  1.00  0.00    -0.460 OA
BRANCH   2   3
ATOM      3  C   UNL A   1      32.329  29.340  24.861  1.00  0.00     0.341 C 
ATOM      4  O   UNL A   1      33.535  29.327  25.106  1.00  0.00    -0.246 OA
BRANCH   3   5
ATOM      5  C   UNL A   1      31.732  28.300  24.066  1.00  0.00     0.098 A 
ATOM      6  N   UNL A   1      31.606  26.411  22.989  1.00  0.00    -0.271 N 
ATOM      7  C   UNL A   1      32.290  27.602  23.009  1.00  0.00     0.124 A 
ATOM      8  N   UNL A   1      30.437  26.475  23.649  1.00  0.00    -0.181 NA
ATOM      9  C   UNL A   1      30.542  27.602  24.354  1.00  0.00     0.150 A 
BRANCH   6  10
ATOM     10  C   UNL A   1      32.090  25.127  22.513  1.00  0.00     0.154 C 
BRANCH  10  11
ATOM     11  C   UNL A   1      33.236  24.539  23.340  1.00  0.00     0.124 C 
BRANCH  11  12
ATOM     12  C   UNL A   1      32.970  24.484  24.843  1.00  0.00     0.224 C 
ATOM     13  O   UNL A   1      33.408  25.406  25.538  1.00  0.00    -0.275 OA
BRANCH  12  14
ATOM     14  N   UNL A   1      32.220  23.453  25.391  1.00  0.00    -0.341 N 
ATOM     15  C   UNL A   1      30.773  23.356  25.361  1.00  0.00     0.147 C 
BRANCH  14  16
ATOM     16  C   UNL A   1      32.852  22.512  26.313  1.00  0.00     0.158 C 
BRANCH  16  17
ATOM     17  C   UNL A   1      33.429  21.290  25.693  1.00  0.00     0.012 A 
ATOM     18  N   UNL A   1      33.592  19.316  24.736  1.00  0.00    -0.272 N 
ATOM     19  C   UNL A   1      32.697  20.211  25.233  1.00  0.00     0.114 A 
ATOM     20  N   UNL A   1      34.859  19.750  24.783  1.00  0.00    -0.178 NA
ATOM     21  C   UNL A   1      34.773  20.948  25.379  1.00  0.00     0.064 A 
ATOM     22  C   UNL A   1      36.011  21.719  25.643  1.00  0.00     0.069 C 
BRANCH  18  23
ATOM     23  C   UNL A   1      33.284  17.993  24.232  1.00  0.00     0.141 C 
ATOM     24  C   UNL A   1      34.508  17.121  24.009  1.00  0.00     0.029 C 
ENDBRANCH  18  23
ENDBRANCH  16  17
ENDBRANCH  14  16
ENDBRANCH  12  14
ENDBRANCH  11  12
ENDBRANCH  10  11
ENDBRANCH   6  10
ENDBRANCH   3   5
ENDBRANCH   2   3
ENDBRANCH   1   2
BRANCH   1  25
ATOM     25  C   UNL A   1      31.702  32.325  26.664  1.00  0.00     0.202 C 
BRANCH  25  26
ATOM     26  O   UNL A   1      32.133  32.956  27.868  1.00  0.00    -0.374 OA
BRANCH  26  27
ATOM     27  C   UNL A   1      33.061  34.032  27.816  1.00  0.00     0.202 C 
BRANCH  27  28
ATOM     28  C   UNL A   1      34.517  33.761  28.188  1.00  0.00     0.261 C 
BRANCH  28  29
ATOM     29  O   UNL A   1      34.707  32.564  28.947  1.00  0.00    -0.460 OA
BRANCH  29  30
ATOM     30  C   UNL A   1      35.249  31.546  28.230  1.00  0.00     0.338 C 
ATOM     31  O   UNL A   1      34.856  31.149  27.146  1.00  0.00    -0.246 OA
BRANCH  30  32
ATOM     32  C   UNL A   1      36.362  30.911  28.964  1.00  0.00     0.060 A 
ATOM     33  C   UNL A   1      37.552  31.642  29.026  1.00  0.00     0.016 A 
ATOM     34  C   UNL A   1      36.307  29.600  29.459  1.00  0.00     0.016 A 
ATOM     35  C   UNL A   1      38.713  31.025  29.459  1.00  0.00     0.010 A 
ATOM     36  C   UNL A   1      37.476  28.983  29.904  1.00  0.00     0.010 A 
ATOM     37  C   UNL A   1      38.687  29.679  29.839  1.00  0.00    -0.014 A 
BRANCH  37  38
ATOM     38  C   UNL A   1      39.989  29.045  30.042  1.00  0.00     0.031 A 
ATOM     39  C   UNL A   1      40.579  29.086  31.401  1.00  0.00     0.074 A 
ATOM     40  C   UNL A   1      40.672  28.457  29.039  1.00  0.00     0.049 A 
ATOM     41  N   UNL A   1      41.668  29.674  31.779  1.00  0.00    -0.248 NA
ATOM     42  C   UNL A   1      39.860  28.384  32.472  1.00  0.00     0.031 C 
ATOM     43  C   UNL A   1      40.138  28.054  27.736  1.00  0.00     0.029 A 
ATOM     44  N   UNL A   1      41.972  28.022  29.003  1.00  0.00    -0.354 N 
ATOM     45  C   UNL A   1      41.884  29.251  33.086  1.00  0.00     0.074 A 
ATOM     46  C   UNL A   1      40.697  28.542  33.499  1.00  0.00     0.031 C 
ATOM     47  C   UNL A   1      41.043  27.268  27.115  1.00  0.00     0.029 A 
ATOM     48  C   UNL A   1      42.264  27.230  27.906  1.00  0.00     0.049 A 
ATOM     49  H   UNL A   1      42.636  28.252  29.693  1.00  0.00     0.167 HD
ATOM     50  C   UNL A   1      43.107  29.305  33.676  1.00  0.00     0.037 A 
ATOM     51  C   UNL A   1      43.402  26.548  27.645  1.00  0.00     0.037 A 
ATOM     52  C   UNL A   1      44.062  30.110  32.971  1.00  0.00     0.049 A 
ATOM     53  C   UNL A   1      44.543  27.164  28.364  1.00  0.00     0.074 A 
ATOM     54  C   UNL A   1      44.467  31.425  32.963  1.00  0.00     0.029 A 
ATOM     55  N   UNL A   1      44.658  29.495  31.906  1.00  0.00    -0.354 N 
ATOM     56  N   UNL A   1      45.005  28.360  28.121  1.00  0.00    -0.248 NA
ATOM     57  C   UNL A   1      45.084  26.519  29.558  1.00  0.00     0.031 C 
ATOM     58  C   UNL A   1      45.243  31.611  31.780  1.00  0.00     0.029 A 
ATOM     59  C   UNL A   1      45.279  30.407  31.088  1.00  0.00     0.049 A 
ATOM     60  H   UNL A   1      44.644  28.524  31.746  1.00  0.00     0.167 HD
ATOM     61  C   UNL A   1      45.589  28.755  29.306  1.00  0.00     0.074 A 
ATOM     62  C   UNL A   1      45.752  27.544  30.093  1.00  0.00     0.031 C 
ATOM     63  C   UNL A   1      45.559  30.053  29.714  1.00  0.00     0.037 A 
BRANCH  50  64
ATOM     64  C   UNL A   1      43.569  28.294  34.687  1.00  0.00     0.058 A 
ATOM     65  C   UNL A   1      44.020  28.705  35.954  1.00  0.00     0.135 A 
ATOM     66  C   UNL A   1      43.854  26.961  34.321  1.00  0.00     0.135 A 
ATOM     67  F   UNL A   1      43.816  29.964  36.372  1.00  0.00    -0.206 F 
ATOM     68  C   UNL A   1      44.736  27.852  36.795  1.00  0.00     0.059 A 
ATOM     69  C   UNL A   1      44.528  26.082  35.160  1.00  0.00     0.059 A 
ATOM     70  F   UNL A   1      43.564  26.499  33.095  1.00  0.00    -0.206 F 
ATOM     71  C   UNL A   1      44.999  26.548  36.380  1.00  0.00     0.060 A 
BRANCH  71  72
ATOM     72  S   UNL A   1      45.996  25.460  37.415  1.00  0.00     0.124 S 
ATOM     73  O   UNL A   1      45.180  24.253  37.438  1.00  0.00    -0.237 OA
ATOM     74  O   UNL A   1      47.248  25.371  36.669  1.00  0.00    -0.237 OA
ATOM     75  O   UNL A   1      46.081  26.195  38.674  1.00  0.00    -0.744 OA
ENDBRANCH  71  72
ENDBRANCH  50  64
BRANCH  51  76
ATOM     76  C   UNL A   1      43.515  25.264  26.913  1.00  0.00     0.058 A 
ATOM     77  C   UNL A   1      44.014  25.201  25.603  1.00  0.00     0.135 A 
ATOM     78  C   UNL A   1      43.348  24.032  27.581  1.00  0.00     0.135 A 
ATOM     79  F   UNL A   1      44.243  26.327  24.912  1.00  0.00    -0.206 F 
ATOM     80  C   UNL A   1      44.344  23.988  24.994  1.00  0.00     0.059 A 
ATOM     81  C   UNL A   1      43.649  22.810  26.988  1.00  0.00     0.059 A 
ATOM     82  F   UNL A   1      42.962  23.987  28.865  1.00  0.00    -0.206 F 
ATOM     83  C   UNL A   1      44.167  22.798  25.699  1.00  0.00     0.060 A 
BRANCH  83  84
ATOM     84  S   UNL A   1      44.722  21.244  24.967  1.00  0.00     0.124 S 
ATOM     85  O   UNL A   1      46.107  21.176  25.419  1.00  0.00    -0.237 OA
ATOM     86  O   UNL A   1      43.806  20.279  25.566  1.00  0.00    -0.237 OA
ATOM     87  O   UNL A   1      44.542  21.462  23.533  1.00  0.00    -0.744 OA
ENDBRANCH  83  84
ENDBRANCH  51  76
BRANCH  63  88
ATOM     88  C   UNL A   1      45.568  31.122  28.670  1.00  0.00     0.058 A 
ATOM     89  C   UNL A   1      44.412  31.657  28.084  1.00  0.00     0.135 A 
ATOM     90  C   UNL A   1      46.803  31.670  28.289  1.00  0.00     0.135 A 
ATOM     91  F   UNL A   1      43.195  31.234  28.458  1.00  0.00    -0.206 F 
ATOM     92  C   UNL A   1      44.484  32.673  27.128  1.00  0.00     0.059 A 
ATOM     93  C   UNL A   1      46.898  32.698  27.357  1.00  0.00     0.059 A 
ATOM     94  F   UNL A   1      47.939  31.227  28.853  1.00  0.00    -0.206 F 
ATOM     95  C   UNL A   1      45.732  33.185  26.768  1.00  0.00     0.060 A 
BRANCH  95  96
ATOM     96  S   UNL A   1      45.825  34.551  25.589  1.00  0.00     0.124 S 
ATOM     97  O   UNL A   1      47.241  34.558  25.240  1.00  0.00    -0.237 OA
ATOM     98  O   UNL A   1      44.913  34.129  24.530  1.00  0.00    -0.237 OA
ATOM     99  O   UNL A   1      45.368  35.700  26.369  1.00  0.00    -0.744 OA
ENDBRANCH  95  96
ENDBRANCH  63  88
ENDBRANCH  37  38
ENDBRANCH  30  32
ENDBRANCH  29  30
ENDBRANCH  28  29
ENDBRANCH  27  28
ENDBRANCH  26  27
ENDBRANCH  25  26
ENDBRANCH   1  25
TORSDOF 24
ENDMDL
