MODEL 1
REMARK VINA RESULT:     -11.6      0.000      0.000
REMARK SMILES COc1cccc(C(=O)NNC(=O)[C@H]2CC(C)=C(C)C[C@@H]2C(=O)OCCOCCOC(=O)c2ccc(-c3c4nc(c(-c5c(F)cc(S(=O)(=O)[O-])cc5F)c5ccc([nH]5)c(-c5c(F)cc(S(=O)(=O)[O-])cc5F)c5nc(c(-c6c(F)cc(S(=O)(=O)[O-])cc6F)c6ccc3[nH]6)C=C5)C=C4)cc2)c1
REMARK SMILES IDX 26 1 25 2 24 3 22 4 23 5 21 6 14 7 15 8 16 9 20 10 17 11
REMARK SMILES IDX 18 12 19 13 12 14 11 15 13 17 10 18 8 19 9 20 7 22 3 23 4 24
REMARK SMILES IDX 99 25 5 26 6 27 2 28 1 29 27 30 28 31 29 32 30 33 31 34
REMARK SMILES IDX 32 35 33 36 34 37 98 38 35 39 97 40 36 41 37 42 38 43 91 44
REMARK SMILES IDX 39 45 96 46 90 47 92 48 40 49 95 50 89 51 88 52 41 54 75 55
REMARK SMILES IDX 54 56 74 57 55 58 58 59 73 60 93 61 56 62 57 63 72 65 94 66
REMARK SMILES IDX 59 67 42 68 43 69 52 70 44 71 45 72 51 73 53 74 46 75 47 76
REMARK SMILES IDX 48 77 49 78 50 79 76 80 77 81 86 82 78 83 79 84 85 85 87 86
REMARK SMILES IDX 80 87 81 88 82 89 83 90 84 91 60 92 61 93 70 94 62 95 63 96
REMARK SMILES IDX 69 97 71 98 64 99 65 100 66 101 67 102 68 103
REMARK H PARENT 11 16 10 21 92 53 58 64
REMARK Flexibility Score: inf
ROOT
ATOM      1  C   UNL A   1      36.646  21.863  24.355  1.00  0.00     0.202 C 
ENDROOT
BRANCH   1   2
ATOM      2  C   UNL A   1      36.627  23.341  23.946  1.00  0.00     0.261 C 
BRANCH   2   3
ATOM      3  O   UNL A   1      35.635  24.076  24.681  1.00  0.00    -0.463 OA
BRANCH   3   4
ATOM      4  C   UNL A   1      34.579  24.528  23.950  1.00  0.00     0.310 C 
ATOM      5  O   UNL A   1      34.458  24.374  22.740  1.00  0.00    -0.252 OA
BRANCH   4   6
ATOM      6  C   UNL A   1      33.450  24.990  24.855  1.00  0.00     0.116 C 
ATOM      7  C   UNL A   1      32.215  25.363  24.011  1.00  0.00     0.099 C 
ATOM      8  C   UNL A   1      32.002  26.866  23.809  1.00  0.00     0.045 C 
ATOM      9  C   UNL A   1      32.762  27.824  24.695  1.00  0.00    -0.074 C 
ATOM     10  C   UNL A   1      33.857  25.971  25.949  1.00  0.00     0.046 C 
ATOM     11  C   UNL A   1      32.529  29.274  24.352  1.00  0.00     0.039 C 
ATOM     12  C   UNL A   1      33.581  27.419  25.685  1.00  0.00    -0.073 C 
ATOM     13  C   UNL A   1      34.267  28.366  26.638  1.00  0.00     0.039 C 
BRANCH   7  14
ATOM     14  C   UNL A   1      31.032  24.598  24.600  1.00  0.00     0.242 C 
ATOM     15  N   UNL A   1      30.763  23.345  24.069  1.00  0.00    -0.267 N 
ATOM     16  H   UNL A   1      30.224  22.724  24.609  1.00  0.00     0.191 HD
ATOM     17  O   UNL A   1      30.387  24.991  25.569  1.00  0.00    -0.273 OA
BRANCH  15  18
ATOM     18  N   UNL A   1      31.206  22.906  22.816  1.00  0.00    -0.263 N 
ATOM     19  C   UNL A   1      31.956  21.769  22.561  1.00  0.00     0.269 C 
ATOM     20  O   UNL A   1      32.330  21.546  21.410  1.00  0.00    -0.267 OA
ATOM     21  H   UNL A   1      30.960  23.458  22.039  1.00  0.00     0.191 HD
BRANCH  19  22
ATOM     22  C   UNL A   1      32.375  20.830  23.636  1.00  0.00     0.045 A 
ATOM     23  C   UNL A   1      32.589  18.617  24.606  1.00  0.00     0.119 A 
ATOM     24  C   UNL A   1      33.141  19.181  25.759  1.00  0.00     0.046 A 
ATOM     25  C   UNL A   1      32.258  19.440  23.527  1.00  0.00     0.060 A 
ATOM     26  C   UNL A   1      33.341  20.559  25.847  1.00  0.00     0.005 A 
ATOM     27  C   UNL A   1      32.947  21.382  24.793  1.00  0.00     0.014 A 
BRANCH  23  28
ATOM     28  O   UNL A   1      32.423  17.261  24.649  1.00  0.00    -0.497 OA
ATOM     29  C   UNL A   1      33.192  16.554  25.617  1.00  0.00     0.278 C 
ENDBRANCH  23  28
ENDBRANCH  19  22
ENDBRANCH  15  18
ENDBRANCH   7  14
ENDBRANCH   4   6
ENDBRANCH   3   4
ENDBRANCH   2   3
ENDBRANCH   1   2
BRANCH   1  30
ATOM     30  O   UNL A   1      37.709  21.411  25.193  1.00  0.00    -0.374 OA
BRANCH  30  31
ATOM     31  C   UNL A   1      38.362  22.364  26.025  1.00  0.00     0.202 C 
BRANCH  31  32
ATOM     32  C   UNL A   1      39.841  22.165  26.378  1.00  0.00     0.261 C 
BRANCH  32  33
ATOM     33  O   UNL A   1      40.298  23.030  27.426  1.00  0.00    -0.460 OA
BRANCH  33  34
ATOM     34  C   UNL A   1      41.188  23.972  27.029  1.00  0.00     0.338 C 
ATOM     35  O   UNL A   1      41.948  23.914  26.070  1.00  0.00    -0.246 OA
BRANCH  34  36
ATOM     36  C   UNL A   1      40.982  25.201  27.809  1.00  0.00     0.060 A 
ATOM     37  C   UNL A   1      42.032  26.129  27.865  1.00  0.00     0.016 A 
ATOM     38  C   UNL A   1      39.802  25.410  28.522  1.00  0.00     0.016 A 
ATOM     39  C   UNL A   1      41.914  27.266  28.659  1.00  0.00     0.010 A 
ATOM     40  C   UNL A   1      39.695  26.540  29.333  1.00  0.00     0.010 A 
ATOM     41  C   UNL A   1      40.759  27.455  29.426  1.00  0.00    -0.014 A 
BRANCH  41  42
ATOM     42  C   UNL A   1      40.713  28.520  30.453  1.00  0.00     0.031 A 
ATOM     43  C   UNL A   1      41.644  28.420  31.628  1.00  0.00     0.074 A 
ATOM     44  C   UNL A   1      39.840  29.536  30.349  1.00  0.00     0.049 A 
ATOM     45  N   UNL A   1      41.683  29.141  32.716  1.00  0.00    -0.248 NA
ATOM     46  C   UNL A   1      42.661  27.358  31.568  1.00  0.00     0.031 C 
ATOM     47  C   UNL A   1      38.929  29.756  29.227  1.00  0.00     0.029 A 
ATOM     48  N   UNL A   1      39.560  30.560  31.218  1.00  0.00    -0.354 N 
ATOM     49  C   UNL A   1      42.712  28.607  33.482  1.00  0.00     0.074 A 
ATOM     50  C   UNL A   1      43.260  27.492  32.742  1.00  0.00     0.031 C 
ATOM     51  C   UNL A   1      38.167  30.832  29.490  1.00  0.00     0.029 A 
ATOM     52  C   UNL A   1      38.508  31.347  30.815  1.00  0.00     0.049 A 
ATOM     53  H   UNL A   1      40.064  30.717  32.049  1.00  0.00     0.167 HD
ATOM     54  C   UNL A   1      43.155  29.014  34.695  1.00  0.00     0.037 A 
ATOM     55  C   UNL A   1      37.870  32.343  31.461  1.00  0.00     0.037 A 
ATOM     56  C   UNL A   1      42.597  30.127  35.417  1.00  0.00     0.049 A 
ATOM     57  C   UNL A   1      38.336  32.737  32.840  1.00  0.00     0.074 A 
ATOM     58  C   UNL A   1      42.979  30.634  36.646  1.00  0.00     0.029 A 
ATOM     59  N   UNL A   1      41.532  30.900  34.976  1.00  0.00    -0.354 N 
ATOM     60  N   UNL A   1      39.314  32.233  33.555  1.00  0.00    -0.248 NA
ATOM     61  C   UNL A   1      37.614  33.833  33.501  1.00  0.00     0.031 C 
ATOM     62  C   UNL A   1      42.112  31.681  36.973  1.00  0.00     0.029 A 
ATOM     63  C   UNL A   1      41.229  31.867  35.920  1.00  0.00     0.049 A 
ATOM     64  H   UNL A   1      41.061  30.779  34.121  1.00  0.00     0.167 HD
ATOM     65  C   UNL A   1      39.350  32.974  34.732  1.00  0.00     0.074 A 
ATOM     66  C   UNL A   1      38.291  33.959  34.634  1.00  0.00     0.031 C 
ATOM     67  C   UNL A   1      40.185  32.855  35.792  1.00  0.00     0.037 A 
BRANCH  54  68
ATOM     68  C   UNL A   1      44.270  28.230  35.331  1.00  0.00     0.058 A 
ATOM     69  C   UNL A   1      44.020  27.165  36.211  1.00  0.00     0.135 A 
ATOM     70  C   UNL A   1      45.609  28.532  35.032  1.00  0.00     0.135 A 
ATOM     71  F   UNL A   1      42.761  26.846  36.547  1.00  0.00    -0.206 F 
ATOM     72  C   UNL A   1      45.059  26.445  36.792  1.00  0.00     0.059 A 
ATOM     73  C   UNL A   1      46.662  27.805  35.578  1.00  0.00     0.059 A 
ATOM     74  F   UNL A   1      45.904  29.543  34.200  1.00  0.00    -0.206 F 
ATOM     75  C   UNL A   1      46.377  26.773  36.469  1.00  0.00     0.060 A 
BRANCH  75  76
ATOM     76  S   UNL A   1      47.713  25.825  37.228  1.00  0.00     0.124 S 
ATOM     77  O   UNL A   1      48.098  24.938  36.135  1.00  0.00    -0.237 OA
ATOM     78  O   UNL A   1      48.678  26.865  37.570  1.00  0.00    -0.237 OA
ATOM     79  O   UNL A   1      47.066  25.176  38.364  1.00  0.00    -0.744 OA
ENDBRANCH  75  76
ENDBRANCH  54  68
BRANCH  55  80
ATOM     80  C   UNL A   1      36.712  33.019  30.820  1.00  0.00     0.058 A 
ATOM     81  C   UNL A   1      35.400  32.779  31.256  1.00  0.00     0.135 A 
ATOM     82  C   UNL A   1      36.893  33.933  29.769  1.00  0.00     0.135 A 
ATOM     83  F   UNL A   1      35.174  31.907  32.251  1.00  0.00    -0.206 F 
ATOM     84  C   UNL A   1      34.310  33.412  30.668  1.00  0.00     0.059 A 
ATOM     85  C   UNL A   1      35.822  34.597  29.182  1.00  0.00     0.059 A 
ATOM     86  F   UNL A   1      38.129  34.206  29.322  1.00  0.00    -0.206 F 
ATOM     87  C   UNL A   1      34.532  34.323  29.634  1.00  0.00     0.060 A 
BRANCH  87  88
ATOM     88  S   UNL A   1      33.113  35.180  28.916  1.00  0.00     0.124 S 
ATOM     89  O   UNL A   1      32.270  35.386  30.087  1.00  0.00    -0.237 OA
ATOM     90  O   UNL A   1      33.733  36.378  28.356  1.00  0.00    -0.237 OA
ATOM     91  O   UNL A   1      32.608  34.227  27.932  1.00  0.00    -0.744 OA
ENDBRANCH  87  88
ENDBRANCH  55  80
BRANCH  67  92
ATOM     92  C   UNL A   1      40.043  33.847  36.914  1.00  0.00     0.058 A 
ATOM     93  C   UNL A   1      40.695  35.089  36.895  1.00  0.00     0.135 A 
ATOM     94  C   UNL A   1      39.162  33.583  37.976  1.00  0.00     0.135 A 
ATOM     95  F   UNL A   1      41.552  35.388  35.907  1.00  0.00    -0.206 F 
ATOM     96  C   UNL A   1      40.482  36.034  37.894  1.00  0.00     0.059 A 
ATOM     97  C   UNL A   1      38.913  34.523  38.970  1.00  0.00     0.059 A 
ATOM     98  F   UNL A   1      38.505  32.413  38.035  1.00  0.00    -0.206 F 
ATOM     99  C   UNL A   1      39.583  35.745  38.923  1.00  0.00     0.060 A 
BRANCH  99 100
ATOM    100  S   UNL A   1      39.264  37.006  40.175  1.00  0.00     0.124 S 
ATOM    101  O   UNL A   1      38.560  38.021  39.399  1.00  0.00    -0.237 OA
ATOM    102  O   UNL A   1      38.456  36.280  41.150  1.00  0.00    -0.237 OA
ATOM    103  O   UNL A   1      40.599  37.380  40.631  1.00  0.00    -0.744 OA
ENDBRANCH  99 100
ENDBRANCH  67  92
ENDBRANCH  41  42
ENDBRANCH  34  36
ENDBRANCH  33  34
ENDBRANCH  32  33
ENDBRANCH  31  32
ENDBRANCH  30  31
ENDBRANCH   1  30
TORSDOF 21
ENDMDL
MODEL 2
REMARK VINA RESULT:     -11.4      6.373     11.044
REMARK SMILES COc1cccc(C(=O)NNC(=O)[C@H]2CC(C)=C(C)C[C@@H]2C(=O)OCCOCCOC(=O)c2ccc(-c3c4nc(c(-c5c(F)cc(S(=O)(=O)[O-])cc5F)c5ccc([nH]5)c(-c5c(F)cc(S(=O)(=O)[O-])cc5F)c5nc(c(-c6c(F)cc(S(=O)(=O)[O-])cc6F)c6ccc3[nH]6)C=C5)C=C4)cc2)c1
REMARK SMILES IDX 26 1 25 2 24 3 22 4 23 5 21 6 14 7 15 8 16 9 20 10 17 11
REMARK SMILES IDX 18 12 19 13 12 14 11 15 13 17 10 18 8 19 9 20 7 22 3 23 4 24
REMARK SMILES IDX 99 25 5 26 6 27 2 28 1 29 27 30 28 31 29 32 30 33 31 34
REMARK SMILES IDX 32 35 33 36 34 37 98 38 35 39 97 40 36 41 37 42 38 43 91 44
REMARK SMILES IDX 39 45 96 46 90 47 92 48 40 49 95 50 89 51 88 52 41 54 75 55
REMARK SMILES IDX 54 56 74 57 55 58 58 59 73 60 93 61 56 62 57 63 72 65 94 66
REMARK SMILES IDX 59 67 42 68 43 69 52 70 44 71 45 72 51 73 53 74 46 75 47 76
REMARK SMILES IDX 48 77 49 78 50 79 76 80 77 81 86 82 78 83 79 84 85 85 87 86
REMARK SMILES IDX 80 87 81 88 82 89 83 90 84 91 60 92 61 93 70 94 62 95 63 96
REMARK SMILES IDX 69 97 71 98 64 99 65 100 66 101 67 102 68 103
REMARK H PARENT 11 16 10 21 92 53 58 64
REMARK Flexibility Score: inf
ROOT
ATOM      1  C   UNL A   1      32.678  30.518  27.057  1.00  0.00     0.202 C 
ENDROOT
BRANCH   1   2
ATOM      2  C   UNL A   1      32.108  29.575  25.991  1.00  0.00     0.261 C 
BRANCH   2   3
ATOM      3  O   UNL A   1      32.469  28.209  26.251  1.00  0.00    -0.463 OA
BRANCH   3   4
ATOM      4  C   UNL A   1      31.569  27.494  26.980  1.00  0.00     0.310 C 
ATOM      5  O   UNL A   1      31.015  27.904  27.993  1.00  0.00    -0.252 OA
BRANCH   4   6
ATOM      6  C   UNL A   1      31.129  26.248  26.230  1.00  0.00     0.116 C 
ATOM      7  C   UNL A   1      32.203  25.149  26.356  1.00  0.00     0.099 C 
ATOM      8  C   UNL A   1      33.095  24.974  25.124  1.00  0.00     0.045 C 
ATOM      9  C   UNL A   1      32.654  25.602  23.823  1.00  0.00    -0.074 C 
ATOM     10  C   UNL A   1      30.562  26.498  24.836  1.00  0.00     0.046 C 
ATOM     11  C   UNL A   1      33.649  25.427  22.703  1.00  0.00     0.039 C 
ATOM     12  C   UNL A   1      31.492  26.269  23.685  1.00  0.00    -0.073 C 
ATOM     13  C   UNL A   1      30.998  26.816  22.368  1.00  0.00     0.039 C 
BRANCH   7  14
ATOM     14  C   UNL A   1      31.488  23.890  26.843  1.00  0.00     0.242 C 
ATOM     15  N   UNL A   1      32.275  22.894  27.402  1.00  0.00    -0.267 N 
ATOM     16  H   UNL A   1      31.834  22.231  27.980  1.00  0.00     0.191 HD
ATOM     17  O   UNL A   1      30.266  23.768  26.854  1.00  0.00    -0.273 OA
BRANCH  15  18
ATOM     18  N   UNL A   1      33.653  22.768  27.198  1.00  0.00    -0.263 N 
ATOM     19  C   UNL A   1      34.278  21.914  26.303  1.00  0.00     0.269 C 
ATOM     20  O   UNL A   1      35.507  21.864  26.282  1.00  0.00    -0.267 OA
ATOM     21  H   UNL A   1      34.238  23.342  27.743  1.00  0.00     0.191 HD
BRANCH  19  22
ATOM     22  C   UNL A   1      33.518  21.010  25.397  1.00  0.00     0.045 A 
ATOM     23  C   UNL A   1      32.445  18.904  24.853  1.00  0.00     0.119 A 
ATOM     24  C   UNL A   1      32.154  19.387  23.576  1.00  0.00     0.046 A 
ATOM     25  C   UNL A   1      33.079  19.737  25.778  1.00  0.00     0.060 A 
ATOM     26  C   UNL A   1      32.512  20.685  23.211  1.00  0.00     0.005 A 
ATOM     27  C   UNL A   1      33.203  21.490  24.116  1.00  0.00     0.014 A 
BRANCH  23  28
ATOM     28  O   UNL A   1      32.064  17.611  25.083  1.00  0.00    -0.497 OA
ATOM     29  C   UNL A   1      33.074  16.720  25.548  1.00  0.00     0.278 C 
ENDBRANCH  23  28
ENDBRANCH  19  22
ENDBRANCH  15  18
ENDBRANCH   7  14
ENDBRANCH   4   6
ENDBRANCH   3   4
ENDBRANCH   2   3
ENDBRANCH   1   2
BRANCH   1  30
ATOM     30  O   UNL A   1      33.974  30.235  27.582  1.00  0.00    -0.374 OA
BRANCH  30  31
ATOM     31  C   UNL A   1      34.853  31.328  27.830  1.00  0.00     0.202 C 
BRANCH  31  32
ATOM     32  C   UNL A   1      35.118  31.766  29.276  1.00  0.00     0.261 C 
BRANCH  32  33
ATOM     33  O   UNL A   1      36.506  31.732  29.635  1.00  0.00    -0.460 OA
BRANCH  33  34
ATOM     34  C   UNL A   1      36.867  30.660  30.380  1.00  0.00     0.338 C 
ATOM     35  O   UNL A   1      36.210  30.114  31.259  1.00  0.00    -0.246 OA
BRANCH  34  36
ATOM     36  C   UNL A   1      38.114  30.090  29.848  1.00  0.00     0.060 A 
ATOM     37  C   UNL A   1      39.154  29.825  30.750  1.00  0.00     0.016 A 
ATOM     38  C   UNL A   1      38.280  29.878  28.480  1.00  0.00     0.016 A 
ATOM     39  C   UNL A   1      40.381  29.365  30.282  1.00  0.00     0.010 A 
ATOM     40  C   UNL A   1      39.519  29.437  28.011  1.00  0.00     0.010 A 
ATOM     41  C   UNL A   1      40.580  29.207  28.906  1.00  0.00    -0.014 A 
BRANCH  41  42
ATOM     42  C   UNL A   1      41.936  28.956  28.373  1.00  0.00     0.031 A 
ATOM     43  C   UNL A   1      42.294  27.556  27.961  1.00  0.00     0.074 A 
ATOM     44  C   UNL A   1      42.835  29.951  28.285  1.00  0.00     0.049 A 
ATOM     45  N   UNL A   1      43.453  27.067  27.611  1.00  0.00    -0.248 NA
ATOM     46  C   UNL A   1      41.196  26.576  27.951  1.00  0.00     0.031 C 
ATOM     47  C   UNL A   1      42.578  31.353  28.609  1.00  0.00     0.029 A 
ATOM     48  N   UNL A   1      44.158  29.925  27.921  1.00  0.00    -0.354 N 
ATOM     49  C   UNL A   1      43.230  25.718  27.362  1.00  0.00     0.074 A 
ATOM     50  C   UNL A   1      41.830  25.463  27.616  1.00  0.00     0.031 C 
ATOM     51  C   UNL A   1      43.717  32.050  28.458  1.00  0.00     0.029 A 
ATOM     52  C   UNL A   1      44.789  31.136  28.071  1.00  0.00     0.049 A 
ATOM     53  H   UNL A   1      44.610  29.118  27.585  1.00  0.00     0.167 HD
ATOM     54  C   UNL A   1      44.119  24.779  26.957  1.00  0.00     0.037 A 
ATOM     55  C   UNL A   1      46.093  31.458  27.947  1.00  0.00     0.037 A 
ATOM     56  C   UNL A   1      45.510  25.052  26.709  1.00  0.00     0.049 A 
ATOM     57  C   UNL A   1      47.079  30.384  27.562  1.00  0.00     0.074 A 
ATOM     58  C   UNL A   1      46.495  24.180  26.282  1.00  0.00     0.029 A 
ATOM     59  N   UNL A   1      46.114  26.291  26.871  1.00  0.00    -0.354 N 
ATOM     60  N   UNL A   1      46.859  29.113  27.321  1.00  0.00    -0.248 NA
ATOM     61  C   UNL A   1      48.486  30.784  27.432  1.00  0.00     0.031 C 
ATOM     62  C   UNL A   1      47.705  24.878  26.236  1.00  0.00     0.029 A 
ATOM     63  C   UNL A   1      47.463  26.202  26.575  1.00  0.00     0.049 A 
ATOM     64  H   UNL A   1      45.652  27.113  27.156  1.00  0.00     0.167 HD
ATOM     65  C   UNL A   1      48.093  28.571  26.973  1.00  0.00     0.074 A 
ATOM     66  C   UNL A   1      49.055  29.652  27.040  1.00  0.00     0.031 C 
ATOM     67  C   UNL A   1      48.400  27.297  26.624  1.00  0.00     0.037 A 
BRANCH  54  68
ATOM     68  C   UNL A   1      43.622  23.369  26.798  1.00  0.00     0.058 A 
ATOM     69  C   UNL A   1      43.367  22.542  27.903  1.00  0.00     0.135 A 
ATOM     70  C   UNL A   1      43.371  22.848  25.518  1.00  0.00     0.135 A 
ATOM     71  F   UNL A   1      43.609  22.983  29.148  1.00  0.00    -0.206 F 
ATOM     72  C   UNL A   1      42.905  21.240  27.744  1.00  0.00     0.059 A 
ATOM     73  C   UNL A   1      42.881  21.558  25.337  1.00  0.00     0.059 A 
ATOM     74  F   UNL A   1      43.602  23.594  24.426  1.00  0.00    -0.206 F 
ATOM     75  C   UNL A   1      42.665  20.756  26.456  1.00  0.00     0.060 A 
BRANCH  75  76
ATOM     76  S   UNL A   1      42.062  19.065  26.268  1.00  0.00     0.124 S 
ATOM     77  O   UNL A   1      43.024  18.519  25.315  1.00  0.00    -0.237 OA
ATOM     78  O   UNL A   1      42.155  18.547  27.628  1.00  0.00    -0.237 OA
ATOM     79  O   UNL A   1      40.706  19.243  25.758  1.00  0.00    -0.744 OA
ENDBRANCH  75  76
ENDBRANCH  54  68
BRANCH  55  80
ATOM     80  C   UNL A   1      46.540  32.850  28.210  1.00  0.00     0.058 A 
ATOM     81  C   UNL A   1      46.956  33.248  29.490  1.00  0.00     0.135 A 
ATOM     82  C   UNL A   1      46.577  33.809  27.185  1.00  0.00     0.135 A 
ATOM     83  F   UNL A   1      46.929  32.372  30.506  1.00  0.00    -0.206 F 
ATOM     84  C   UNL A   1      47.383  34.547  29.747  1.00  0.00     0.059 A 
ATOM     85  C   UNL A   1      47.024  35.106  27.410  1.00  0.00     0.059 A 
ATOM     86  F   UNL A   1      46.201  33.476  25.940  1.00  0.00    -0.206 F 
ATOM     87  C   UNL A   1      47.418  35.469  28.698  1.00  0.00     0.060 A 
BRANCH  87  88
ATOM     88  S   UNL A   1      48.026  37.136  29.031  1.00  0.00     0.124 S 
ATOM     89  O   UNL A   1      48.795  36.930  30.252  1.00  0.00    -0.237 OA
ATOM     90  O   UNL A   1      48.802  37.422  27.827  1.00  0.00    -0.237 OA
ATOM     91  O   UNL A   1      46.802  37.917  29.177  1.00  0.00    -0.744 OA
ENDBRANCH  87  88
ENDBRANCH  55  80
BRANCH  67  92
ATOM     92  C   UNL A   1      49.819  27.001  26.224  1.00  0.00     0.058 A 
ATOM     93  C   UNL A   1      50.775  26.557  27.151  1.00  0.00     0.135 A 
ATOM     94  C   UNL A   1      50.197  27.072  24.874  1.00  0.00     0.135 A 
ATOM     95  F   UNL A   1      50.467  26.479  28.455  1.00  0.00    -0.206 F 
ATOM     96  C   UNL A   1      52.059  26.199  26.752  1.00  0.00     0.059 A 
ATOM     97  C   UNL A   1      51.466  26.693  24.449  1.00  0.00     0.059 A 
ATOM     98  F   UNL A   1      49.317  27.481  23.946  1.00  0.00    -0.206 F 
ATOM     99  C   UNL A   1      52.392  26.262  25.397  1.00  0.00     0.060 A 
BRANCH  99 100
ATOM    100  S   UNL A   1      54.039  25.729  24.884  1.00  0.00     0.124 S 
ATOM    101  O   UNL A   1      54.147  26.337  23.562  1.00  0.00    -0.237 OA
ATOM    102  O   UNL A   1      54.890  26.308  25.919  1.00  0.00    -0.237 OA
ATOM    103  O   UNL A   1      53.947  24.272  24.900  1.00  0.00    -0.744 OA
ENDBRANCH  99 100
ENDBRANCH  67  92
ENDBRANCH  41  42
ENDBRANCH  34  36
ENDBRANCH  33  34
ENDBRANCH  32  33
ENDBRANCH  31  32
ENDBRANCH  30  31
ENDBRANCH   1  30
TORSDOF 21
ENDMDL
MODEL 3
REMARK VINA RESULT:     -11.3      6.525     11.885
REMARK SMILES COc1cccc(C(=O)NNC(=O)[C@H]2CC(C)=C(C)C[C@@H]2C(=O)OCCOCCOC(=O)c2ccc(-c3c4nc(c(-c5c(F)cc(S(=O)(=O)[O-])cc5F)c5ccc([nH]5)c(-c5c(F)cc(S(=O)(=O)[O-])cc5F)c5nc(c(-c6c(F)cc(S(=O)(=O)[O-])cc6F)c6ccc3[nH]6)C=C5)C=C4)cc2)c1
REMARK SMILES IDX 26 1 25 2 24 3 22 4 23 5 21 6 14 7 15 8 16 9 20 10 17 11
REMARK SMILES IDX 18 12 19 13 12 14 11 15 13 17 10 18 8 19 9 20 7 22 3 23 4 24
REMARK SMILES IDX 99 25 5 26 6 27 2 28 1 29 27 30 28 31 29 32 30 33 31 34
REMARK SMILES IDX 32 35 33 36 34 37 98 38 35 39 97 40 36 41 37 42 38 43 91 44
REMARK SMILES IDX 39 45 96 46 90 47 92 48 40 49 95 50 89 51 88 52 41 54 75 55
REMARK SMILES IDX 54 56 74 57 55 58 58 59 73 60 93 61 56 62 57 63 72 65 94 66
REMARK SMILES IDX 59 67 42 68 43 69 52 70 44 71 45 72 51 73 53 74 46 75 47 76
REMARK SMILES IDX 48 77 49 78 50 79 76 80 77 81 86 82 78 83 79 84 85 85 87 86
REMARK SMILES IDX 80 87 81 88 82 89 83 90 84 91 60 92 61 93 70 94 62 95 63 96
REMARK SMILES IDX 69 97 71 98 64 99 65 100 66 101 67 102 68 103
REMARK H PARENT 11 16 10 21 92 53 58 64
REMARK Flexibility Score: inf
ROOT
ATOM      1  C   UNL A   1      33.603  31.190  27.634  1.00  0.00     0.202 C 
ENDROOT
BRANCH   1   2
ATOM      2  C   UNL A   1      32.231  30.882  27.022  1.00  0.00     0.261 C 
BRANCH   2   3
ATOM      3  O   UNL A   1      32.323  29.867  26.009  1.00  0.00    -0.463 OA
BRANCH   3   4
ATOM      4  C   UNL A   1      32.137  28.590  26.441  1.00  0.00     0.310 C 
ATOM      5  O   UNL A   1      31.680  28.288  27.536  1.00  0.00    -0.252 OA
BRANCH   4   6
ATOM      6  C   UNL A   1      32.298  27.602  25.297  1.00  0.00     0.116 C 
ATOM      7  C   UNL A   1      30.921  27.260  24.697  1.00  0.00     0.099 C 
ATOM      8  C   UNL A   1      30.348  25.906  25.128  1.00  0.00     0.045 C 
ATOM      9  C   UNL A   1      31.276  24.909  25.781  1.00  0.00    -0.074 C 
ATOM     10  C   UNL A   1      33.236  26.433  25.579  1.00  0.00     0.046 C 
ATOM     11  C   UNL A   1      30.583  23.647  26.229  1.00  0.00     0.039 C 
ATOM     12  C   UNL A   1      32.591  25.136  25.959  1.00  0.00    -0.073 C 
ATOM     13  C   UNL A   1      33.544  24.109  26.521  1.00  0.00     0.039 C 
BRANCH   7  14
ATOM     14  C   UNL A   1      31.028  27.486  23.191  1.00  0.00     0.242 C 
ATOM     15  N   UNL A   1      29.899  27.964  22.542  1.00  0.00    -0.267 N 
ATOM     16  H   UNL A   1      30.021  28.395  21.665  1.00  0.00     0.191 HD
ATOM     17  O   UNL A   1      32.076  27.363  22.561  1.00  0.00    -0.273 OA
BRANCH  15  18
ATOM     18  N   UNL A   1      28.598  27.876  23.050  1.00  0.00    -0.263 N 
ATOM     19  C   UNL A   1      27.638  28.874  23.032  1.00  0.00     0.269 C 
ATOM     20  O   UNL A   1      26.555  28.672  23.580  1.00  0.00    -0.267 OA
ATOM     21  H   UNL A   1      28.339  27.019  23.461  1.00  0.00     0.191 HD
BRANCH  19  22
ATOM     22  C   UNL A   1      27.883  30.208  22.420  1.00  0.00     0.045 A 
ATOM     23  C   UNL A   1      28.313  32.592  22.541  1.00  0.00     0.119 A 
ATOM     24  C   UNL A   1      28.260  32.667  21.147  1.00  0.00     0.046 A 
ATOM     25  C   UNL A   1      28.179  31.352  23.170  1.00  0.00     0.060 A 
ATOM     26  C   UNL A   1      28.050  31.520  20.383  1.00  0.00     0.005 A 
ATOM     27  C   UNL A   1      27.850  30.295  21.019  1.00  0.00     0.014 A 
BRANCH  23  28
ATOM     28  O   UNL A   1      28.502  33.787  23.178  1.00  0.00    -0.497 OA
ATOM     29  C   UNL A   1      29.829  34.082  23.601  1.00  0.00     0.278 C 
ENDBRANCH  23  28
ENDBRANCH  19  22
ENDBRANCH  15  18
ENDBRANCH   7  14
ENDBRANCH   4   6
ENDBRANCH   3   4
ENDBRANCH   2   3
ENDBRANCH   1   2
BRANCH   1  30
ATOM     30  O   UNL A   1      33.926  32.552  27.911  1.00  0.00    -0.374 OA
BRANCH  30  31
ATOM     31  C   UNL A   1      34.293  32.898  29.243  1.00  0.00     0.202 C 
BRANCH  31  32
ATOM     32  C   UNL A   1      35.744  32.697  29.698  1.00  0.00     0.261 C 
BRANCH  32  33
ATOM     33  O   UNL A   1      36.096  31.319  29.886  1.00  0.00    -0.460 OA
BRANCH  33  34
ATOM     34  C   UNL A   1      36.989  31.099  30.880  1.00  0.00     0.338 C 
ATOM     35  O   UNL A   1      36.803  31.226  32.084  1.00  0.00    -0.246 OA
BRANCH  34  36
ATOM     36  C   UNL A   1      38.199  30.475  30.323  1.00  0.00     0.060 A 
ATOM     37  C   UNL A   1      39.279  30.245  31.187  1.00  0.00     0.016 A 
ATOM     38  C   UNL A   1      38.294  30.179  28.963  1.00  0.00     0.016 A 
ATOM     39  C   UNL A   1      40.474  29.736  30.688  1.00  0.00     0.010 A 
ATOM     40  C   UNL A   1      39.500  29.689  28.462  1.00  0.00     0.010 A 
ATOM     41  C   UNL A   1      40.601  29.493  29.316  1.00  0.00    -0.014 A 
BRANCH  41  42
ATOM     42  C   UNL A   1      41.925  29.185  28.732  1.00  0.00     0.031 A 
ATOM     43  C   UNL A   1      42.198  27.778  28.284  1.00  0.00     0.074 A 
ATOM     44  C   UNL A   1      42.869  30.136  28.633  1.00  0.00     0.049 A 
ATOM     45  N   UNL A   1      43.320  27.239  27.887  1.00  0.00    -0.248 NA
ATOM     46  C   UNL A   1      41.053  26.854  28.294  1.00  0.00     0.031 C 
ATOM     47  C   UNL A   1      42.692  31.543  28.990  1.00  0.00     0.029 A 
ATOM     48  N   UNL A   1      44.176  30.052  28.223  1.00  0.00    -0.354 N 
ATOM     49  C   UNL A   1      43.022  25.908  27.621  1.00  0.00     0.074 A 
ATOM     50  C   UNL A   1      41.619  25.717  27.918  1.00  0.00     0.031 C 
ATOM     51  C   UNL A   1      43.860  32.186  28.812  1.00  0.00     0.029 A 
ATOM     52  C   UNL A   1      44.872  31.227  28.373  1.00  0.00     0.049 A 
ATOM     53  H   UNL A   1      44.576  29.231  27.858  1.00  0.00     0.167 HD
ATOM     54  C   UNL A   1      43.849  24.934  27.171  1.00  0.00     0.037 A 
ATOM     55  C   UNL A   1      46.185  31.487  28.212  1.00  0.00     0.037 A 
ATOM     56  C   UNL A   1      45.242  25.143  26.880  1.00  0.00     0.049 A 
ATOM     57  C   UNL A   1      47.103  30.373  27.774  1.00  0.00     0.074 A 
ATOM     58  C   UNL A   1      46.168  24.231  26.405  1.00  0.00     0.029 A 
ATOM     59  N   UNL A   1      45.912  26.348  27.044  1.00  0.00    -0.354 N 
ATOM     60  N   UNL A   1      46.812  29.119  27.518  1.00  0.00    -0.248 NA
ATOM     61  C   UNL A   1      48.523  30.706  27.603  1.00  0.00     0.031 C 
ATOM     62  C   UNL A   1      47.409  24.870  26.331  1.00  0.00     0.029 A 
ATOM     63  C   UNL A   1      47.245  26.197  26.701  1.00  0.00     0.049 A 
ATOM     64  H   UNL A   1      45.502  27.185  27.359  1.00  0.00     0.167 HD
ATOM     65  C   UNL A   1      48.005  28.524  27.119  1.00  0.00     0.074 A 
ATOM     66  C   UNL A   1      49.021  29.555  27.173  1.00  0.00     0.031 C 
ATOM     67  C   UNL A   1      48.237  27.244  26.738  1.00  0.00     0.037 A 
BRANCH  54  68
ATOM     68  C   UNL A   1      43.277  23.554  27.003  1.00  0.00     0.058 A 
ATOM     69  C   UNL A   1      43.122  22.677  28.088  1.00  0.00     0.135 A 
ATOM     70  C   UNL A   1      42.851  23.112  25.739  1.00  0.00     0.135 A 
ATOM     71  F   UNL A   1      43.531  23.040  29.315  1.00  0.00    -0.206 F 
ATOM     72  C   UNL A   1      42.590  21.403  27.922  1.00  0.00     0.059 A 
ATOM     73  C   UNL A   1      42.289  21.853  25.556  1.00  0.00     0.059 A 
ATOM     74  F   UNL A   1      42.981  23.908  24.666  1.00  0.00    -0.206 F 
ATOM     75  C   UNL A   1      42.176  20.999  26.651  1.00  0.00     0.060 A 
BRANCH  75  76
ATOM     76  S   UNL A   1      41.484  19.344  26.454  1.00  0.00     0.124 S 
ATOM     77  O   UNL A   1      42.522  18.687  25.666  1.00  0.00    -0.237 OA
ATOM     78  O   UNL A   1      41.357  18.892  27.835  1.00  0.00    -0.237 OA
ATOM     79  O   UNL A   1      40.224  19.583  25.756  1.00  0.00    -0.744 OA
ENDBRANCH  75  76
ENDBRANCH  54  68
BRANCH  55  80
ATOM     80  C   UNL A   1      46.710  32.850  28.484  1.00  0.00     0.058 A 
ATOM     81  C   UNL A   1      47.173  33.207  29.759  1.00  0.00     0.135 A 
ATOM     82  C   UNL A   1      46.774  33.821  27.472  1.00  0.00     0.135 A 
ATOM     83  F   UNL A   1      47.123  32.318  30.763  1.00  0.00    -0.206 F 
ATOM     84  C   UNL A   1      47.672  34.478  30.024  1.00  0.00     0.059 A 
ATOM     85  C   UNL A   1      47.293  35.090  27.705  1.00  0.00     0.059 A 
ATOM     86  F   UNL A   1      46.354  33.527  26.231  1.00  0.00    -0.206 F 
ATOM     87  C   UNL A   1      47.732  35.412  28.988  1.00  0.00     0.060 A 
BRANCH  87  88
ATOM     88  S   UNL A   1      48.434  37.041  29.331  1.00  0.00     0.124 S 
ATOM     89  O   UNL A   1      49.450  36.720  30.325  1.00  0.00    -0.237 OA
ATOM     90  O   UNL A   1      48.928  37.441  28.016  1.00  0.00    -0.237 OA
ATOM     91  O   UNL A   1      47.289  37.803  29.819  1.00  0.00    -0.744 OA
ENDBRANCH  87  88
ENDBRANCH  55  80
BRANCH  67  92
ATOM     92  C   UNL A   1      49.626  26.886  26.285  1.00  0.00     0.058 A 
ATOM     93  C   UNL A   1      50.540  26.243  27.132  1.00  0.00     0.135 A 
ATOM     94  C   UNL A   1      50.007  27.106  24.952  1.00  0.00     0.135 A 
ATOM     95  F   UNL A   1      50.228  26.015  28.418  1.00  0.00    -0.206 F 
ATOM     96  C   UNL A   1      51.789  25.835  26.674  1.00  0.00     0.059 A 
ATOM     97  C   UNL A   1      51.239  26.682  24.465  1.00  0.00     0.059 A 
ATOM     98  F   UNL A   1      49.165  27.709  24.098  1.00  0.00    -0.206 F 
ATOM     99  C   UNL A   1      52.126  26.051  25.336  1.00  0.00     0.060 A 
BRANCH  99 100
ATOM    100  S   UNL A   1      53.721  25.456  24.737  1.00  0.00     0.124 S 
ATOM    101  O   UNL A   1      54.640  26.418  25.336  1.00  0.00    -0.237 OA
ATOM    102  O   UNL A   1      53.775  24.104  25.285  1.00  0.00    -0.237 OA
ATOM    103  O   UNL A   1      53.591  25.532  23.285  1.00  0.00    -0.744 OA
ENDBRANCH  99 100
ENDBRANCH  67  92
ENDBRANCH  41  42
ENDBRANCH  34  36
ENDBRANCH  33  34
ENDBRANCH  32  33
ENDBRANCH  31  32
ENDBRANCH  30  31
ENDBRANCH   1  30
TORSDOF 21
ENDMDL
