MODEL 1
REMARK VINA RESULT:     -10.3      0.000      0.000
REMARK SMILES CCn1ccnc1[C@H](F)C(=O)OCCOCCOC(=O)c1ccc(-c2c3nc(c(-c4c(F)cc(S(=O)(=O)[O-])cc4F)c4ccc([nH]4)c(-c4c(F)cc(S(=O)(=O)[O-])cc4F)c4nc(c(-c5c(F)cc(S(=O)(=O)[O-])cc5F)c5ccc2[nH]5)C=C4)C=C3)cc1
REMARK SMILES IDX 16 1 15 2 14 3 13 4 12 5 10 6 11 7 8 8 9 9 7 10 3 11 4 12
REMARK SMILES IDX 5 13 6 14 2 15 1 16 17 17 18 18 19 19 20 20 21 21 22 22
REMARK SMILES IDX 86 23 23 24 85 25 24 26 25 27 26 28 79 29 27 30 84 31 78 32
REMARK SMILES IDX 80 33 28 34 83 35 77 36 76 37 29 39 63 40 42 41 62 42 43 43
REMARK SMILES IDX 46 44 61 45 81 46 44 47 45 48 60 50 82 51 47 52 30 53 31 54
REMARK SMILES IDX 40 55 32 56 33 57 39 58 41 59 34 60 35 61 36 62 37 63 38 64
REMARK SMILES IDX 64 65 65 66 74 67 66 68 67 69 73 70 75 71 68 72 69 73 70 74
REMARK SMILES IDX 71 75 72 76 48 77 49 78 58 79 50 80 51 81 57 82 59 83 52 84
REMARK SMILES IDX 53 85 54 86 55 87 56 88
REMARK H PARENT 80 38 46 49
REMARK Flexibility Score: inf
ROOT
ATOM      1  C   UNL A   1      33.742  34.685  28.877  1.00  0.00     0.202 C 
ENDROOT
BRANCH   1   2
ATOM      2  O   UNL A   1      32.796  34.868  29.926  1.00  0.00    -0.374 OA
BRANCH   2   3
ATOM      3  C   UNL A   1      32.879  36.026  30.757  1.00  0.00     0.202 C 
BRANCH   3   4
ATOM      4  C   UNL A   1      33.139  35.781  32.239  1.00  0.00     0.261 C 
BRANCH   4   5
ATOM      5  O   UNL A   1      33.250  34.375  32.496  1.00  0.00    -0.461 OA
BRANCH   5   6
ATOM      6  C   UNL A   1      34.354  33.961  33.188  1.00  0.00     0.348 C 
ATOM      7  O   UNL A   1      34.716  34.428  34.261  1.00  0.00    -0.248 OA
BRANCH   6   8
ATOM      8  C   UNL A   1      35.048  32.831  32.445  1.00  0.00     0.341 C 
ATOM      9  F   UNL A   1      34.412  32.487  31.280  1.00  0.00    -0.226 F 
BRANCH   8  10
ATOM     10  C   UNL A   1      36.460  33.224  32.182  1.00  0.00     0.155 A 
ATOM     11  N   UNL A   1      37.558  32.633  32.772  1.00  0.00    -0.332 N 
ATOM     12  C   UNL A   1      38.675  33.240  32.262  1.00  0.00     0.107 A 
ATOM     13  C   UNL A   1      38.208  34.197  31.398  1.00  0.00     0.131 A 
ATOM     14  N   UNL A   1      36.842  34.184  31.356  1.00  0.00    -0.238 NA
BRANCH  11  15
ATOM     15  C   UNL A   1      37.583  31.562  33.753  1.00  0.00     0.120 C 
ATOM     16  C   UNL A   1      37.640  32.088  35.179  1.00  0.00     0.027 C 
ENDBRANCH  11  15
ENDBRANCH   8  10
ENDBRANCH   6   8
ENDBRANCH   5   6
ENDBRANCH   4   5
ENDBRANCH   3   4
ENDBRANCH   2   3
ENDBRANCH   1   2
BRANCH   1  17
ATOM     17  C   UNL A   1      33.622  33.448  28.000  1.00  0.00     0.261 C 
BRANCH  17  18
ATOM     18  O   UNL A   1      34.873  32.836  27.712  1.00  0.00    -0.460 OA
BRANCH  18  19
ATOM     19  C   UNL A   1      34.773  31.489  27.598  1.00  0.00     0.338 C 
ATOM     20  O   UNL A   1      33.836  30.861  27.140  1.00  0.00    -0.246 OA
BRANCH  19  21
ATOM     21  C   UNL A   1      35.882  30.866  28.319  1.00  0.00     0.060 A 
ATOM     22  C   UNL A   1      36.827  31.736  28.866  1.00  0.00     0.016 A 
ATOM     23  C   UNL A   1      36.130  29.494  28.161  1.00  0.00     0.016 A 
ATOM     24  C   UNL A   1      38.101  31.265  29.080  1.00  0.00     0.010 A 
ATOM     25  C   UNL A   1      37.409  29.032  28.351  1.00  0.00     0.010 A 
ATOM     26  C   UNL A   1      38.391  29.940  28.742  1.00  0.00    -0.014 A 
BRANCH  26  27
ATOM     27  C   UNL A   1      39.732  29.457  28.984  1.00  0.00     0.031 A 
ATOM     28  C   UNL A   1      40.027  29.392  30.432  1.00  0.00     0.074 A 
ATOM     29  C   UNL A   1      40.537  29.024  27.998  1.00  0.00     0.049 A 
ATOM     30  N   UNL A   1      40.823  30.161  31.094  1.00  0.00    -0.248 NA
ATOM     31  C   UNL A   1      39.164  28.551  31.281  1.00  0.00     0.031 C 
ATOM     32  C   UNL A   1      40.216  28.854  26.581  1.00  0.00     0.029 A 
ATOM     33  N   UNL A   1      41.807  28.545  28.080  1.00  0.00    -0.354 N 
ATOM     34  C   UNL A   1      40.762  29.703  32.404  1.00  0.00     0.074 A 
ATOM     35  C   UNL A   1      39.564  28.916  32.499  1.00  0.00     0.031 C 
ATOM     36  C   UNL A   1      41.177  28.102  25.995  1.00  0.00     0.029 A 
ATOM     37  C   UNL A   1      42.225  27.824  26.964  1.00  0.00     0.049 A 
ATOM     38  H   UNL A   1      42.384  28.694  28.864  1.00  0.00     0.167 HD
ATOM     39  C   UNL A   1      41.864  29.749  33.199  1.00  0.00     0.037 A 
ATOM     40  C   UNL A   1      43.308  27.003  26.899  1.00  0.00     0.037 A 
ATOM     41  C   UNL A   1      42.840  30.669  32.667  1.00  0.00     0.049 A 
ATOM     42  C   UNL A   1      44.212  27.399  28.018  1.00  0.00     0.074 A 
ATOM     43  C   UNL A   1      42.821  32.012  32.334  1.00  0.00     0.029 A 
ATOM     44  N   UNL A   1      43.931  30.134  32.022  1.00  0.00    -0.354 N 
ATOM     45  N   UNL A   1      44.854  28.536  28.053  1.00  0.00    -0.248 NA
ATOM     46  C   UNL A   1      44.019  26.758  29.313  1.00  0.00     0.031 C 
ATOM     47  C   UNL A   1      43.606  32.113  31.152  1.00  0.00     0.029 A 
ATOM     48  C   UNL A   1      44.134  30.852  30.872  1.00  0.00     0.049 A 
ATOM     49  H   UNL A   1      44.470  29.371  32.331  1.00  0.00     0.167 HD
ATOM     50  C   UNL A   1      44.739  28.966  29.368  1.00  0.00     0.074 A 
ATOM     51  C   UNL A   1      44.292  27.792  30.116  1.00  0.00     0.031 C 
ATOM     52  C   UNL A   1      44.719  30.298  29.672  1.00  0.00     0.037 A 
BRANCH  39  53
ATOM     53  C   UNL A   1      42.227  28.668  34.192  1.00  0.00     0.058 A 
ATOM     54  C   UNL A   1      42.215  28.983  35.565  1.00  0.00     0.135 A 
ATOM     55  C   UNL A   1      42.857  27.448  33.855  1.00  0.00     0.135 A 
ATOM     56  F   UNL A   1      41.643  30.118  36.002  1.00  0.00    -0.206 F 
ATOM     57  C   UNL A   1      42.857  28.196  36.519  1.00  0.00     0.059 A 
ATOM     58  C   UNL A   1      43.454  26.620  34.796  1.00  0.00     0.059 A 
ATOM     59  F   UNL A   1      43.014  27.031  32.595  1.00  0.00    -0.206 F 
ATOM     60  C   UNL A   1      43.488  27.022  36.118  1.00  0.00     0.060 A 
BRANCH  60  61
ATOM     61  S   UNL A   1      44.391  26.045  37.328  1.00  0.00     0.124 S 
ATOM     62  O   UNL A   1      45.764  26.212  36.867  1.00  0.00    -0.237 OA
ATOM     63  O   UNL A   1      44.045  26.720  38.575  1.00  0.00    -0.237 OA
ATOM     64  O   UNL A   1      43.827  24.708  37.167  1.00  0.00    -0.744 OA
ENDBRANCH  60  61
ENDBRANCH  39  53
BRANCH  40  65
ATOM     65  C   UNL A   1      43.455  25.706  26.172  1.00  0.00     0.058 A 
ATOM     66  C   UNL A   1      44.574  25.461  25.349  1.00  0.00     0.135 A 
ATOM     67  C   UNL A   1      42.671  24.578  26.484  1.00  0.00     0.135 A 
ATOM     68  F   UNL A   1      45.386  26.468  24.993  1.00  0.00    -0.206 F 
ATOM     69  C   UNL A   1      44.937  24.172  24.938  1.00  0.00     0.059 A 
ATOM     70  C   UNL A   1      43.004  23.288  26.073  1.00  0.00     0.059 A 
ATOM     71  F   UNL A   1      41.601  24.668  27.284  1.00  0.00    -0.206 F 
ATOM     72  C   UNL A   1      44.160  23.085  25.333  1.00  0.00     0.060 A 
BRANCH  72  73
ATOM     73  S   UNL A   1      44.741  21.400  25.020  1.00  0.00     0.124 S 
ATOM     74  O   UNL A   1      46.095  21.441  25.560  1.00  0.00    -0.237 OA
ATOM     75  O   UNL A   1      43.779  20.597  25.767  1.00  0.00    -0.237 OA
ATOM     76  O   UNL A   1      44.651  21.277  23.567  1.00  0.00    -0.744 OA
ENDBRANCH  72  73
ENDBRANCH  40  65
BRANCH  52  77
ATOM     77  C   UNL A   1      45.135  31.281  28.609  1.00  0.00     0.058 A 
ATOM     78  C   UNL A   1      44.320  31.703  27.542  1.00  0.00     0.135 A 
ATOM     79  C   UNL A   1      46.362  31.941  28.776  1.00  0.00     0.135 A 
ATOM     80  F   UNL A   1      43.086  31.206  27.377  1.00  0.00    -0.206 F 
ATOM     81  C   UNL A   1      44.730  32.700  26.655  1.00  0.00     0.059 A 
ATOM     82  C   UNL A   1      46.774  32.962  27.926  1.00  0.00     0.059 A 
ATOM     83  F   UNL A   1      47.156  31.631  29.814  1.00  0.00    -0.206 F 
ATOM     84  C   UNL A   1      45.961  33.324  26.856  1.00  0.00     0.060 A 
BRANCH  84  85
ATOM     85  S   UNL A   1      46.467  34.656  25.748  1.00  0.00     0.124 S 
ATOM     86  O   UNL A   1      45.552  34.483  24.625  1.00  0.00    -0.237 OA
ATOM     87  O   UNL A   1      46.254  35.848  26.564  1.00  0.00    -0.237 OA
ATOM     88  O   UNL A   1      47.867  34.350  25.465  1.00  0.00    -0.744 OA
ENDBRANCH  84  85
ENDBRANCH  52  77
ENDBRANCH  26  27
ENDBRANCH  19  21
ENDBRANCH  18  19
ENDBRANCH  17  18
ENDBRANCH   1  17
TORSDOF 19
ENDMDL
MODEL 2
REMARK VINA RESULT:      -9.8      2.689     11.723
REMARK SMILES CCn1ccnc1[C@H](F)C(=O)OCCOCCOC(=O)c1ccc(-c2c3nc(c(-c4c(F)cc(S(=O)(=O)[O-])cc4F)c4ccc([nH]4)c(-c4c(F)cc(S(=O)(=O)[O-])cc4F)c4nc(c(-c5c(F)cc(S(=O)(=O)[O-])cc5F)c5ccc2[nH]5)C=C4)C=C3)cc1
REMARK SMILES IDX 16 1 15 2 14 3 13 4 12 5 10 6 11 7 8 8 9 9 7 10 3 11 4 12
REMARK SMILES IDX 5 13 6 14 2 15 1 16 17 17 18 18 19 19 20 20 21 21 22 22
REMARK SMILES IDX 86 23 23 24 85 25 24 26 25 27 26 28 79 29 27 30 84 31 78 32
REMARK SMILES IDX 80 33 28 34 83 35 77 36 76 37 29 39 63 40 42 41 62 42 43 43
REMARK SMILES IDX 46 44 61 45 81 46 44 47 45 48 60 50 82 51 47 52 30 53 31 54
REMARK SMILES IDX 40 55 32 56 33 57 39 58 41 59 34 60 35 61 36 62 37 63 38 64
REMARK SMILES IDX 64 65 65 66 74 67 66 68 67 69 73 70 75 71 68 72 69 73 70 74
REMARK SMILES IDX 71 75 72 76 48 77 49 78 58 79 50 80 51 81 57 82 59 83 52 84
REMARK SMILES IDX 53 85 54 86 55 87 56 88
REMARK H PARENT 80 38 46 49
REMARK Flexibility Score: inf
ROOT
ATOM      1  C   UNL A   1      41.556  19.250  26.393  1.00  0.00     0.202 C 
ENDROOT
BRANCH   1   2
ATOM      2  O   UNL A   1      42.482  19.532  25.348  1.00  0.00    -0.374 OA
BRANCH   2   3
ATOM      3  C   UNL A   1      43.749  18.874  25.330  1.00  0.00     0.202 C 
BRANCH   3   4
ATOM      4  C   UNL A   1      44.631  19.131  24.114  1.00  0.00     0.261 C 
BRANCH   4   5
ATOM      5  O   UNL A   1      44.594  20.519  23.761  1.00  0.00    -0.461 OA
BRANCH   5   6
ATOM      6  C   UNL A   1      45.400  21.359  24.478  1.00  0.00     0.348 C 
ATOM      7  O   UNL A   1      46.419  21.012  25.062  1.00  0.00    -0.248 OA
BRANCH   6   8
ATOM      8  C   UNL A   1      44.859  22.779  24.428  1.00  0.00     0.341 C 
ATOM      9  F   UNL A   1      43.710  22.939  25.160  1.00  0.00    -0.226 F 
BRANCH   8  10
ATOM     10  C   UNL A   1      45.919  23.715  24.893  1.00  0.00     0.155 A 
ATOM     11  N   UNL A   1      46.161  24.025  26.215  1.00  0.00    -0.332 N 
ATOM     12  C   UNL A   1      47.223  24.890  26.246  1.00  0.00     0.107 A 
ATOM     13  C   UNL A   1      47.568  25.091  24.934  1.00  0.00     0.131 A 
ATOM     14  N   UNL A   1      46.758  24.366  24.105  1.00  0.00    -0.238 NA
BRANCH  11  15
ATOM     15  C   UNL A   1      45.457  23.550  27.393  1.00  0.00     0.120 C 
ATOM     16  C   UNL A   1      45.442  24.583  28.510  1.00  0.00     0.027 C 
ENDBRANCH  11  15
ENDBRANCH   8  10
ENDBRANCH   6   8
ENDBRANCH   5   6
ENDBRANCH   4   5
ENDBRANCH   3   4
ENDBRANCH   2   3
ENDBRANCH   1   2
BRANCH   1  17
ATOM     17  C   UNL A   1      40.789  20.407  27.013  1.00  0.00     0.261 C 
BRANCH  17  18
ATOM     18  O   UNL A   1      40.827  21.594  26.232  1.00  0.00    -0.460 OA
BRANCH  18  19
ATOM     19  C   UNL A   1      39.759  22.397  26.463  1.00  0.00     0.338 C 
ATOM     20  O   UNL A   1      38.585  22.114  26.313  1.00  0.00    -0.246 OA
BRANCH  19  21
ATOM     21  C   UNL A   1      40.232  23.758  26.717  1.00  0.00     0.060 A 
ATOM     22  C   UNL A   1      41.448  23.871  27.393  1.00  0.00     0.016 A 
ATOM     23  C   UNL A   1      39.345  24.837  26.583  1.00  0.00     0.016 A 
ATOM     24  C   UNL A   1      41.693  25.020  28.106  1.00  0.00     0.010 A 
ATOM     25  C   UNL A   1      39.581  25.974  27.316  1.00  0.00     0.010 A 
ATOM     26  C   UNL A   1      40.717  26.022  28.121  1.00  0.00    -0.014 A 
BRANCH  26  27
ATOM     27  C   UNL A   1      40.996  27.228  28.865  1.00  0.00     0.031 A 
ATOM     28  C   UNL A   1      42.109  27.990  28.259  1.00  0.00     0.074 A 
ATOM     29  C   UNL A   1      40.242  27.631  29.904  1.00  0.00     0.049 A 
ATOM     30  N   UNL A   1      43.299  28.131  28.735  1.00  0.00    -0.248 NA
ATOM     31  C   UNL A   1      41.968  28.434  26.861  1.00  0.00     0.031 C 
ATOM     32  C   UNL A   1      39.001  27.038  30.401  1.00  0.00     0.029 A 
ATOM     33  N   UNL A   1      40.384  28.734  30.686  1.00  0.00    -0.354 N 
ATOM     34  C   UNL A   1      43.967  28.925  27.812  1.00  0.00     0.074 A 
ATOM     35  C   UNL A   1      43.205  28.854  26.596  1.00  0.00     0.031 C 
ATOM     36  C   UNL A   1      38.394  27.913  31.236  1.00  0.00     0.029 A 
ATOM     37  C   UNL A   1      39.246  29.078  31.412  1.00  0.00     0.049 A 
ATOM     38  H   UNL A   1      41.222  29.249  30.734  1.00  0.00     0.167 HD
ATOM     39  C   UNL A   1      44.904  29.819  28.225  1.00  0.00     0.037 A 
ATOM     40  C   UNL A   1      39.017  30.269  32.027  1.00  0.00     0.037 A 
ATOM     41  C   UNL A   1      45.360  29.501  29.558  1.00  0.00     0.049 A 
ATOM     42  C   UNL A   1      40.348  30.917  32.214  1.00  0.00     0.074 A 
ATOM     43  C   UNL A   1      45.927  28.384  30.143  1.00  0.00     0.029 A 
ATOM     44  N   UNL A   1      44.880  30.270  30.593  1.00  0.00    -0.354 N 
ATOM     45  N   UNL A   1      41.255  30.464  33.038  1.00  0.00    -0.248 NA
ATOM     46  C   UNL A   1      40.854  31.764  31.142  1.00  0.00     0.031 C 
ATOM     47  C   UNL A   1      45.349  28.310  31.442  1.00  0.00     0.029 A 
ATOM     48  C   UNL A   1      44.530  29.426  31.615  1.00  0.00     0.049 A 
ATOM     49  H   UNL A   1      44.801  31.251  30.598  1.00  0.00     0.167 HD
ATOM     50  C   UNL A   1      42.451  30.581  32.344  1.00  0.00     0.074 A 
ATOM     51  C   UNL A   1      42.155  31.467  31.218  1.00  0.00     0.031 C 
ATOM     52  C   UNL A   1      43.481  29.712  32.568  1.00  0.00     0.037 A 
BRANCH  39  53
ATOM     53  C   UNL A   1      45.083  31.190  27.614  1.00  0.00     0.058 A 
ATOM     54  C   UNL A   1      46.293  31.479  26.953  1.00  0.00     0.135 A 
ATOM     55  C   UNL A   1      44.262  32.307  27.892  1.00  0.00     0.135 A 
ATOM     56  F   UNL A   1      47.153  30.496  26.636  1.00  0.00    -0.206 F 
ATOM     57  C   UNL A   1      46.699  32.783  26.673  1.00  0.00     0.059 A 
ATOM     58  C   UNL A   1      44.621  33.609  27.571  1.00  0.00     0.059 A 
ATOM     59  F   UNL A   1      43.114  32.217  28.571  1.00  0.00    -0.206 F 
ATOM     60  C   UNL A   1      45.859  33.842  27.002  1.00  0.00     0.060 A 
BRANCH  60  61
ATOM     61  S   UNL A   1      46.411  35.530  26.721  1.00  0.00     0.124 S 
ATOM     62  O   UNL A   1      45.139  36.235  26.610  1.00  0.00    -0.237 OA
ATOM     63  O   UNL A   1      47.189  35.794  27.927  1.00  0.00    -0.237 OA
ATOM     64  O   UNL A   1      47.188  35.428  25.489  1.00  0.00    -0.744 OA
ENDBRANCH  60  61
ENDBRANCH  39  53
BRANCH  40  65
ATOM     65  C   UNL A   1      37.735  31.027  32.148  1.00  0.00     0.058 A 
ATOM     66  C   UNL A   1      37.327  31.566  33.386  1.00  0.00     0.135 A 
ATOM     67  C   UNL A   1      37.026  31.489  31.022  1.00  0.00     0.135 A 
ATOM     68  F   UNL A   1      37.937  31.191  34.522  1.00  0.00    -0.206 F 
ATOM     69  C   UNL A   1      36.345  32.560  33.488  1.00  0.00     0.059 A 
ATOM     70  C   UNL A   1      36.034  32.466  31.099  1.00  0.00     0.059 A 
ATOM     71  F   UNL A   1      37.336  31.082  29.784  1.00  0.00    -0.206 F 
ATOM     72  C   UNL A   1      35.724  33.027  32.331  1.00  0.00     0.060 A 
BRANCH  72  73
ATOM     73  S   UNL A   1      34.636  34.469  32.412  1.00  0.00     0.124 S 
ATOM     74  O   UNL A   1      35.405  35.384  33.247  1.00  0.00    -0.237 OA
ATOM     75  O   UNL A   1      34.509  34.841  31.006  1.00  0.00    -0.237 OA
ATOM     76  O   UNL A   1      33.419  33.940  33.021  1.00  0.00    -0.744 OA
ENDBRANCH  72  73
ENDBRANCH  40  65
BRANCH  52  77
ATOM     77  C   UNL A   1      43.420  28.829  33.787  1.00  0.00     0.058 A 
ATOM     78  C   UNL A   1      43.847  29.204  35.074  1.00  0.00     0.135 A 
ATOM     79  C   UNL A   1      42.750  27.601  33.669  1.00  0.00     0.135 A 
ATOM     80  F   UNL A   1      44.394  30.408  35.296  1.00  0.00    -0.206 F 
ATOM     81  C   UNL A   1      43.661  28.374  36.181  1.00  0.00     0.059 A 
ATOM     82  C   UNL A   1      42.521  26.775  34.764  1.00  0.00     0.059 A 
ATOM     83  F   UNL A   1      42.259  27.216  32.479  1.00  0.00    -0.206 F 
ATOM     84  C   UNL A   1      42.996  27.159  36.014  1.00  0.00     0.060 A 
BRANCH  84  85
ATOM     85  S   UNL A   1      42.697  26.112  37.454  1.00  0.00     0.124 S 
ATOM     86  O   UNL A   1      41.274  26.322  37.695  1.00  0.00    -0.237 OA
ATOM     87  O   UNL A   1      43.071  24.787  36.968  1.00  0.00    -0.237 OA
ATOM     88  O   UNL A   1      43.591  26.667  38.469  1.00  0.00    -0.744 OA
ENDBRANCH  84  85
ENDBRANCH  52  77
ENDBRANCH  26  27
ENDBRANCH  19  21
ENDBRANCH  18  19
ENDBRANCH  17  18
ENDBRANCH   1  17
TORSDOF 19
ENDMDL
MODEL 3
REMARK VINA RESULT:      -9.2      3.968     10.819
REMARK SMILES CCn1ccnc1[C@H](F)C(=O)OCCOCCOC(=O)c1ccc(-c2c3nc(c(-c4c(F)cc(S(=O)(=O)[O-])cc4F)c4ccc([nH]4)c(-c4c(F)cc(S(=O)(=O)[O-])cc4F)c4nc(c(-c5c(F)cc(S(=O)(=O)[O-])cc5F)c5ccc2[nH]5)C=C4)C=C3)cc1
REMARK SMILES IDX 16 1 15 2 14 3 13 4 12 5 10 6 11 7 8 8 9 9 7 10 3 11 4 12
REMARK SMILES IDX 5 13 6 14 2 15 1 16 17 17 18 18 19 19 20 20 21 21 22 22
REMARK SMILES IDX 86 23 23 24 85 25 24 26 25 27 26 28 79 29 27 30 84 31 78 32
REMARK SMILES IDX 80 33 28 34 83 35 77 36 76 37 29 39 63 40 42 41 62 42 43 43
REMARK SMILES IDX 46 44 61 45 81 46 44 47 45 48 60 50 82 51 47 52 30 53 31 54
REMARK SMILES IDX 40 55 32 56 33 57 39 58 41 59 34 60 35 61 36 62 37 63 38 64
REMARK SMILES IDX 64 65 65 66 74 67 66 68 67 69 73 70 75 71 68 72 69 73 70 74
REMARK SMILES IDX 71 75 72 76 48 77 49 78 58 79 50 80 51 81 57 82 59 83 52 84
REMARK SMILES IDX 53 85 54 86 55 87 56 88
REMARK H PARENT 80 38 46 49
REMARK Flexibility Score: inf
ROOT
ATOM      1  C   UNL A   1      40.320  21.311  26.787  1.00  0.00     0.202 C 
ENDROOT
BRANCH   1   2
ATOM      2  O   UNL A   1      39.203  21.839  26.078  1.00  0.00    -0.374 OA
BRANCH   2   3
ATOM      3  C   UNL A   1      38.798  23.189  26.301  1.00  0.00     0.202 C 
BRANCH   3   4
ATOM      4  C   UNL A   1      37.483  23.619  25.663  1.00  0.00     0.261 C 
BRANCH   4   5
ATOM      5  O   UNL A   1      37.023  22.611  24.752  1.00  0.00    -0.461 OA
BRANCH   5   6
ATOM      6  C   UNL A   1      36.363  23.045  23.636  1.00  0.00     0.348 C 
ATOM      7  O   UNL A   1      36.800  22.962  22.495  1.00  0.00    -0.248 OA
BRANCH   6   8
ATOM      8  C   UNL A   1      35.010  23.626  24.017  1.00  0.00     0.341 C 
ATOM      9  F   UNL A   1      34.419  24.320  22.993  1.00  0.00    -0.226 F 
BRANCH   8  10
ATOM     10  C   UNL A   1      34.128  22.522  24.488  1.00  0.00     0.155 A 
ATOM     11  N   UNL A   1      33.390  22.557  25.652  1.00  0.00    -0.332 N 
ATOM     12  C   UNL A   1      32.688  21.383  25.729  1.00  0.00     0.107 A 
ATOM     13  C   UNL A   1      33.050  20.669  24.616  1.00  0.00     0.131 A 
ATOM     14  N   UNL A   1      33.941  21.376  23.857  1.00  0.00    -0.238 NA
BRANCH  11  15
ATOM     15  C   UNL A   1      33.326  23.615  26.646  1.00  0.00     0.120 C 
ATOM     16  C   UNL A   1      31.978  24.318  26.653  1.00  0.00     0.027 C 
ENDBRANCH  11  15
ENDBRANCH   8  10
ENDBRANCH   6   8
ENDBRANCH   5   6
ENDBRANCH   4   5
ENDBRANCH   3   4
ENDBRANCH   2   3
ENDBRANCH   1   2
BRANCH   1  17
ATOM     17  C   UNL A   1      41.133  20.202  26.139  1.00  0.00     0.261 C 
BRANCH  17  18
ATOM     18  O   UNL A   1      42.505  20.216  26.510  1.00  0.00    -0.460 OA
BRANCH  18  19
ATOM     19  C   UNL A   1      43.296  20.733  25.538  1.00  0.00     0.338 C 
ATOM     20  O   UNL A   1      43.857  20.121  24.648  1.00  0.00    -0.246 OA
BRANCH  19  21
ATOM     21  C   UNL A   1      43.568  22.138  25.842  1.00  0.00     0.060 A 
ATOM     22  C   UNL A   1      44.241  22.390  27.039  1.00  0.00     0.016 A 
ATOM     23  C   UNL A   1      42.892  23.145  25.135  1.00  0.00     0.016 A 
ATOM     24  C   UNL A   1      44.076  23.618  27.634  1.00  0.00     0.010 A 
ATOM     25  C   UNL A   1      42.708  24.361  25.744  1.00  0.00     0.010 A 
ATOM     26  C   UNL A   1      43.244  24.557  27.015  1.00  0.00    -0.014 A 
BRANCH  26  27
ATOM     27  C   UNL A   1      43.090  25.847  27.647  1.00  0.00     0.031 A 
ATOM     28  C   UNL A   1      44.204  26.755  27.297  1.00  0.00     0.074 A 
ATOM     29  C   UNL A   1      42.002  26.180  28.363  1.00  0.00     0.049 A 
ATOM     30  N   UNL A   1      45.154  27.149  28.076  1.00  0.00    -0.248 NA
ATOM     31  C   UNL A   1      44.434  27.057  25.873  1.00  0.00     0.031 C 
ATOM     32  C   UNL A   1      40.774  25.406  28.551  1.00  0.00     0.029 A 
ATOM     33  N   UNL A   1      41.724  27.346  29.005  1.00  0.00    -0.354 N 
ATOM     34  C   UNL A   1      45.942  27.982  27.291  1.00  0.00     0.074 A 
ATOM     35  C   UNL A   1      45.612  27.679  25.926  1.00  0.00     0.031 C 
ATOM     36  C   UNL A   1      39.813  26.213  29.055  1.00  0.00     0.029 A 
ATOM     37  C   UNL A   1      40.380  27.526  29.320  1.00  0.00     0.049 A 
ATOM     38  H   UNL A   1      42.416  28.010  29.227  1.00  0.00     0.167 HD
ATOM     39  C   UNL A   1      46.557  29.063  27.841  1.00  0.00     0.037 A 
ATOM     40  C   UNL A   1      39.791  28.697  29.684  1.00  0.00     0.037 A 
ATOM     41  C   UNL A   1      46.625  28.937  29.277  1.00  0.00     0.049 A 
ATOM     42  C   UNL A   1      40.883  29.593  30.165  1.00  0.00     0.074 A 
ATOM     43  C   UNL A   1      47.150  27.991  30.139  1.00  0.00     0.029 A 
ATOM     44  N   UNL A   1      45.737  29.679  30.022  1.00  0.00    -0.354 N 
ATOM     45  N   UNL A   1      41.552  29.380  31.266  1.00  0.00    -0.248 NA
ATOM     46  C   UNL A   1      41.557  30.436  29.186  1.00  0.00     0.031 C 
ATOM     47  C   UNL A   1      46.219  27.910  31.213  1.00  0.00     0.029 A 
ATOM     48  C   UNL A   1      45.224  28.864  30.998  1.00  0.00     0.049 A 
ATOM     49  H   UNL A   1      45.510  30.625  29.878  1.00  0.00     0.167 HD
ATOM     50  C   UNL A   1      42.870  29.665  30.940  1.00  0.00     0.074 A 
ATOM     51  C   UNL A   1      42.801  30.392  29.673  1.00  0.00     0.031 C 
ATOM     52  C   UNL A   1      43.902  29.021  31.562  1.00  0.00     0.037 A 
BRANCH  39  53
ATOM     53  C   UNL A   1      46.702  30.393  27.137  1.00  0.00     0.058 A 
ATOM     54  C   UNL A   1      47.965  31.016  27.129  1.00  0.00     0.135 A 
ATOM     55  C   UNL A   1      45.620  31.209  26.731  1.00  0.00     0.135 A 
ATOM     56  F   UNL A   1      49.066  30.338  27.495  1.00  0.00    -0.206 F 
ATOM     57  C   UNL A   1      48.130  32.368  26.832  1.00  0.00     0.059 A 
ATOM     58  C   UNL A   1      45.770  32.542  26.376  1.00  0.00     0.059 A 
ATOM     59  F   UNL A   1      44.350  30.794  26.744  1.00  0.00    -0.206 F 
ATOM     60  C   UNL A   1      47.020  33.125  26.471  1.00  0.00     0.060 A 
BRANCH  60  61
ATOM     61  S   UNL A   1      47.210  34.887  26.169  1.00  0.00     0.124 S 
ATOM     62  O   UNL A   1      48.077  34.887  24.996  1.00  0.00    -0.237 OA
ATOM     63  O   UNL A   1      45.829  35.303  25.948  1.00  0.00    -0.237 OA
ATOM     64  O   UNL A   1      47.816  35.376  27.404  1.00  0.00    -0.744 OA
ENDBRANCH  60  61
ENDBRANCH  39  53
BRANCH  40  65
ATOM     65  C   UNL A   1      38.433  29.210  29.331  1.00  0.00     0.058 A 
ATOM     66  C   UNL A   1      37.518  29.587  30.337  1.00  0.00     0.135 A 
ATOM     67  C   UNL A   1      38.100  29.616  28.024  1.00  0.00     0.135 A 
ATOM     68  F   UNL A   1      37.741  29.249  31.616  1.00  0.00    -0.206 F 
ATOM     69  C   UNL A   1      36.397  30.386  30.073  1.00  0.00     0.059 A 
ATOM     70  C   UNL A   1      36.982  30.398  27.735  1.00  0.00     0.059 A 
ATOM     71  F   UNL A   1      38.901  29.352  26.983  1.00  0.00    -0.206 F 
ATOM     72  C   UNL A   1      36.155  30.814  28.770  1.00  0.00     0.060 A 
BRANCH  72  73
ATOM     73  S   UNL A   1      34.861  32.036  28.448  1.00  0.00     0.124 S 
ATOM     74  O   UNL A   1      34.494  32.451  29.797  1.00  0.00    -0.237 OA
ATOM     75  O   UNL A   1      35.566  33.029  27.644  1.00  0.00    -0.237 OA
ATOM     76  O   UNL A   1      33.844  31.271  27.731  1.00  0.00    -0.744 OA
ENDBRANCH  72  73
ENDBRANCH  40  65
BRANCH  52  77
ATOM     77  C   UNL A   1      43.607  28.236  32.813  1.00  0.00     0.058 A 
ATOM     78  C   UNL A   1      43.433  26.841  32.865  1.00  0.00     0.135 A 
ATOM     79  C   UNL A   1      43.659  28.919  34.038  1.00  0.00     0.135 A 
ATOM     80  F   UNL A   1      43.484  26.097  31.750  1.00  0.00    -0.206 F 
ATOM     81  C   UNL A   1      43.269  26.165  34.075  1.00  0.00     0.059 A 
ATOM     82  C   UNL A   1      43.534  28.262  35.257  1.00  0.00     0.059 A 
ATOM     83  F   UNL A   1      43.888  30.243  34.060  1.00  0.00    -0.206 F 
ATOM     84  C   UNL A   1      43.321  26.887  35.267  1.00  0.00     0.060 A 
BRANCH  84  85
ATOM     85  S   UNL A   1      43.172  26.008  36.838  1.00  0.00     0.124 S 
ATOM     86  O   UNL A   1      41.909  25.298  36.671  1.00  0.00    -0.237 OA
ATOM     87  O   UNL A   1      44.372  25.176  36.853  1.00  0.00    -0.237 OA
ATOM     88  O   UNL A   1      43.159  27.081  37.829  1.00  0.00    -0.744 OA
ENDBRANCH  84  85
ENDBRANCH  52  77
ENDBRANCH  26  27
ENDBRANCH  19  21
ENDBRANCH  18  19
ENDBRANCH  17  18
ENDBRANCH   1  17
TORSDOF 19
ENDMDL
