MODEL 1
REMARK VINA RESULT:     -10.0      0.000      0.000
REMARK SMILES Cc1cc(C(=O)N[C@H](C(=O)OCCOCCOC(=O)c2ccc(-c3c4nc(c(-c5c(F)cc(S(=O)(=O)[O-])cc5F)c5ccc([nH]5)c(-c5c(F)cc(S(=O)(=O)[O-])cc5F)c5nc(c(-c6c(F)cc(S(=O)(=O)[O-])cc6F)c6ccc3[nH]6)C=C5)C=C4)cc2)C(C)C)c(C)s1
REMARK SMILES IDX 15 1 14 2 13 3 12 4 11 5 9 6 10 7 8 8 7 9 5 10 6 11 4 13
REMARK SMILES IDX 1 14 2 15 3 16 91 17 89 18 90 19 86 20 87 21 88 22 16 23
REMARK SMILES IDX 17 24 18 25 19 26 20 27 21 28 85 29 22 30 84 31 23 32 24 33
REMARK SMILES IDX 25 34 78 35 26 36 83 37 77 38 79 39 27 40 82 41 76 42 75 43
REMARK SMILES IDX 28 45 62 46 41 47 61 48 42 49 45 50 60 51 80 52 43 53 44 54
REMARK SMILES IDX 59 56 81 57 46 58 29 59 30 60 39 61 31 62 32 63 38 64 40 65
REMARK SMILES IDX 33 66 34 67 35 68 36 69 37 70 63 71 64 72 73 73 65 74 66 75
REMARK SMILES IDX 72 76 74 77 67 78 68 79 69 80 70 81 71 82 47 83 48 84 57 85
REMARK SMILES IDX 49 86 50 87 56 88 58 89 51 90 52 91 53 92 54 93 55 94
REMARK H PARENT 7 12 79 44 45 55
REMARK Flexibility Score: inf
ROOT
ATOM      1  C   UNL A   1      32.389  31.365  27.003  1.00  0.00     0.202 C 
ENDROOT
BRANCH   1   2
ATOM      2  O   UNL A   1      32.397  30.036  26.488  1.00  0.00    -0.374 OA
BRANCH   2   3
ATOM      3  C   UNL A   1      31.756  29.000  27.225  1.00  0.00     0.202 C 
BRANCH   3   4
ATOM      4  C   UNL A   1      31.894  27.540  26.773  1.00  0.00     0.261 C 
BRANCH   4   5
ATOM      5  O   UNL A   1      31.491  27.298  25.420  1.00  0.00    -0.462 OA
BRANCH   5   6
ATOM      6  C   UNL A   1      30.869  26.094  25.246  1.00  0.00     0.328 C 
ATOM      7  O   UNL A   1      29.656  25.967  25.148  1.00  0.00    -0.250 OA
BRANCH   6   8
ATOM      8  C   UNL A   1      31.907  24.962  25.091  1.00  0.00     0.195 C 
BRANCH   8   9
ATOM      9  N   UNL A   1      31.766  24.040  26.220  1.00  0.00    -0.338 N 
ATOM     10  C   UNL A   1      32.612  23.152  26.839  1.00  0.00     0.253 C 
ATOM     11  O   UNL A   1      32.141  22.616  27.844  1.00  0.00    -0.269 OA
ATOM     12  H   UNL A   1      30.869  24.060  26.624  1.00  0.00     0.164 HD
BRANCH  10  13
ATOM     13  C   UNL A   1      33.966  22.821  26.340  1.00  0.00     0.053 A 
ATOM     14  C   UNL A   1      37.634  23.668  25.768  1.00  0.00     0.056 C 
ATOM     15  C   UNL A   1      36.285  23.041  25.846  1.00  0.00     0.003 A 
ATOM     16  C   UNL A   1      35.181  23.568  26.464  1.00  0.00     0.029 A 
ATOM     17  S   UNL A   1      35.922  21.540  25.164  1.00  0.00    -0.145 S 
ATOM     18  C   UNL A   1      34.266  21.642  25.649  1.00  0.00     0.014 A 
ATOM     19  C   UNL A   1      33.395  20.484  25.271  1.00  0.00     0.057 C 
ENDBRANCH  10  13
ENDBRANCH   8   9
BRANCH   8  20
ATOM     20  C   UNL A   1      32.039  24.230  23.724  1.00  0.00     0.017 C 
ATOM     21  C   UNL A   1      31.021  23.106  23.511  1.00  0.00     0.010 C 
ATOM     22  C   UNL A   1      31.939  25.209  22.547  1.00  0.00     0.010 C 
ENDBRANCH   8  20
ENDBRANCH   6   8
ENDBRANCH   5   6
ENDBRANCH   4   5
ENDBRANCH   3   4
ENDBRANCH   2   3
ENDBRANCH   1   2
BRANCH   1  23
ATOM     23  C   UNL A   1      33.639  31.901  27.703  1.00  0.00     0.261 C 
BRANCH  23  24
ATOM     24  O   UNL A   1      34.410  30.865  28.321  1.00  0.00    -0.460 OA
BRANCH  24  25
ATOM     25  C   UNL A   1      35.252  31.299  29.288  1.00  0.00     0.338 C 
ATOM     26  O   UNL A   1      34.993  32.069  30.204  1.00  0.00    -0.246 OA
BRANCH  25  27
ATOM     27  C   UNL A   1      36.509  30.539  29.210  1.00  0.00     0.060 A 
ATOM     28  C   UNL A   1      37.095  30.103  30.407  1.00  0.00     0.016 A 
ATOM     29  C   UNL A   1      37.122  30.299  27.980  1.00  0.00     0.016 A 
ATOM     30  C   UNL A   1      38.332  29.469  30.385  1.00  0.00     0.010 A 
ATOM     31  C   UNL A   1      38.369  29.681  27.961  1.00  0.00     0.010 A 
ATOM     32  C   UNL A   1      38.993  29.302  29.164  1.00  0.00    -0.014 A 
BRANCH  32  33
ATOM     33  C   UNL A   1      40.422  28.930  29.130  1.00  0.00     0.031 A 
ATOM     34  C   UNL A   1      41.434  30.017  29.361  1.00  0.00     0.074 A 
ATOM     35  C   UNL A   1      40.805  27.672  28.855  1.00  0.00     0.049 A 
ATOM     36  N   UNL A   1      42.726  29.999  29.182  1.00  0.00    -0.248 NA
ATOM     37  C   UNL A   1      40.907  31.307  29.844  1.00  0.00     0.031 C 
ATOM     38  C   UNL A   1      39.905  26.534  28.678  1.00  0.00     0.029 A 
ATOM     39  N   UNL A   1      42.056  27.153  28.645  1.00  0.00    -0.354 N 
ATOM     40  C   UNL A   1      43.167  31.276  29.508  1.00  0.00     0.074 A 
ATOM     41  C   UNL A   1      42.002  32.051  29.873  1.00  0.00     0.031 C 
ATOM     42  C   UNL A   1      40.634  25.452  28.355  1.00  0.00     0.029 A 
ATOM     43  C   UNL A   1      42.040  25.837  28.253  1.00  0.00     0.049 A 
ATOM     44  H   UNL A   1      42.884  27.672  28.765  1.00  0.00     0.167 HD
ATOM     45  C   UNL A   1      44.432  31.753  29.500  1.00  0.00     0.037 A 
ATOM     46  C   UNL A   1      43.046  25.052  27.817  1.00  0.00     0.037 A 
ATOM     47  C   UNL A   1      45.575  30.963  29.130  1.00  0.00     0.049 A 
ATOM     48  C   UNL A   1      44.437  25.628  27.734  1.00  0.00     0.074 A 
ATOM     49  C   UNL A   1      46.904  31.341  29.084  1.00  0.00     0.029 A 
ATOM     50  N   UNL A   1      45.521  29.633  28.736  1.00  0.00    -0.354 N 
ATOM     51  N   UNL A   1      44.849  26.837  28.035  1.00  0.00    -0.248 NA
ATOM     52  C   UNL A   1      45.501  24.738  27.249  1.00  0.00     0.031 C 
ATOM     53  C   UNL A   1      47.648  30.255  28.614  1.00  0.00     0.029 A 
ATOM     54  C   UNL A   1      46.791  29.179  28.431  1.00  0.00     0.049 A 
ATOM     55  H   UNL A   1      44.700  29.092  28.684  1.00  0.00     0.167 HD
ATOM     56  C   UNL A   1      46.224  26.838  27.822  1.00  0.00     0.074 A 
ATOM     57  C   UNL A   1      46.574  25.512  27.356  1.00  0.00     0.031 C 
ATOM     58  C   UNL A   1      47.118  27.841  28.005  1.00  0.00     0.037 A 
BRANCH  45  59
ATOM     59  C   UNL A   1      44.640  33.195  29.872  1.00  0.00     0.058 A 
ATOM     60  C   UNL A   1      44.950  33.584  31.184  1.00  0.00     0.135 A 
ATOM     61  C   UNL A   1      44.559  34.200  28.894  1.00  0.00     0.135 A 
ATOM     62  F   UNL A   1      45.018  32.668  32.164  1.00  0.00    -0.206 F 
ATOM     63  C   UNL A   1      45.148  34.920  31.519  1.00  0.00     0.059 A 
ATOM     64  C   UNL A   1      44.784  35.538  29.200  1.00  0.00     0.059 A 
ATOM     65  F   UNL A   1      44.259  33.885  27.623  1.00  0.00    -0.206 F 
ATOM     66  C   UNL A   1      45.065  35.890  30.518  1.00  0.00     0.060 A 
BRANCH  66  67
ATOM     67  S   UNL A   1      45.335  37.617  30.969  1.00  0.00     0.124 S 
ATOM     68  O   UNL A   1      44.322  38.289  30.161  1.00  0.00    -0.237 OA
ATOM     69  O   UNL A   1      45.092  37.604  32.408  1.00  0.00    -0.237 OA
ATOM     70  O   UNL A   1      46.717  37.861  30.570  1.00  0.00    -0.744 OA
ENDBRANCH  66  67
ENDBRANCH  45  59
BRANCH  46  71
ATOM     71  C   UNL A   1      42.775  23.646  27.412  1.00  0.00     0.058 A 
ATOM     72  C   UNL A   1      42.602  23.307  26.063  1.00  0.00     0.135 A 
ATOM     73  C   UNL A   1      42.684  22.615  28.361  1.00  0.00     0.135 A 
ATOM     74  F   UNL A   1      42.672  24.257  25.119  1.00  0.00    -0.206 F 
ATOM     75  C   UNL A   1      42.328  22.002  25.668  1.00  0.00     0.059 A 
ATOM     76  C   UNL A   1      42.439  21.297  27.990  1.00  0.00     0.059 A 
ATOM     77  F   UNL A   1      42.855  22.884  29.665  1.00  0.00    -0.206 F 
ATOM     78  C   UNL A   1      42.250  21.003  26.640  1.00  0.00     0.060 A 
BRANCH  78  79
ATOM     79  S   UNL A   1      41.924  19.308  26.111  1.00  0.00     0.124 S 
ATOM     80  O   UNL A   1      42.868  19.157  25.010  1.00  0.00    -0.237 OA
ATOM     81  O   UNL A   1      42.226  18.548  27.321  1.00  0.00    -0.237 OA
ATOM     82  O   UNL A   1      40.513  19.338  25.735  1.00  0.00    -0.744 OA
ENDBRANCH  78  79
ENDBRANCH  46  71
BRANCH  58  83
ATOM     83  C   UNL A   1      48.574  27.539  27.784  1.00  0.00     0.058 A 
ATOM     84  C   UNL A   1      49.393  27.035  28.803  1.00  0.00     0.135 A 
ATOM     85  C   UNL A   1      49.120  27.648  26.493  1.00  0.00     0.135 A 
ATOM     86  F   UNL A   1      48.922  26.920  30.056  1.00  0.00    -0.206 F 
ATOM     87  C   UNL A   1      50.705  26.644  28.551  1.00  0.00     0.059 A 
ATOM     88  C   UNL A   1      50.418  27.236  26.212  1.00  0.00     0.059 A 
ATOM     89  F   UNL A   1      48.373  28.117  25.481  1.00  0.00    -0.206 F 
ATOM     90  C   UNL A   1      51.203  26.735  27.249  1.00  0.00     0.060 A 
BRANCH  90  91
ATOM     91  S   UNL A   1      52.875  26.138  26.919  1.00  0.00     0.124 S 
ATOM     92  O   UNL A   1      52.613  24.814  26.367  1.00  0.00    -0.237 OA
ATOM     93  O   UNL A   1      53.378  27.132  25.974  1.00  0.00    -0.237 OA
ATOM     94  O   UNL A   1      53.509  26.157  28.234  1.00  0.00    -0.744 OA
ENDBRANCH  90  91
ENDBRANCH  58  83
ENDBRANCH  32  33
ENDBRANCH  25  27
ENDBRANCH  24  25
ENDBRANCH  23  24
ENDBRANCH   1  23
TORSDOF 20
ENDMDL
MODEL 2
REMARK VINA RESULT:     -10.0      4.425     10.329
REMARK SMILES Cc1cc(C(=O)N[C@H](C(=O)OCCOCCOC(=O)c2ccc(-c3c4nc(c(-c5c(F)cc(S(=O)(=O)[O-])cc5F)c5ccc([nH]5)c(-c5c(F)cc(S(=O)(=O)[O-])cc5F)c5nc(c(-c6c(F)cc(S(=O)(=O)[O-])cc6F)c6ccc3[nH]6)C=C5)C=C4)cc2)C(C)C)c(C)s1
REMARK SMILES IDX 15 1 14 2 13 3 12 4 11 5 9 6 10 7 8 8 7 9 5 10 6 11 4 13
REMARK SMILES IDX 1 14 2 15 3 16 91 17 89 18 90 19 86 20 87 21 88 22 16 23
REMARK SMILES IDX 17 24 18 25 19 26 20 27 21 28 85 29 22 30 84 31 23 32 24 33
REMARK SMILES IDX 25 34 78 35 26 36 83 37 77 38 79 39 27 40 82 41 76 42 75 43
REMARK SMILES IDX 28 45 62 46 41 47 61 48 42 49 45 50 60 51 80 52 43 53 44 54
REMARK SMILES IDX 59 56 81 57 46 58 29 59 30 60 39 61 31 62 32 63 38 64 40 65
REMARK SMILES IDX 33 66 34 67 35 68 36 69 37 70 63 71 64 72 73 73 65 74 66 75
REMARK SMILES IDX 72 76 74 77 67 78 68 79 69 80 70 81 71 82 47 83 48 84 57 85
REMARK SMILES IDX 49 86 50 87 56 88 58 89 51 90 52 91 53 92 54 93 55 94
REMARK H PARENT 7 12 79 44 45 55
REMARK Flexibility Score: inf
ROOT
ATOM      1  C   UNL A   1      37.265  21.278  24.560  1.00  0.00     0.202 C 
ENDROOT
BRANCH   1   2
ATOM      2  O   UNL A   1      36.462  20.111  24.721  1.00  0.00    -0.374 OA
BRANCH   2   3
ATOM      3  C   UNL A   1      35.086  20.254  25.054  1.00  0.00     0.202 C 
BRANCH   3   4
ATOM      4  C   UNL A   1      34.573  21.573  25.648  1.00  0.00     0.261 C 
BRANCH   4   5
ATOM      5  O   UNL A   1      33.921  22.432  24.706  1.00  0.00    -0.462 OA
BRANCH   5   6
ATOM      6  C   UNL A   1      34.197  23.757  24.900  1.00  0.00     0.328 C 
ATOM      7  O   UNL A   1      35.271  24.171  25.314  1.00  0.00    -0.250 OA
BRANCH   6   8
ATOM      8  C   UNL A   1      33.016  24.633  24.431  1.00  0.00     0.195 C 
BRANCH   8   9
ATOM      9  N   UNL A   1      33.240  25.007  23.031  1.00  0.00    -0.338 N 
ATOM     10  C   UNL A   1      32.901  26.099  22.270  1.00  0.00     0.253 C 
ATOM     11  O   UNL A   1      33.366  26.087  21.128  1.00  0.00    -0.269 OA
ATOM     12  H   UNL A   1      33.741  24.327  22.527  1.00  0.00     0.164 HD
BRANCH  10  13
ATOM     13  C   UNL A   1      32.024  27.193  22.744  1.00  0.00     0.053 A 
ATOM     14  C   UNL A   1      28.775  29.177  22.640  1.00  0.00     0.056 C 
ATOM     15  C   UNL A   1      30.124  28.617  22.932  1.00  0.00     0.003 A 
ATOM     16  C   UNL A   1      30.676  27.495  22.369  1.00  0.00     0.029 A 
ATOM     17  S   UNL A   1      31.193  29.309  24.040  1.00  0.00    -0.145 S 
ATOM     18  C   UNL A   1      32.414  28.132  23.704  1.00  0.00     0.014 A 
ATOM     19  C   UNL A   1      33.696  28.276  24.465  1.00  0.00     0.057 C 
ENDBRANCH  10  13
ENDBRANCH   8   9
BRANCH   8  20
ATOM     20  C   UNL A   1      31.560  24.162  24.706  1.00  0.00     0.017 C 
ATOM     21  C   UNL A   1      30.677  25.212  25.388  1.00  0.00     0.010 C 
ATOM     22  C   UNL A   1      30.863  23.697  23.421  1.00  0.00     0.010 C 
ENDBRANCH   8  20
ENDBRANCH   6   8
ENDBRANCH   5   6
ENDBRANCH   4   5
ENDBRANCH   3   4
ENDBRANCH   2   3
ENDBRANCH   1   2
BRANCH   1  23
ATOM     23  C   UNL A   1      38.132  21.755  25.728  1.00  0.00     0.261 C 
BRANCH  23  24
ATOM     24  O   UNL A   1      38.913  22.909  25.397  1.00  0.00    -0.460 OA
BRANCH  24  25
ATOM     25  C   UNL A   1      40.038  23.049  26.137  1.00  0.00     0.338 C 
ATOM     26  O   UNL A   1      41.022  22.320  26.134  1.00  0.00    -0.246 OA
BRANCH  25  27
ATOM     27  C   UNL A   1      40.006  24.351  26.820  1.00  0.00     0.060 A 
ATOM     28  C   UNL A   1      40.760  25.402  26.277  1.00  0.00     0.016 A 
ATOM     29  C   UNL A   1      39.283  24.520  27.999  1.00  0.00     0.016 A 
ATOM     30  C   UNL A   1      40.838  26.619  26.945  1.00  0.00     0.010 A 
ATOM     31  C   UNL A   1      39.376  25.732  28.677  1.00  0.00     0.010 A 
ATOM     32  C   UNL A   1      40.184  26.768  28.173  1.00  0.00    -0.014 A 
BRANCH  32  33
ATOM     33  C   UNL A   1      40.497  27.912  29.054  1.00  0.00     0.031 A 
ATOM     34  C   UNL A   1      41.718  27.811  29.925  1.00  0.00     0.074 A 
ATOM     35  C   UNL A   1      39.690  28.984  29.110  1.00  0.00     0.049 A 
ATOM     36  N   UNL A   1      42.092  28.570  30.918  1.00  0.00    -0.248 NA
ATOM     37  C   UNL A   1      42.630  26.688  29.642  1.00  0.00     0.031 C 
ATOM     38  C   UNL A   1      38.519  29.206  28.264  1.00  0.00     0.029 A 
ATOM     39  N   UNL A   1      39.721  30.074  29.941  1.00  0.00    -0.354 N 
ATOM     40  C   UNL A   1      43.269  28.006  31.395  1.00  0.00     0.074 A 
ATOM     41  C   UNL A   1      43.535  26.830  30.599  1.00  0.00     0.031 C 
ATOM     42  C   UNL A   1      37.923  30.351  28.641  1.00  0.00     0.029 A 
ATOM     43  C   UNL A   1      38.641  30.908  29.785  1.00  0.00     0.049 A 
ATOM     44  H   UNL A   1      40.446  30.241  30.586  1.00  0.00     0.167 HD
ATOM     45  C   UNL A   1      44.054  28.437  32.410  1.00  0.00     0.037 A 
ATOM     46  C   UNL A   1      38.259  31.973  30.518  1.00  0.00     0.037 A 
ATOM     47  C   UNL A   1      43.767  29.610  33.190  1.00  0.00     0.049 A 
ATOM     48  C   UNL A   1      39.101  32.388  31.698  1.00  0.00     0.074 A 
ATOM     49  C   UNL A   1      44.489  30.142  34.242  1.00  0.00     0.029 A 
ATOM     50  N   UNL A   1      42.663  30.431  33.005  1.00  0.00    -0.354 N 
ATOM     51  N   UNL A   1      40.209  31.848  32.151  1.00  0.00    -0.248 NA
ATOM     52  C   UNL A   1      38.643  33.551  32.471  1.00  0.00     0.031 C 
ATOM     53  C   UNL A   1      43.796  31.254  34.726  1.00  0.00     0.029 A 
ATOM     54  C   UNL A   1      42.676  31.456  33.933  1.00  0.00     0.049 A 
ATOM     55  H   UNL A   1      41.973  30.303  32.313  1.00  0.00     0.167 HD
ATOM     56  C   UNL A   1      40.604  32.634  33.229  1.00  0.00     0.074 A 
ATOM     57  C   UNL A   1      39.612  33.680  33.368  1.00  0.00     0.031 C 
ATOM     58  C   UNL A   1      41.694  32.509  34.025  1.00  0.00     0.037 A 
BRANCH  45  59
ATOM     59  C   UNL A   1      45.271  27.624  32.748  1.00  0.00     0.058 A 
ATOM     60  C   UNL A   1      46.527  27.900  32.185  1.00  0.00     0.135 A 
ATOM     61  C   UNL A   1      45.188  26.572  33.675  1.00  0.00     0.135 A 
ATOM     62  F   UNL A   1      46.661  28.879  31.276  1.00  0.00    -0.206 F 
ATOM     63  C   UNL A   1      47.651  27.146  32.509  1.00  0.00     0.059 A 
ATOM     64  C   UNL A   1      46.304  25.826  34.038  1.00  0.00     0.059 A 
ATOM     65  F   UNL A   1      44.010  26.260  34.240  1.00  0.00    -0.206 F 
ATOM     66  C   UNL A   1      47.530  26.112  33.439  1.00  0.00     0.060 A 
BRANCH  66  67
ATOM     67  S   UNL A   1      49.000  25.152  33.855  1.00  0.00     0.124 S 
ATOM     68  O   UNL A   1      49.701  25.124  32.576  1.00  0.00    -0.237 OA
ATOM     69  O   UNL A   1      49.617  25.966  34.898  1.00  0.00    -0.237 OA
ATOM     70  O   UNL A   1      48.457  23.873  34.300  1.00  0.00    -0.744 OA
ENDBRANCH  66  67
ENDBRANCH  45  59
BRANCH  46  71
ATOM     71  C   UNL A   1      37.015  32.712  30.169  1.00  0.00     0.058 A 
ATOM     72  C   UNL A   1      37.050  33.807  29.294  1.00  0.00     0.135 A 
ATOM     73  C   UNL A   1      35.769  32.339  30.698  1.00  0.00     0.135 A 
ATOM     74  F   UNL A   1      38.218  34.207  28.767  1.00  0.00    -0.206 F 
ATOM     75  C   UNL A   1      35.901  34.522  28.973  1.00  0.00     0.059 A 
ATOM     76  C   UNL A   1      34.601  33.020  30.370  1.00  0.00     0.059 A 
ATOM     77  F   UNL A   1      35.678  31.290  31.530  1.00  0.00    -0.206 F 
ATOM     78  C   UNL A   1      34.680  34.118  29.515  1.00  0.00     0.060 A 
BRANCH  78  79
ATOM     79  S   UNL A   1      33.191  35.035  29.065  1.00  0.00     0.124 S 
ATOM     80  O   UNL A   1      32.544  35.198  30.361  1.00  0.00    -0.237 OA
ATOM     81  O   UNL A   1      33.748  36.248  28.471  1.00  0.00    -0.237 OA
ATOM     82  O   UNL A   1      32.515  34.141  28.129  1.00  0.00    -0.744 OA
ENDBRANCH  78  79
ENDBRANCH  46  71
BRANCH  58  83
ATOM     83  C   UNL A   1      41.931  33.562  35.072  1.00  0.00     0.058 A 
ATOM     84  C   UNL A   1      41.578  33.370  36.415  1.00  0.00     0.135 A 
ATOM     85  C   UNL A   1      42.633  34.733  34.736  1.00  0.00     0.135 A 
ATOM     86  F   UNL A   1      40.898  32.273  36.786  1.00  0.00    -0.206 F 
ATOM     87  C   UNL A   1      41.916  34.302  37.392  1.00  0.00     0.059 A 
ATOM     88  C   UNL A   1      43.007  35.662  35.700  1.00  0.00     0.059 A 
ATOM     89  F   UNL A   1      43.002  34.958  33.464  1.00  0.00    -0.206 F 
ATOM     90  C   UNL A   1      42.644  35.437  37.027  1.00  0.00     0.060 A 
BRANCH  90  91
ATOM     91  S   UNL A   1      43.155  36.590  38.319  1.00  0.00     0.124 S 
ATOM     92  O   UNL A   1      41.875  37.149  38.740  1.00  0.00    -0.237 OA
ATOM     93  O   UNL A   1      43.809  35.707  39.281  1.00  0.00    -0.237 OA
ATOM     94  O   UNL A   1      44.044  37.513  37.620  1.00  0.00    -0.744 OA
ENDBRANCH  90  91
ENDBRANCH  58  83
ENDBRANCH  32  33
ENDBRANCH  25  27
ENDBRANCH  24  25
ENDBRANCH  23  24
ENDBRANCH   1  23
TORSDOF 20
ENDMDL
MODEL 3
REMARK VINA RESULT:     -10.0      2.961      8.239
REMARK SMILES Cc1cc(C(=O)N[C@H](C(=O)OCCOCCOC(=O)c2ccc(-c3c4nc(c(-c5c(F)cc(S(=O)(=O)[O-])cc5F)c5ccc([nH]5)c(-c5c(F)cc(S(=O)(=O)[O-])cc5F)c5nc(c(-c6c(F)cc(S(=O)(=O)[O-])cc6F)c6ccc3[nH]6)C=C5)C=C4)cc2)C(C)C)c(C)s1
REMARK SMILES IDX 15 1 14 2 13 3 12 4 11 5 9 6 10 7 8 8 7 9 5 10 6 11 4 13
REMARK SMILES IDX 1 14 2 15 3 16 91 17 89 18 90 19 86 20 87 21 88 22 16 23
REMARK SMILES IDX 17 24 18 25 19 26 20 27 21 28 85 29 22 30 84 31 23 32 24 33
REMARK SMILES IDX 25 34 78 35 26 36 83 37 77 38 79 39 27 40 82 41 76 42 75 43
REMARK SMILES IDX 28 45 62 46 41 47 61 48 42 49 45 50 60 51 80 52 43 53 44 54
REMARK SMILES IDX 59 56 81 57 46 58 29 59 30 60 39 61 31 62 32 63 38 64 40 65
REMARK SMILES IDX 33 66 34 67 35 68 36 69 37 70 63 71 64 72 73 73 65 74 66 75
REMARK SMILES IDX 72 76 74 77 67 78 68 79 69 80 70 81 71 82 47 83 48 84 57 85
REMARK SMILES IDX 49 86 50 87 56 88 58 89 51 90 52 91 53 92 54 93 55 94
REMARK H PARENT 7 12 79 44 45 55
REMARK Flexibility Score: inf
ROOT
ATOM      1  C   UNL A   1      38.830  22.552  26.509  1.00  0.00     0.202 C 
ENDROOT
BRANCH   1   2
ATOM      2  O   UNL A   1      38.174  23.535  25.712  1.00  0.00    -0.374 OA
BRANCH   2   3
ATOM      3  C   UNL A   1      36.804  23.832  25.960  1.00  0.00     0.202 C 
BRANCH   3   4
ATOM      4  C   UNL A   1      35.755  22.714  25.906  1.00  0.00     0.261 C 
BRANCH   4   5
ATOM      5  O   UNL A   1      35.736  21.979  24.677  1.00  0.00    -0.462 OA
BRANCH   5   6
ATOM      6  C   UNL A   1      35.486  22.759  23.583  1.00  0.00     0.328 C 
ATOM      7  O   UNL A   1      36.331  23.038  22.743  1.00  0.00    -0.250 OA
BRANCH   6   8
ATOM      8  C   UNL A   1      33.990  23.135  23.513  1.00  0.00     0.195 C 
BRANCH   8   9
ATOM      9  N   UNL A   1      33.755  23.889  22.278  1.00  0.00    -0.338 N 
ATOM     10  C   UNL A   1      32.995  24.988  21.962  1.00  0.00     0.253 C 
ATOM     11  O   UNL A   1      33.140  25.391  20.806  1.00  0.00    -0.269 OA
ATOM     12  H   UNL A   1      34.250  23.529  21.508  1.00  0.00     0.164 HD
BRANCH  10  13
ATOM     13  C   UNL A   1      32.046  25.630  22.898  1.00  0.00     0.053 A 
ATOM     14  C   UNL A   1      28.515  26.486  24.042  1.00  0.00     0.056 C 
ATOM     15  C   UNL A   1      29.987  26.322  23.875  1.00  0.00     0.003 A 
ATOM     16  C   UNL A   1      30.615  25.573  22.914  1.00  0.00     0.029 A 
ATOM     17  S   UNL A   1      31.120  27.059  24.886  1.00  0.00    -0.145 S 
ATOM     18  C   UNL A   1      32.446  26.417  23.983  1.00  0.00     0.014 A 
ATOM     19  C   UNL A   1      33.815  26.784  24.469  1.00  0.00     0.057 C 
ENDBRANCH  10  13
ENDBRANCH   8   9
BRANCH   8  20
ATOM     20  C   UNL A   1      32.915  22.041  23.769  1.00  0.00     0.017 C 
ATOM     21  C   UNL A   1      31.880  22.411  24.834  1.00  0.00     0.010 C 
ATOM     22  C   UNL A   1      32.176  21.663  22.478  1.00  0.00     0.010 C 
ENDBRANCH   8  20
ENDBRANCH   6   8
ENDBRANCH   5   6
ENDBRANCH   4   5
ENDBRANCH   3   4
ENDBRANCH   2   3
ENDBRANCH   1   2
BRANCH   1  23
ATOM     23  C   UNL A   1      39.334  21.268  25.846  1.00  0.00     0.261 C 
BRANCH  23  24
ATOM     24  O   UNL A   1      40.159  20.486  26.717  1.00  0.00    -0.460 OA
BRANCH  24  25
ATOM     25  C   UNL A   1      41.378  20.189  26.211  1.00  0.00     0.338 C 
ATOM     26  O   UNL A   1      41.664  19.258  25.468  1.00  0.00    -0.246 OA
BRANCH  25  27
ATOM     27  C   UNL A   1      42.308  21.286  26.516  1.00  0.00     0.060 A 
ATOM     28  C   UNL A   1      42.581  21.568  27.863  1.00  0.00     0.016 A 
ATOM     29  C   UNL A   1      42.866  22.053  25.494  1.00  0.00     0.016 A 
ATOM     30  C   UNL A   1      43.376  22.659  28.198  1.00  0.00     0.010 A 
ATOM     31  C   UNL A   1      43.645  23.156  25.831  1.00  0.00     0.010 A 
ATOM     32  C   UNL A   1      43.868  23.484  27.181  1.00  0.00    -0.014 A 
BRANCH  32  33
ATOM     33  C   UNL A   1      44.437  24.809  27.501  1.00  0.00     0.031 A 
ATOM     34  C   UNL A   1      43.489  25.890  27.940  1.00  0.00     0.074 A 
ATOM     35  C   UNL A   1      45.750  25.052  27.359  1.00  0.00     0.049 A 
ATOM     36  N   UNL A   1      43.699  27.170  28.077  1.00  0.00    -0.248 NA
ATOM     37  C   UNL A   1      42.112  25.465  28.249  1.00  0.00     0.031 C 
ATOM     38  C   UNL A   1      46.760  24.058  27.002  1.00  0.00     0.029 A 
ATOM     39  N   UNL A   1      46.451  26.224  27.470  1.00  0.00    -0.354 N 
ATOM     40  C   UNL A   1      42.478  27.709  28.465  1.00  0.00     0.074 A 
ATOM     41  C   UNL A   1      41.527  26.622  28.519  1.00  0.00     0.031 C 
ATOM     42  C   UNL A   1      47.952  24.671  26.891  1.00  0.00     0.029 A 
ATOM     43  C   UNL A   1      47.774  26.104  27.120  1.00  0.00     0.049 A 
ATOM     44  H   UNL A   1      46.046  27.070  27.771  1.00  0.00     0.167 HD
ATOM     45  C   UNL A   1      42.184  28.998  28.749  1.00  0.00     0.037 A 
ATOM     46  C   UNL A   1      48.717  27.054  26.959  1.00  0.00     0.037 A 
ATOM     47  C   UNL A   1      43.147  30.064  28.685  1.00  0.00     0.049 A 
ATOM     48  C   UNL A   1      48.347  28.496  27.198  1.00  0.00     0.074 A 
ATOM     49  C   UNL A   1      42.962  31.408  28.949  1.00  0.00     0.029 A 
ATOM     50  N   UNL A   1      44.478  29.904  28.325  1.00  0.00    -0.354 N 
ATOM     51  N   UNL A   1      47.190  29.003  27.556  1.00  0.00    -0.248 NA
ATOM     52  C   UNL A   1      49.405  29.498  27.005  1.00  0.00     0.031 C 
ATOM     53  C   UNL A   1      44.167  32.069  28.701  1.00  0.00     0.029 A 
ATOM     54  C   UNL A   1      45.122  31.128  28.345  1.00  0.00     0.049 A 
ATOM     55  H   UNL A   1      44.901  29.046  28.091  1.00  0.00     0.167 HD
ATOM     56  C   UNL A   1      47.394  30.374  27.680  1.00  0.00     0.074 A 
ATOM     57  C   UNL A   1      48.782  30.619  27.347  1.00  0.00     0.031 C 
ATOM     58  C   UNL A   1      46.517  31.340  28.046  1.00  0.00     0.037 A 
BRANCH  45  59
ATOM     59  C   UNL A   1      40.765  29.328  29.122  1.00  0.00     0.058 A 
ATOM     60  C   UNL A   1      40.373  29.509  30.457  1.00  0.00     0.135 A 
ATOM     61  C   UNL A   1      39.789  29.495  28.126  1.00  0.00     0.135 A 
ATOM     62  F   UNL A   1      41.259  29.339  31.452  1.00  0.00    -0.206 F 
ATOM     63  C   UNL A   1      39.060  29.821  30.794  1.00  0.00     0.059 A 
ATOM     64  C   UNL A   1      38.478  29.838  28.437  1.00  0.00     0.059 A 
ATOM     65  F   UNL A   1      40.107  29.327  26.832  1.00  0.00    -0.206 F 
ATOM     66  C   UNL A   1      38.119  29.986  29.775  1.00  0.00     0.060 A 
BRANCH  66  67
ATOM     67  S   UNL A   1      36.422  30.399  30.230  1.00  0.00     0.124 S 
ATOM     68  O   UNL A   1      35.679  29.870  29.091  1.00  0.00    -0.237 OA
ATOM     69  O   UNL A   1      36.253  29.678  31.487  1.00  0.00    -0.237 OA
ATOM     70  O   UNL A   1      36.445  31.854  30.341  1.00  0.00    -0.744 OA
ENDBRANCH  66  67
ENDBRANCH  45  59
BRANCH  46  71
ATOM     71  C   UNL A   1      50.092  26.677  26.538  1.00  0.00     0.058 A 
ATOM     72  C   UNL A   1      50.413  26.522  25.182  1.00  0.00     0.135 A 
ATOM     73  C   UNL A   1      51.114  26.465  27.478  1.00  0.00     0.135 A 
ATOM     74  F   UNL A   1      49.470  26.707  24.246  1.00  0.00    -0.206 F 
ATOM     75  C   UNL A   1      51.689  26.150  24.771  1.00  0.00     0.059 A 
ATOM     76  C   UNL A   1      52.405  26.120  27.092  1.00  0.00     0.059 A 
ATOM     77  F   UNL A   1      50.864  26.612  28.789  1.00  0.00    -0.206 F 
ATOM     78  C   UNL A   1      52.680  25.953  25.735  1.00  0.00     0.060 A 
BRANCH  78  79
ATOM     79  S   UNL A   1      54.339  25.501  25.186  1.00  0.00     0.124 S 
ATOM     80  O   UNL A   1      54.492  26.332  23.998  1.00  0.00    -0.237 OA
ATOM     81  O   UNL A   1      55.153  25.877  26.339  1.00  0.00    -0.237 OA
ATOM     82  O   UNL A   1      54.234  24.065  24.944  1.00  0.00    -0.744 OA
ENDBRANCH  78  79
ENDBRANCH  46  71
BRANCH  58  83
ATOM     83  C   UNL A   1      47.032  32.746  28.188  1.00  0.00     0.058 A 
ATOM     84  C   UNL A   1      47.720  33.174  29.332  1.00  0.00     0.135 A 
ATOM     85  C   UNL A   1      46.934  33.637  27.106  1.00  0.00     0.135 A 
ATOM     86  F   UNL A   1      47.833  32.364  30.397  1.00  0.00    -0.206 F 
ATOM     87  C   UNL A   1      48.298  34.438  29.398  1.00  0.00     0.059 A 
ATOM     88  C   UNL A   1      47.529  34.893  27.138  1.00  0.00     0.059 A 
ATOM     89  F   UNL A   1      46.292  33.270  25.985  1.00  0.00    -0.206 F 
ATOM     90  C   UNL A   1      48.209  35.285  28.290  1.00  0.00     0.060 A 
BRANCH  90  91
ATOM     91  S   UNL A   1      49.042  36.885  28.356  1.00  0.00     0.124 S 
ATOM     92  O   UNL A   1      49.797  36.878  27.108  1.00  0.00    -0.237 OA
ATOM     93  O   UNL A   1      47.920  37.817  28.413  1.00  0.00    -0.237 OA
ATOM     94  O   UNL A   1      49.843  36.803  29.574  1.00  0.00    -0.744 OA
ENDBRANCH  90  91
ENDBRANCH  58  83
ENDBRANCH  32  33
ENDBRANCH  25  27
ENDBRANCH  24  25
ENDBRANCH  23  24
ENDBRANCH   1  23
TORSDOF 20
ENDMDL
