MODEL 1
REMARK VINA RESULT:      -9.9      0.000      0.000
REMARK SMILES CC(C)OC[C@H](O)CC1(C(=O)OCCOCCOC(=O)c2ccc(-c3c4nc(c(-c5c(F)cc(S(=O)(=O)[O-])cc5F)c5ccc([nH]5)c(-c5c(F)cc(S(=O)(=O)[O-])cc5F)c5nc(c(-c6c(F)cc(S(=O)(=O)[O-])cc6F)c6ccc3[nH]6)C=C5)C=C4)cc2)CCCCC1
REMARK SMILES IDX 14 1 13 2 12 3 10 4 11 5 9 6 87 7 91 8 88 9 90 10 89 11 8 12
REMARK SMILES IDX 6 13 5 14 4 15 2 16 1 17 3 18 7 19 15 21 16 22 17 23 18 24
REMARK SMILES IDX 19 25 20 26 21 27 22 28 86 29 23 30 85 31 24 32 25 33 26 34
REMARK SMILES IDX 79 35 27 36 84 37 78 38 80 39 28 40 83 41 77 42 76 43 29 45
REMARK SMILES IDX 63 46 42 47 62 48 43 49 46 50 61 51 81 52 44 53 45 54 60 56
REMARK SMILES IDX 82 57 47 58 30 59 31 60 40 61 32 62 33 63 39 64 41 65 34 66
REMARK SMILES IDX 35 67 36 68 37 69 38 70 64 71 65 72 74 73 66 74 67 75 73 76
REMARK SMILES IDX 75 77 68 78 69 79 70 80 71 81 72 82 48 83 49 84 58 85 50 86
REMARK SMILES IDX 51 87 57 88 59 89 52 90 53 91 54 92 55 93 56 94
REMARK H PARENT 7 20 80 44 46 55
REMARK Flexibility Score: inf
ROOT
ATOM      1  C   UNL A   1      34.154  29.156  26.903  1.00  0.00     0.202 C 
ENDROOT
BRANCH   1   2
ATOM      2  C   UNL A   1      32.656  29.280  27.182  1.00  0.00     0.261 C 
BRANCH   2   3
ATOM      3  O   UNL A   1      31.878  28.739  26.100  1.00  0.00    -0.463 OA
BRANCH   3   4
ATOM      4  C   UNL A   1      31.393  27.489  26.297  1.00  0.00     0.312 C 
ATOM      5  O   UNL A   1      30.884  27.114  27.349  1.00  0.00    -0.252 OA
BRANCH   4   6
ATOM      6  C   UNL A   1      31.542  26.567  25.067  1.00  0.00     0.071 C 
ATOM      7  C   UNL A   1      31.156  25.150  25.539  1.00  0.00     0.019 C 
ATOM      8  C   UNL A   1      32.954  26.520  24.417  1.00  0.00     0.019 C 
ATOM      9  C   UNL A   1      32.234  24.516  26.424  1.00  0.00     0.001 C 
ATOM     10  C   UNL A   1      34.036  25.801  25.220  1.00  0.00     0.001 C 
ATOM     11  C   UNL A   1      33.572  24.434  25.698  1.00  0.00     0.000 C 
BRANCH   6  12
ATOM     12  C   UNL A   1      30.551  27.182  24.012  1.00  0.00     0.053 C 
BRANCH  12  13
ATOM     13  C   UNL A   1      31.163  27.927  22.822  1.00  0.00     0.141 C 
BRANCH  13  14
ATOM     14  C   UNL A   1      30.567  29.344  22.708  1.00  0.00     0.192 C 
BRANCH  14  15
ATOM     15  O   UNL A   1      29.378  29.362  21.911  1.00  0.00    -0.376 OA
BRANCH  15  16
ATOM     16  C   UNL A   1      28.186  29.902  22.500  1.00  0.00     0.112 C 
ATOM     17  C   UNL A   1      27.275  28.845  23.124  1.00  0.00     0.038 C 
ATOM     18  C   UNL A   1      28.467  31.035  23.479  1.00  0.00     0.038 C 
ENDBRANCH  15  16
ENDBRANCH  14  15
ENDBRANCH  13  14
BRANCH  13  19
ATOM     19  O   UNL A   1      30.863  27.202  21.623  1.00  0.00    -0.391 OA
ATOM     20  H   UNL A   1      29.958  27.407  21.340  1.00  0.00     0.211 HD
ENDBRANCH  13  19
ENDBRANCH  12  13
ENDBRANCH   6  12
ENDBRANCH   4   6
ENDBRANCH   3   4
ENDBRANCH   2   3
ENDBRANCH   1   2
BRANCH   1  21
ATOM     21  O   UNL A   1      35.005  30.101  27.552  1.00  0.00    -0.374 OA
BRANCH  21  22
ATOM     22  C   UNL A   1      34.476  31.401  27.801  1.00  0.00     0.202 C 
BRANCH  22  23
ATOM     23  C   UNL A   1      34.666  31.979  29.211  1.00  0.00     0.261 C 
BRANCH  23  24
ATOM     24  O   UNL A   1      36.047  32.211  29.546  1.00  0.00    -0.460 OA
BRANCH  24  25
ATOM     25  C   UNL A   1      36.522  31.437  30.550  1.00  0.00     0.338 C 
ATOM     26  O   UNL A   1      36.005  31.257  31.647  1.00  0.00    -0.246 OA
BRANCH  25  27
ATOM     27  C   UNL A   1      37.689  30.655  30.100  1.00  0.00     0.060 A 
ATOM     28  C   UNL A   1      38.537  30.135  31.086  1.00  0.00     0.016 A 
ATOM     29  C   UNL A   1      38.006  30.518  28.747  1.00  0.00     0.016 A 
ATOM     30  C   UNL A   1      39.733  29.518  30.726  1.00  0.00     0.010 A 
ATOM     31  C   UNL A   1      39.215  29.907  28.389  1.00  0.00     0.010 A 
ATOM     32  C   UNL A   1      40.099  29.439  29.377  1.00  0.00    -0.014 A 
BRANCH  32  33
ATOM     33  C   UNL A   1      41.476  29.009  29.024  1.00  0.00     0.031 A 
ATOM     34  C   UNL A   1      42.595  30.013  29.093  1.00  0.00     0.074 A 
ATOM     35  C   UNL A   1      41.734  27.731  28.692  1.00  0.00     0.049 A 
ATOM     36  N   UNL A   1      43.864  29.861  28.817  1.00  0.00    -0.248 NA
ATOM     37  C   UNL A   1      42.234  31.370  29.534  1.00  0.00     0.031 C 
ATOM     38  C   UNL A   1      40.743  26.658  28.630  1.00  0.00     0.029 A 
ATOM     39  N   UNL A   1      42.914  27.121  28.342  1.00  0.00    -0.354 N 
ATOM     40  C   UNL A   1      44.454  31.098  29.049  1.00  0.00     0.074 A 
ATOM     41  C   UNL A   1      43.397  31.999  29.457  1.00  0.00     0.031 C 
ATOM     42  C   UNL A   1      41.355  25.522  28.250  1.00  0.00     0.029 A 
ATOM     43  C   UNL A   1      42.772  25.793  28.018  1.00  0.00     0.049 A 
ATOM     44  H   UNL A   1      43.779  27.591  28.324  1.00  0.00     0.167 HD
ATOM     45  C   UNL A   1      45.757  31.450  28.940  1.00  0.00     0.037 A 
ATOM     46  C   UNL A   1      43.680  24.904  27.566  1.00  0.00     0.037 A 
ATOM     47  C   UNL A   1      46.806  30.551  28.534  1.00  0.00     0.049 A 
ATOM     48  C   UNL A   1      45.113  25.334  27.391  1.00  0.00     0.074 A 
ATOM     49  C   UNL A   1      48.160  30.810  28.404  1.00  0.00     0.029 A 
ATOM     50  N   UNL A   1      46.619  29.222  28.187  1.00  0.00    -0.354 N 
ATOM     51  N   UNL A   1      45.658  26.503  27.629  1.00  0.00    -0.248 NA
ATOM     52  C   UNL A   1      46.056  24.322  26.894  1.00  0.00     0.031 C 
ATOM     53  C   UNL A   1      48.783  29.648  27.936  1.00  0.00     0.029 A 
ATOM     54  C   UNL A   1      47.828  28.651  27.822  1.00  0.00     0.049 A 
ATOM     55  H   UNL A   1      45.754  28.751  28.199  1.00  0.00     0.167 HD
ATOM     56  C   UNL A   1      47.011  26.361  27.332  1.00  0.00     0.074 A 
ATOM     57  C   UNL A   1      47.203  24.990  26.909  1.00  0.00     0.031 C 
ATOM     58  C   UNL A   1      48.004  27.282  27.407  1.00  0.00     0.037 A 
BRANCH  45  59
ATOM     59  C   UNL A   1      46.120  32.877  29.245  1.00  0.00     0.058 A 
ATOM     60  C   UNL A   1      46.433  33.299  30.547  1.00  0.00     0.135 A 
ATOM     61  C   UNL A   1      46.181  33.832  28.216  1.00  0.00     0.135 A 
ATOM     62  F   UNL A   1      46.371  32.431  31.570  1.00  0.00    -0.206 F 
ATOM     63  C   UNL A   1      46.769  34.620  30.823  1.00  0.00     0.059 A 
ATOM     64  C   UNL A   1      46.539  35.153  28.465  1.00  0.00     0.059 A 
ATOM     65  F   UNL A   1      45.889  33.483  26.953  1.00  0.00    -0.206 F 
ATOM     66  C   UNL A   1      46.817  35.541  29.775  1.00  0.00     0.060 A 
BRANCH  66  67
ATOM     67  S   UNL A   1      47.253  37.252  30.148  1.00  0.00     0.124 S 
ATOM     68  O   UNL A   1      46.545  37.969  29.092  1.00  0.00    -0.237 OA
ATOM     69  O   UNL A   1      46.722  37.424  31.497  1.00  0.00    -0.237 OA
ATOM     70  O   UNL A   1      48.709  37.263  30.046  1.00  0.00    -0.744 OA
ENDBRANCH  66  67
ENDBRANCH  45  59
BRANCH  46  71
ATOM     71  C   UNL A   1      43.255  23.521  27.228  1.00  0.00     0.058 A 
ATOM     72  C   UNL A   1      42.955  22.586  28.230  1.00  0.00     0.135 A 
ATOM     73  C   UNL A   1      43.137  23.106  25.892  1.00  0.00     0.135 A 
ATOM     74  F   UNL A   1      43.062  22.931  29.522  1.00  0.00    -0.206 F 
ATOM     75  C   UNL A   1      42.564  21.287  27.922  1.00  0.00     0.059 A 
ATOM     76  C   UNL A   1      42.726  21.820  25.558  1.00  0.00     0.059 A 
ATOM     77  F   UNL A   1      43.405  23.965  24.896  1.00  0.00    -0.206 F 
ATOM     78  C   UNL A   1      42.451  20.914  26.581  1.00  0.00     0.060 A 
BRANCH  78  79
ATOM     79  S   UNL A   1      41.893  19.241  26.188  1.00  0.00     0.124 S 
ATOM     80  O   UNL A   1      42.262  18.518  27.399  1.00  0.00    -0.237 OA
ATOM     81  O   UNL A   1      40.463  19.438  25.970  1.00  0.00    -0.237 OA
ATOM     82  O   UNL A   1      42.660  18.906  24.992  1.00  0.00    -0.744 OA
ENDBRANCH  78  79
ENDBRANCH  46  71
BRANCH  58  83
ATOM     83  C   UNL A   1      49.396  26.834  27.054  1.00  0.00     0.058 A 
ATOM     84  C   UNL A   1      50.302  26.399  28.034  1.00  0.00     0.135 A 
ATOM     85  C   UNL A   1      49.809  26.787  25.712  1.00  0.00     0.135 A 
ATOM     86  F   UNL A   1      49.959  26.429  29.331  1.00  0.00    -0.206 F 
ATOM     87  C   UNL A   1      51.576  25.953  27.699  1.00  0.00     0.059 A 
ATOM     88  C   UNL A   1      51.070  26.321  25.351  1.00  0.00     0.059 A 
ATOM     89  F   UNL A   1      48.977  27.181  24.735  1.00  0.00    -0.206 F 
ATOM     90  C   UNL A   1      51.950  25.916  26.354  1.00  0.00     0.060 A 
BRANCH  90  91
ATOM     91  S   UNL A   1      53.594  25.303  25.928  1.00  0.00     0.124 S 
ATOM     92  O   UNL A   1      53.283  23.998  25.356  1.00  0.00    -0.237 OA
ATOM     93  O   UNL A   1      54.071  26.311  24.986  1.00  0.00    -0.237 OA
ATOM     94  O   UNL A   1      54.291  25.276  27.212  1.00  0.00    -0.744 OA
ENDBRANCH  90  91
ENDBRANCH  58  83
ENDBRANCH  32  33
ENDBRANCH  25  27
ENDBRANCH  24  25
ENDBRANCH  23  24
ENDBRANCH  22  23
ENDBRANCH  21  22
ENDBRANCH   1  21
TORSDOF 23
ENDMDL
MODEL 2
REMARK VINA RESULT:      -9.6      0.870      2.001
REMARK SMILES CC(C)OC[C@H](O)CC1(C(=O)OCCOCCOC(=O)c2ccc(-c3c4nc(c(-c5c(F)cc(S(=O)(=O)[O-])cc5F)c5ccc([nH]5)c(-c5c(F)cc(S(=O)(=O)[O-])cc5F)c5nc(c(-c6c(F)cc(S(=O)(=O)[O-])cc6F)c6ccc3[nH]6)C=C5)C=C4)cc2)CCCCC1
REMARK SMILES IDX 14 1 13 2 12 3 10 4 11 5 9 6 87 7 91 8 88 9 90 10 89 11 8 12
REMARK SMILES IDX 6 13 5 14 4 15 2 16 1 17 3 18 7 19 15 21 16 22 17 23 18 24
REMARK SMILES IDX 19 25 20 26 21 27 22 28 86 29 23 30 85 31 24 32 25 33 26 34
REMARK SMILES IDX 79 35 27 36 84 37 78 38 80 39 28 40 83 41 77 42 76 43 29 45
REMARK SMILES IDX 63 46 42 47 62 48 43 49 46 50 61 51 81 52 44 53 45 54 60 56
REMARK SMILES IDX 82 57 47 58 30 59 31 60 40 61 32 62 33 63 39 64 41 65 34 66
REMARK SMILES IDX 35 67 36 68 37 69 38 70 64 71 65 72 74 73 66 74 67 75 73 76
REMARK SMILES IDX 75 77 68 78 69 79 70 80 71 81 72 82 48 83 49 84 58 85 50 86
REMARK SMILES IDX 51 87 57 88 59 89 52 90 53 91 54 92 55 93 56 94
REMARK H PARENT 7 20 80 44 46 55
REMARK Flexibility Score: inf
ROOT
ATOM      1  C   UNL A   1      33.053  29.333  27.288  1.00  0.00     0.202 C 
ENDROOT
BRANCH   1   2
ATOM      2  C   UNL A   1      31.812  28.980  26.468  1.00  0.00     0.261 C 
BRANCH   2   3
ATOM      3  O   UNL A   1      32.097  27.941  25.516  1.00  0.00    -0.463 OA
BRANCH   3   4
ATOM      4  C   UNL A   1      31.484  26.754  25.745  1.00  0.00     0.312 C 
ATOM      5  O   UNL A   1      30.774  26.532  26.722  1.00  0.00    -0.252 OA
BRANCH   4   6
ATOM      6  C   UNL A   1      31.764  25.693  24.659  1.00  0.00     0.071 C 
ATOM      7  C   UNL A   1      31.635  24.320  25.352  1.00  0.00     0.019 C 
ATOM      8  C   UNL A   1      33.150  25.781  23.960  1.00  0.00     0.019 C 
ATOM      9  C   UNL A   1      32.823  24.016  26.270  1.00  0.00     0.001 C 
ATOM     10  C   UNL A   1      34.355  25.383  24.810  1.00  0.00     0.001 C 
ATOM     11  C   UNL A   1      34.141  24.047  25.504  1.00  0.00     0.000 C 
BRANCH   6  12
ATOM     12  C   UNL A   1      30.662  25.966  23.571  1.00  0.00     0.053 C 
BRANCH  12  13
ATOM     13  C   UNL A   1      30.587  27.379  22.985  1.00  0.00     0.141 C 
BRANCH  13  14
ATOM     14  C   UNL A   1      29.146  27.921  23.070  1.00  0.00     0.192 C 
BRANCH  14  15
ATOM     15  O   UNL A   1      29.117  29.316  23.392  1.00  0.00    -0.376 OA
BRANCH  15  16
ATOM     16  C   UNL A   1      28.180  30.145  22.689  1.00  0.00     0.112 C 
ATOM     17  C   UNL A   1      27.632  31.301  23.526  1.00  0.00     0.038 C 
ATOM     18  C   UNL A   1      28.711  30.638  21.349  1.00  0.00     0.038 C 
ENDBRANCH  15  16
ENDBRANCH  14  15
ENDBRANCH  13  14
BRANCH  13  19
ATOM     19  O   UNL A   1      30.980  27.327  21.608  1.00  0.00    -0.391 OA
ATOM     20  H   UNL A   1      31.783  27.856  21.481  1.00  0.00     0.211 HD
ENDBRANCH  13  19
ENDBRANCH  12  13
ENDBRANCH   6  12
ENDBRANCH   4   6
ENDBRANCH   3   4
ENDBRANCH   2   3
ENDBRANCH   1   2
BRANCH   1  21
ATOM     21  O   UNL A   1      34.008  30.193  26.665  1.00  0.00    -0.374 OA
BRANCH  21  22
ATOM     22  C   UNL A   1      34.519  31.277  27.438  1.00  0.00     0.202 C 
BRANCH  22  23
ATOM     23  C   UNL A   1      34.841  30.997  28.913  1.00  0.00     0.261 C 
BRANCH  23  24
ATOM     24  O   UNL A   1      35.804  29.941  29.091  1.00  0.00    -0.460 OA
BRANCH  24  25
ATOM     25  C   UNL A   1      36.568  30.056  30.204  1.00  0.00     0.338 C 
ATOM     26  O   UNL A   1      36.178  30.067  31.366  1.00  0.00    -0.246 OA
BRANCH  25  27
ATOM     27  C   UNL A   1      38.000  29.983  29.863  1.00  0.00     0.060 A 
ATOM     28  C   UNL A   1      38.340  29.932  28.504  1.00  0.00     0.016 A 
ATOM     29  C   UNL A   1      38.986  29.864  30.844  1.00  0.00     0.016 A 
ATOM     30  C   UNL A   1      39.660  29.711  28.121  1.00  0.00     0.010 A 
ATOM     31  C   UNL A   1      40.312  29.632  30.456  1.00  0.00     0.010 A 
ATOM     32  C   UNL A   1      40.648  29.517  29.095  1.00  0.00    -0.014 A 
BRANCH  32  33
ATOM     33  C   UNL A   1      41.991  29.040  28.680  1.00  0.00     0.031 A 
ATOM     34  C   UNL A   1      43.137  30.014  28.657  1.00  0.00     0.074 A 
ATOM     35  C   UNL A   1      42.197  27.746  28.372  1.00  0.00     0.049 A 
ATOM     36  N   UNL A   1      44.385  29.820  28.316  1.00  0.00    -0.248 NA
ATOM     37  C   UNL A   1      42.836  31.393  29.076  1.00  0.00     0.031 C 
ATOM     38  C   UNL A   1      41.177  26.699  28.397  1.00  0.00     0.029 A 
ATOM     39  N   UNL A   1      43.339  27.094  27.976  1.00  0.00    -0.354 N 
ATOM     40  C   UNL A   1      45.018  31.046  28.477  1.00  0.00     0.074 A 
ATOM     41  C   UNL A   1      44.009  31.987  28.916  1.00  0.00     0.031 C 
ATOM     42  C   UNL A   1      41.737  25.536  28.018  1.00  0.00     0.029 A 
ATOM     43  C   UNL A   1      43.145  25.762  27.700  1.00  0.00     0.049 A 
ATOM     44  H   UNL A   1      44.213  27.540  27.897  1.00  0.00     0.167 HD
ATOM     45  C   UNL A   1      46.322  31.360  28.286  1.00  0.00     0.037 A 
ATOM     46  C   UNL A   1      44.003  24.836  27.226  1.00  0.00     0.037 A 
ATOM     47  C   UNL A   1      47.323  30.421  27.850  1.00  0.00     0.049 A 
ATOM     48  C   UNL A   1      45.435  25.221  26.959  1.00  0.00     0.074 A 
ATOM     49  C   UNL A   1      48.674  30.638  27.637  1.00  0.00     0.029 A 
ATOM     50  N   UNL A   1      47.082  29.087  27.554  1.00  0.00    -0.354 N 
ATOM     51  N   UNL A   1      46.023  26.382  27.132  1.00  0.00    -0.248 NA
ATOM     52  C   UNL A   1      46.323  24.170  26.441  1.00  0.00     0.031 C 
ATOM     53  C   UNL A   1      49.240  29.447  27.170  1.00  0.00     0.029 A 
ATOM     54  C   UNL A   1      48.254  28.474  27.140  1.00  0.00     0.049 A 
ATOM     55  H   UNL A   1      46.208  28.641  27.628  1.00  0.00     0.167 HD
ATOM     56  C   UNL A   1      47.352  26.194  26.765  1.00  0.00     0.074 A 
ATOM     57  C   UNL A   1      47.485  24.807  26.372  1.00  0.00     0.031 C 
ATOM     58  C   UNL A   1      48.371  27.090  26.757  1.00  0.00     0.037 A 
BRANCH  45  59
ATOM     59  C   UNL A   1      46.737  32.784  28.527  1.00  0.00     0.058 A 
ATOM     60  C   UNL A   1      46.715  33.744  27.504  1.00  0.00     0.135 A 
ATOM     61  C   UNL A   1      47.138  33.202  29.807  1.00  0.00     0.135 A 
ATOM     62  F   UNL A   1      46.358  33.395  26.257  1.00  0.00    -0.206 F 
ATOM     63  C   UNL A   1      47.099  35.062  27.733  1.00  0.00     0.059 A 
ATOM     64  C   UNL A   1      47.503  34.519  30.066  1.00  0.00     0.059 A 
ATOM     65  F   UNL A   1      47.181  32.324  30.822  1.00  0.00    -0.206 F 
ATOM     66  C   UNL A   1      47.494  35.439  29.018  1.00  0.00     0.060 A 
BRANCH  66  67
ATOM     67  S   UNL A   1      47.991  37.151  29.301  1.00  0.00     0.124 S 
ATOM     68  O   UNL A   1      49.111  36.980  30.222  1.00  0.00    -0.237 OA
ATOM     69  O   UNL A   1      48.339  37.602  27.957  1.00  0.00    -0.237 OA
ATOM     70  O   UNL A   1      46.796  37.763  29.873  1.00  0.00    -0.744 OA
ENDBRANCH  66  67
ENDBRANCH  45  59
BRANCH  46  71
ATOM     71  C   UNL A   1      43.525  23.455  26.954  1.00  0.00     0.058 A 
ATOM     72  C   UNL A   1      43.264  23.019  25.647  1.00  0.00     0.135 A 
ATOM     73  C   UNL A   1      43.321  22.542  28.001  1.00  0.00     0.135 A 
ATOM     74  F   UNL A   1      43.432  23.858  24.614  1.00  0.00    -0.206 F 
ATOM     75  C   UNL A   1      42.808  21.730  25.386  1.00  0.00     0.059 A 
ATOM     76  C   UNL A   1      42.889  21.241  27.764  1.00  0.00     0.059 A 
ATOM     77  F   UNL A   1      43.565  22.908  29.269  1.00  0.00    -0.206 F 
ATOM     78  C   UNL A   1      42.626  20.847  26.453  1.00  0.00     0.060 A 
BRANCH  78  79
ATOM     79  S   UNL A   1      42.083  19.161  26.102  1.00  0.00     0.124 S 
ATOM     80  O   UNL A   1      42.881  18.836  24.925  1.00  0.00    -0.237 OA
ATOM     81  O   UNL A   1      42.443  18.461  27.332  1.00  0.00    -0.237 OA
ATOM     82  O   UNL A   1      40.650  19.311  25.872  1.00  0.00    -0.744 OA
ENDBRANCH  78  79
ENDBRANCH  46  71
BRANCH  58  83
ATOM     83  C   UNL A   1      49.729  26.594  26.341  1.00  0.00     0.058 A 
ATOM     84  C   UNL A   1      50.195  26.735  25.024  1.00  0.00     0.135 A 
ATOM     85  C   UNL A   1      50.596  26.020  27.285  1.00  0.00     0.135 A 
ATOM     86  F   UNL A   1      49.404  27.272  24.082  1.00  0.00    -0.206 F 
ATOM     87  C   UNL A   1      51.465  26.306  24.653  1.00  0.00     0.059 A 
ATOM     88  C   UNL A   1      51.880  25.606  26.942  1.00  0.00     0.059 A 
ATOM     89  F   UNL A   1      50.204  25.872  28.560  1.00  0.00    -0.206 F 
ATOM     90  C   UNL A   1      52.301  25.744  25.620  1.00  0.00     0.060 A 
BRANCH  90  91
ATOM     91  S   UNL A   1      53.960  25.222  25.134  1.00  0.00     0.124 S 
ATOM     92  O   UNL A   1      54.194  26.047  23.954  1.00  0.00    -0.237 OA
ATOM     93  O   UNL A   1      54.753  25.560  26.311  1.00  0.00    -0.237 OA
ATOM     94  O   UNL A   1      53.806  23.792  24.879  1.00  0.00    -0.744 OA
ENDBRANCH  90  91
ENDBRANCH  58  83
ENDBRANCH  32  33
ENDBRANCH  25  27
ENDBRANCH  24  25
ENDBRANCH  23  24
ENDBRANCH  22  23
ENDBRANCH  21  22
ENDBRANCH   1  21
TORSDOF 23
ENDMDL
MODEL 3
REMARK VINA RESULT:      -9.6      3.145      9.145
REMARK SMILES CC(C)OC[C@H](O)CC1(C(=O)OCCOCCOC(=O)c2ccc(-c3c4nc(c(-c5c(F)cc(S(=O)(=O)[O-])cc5F)c5ccc([nH]5)c(-c5c(F)cc(S(=O)(=O)[O-])cc5F)c5nc(c(-c6c(F)cc(S(=O)(=O)[O-])cc6F)c6ccc3[nH]6)C=C5)C=C4)cc2)CCCCC1
REMARK SMILES IDX 14 1 13 2 12 3 10 4 11 5 9 6 87 7 91 8 88 9 90 10 89 11 8 12
REMARK SMILES IDX 6 13 5 14 4 15 2 16 1 17 3 18 7 19 15 21 16 22 17 23 18 24
REMARK SMILES IDX 19 25 20 26 21 27 22 28 86 29 23 30 85 31 24 32 25 33 26 34
REMARK SMILES IDX 79 35 27 36 84 37 78 38 80 39 28 40 83 41 77 42 76 43 29 45
REMARK SMILES IDX 63 46 42 47 62 48 43 49 46 50 61 51 81 52 44 53 45 54 60 56
REMARK SMILES IDX 82 57 47 58 30 59 31 60 40 61 32 62 33 63 39 64 41 65 34 66
REMARK SMILES IDX 35 67 36 68 37 69 38 70 64 71 65 72 74 73 66 74 67 75 73 76
REMARK SMILES IDX 75 77 68 78 69 79 70 80 71 81 72 82 48 83 49 84 58 85 50 86
REMARK SMILES IDX 51 87 57 88 59 89 52 90 53 91 54 92 55 93 56 94
REMARK H PARENT 7 20 80 44 46 55
REMARK Flexibility Score: inf
ROOT
ATOM      1  C   UNL A   1      37.621  21.650  25.054  1.00  0.00     0.202 C 
ENDROOT
BRANCH   1   2
ATOM      2  C   UNL A   1      36.483  22.461  25.675  1.00  0.00     0.261 C 
BRANCH   2   3
ATOM      3  O   UNL A   1      35.324  22.466  24.825  1.00  0.00    -0.463 OA
BRANCH   3   4
ATOM      4  C   UNL A   1      34.161  22.817  25.426  1.00  0.00     0.312 C 
ATOM      5  O   UNL A   1      34.056  23.755  26.210  1.00  0.00    -0.252 OA
BRANCH   4   6
ATOM      6  C   UNL A   1      32.966  21.920  25.035  1.00  0.00     0.071 C 
ATOM      7  C   UNL A   1      32.924  21.904  23.493  1.00  0.00     0.019 C 
ATOM      8  C   UNL A   1      31.576  22.359  25.576  1.00  0.00     0.019 C 
ATOM      9  C   UNL A   1      32.411  23.224  22.909  1.00  0.00     0.001 C 
ATOM     10  C   UNL A   1      30.978  23.615  24.944  1.00  0.00     0.001 C 
ATOM     11  C   UNL A   1      31.015  23.555  23.425  1.00  0.00     0.000 C 
BRANCH   6  12
ATOM     12  C   UNL A   1      33.312  20.529  25.681  1.00  0.00     0.053 C 
BRANCH  12  13
ATOM     13  C   UNL A   1      33.612  19.366  24.730  1.00  0.00     0.141 C 
BRANCH  13  14
ATOM     14  C   UNL A   1      32.758  18.136  25.098  1.00  0.00     0.192 C 
BRANCH  14  15
ATOM     15  O   UNL A   1      32.948  17.057  24.176  1.00  0.00    -0.376 OA
BRANCH  15  16
ATOM     16  C   UNL A   1      33.339  15.783  24.709  1.00  0.00     0.112 C 
ATOM     17  C   UNL A   1      34.770  15.753  25.245  1.00  0.00     0.038 C 
ATOM     18  C   UNL A   1      32.354  15.241  25.737  1.00  0.00     0.038 C 
ENDBRANCH  15  16
ENDBRANCH  14  15
ENDBRANCH  13  14
BRANCH  13  19
ATOM     19  O   UNL A   1      34.996  19.019  24.851  1.00  0.00    -0.391 OA
ATOM     20  H   UNL A   1      35.502  19.800  25.127  1.00  0.00     0.211 HD
ENDBRANCH  13  19
ENDBRANCH  12  13
ENDBRANCH   6  12
ENDBRANCH   4   6
ENDBRANCH   3   4
ENDBRANCH   2   3
ENDBRANCH   1   2
BRANCH   1  21
ATOM     21  O   UNL A   1      37.426  20.238  24.965  1.00  0.00    -0.374 OA
BRANCH  21  22
ATOM     22  C   UNL A   1      38.571  19.404  25.128  1.00  0.00     0.202 C 
BRANCH  22  23
ATOM     23  C   UNL A   1      39.745  19.974  25.937  1.00  0.00     0.261 C 
BRANCH  23  24
ATOM     24  O   UNL A   1      41.027  19.503  25.482  1.00  0.00    -0.460 OA
BRANCH  24  25
ATOM     25  C   UNL A   1      42.025  19.615  26.392  1.00  0.00     0.338 C 
ATOM     26  O   UNL A   1      42.756  18.717  26.795  1.00  0.00    -0.246 OA
BRANCH  25  27
ATOM     27  C   UNL A   1      42.269  21.029  26.728  1.00  0.00     0.060 A 
ATOM     28  C   UNL A   1      42.349  21.941  25.667  1.00  0.00     0.016 A 
ATOM     29  C   UNL A   1      42.516  21.443  28.038  1.00  0.00     0.016 A 
ATOM     30  C   UNL A   1      42.725  23.261  25.906  1.00  0.00     0.010 A 
ATOM     31  C   UNL A   1      42.905  22.768  28.274  1.00  0.00     0.010 A 
ATOM     32  C   UNL A   1      43.048  23.671  27.205  1.00  0.00    -0.014 A 
BRANCH  32  33
ATOM     33  C   UNL A   1      43.682  24.998  27.410  1.00  0.00     0.031 A 
ATOM     34  C   UNL A   1      42.838  26.143  27.900  1.00  0.00     0.074 A 
ATOM     35  C   UNL A   1      45.001  25.169  27.206  1.00  0.00     0.049 A 
ATOM     36  N   UNL A   1      43.178  27.385  28.133  1.00  0.00    -0.248 NA
ATOM     37  C   UNL A   1      41.420  25.848  28.164  1.00  0.00     0.031 C 
ATOM     38  C   UNL A   1      45.931  24.128  26.771  1.00  0.00     0.029 A 
ATOM     39  N   UNL A   1      45.786  26.288  27.338  1.00  0.00    -0.354 N 
ATOM     40  C   UNL A   1      42.021  28.020  28.569  1.00  0.00     0.074 A 
ATOM     41  C   UNL A   1      40.961  27.034  28.538  1.00  0.00     0.031 C 
ATOM     42  C   UNL A   1      47.161  24.661  26.659  1.00  0.00     0.029 A 
ATOM     43  C   UNL A   1      47.099  26.084  26.988  1.00  0.00     0.049 A 
ATOM     44  H   UNL A   1      45.440  27.155  27.652  1.00  0.00     0.167 HD
ATOM     45  C   UNL A   1      41.857  29.304  28.968  1.00  0.00     0.037 A 
ATOM     46  C   UNL A   1      48.129  26.952  26.922  1.00  0.00     0.037 A 
ATOM     47  C   UNL A   1      42.913  30.281  28.998  1.00  0.00     0.049 A 
ATOM     48  C   UNL A   1      47.910  28.391  27.310  1.00  0.00     0.074 A 
ATOM     49  C   UNL A   1      42.850  31.606  29.397  1.00  0.00     0.029 A 
ATOM     50  N   UNL A   1      44.224  30.044  28.610  1.00  0.00    -0.354 N 
ATOM     51  N   UNL A   1      46.814  28.973  27.735  1.00  0.00    -0.248 NA
ATOM     52  C   UNL A   1      49.069  29.291  27.216  1.00  0.00     0.031 C 
ATOM     53  C   UNL A   1      44.112  32.179  29.208  1.00  0.00     0.029 A 
ATOM     54  C   UNL A   1      44.974  31.201  28.739  1.00  0.00     0.049 A 
ATOM     55  H   UNL A   1      44.570  29.179  28.291  1.00  0.00     0.167 HD
ATOM     56  C   UNL A   1      47.157  30.300  27.980  1.00  0.00     0.074 A 
ATOM     57  C   UNL A   1      48.564  30.431  27.667  1.00  0.00     0.031 C 
ATOM     58  C   UNL A   1      46.377  31.316  28.428  1.00  0.00     0.037 A 
BRANCH  45  59
ATOM     59  C   UNL A   1      40.477  29.731  29.384  1.00  0.00     0.058 A 
ATOM     60  C   UNL A   1      40.154  29.980  30.727  1.00  0.00     0.135 A 
ATOM     61  C   UNL A   1      39.471  29.922  28.423  1.00  0.00     0.135 A 
ATOM     62  F   UNL A   1      41.073  29.796  31.688  1.00  0.00    -0.206 F 
ATOM     63  C   UNL A   1      38.875  30.377  31.106  1.00  0.00     0.059 A 
ATOM     64  C   UNL A   1      38.192  30.342  28.776  1.00  0.00     0.059 A 
ATOM     65  F   UNL A   1      39.725  29.695  27.124  1.00  0.00    -0.206 F 
ATOM     66  C   UNL A   1      37.900  30.554  30.124  1.00  0.00     0.060 A 
BRANCH  66  67
ATOM     67  S   UNL A   1      36.246  31.067  30.630  1.00  0.00     0.124 S 
ATOM     68  O   UNL A   1      36.464  32.474  30.950  1.00  0.00    -0.237 OA
ATOM     69  O   UNL A   1      35.456  30.805  29.431  1.00  0.00    -0.237 OA
ATOM     70  O   UNL A   1      35.955  30.203  31.770  1.00  0.00    -0.744 OA
ENDBRANCH  66  67
ENDBRANCH  45  59
BRANCH  46  71
ATOM     71  C   UNL A   1      49.460  26.486  26.452  1.00  0.00     0.058 A 
ATOM     72  C   UNL A   1      49.900  26.738  25.144  1.00  0.00     0.135 A 
ATOM     73  C   UNL A   1      50.321  25.778  27.306  1.00  0.00     0.135 A 
ATOM     74  F   UNL A   1      49.109  27.401  24.287  1.00  0.00    -0.206 F 
ATOM     75  C   UNL A   1      51.141  26.298  24.695  1.00  0.00     0.059 A 
ATOM     76  C   UNL A   1      51.576  25.348  26.888  1.00  0.00     0.059 A 
ATOM     77  F   UNL A   1      49.950  25.518  28.569  1.00  0.00    -0.206 F 
ATOM     78  C   UNL A   1      51.973  25.605  25.576  1.00  0.00     0.060 A 
BRANCH  78  79
ATOM     79  S   UNL A   1      53.604  25.081  25.002  1.00  0.00     0.124 S 
ATOM     80  O   UNL A   1      53.544  23.642  25.223  1.00  0.00    -0.237 OA
ATOM     81  O   UNL A   1      53.592  25.516  23.608  1.00  0.00    -0.237 OA
ATOM     82  O   UNL A   1      54.517  25.817  25.872  1.00  0.00    -0.744 OA
ENDBRANCH  78  79
ENDBRANCH  46  71
BRANCH  58  83
ATOM     83  C   UNL A   1      47.031  32.654  28.637  1.00  0.00     0.058 A 
ATOM     84  C   UNL A   1      47.236  33.550  27.576  1.00  0.00     0.135 A 
ATOM     85  C   UNL A   1      47.407  33.067  29.926  1.00  0.00     0.135 A 
ATOM     86  F   UNL A   1      46.900  33.202  26.324  1.00  0.00    -0.206 F 
ATOM     87  C   UNL A   1      47.810  34.800  27.781  1.00  0.00     0.059 A 
ATOM     88  C   UNL A   1      47.960  34.323  30.158  1.00  0.00     0.059 A 
ATOM     89  F   UNL A   1      47.222  32.254  30.977  1.00  0.00    -0.206 F 
ATOM     90  C   UNL A   1      48.167  35.179  29.077  1.00  0.00     0.060 A 
BRANCH  90  91
ATOM     91  S   UNL A   1      48.880  36.817  29.336  1.00  0.00     0.124 S 
ATOM     92  O   UNL A   1      49.847  36.893  28.246  1.00  0.00    -0.237 OA
ATOM     93  O   UNL A   1      47.716  37.689  29.212  1.00  0.00    -0.237 OA
ATOM     94  O   UNL A   1      49.451  36.732  30.677  1.00  0.00    -0.744 OA
ENDBRANCH  90  91
ENDBRANCH  58  83
ENDBRANCH  32  33
ENDBRANCH  25  27
ENDBRANCH  24  25
ENDBRANCH  23  24
ENDBRANCH  22  23
ENDBRANCH  21  22
ENDBRANCH   1  21
TORSDOF 23
ENDMDL
