MODEL 1
REMARK VINA RESULT:     -11.5      0.000      0.000
REMARK SMILES CC(C)c1ccc(NC(=O)C(=O)N/N=C/c2ccccc2C(=O)OCCOCCOC(=O)c2ccc(-c3c4nc(c(-c5c(F)cc(S(=O)(=O)[O-])cc5F)c5ccc([nH]5)c(-c5c(F)cc(S(=O)(=O)[O-])cc5F)c5nc(c(-c6c(F)cc(S(=O)(=O)[O-])cc6F)c6ccc3[nH]6)C=C5)C=C4)cc2)cc1
REMARK SMILES IDX 26 1 25 2 24 3 22 4 23 5 21 6 16 7 17 8 18 9 20 10 19 11
REMARK SMILES IDX 15 12 14 13 13 14 11 15 12 16 9 18 8 19 10 21 7 22 4 23 5 24
REMARK SMILES IDX 100 25 6 26 99 27 2 28 1 29 3 30 27 31 28 32 29 33 30 34
REMARK SMILES IDX 31 35 32 36 33 37 34 38 98 39 35 40 97 41 36 42 37 43 38 44
REMARK SMILES IDX 91 45 39 46 96 47 90 48 92 49 40 50 95 51 89 52 88 53 41 55
REMARK SMILES IDX 75 56 54 57 74 58 55 59 58 60 73 61 93 62 56 63 57 64 72 66
REMARK SMILES IDX 94 67 59 68 42 69 43 70 52 71 44 72 45 73 51 74 53 75 46 76
REMARK SMILES IDX 47 77 48 78 49 79 50 80 76 81 77 82 86 83 78 84 79 85 85 86
REMARK SMILES IDX 87 87 80 88 81 89 82 90 83 91 84 92 60 93 61 94 70 95 62 96
REMARK SMILES IDX 63 97 69 98 71 99 64 100 65 101 66 102 67 103 68 104
REMARK H PARENT 13 17 8 20 92 54 58 65
REMARK Flexibility Score: inf
ROOT
ATOM      1  C   UNL A   1      35.426  24.878  25.391  1.00  0.00     0.202 C 
ENDROOT
BRANCH   1   2
ATOM      2  C   UNL A   1      34.209  24.950  24.465  1.00  0.00     0.261 C 
BRANCH   2   3
ATOM      3  O   UNL A   1      33.869  26.319  24.191  1.00  0.00    -0.460 OA
BRANCH   3   4
ATOM      4  C   UNL A   1      32.967  26.903  25.006  1.00  0.00     0.338 C 
ATOM      5  O   UNL A   1      33.103  27.099  26.207  1.00  0.00    -0.246 OA
BRANCH   4   6
ATOM      6  C   UNL A   1      31.811  27.448  24.238  1.00  0.00     0.068 A 
ATOM      7  C   UNL A   1      30.497  26.968  24.301  1.00  0.00     0.009 A 
ATOM      8  C   UNL A   1      29.473  27.560  23.553  1.00  0.00     0.010 A 
ATOM      9  C   UNL A   1      29.769  28.616  22.693  1.00  0.00     0.001 A 
ATOM     10  C   UNL A   1      32.091  28.507  23.359  1.00  0.00     0.016 A 
ATOM     11  C   UNL A   1      31.080  29.075  22.581  1.00  0.00     0.001 A 
BRANCH   7  12
ATOM     12  C   UNL A   1      30.179  25.706  24.965  1.00  0.00     0.142 C 
ATOM     13  N   UNL A   1      30.664  24.561  24.598  1.00  0.00    -0.180 NA
BRANCH  13  14
ATOM     14  N   UNL A   1      30.189  23.514  25.351  1.00  0.00    -0.239 N 
ATOM     15  C   UNL A   1      30.551  23.256  26.662  1.00  0.00     0.329 C 
ATOM     16  O   UNL A   1      29.709  22.957  27.499  1.00  0.00    -0.262 OA
ATOM     17  H   UNL A   1      29.543  22.903  24.927  1.00  0.00     0.194 HD
BRANCH  15  18
ATOM     18  C   UNL A   1      32.040  23.384  27.030  1.00  0.00     0.315 C 
ATOM     19  N   UNL A   1      32.982  22.517  26.515  1.00  0.00    -0.318 N 
ATOM     20  H   UNL A   1      33.892  22.685  26.855  1.00  0.00     0.170 HD
ATOM     21  O   UNL A   1      32.404  24.217  27.861  1.00  0.00    -0.263 OA
BRANCH  19  22
ATOM     22  C   UNL A   1      32.919  21.446  25.608  1.00  0.00     0.041 A 
ATOM     23  C   UNL A   1      32.740  19.129  23.982  1.00  0.00    -0.045 A 
ATOM     24  C   UNL A   1      32.462  20.400  23.471  1.00  0.00     0.006 A 
ATOM     25  C   UNL A   1      33.132  19.031  25.320  1.00  0.00     0.006 A 
ATOM     26  C   UNL A   1      32.574  21.546  24.266  1.00  0.00     0.026 A 
ATOM     27  C   UNL A   1      33.227  20.177  26.119  1.00  0.00     0.026 A 
BRANCH  23  28
ATOM     28  C   UNL A   1      32.593  17.875  23.135  1.00  0.00     0.013 C 
ATOM     29  C   UNL A   1      32.268  18.253  21.692  1.00  0.00     0.012 C 
ATOM     30  C   UNL A   1      33.830  16.971  23.176  1.00  0.00     0.012 C 
ENDBRANCH  23  28
ENDBRANCH  19  22
ENDBRANCH  15  18
ENDBRANCH  13  14
ENDBRANCH   7  12
ENDBRANCH   4   6
ENDBRANCH   3   4
ENDBRANCH   2   3
ENDBRANCH   1   2
BRANCH   1  31
ATOM     31  O   UNL A   1      35.904  23.563  25.687  1.00  0.00    -0.374 OA
BRANCH  31  32
ATOM     32  C   UNL A   1      37.208  23.230  25.212  1.00  0.00     0.202 C 
BRANCH  32  33
ATOM     33  C   UNL A   1      38.363  23.345  26.215  1.00  0.00     0.261 C 
BRANCH  33  34
ATOM     34  O   UNL A   1      38.854  24.689  26.345  1.00  0.00    -0.460 OA
BRANCH  34  35
ATOM     35  C   UNL A   1      40.153  24.780  26.724  1.00  0.00     0.338 C 
ATOM     36  O   UNL A   1      41.119  24.280  26.164  1.00  0.00    -0.246 OA
BRANCH  35  37
ATOM     37  C   UNL A   1      40.289  25.720  27.848  1.00  0.00     0.060 A 
ATOM     38  C   UNL A   1      39.280  25.731  28.819  1.00  0.00     0.016 A 
ATOM     39  C   UNL A   1      41.348  26.626  27.914  1.00  0.00     0.016 A 
ATOM     40  C   UNL A   1      39.313  26.666  29.851  1.00  0.00     0.010 A 
ATOM     41  C   UNL A   1      41.379  27.562  28.953  1.00  0.00     0.010 A 
ATOM     42  C   UNL A   1      40.351  27.603  29.914  1.00  0.00    -0.014 A 
BRANCH  42  43
ATOM     43  C   UNL A   1      40.312  28.695  30.921  1.00  0.00     0.031 A 
ATOM     44  C   UNL A   1      41.224  28.617  32.115  1.00  0.00     0.074 A 
ATOM     45  C   UNL A   1      39.458  29.728  30.785  1.00  0.00     0.049 A 
ATOM     46  N   UNL A   1      41.323  29.428  33.137  1.00  0.00    -0.248 NA
ATOM     47  C   UNL A   1      42.136  27.464  32.175  1.00  0.00     0.031 C 
ATOM     48  C   UNL A   1      38.535  29.918  29.666  1.00  0.00     0.029 A 
ATOM     49  N   UNL A   1      39.211  30.799  31.608  1.00  0.00    -0.354 N 
ATOM     50  C   UNL A   1      42.268  28.860  33.982  1.00  0.00     0.074 A 
ATOM     51  C   UNL A   1      42.718  27.639  33.352  1.00  0.00     0.031 C 
ATOM     52  C   UNL A   1      37.815  31.033  29.879  1.00  0.00     0.029 A 
ATOM     53  C   UNL A   1      38.195  31.613  31.165  1.00  0.00     0.049 A 
ATOM     54  H   UNL A   1      39.715  30.970  32.436  1.00  0.00     0.167 HD
ATOM     55  C   UNL A   1      42.710  29.309  35.181  1.00  0.00     0.037 A 
ATOM     56  C   UNL A   1      37.614  32.681  31.748  1.00  0.00     0.037 A 
ATOM     57  C   UNL A   1      42.223  30.502  35.825  1.00  0.00     0.049 A 
ATOM     58  C   UNL A   1      38.103  33.143  33.097  1.00  0.00     0.074 A 
ATOM     59  C   UNL A   1      42.639  31.066  37.018  1.00  0.00     0.029 A 
ATOM     60  N   UNL A   1      41.196  31.303  35.342  1.00  0.00    -0.354 N 
ATOM     61  N   UNL A   1      39.053  32.639  33.849  1.00  0.00    -0.248 NA
ATOM     62  C   UNL A   1      37.440  34.320  33.679  1.00  0.00     0.031 C 
ATOM     63  C   UNL A   1      41.823  32.170  37.289  1.00  0.00     0.029 A 
ATOM     64  C   UNL A   1      40.943  32.334  36.231  1.00  0.00     0.049 A 
ATOM     65  H   UNL A   1      40.719  31.159  34.493  1.00  0.00     0.167 HD
ATOM     66  C   UNL A   1      39.124  33.455  34.974  1.00  0.00     0.074 A 
ATOM     67  C   UNL A   1      38.125  34.490  34.801  1.00  0.00     0.031 C 
ATOM     68  C   UNL A   1      39.945  33.360  36.049  1.00  0.00     0.037 A 
BRANCH  55  69
ATOM     69  C   UNL A   1      43.752  28.488  35.890  1.00  0.00     0.058 A 
ATOM     70  C   UNL A   1      45.123  28.757  35.746  1.00  0.00     0.135 A 
ATOM     71  C   UNL A   1      43.379  27.444  36.752  1.00  0.00     0.135 A 
ATOM     72  F   UNL A   1      45.538  29.732  34.922  1.00  0.00    -0.206 F 
ATOM     73  C   UNL A   1      46.086  28.002  36.407  1.00  0.00     0.059 A 
ATOM     74  C   UNL A   1      44.324  26.695  37.448  1.00  0.00     0.059 A 
ATOM     75  F   UNL A   1      42.082  27.139  36.925  1.00  0.00    -0.206 F 
ATOM     76  C   UNL A   1      45.677  26.975  37.258  1.00  0.00     0.060 A 
BRANCH  76  77
ATOM     77  S   UNL A   1      46.940  26.015  38.119  1.00  0.00     0.124 S 
ATOM     78  O   UNL A   1      46.983  24.799  37.312  1.00  0.00    -0.237 OA
ATOM     79  O   UNL A   1      48.110  26.882  38.019  1.00  0.00    -0.237 OA
ATOM     80  O   UNL A   1      46.393  25.858  39.462  1.00  0.00    -0.744 OA
ENDBRANCH  76  77
ENDBRANCH  55  69
BRANCH  56  81
ATOM     81  C   UNL A   1      36.492  33.384  31.069  1.00  0.00     0.058 A 
ATOM     82  C   UNL A   1      36.713  34.150  29.915  1.00  0.00     0.135 A 
ATOM     83  C   UNL A   1      35.178  33.305  31.560  1.00  0.00     0.135 A 
ATOM     84  F   UNL A   1      37.953  34.268  29.416  1.00  0.00    -0.206 F 
ATOM     85  C   UNL A   1      35.676  34.826  29.278  1.00  0.00     0.059 A 
ATOM     86  C   UNL A   1      34.120  33.949  30.924  1.00  0.00     0.059 A 
ATOM     87  F   UNL A   1      34.912  32.577  32.655  1.00  0.00    -0.206 F 
ATOM     88  C   UNL A   1      34.381  34.714  29.788  1.00  0.00     0.060 A 
BRANCH  88  89
ATOM     89  S   UNL A   1      33.038  35.550  28.917  1.00  0.00     0.124 S 
ATOM     90  O   UNL A   1      32.200  35.993  30.026  1.00  0.00    -0.237 OA
ATOM     91  O   UNL A   1      33.750  36.598  28.194  1.00  0.00    -0.237 OA
ATOM     92  O   UNL A   1      32.472  34.494  28.082  1.00  0.00    -0.744 OA
ENDBRANCH  88  89
ENDBRANCH  56  81
BRANCH  68  93
ATOM     93  C   UNL A   1      39.831  34.423  37.110  1.00  0.00     0.058 A 
ATOM     94  C   UNL A   1      38.996  34.273  38.228  1.00  0.00     0.135 A 
ATOM     95  C   UNL A   1      40.614  35.589  37.033  1.00  0.00     0.135 A 
ATOM     96  F   UNL A   1      38.222  33.182  38.349  1.00  0.00    -0.206 F 
ATOM     97  C   UNL A   1      38.920  35.248  39.217  1.00  0.00     0.059 A 
ATOM     98  C   UNL A   1      40.577  36.562  38.026  1.00  0.00     0.059 A 
ATOM     99  F   UNL A   1      41.439  35.781  35.992  1.00  0.00    -0.206 F 
ATOM    100  C   UNL A   1      39.718  36.389  39.109  1.00  0.00     0.060 A 
BRANCH 100 101
ATOM    101  S   UNL A   1      39.634  37.631  40.416  1.00  0.00     0.124 S 
ATOM    102  O   UNL A   1      38.629  38.547  39.889  1.00  0.00    -0.237 OA
ATOM    103  O   UNL A   1      39.226  36.839  41.574  1.00  0.00    -0.237 OA
ATOM    104  O   UNL A   1      40.995  38.158  40.473  1.00  0.00    -0.744 OA
ENDBRANCH 100 101
ENDBRANCH  68  93
ENDBRANCH  42  43
ENDBRANCH  35  37
ENDBRANCH  34  35
ENDBRANCH  33  34
ENDBRANCH  32  33
ENDBRANCH  31  32
ENDBRANCH   1  31
TORSDOF 22
ENDMDL
MODEL 2
REMARK VINA RESULT:     -11.4      6.567     11.395
REMARK SMILES CC(C)c1ccc(NC(=O)C(=O)N/N=C/c2ccccc2C(=O)OCCOCCOC(=O)c2ccc(-c3c4nc(c(-c5c(F)cc(S(=O)(=O)[O-])cc5F)c5ccc([nH]5)c(-c5c(F)cc(S(=O)(=O)[O-])cc5F)c5nc(c(-c6c(F)cc(S(=O)(=O)[O-])cc6F)c6ccc3[nH]6)C=C5)C=C4)cc2)cc1
REMARK SMILES IDX 26 1 25 2 24 3 22 4 23 5 21 6 16 7 17 8 18 9 20 10 19 11
REMARK SMILES IDX 15 12 14 13 13 14 11 15 12 16 9 18 8 19 10 21 7 22 4 23 5 24
REMARK SMILES IDX 100 25 6 26 99 27 2 28 1 29 3 30 27 31 28 32 29 33 30 34
REMARK SMILES IDX 31 35 32 36 33 37 34 38 98 39 35 40 97 41 36 42 37 43 38 44
REMARK SMILES IDX 91 45 39 46 96 47 90 48 92 49 40 50 95 51 89 52 88 53 41 55
REMARK SMILES IDX 75 56 54 57 74 58 55 59 58 60 73 61 93 62 56 63 57 64 72 66
REMARK SMILES IDX 94 67 59 68 42 69 43 70 52 71 44 72 45 73 51 74 53 75 46 76
REMARK SMILES IDX 47 77 48 78 49 79 50 80 76 81 77 82 86 83 78 84 79 85 85 86
REMARK SMILES IDX 87 87 80 88 81 89 82 90 83 91 84 92 60 93 61 94 70 95 62 96
REMARK SMILES IDX 63 97 69 98 71 99 64 100 65 101 66 102 67 103 68 104
REMARK H PARENT 13 17 8 20 92 54 58 65
REMARK Flexibility Score: inf
ROOT
ATOM      1  C   UNL A   1      34.434  30.137  26.842  1.00  0.00     0.202 C 
ENDROOT
BRANCH   1   2
ATOM      2  C   UNL A   1      34.106  28.643  26.909  1.00  0.00     0.261 C 
BRANCH   2   3
ATOM      3  O   UNL A   1      33.169  28.290  25.879  1.00  0.00    -0.460 OA
BRANCH   3   4
ATOM      4  C   UNL A   1      31.862  28.281  26.213  1.00  0.00     0.338 C 
ATOM      5  O   UNL A   1      31.408  28.385  27.345  1.00  0.00    -0.246 OA
BRANCH   4   6
ATOM      6  C   UNL A   1      30.990  28.289  25.003  1.00  0.00     0.068 A 
ATOM      7  C   UNL A   1      30.140  27.247  24.609  1.00  0.00     0.009 A 
ATOM      8  C   UNL A   1      29.344  27.356  23.463  1.00  0.00     0.010 A 
ATOM      9  C   UNL A   1      29.430  28.499  22.670  1.00  0.00     0.001 A 
ATOM     10  C   UNL A   1      31.069  29.428  24.186  1.00  0.00     0.016 A 
ATOM     11  C   UNL A   1      30.306  29.525  23.020  1.00  0.00     0.001 A 
BRANCH   7  12
ATOM     12  C   UNL A   1      30.210  25.930  25.237  1.00  0.00     0.142 C 
ATOM     13  N   UNL A   1      30.348  24.825  24.573  1.00  0.00    -0.180 NA
BRANCH  13  14
ATOM     14  N   UNL A   1      30.349  23.713  25.381  1.00  0.00    -0.239 N 
ATOM     15  C   UNL A   1      31.250  23.483  26.407  1.00  0.00     0.329 C 
ATOM     16  O   UNL A   1      30.871  23.063  27.492  1.00  0.00    -0.262 OA
ATOM     17  H   UNL A   1      29.658  23.030  25.218  1.00  0.00     0.194 HD
BRANCH  15  18
ATOM     18  C   UNL A   1      32.733  23.798  26.139  1.00  0.00     0.315 C 
ATOM     19  N   UNL A   1      33.566  22.871  25.548  1.00  0.00    -0.318 N 
ATOM     20  H   UNL A   1      34.497  23.183  25.463  1.00  0.00     0.170 HD
ATOM     21  O   UNL A   1      33.221  24.860  26.527  1.00  0.00    -0.263 OA
BRANCH  19  22
ATOM     22  C   UNL A   1      33.368  21.575  25.040  1.00  0.00     0.041 A 
ATOM     23  C   UNL A   1      32.980  18.876  24.262  1.00  0.00    -0.045 A 
ATOM     24  C   UNL A   1      32.489  19.933  23.491  1.00  0.00     0.006 A 
ATOM     25  C   UNL A   1      33.691  19.187  25.424  1.00  0.00     0.006 A 
ATOM     26  C   UNL A   1      32.702  21.265  23.862  1.00  0.00     0.026 A 
ATOM     27  C   UNL A   1      33.888  20.521  25.803  1.00  0.00     0.026 A 
BRANCH  23  28
ATOM     28  C   UNL A   1      32.731  17.425  23.884  1.00  0.00     0.013 C 
ATOM     29  C   UNL A   1      33.892  16.894  23.048  1.00  0.00     0.012 C 
ATOM     30  C   UNL A   1      32.497  16.517  25.096  1.00  0.00     0.012 C 
ENDBRANCH  23  28
ENDBRANCH  19  22
ENDBRANCH  15  18
ENDBRANCH  13  14
ENDBRANCH   7  12
ENDBRANCH   4   6
ENDBRANCH   3   4
ENDBRANCH   2   3
ENDBRANCH   1   2
BRANCH   1  31
ATOM     31  O   UNL A   1      33.544  31.001  27.553  1.00  0.00    -0.374 OA
BRANCH  31  32
ATOM     32  C   UNL A   1      34.135  32.082  28.274  1.00  0.00     0.202 C 
BRANCH  32  33
ATOM     33  C   UNL A   1      35.667  32.113  28.344  1.00  0.00     0.261 C 
BRANCH  33  34
ATOM     34  O   UNL A   1      36.169  31.853  29.665  1.00  0.00    -0.460 OA
BRANCH  34  35
ATOM     35  C   UNL A   1      36.479  30.555  29.904  1.00  0.00     0.338 C 
ATOM     36  O   UNL A   1      35.702  29.654  30.191  1.00  0.00    -0.246 OA
BRANCH  35  37
ATOM     37  C   UNL A   1      37.900  30.310  29.613  1.00  0.00     0.060 A 
ATOM     38  C   UNL A   1      38.248  29.956  28.303  1.00  0.00     0.016 A 
ATOM     39  C   UNL A   1      38.868  30.355  30.617  1.00  0.00     0.016 A 
ATOM     40  C   UNL A   1      39.565  29.622  27.995  1.00  0.00     0.010 A 
ATOM     41  C   UNL A   1      40.189  30.021  30.304  1.00  0.00     0.010 A 
ATOM     42  C   UNL A   1      40.542  29.630  28.998  1.00  0.00    -0.014 A 
BRANCH  42  43
ATOM     43  C   UNL A   1      41.912  29.131  28.711  1.00  0.00     0.031 A 
ATOM     44  C   UNL A   1      43.058  30.106  28.715  1.00  0.00     0.074 A 
ATOM     45  C   UNL A   1      42.126  27.832  28.428  1.00  0.00     0.049 A 
ATOM     46  N   UNL A   1      44.322  29.901  28.445  1.00  0.00    -0.248 NA
ATOM     47  C   UNL A   1      42.736  31.502  29.052  1.00  0.00     0.031 C 
ATOM     48  C   UNL A   1      41.098  26.791  28.405  1.00  0.00     0.029 A 
ATOM     49  N   UNL A   1      43.278  27.170  28.079  1.00  0.00    -0.354 N 
ATOM     50  C   UNL A   1      44.935  31.145  28.531  1.00  0.00     0.074 A 
ATOM     51  C   UNL A   1      43.906  32.099  28.883  1.00  0.00     0.031 C 
ATOM     52  C   UNL A   1      41.664  25.625  28.050  1.00  0.00     0.029 A 
ATOM     53  C   UNL A   1      43.084  25.842  27.780  1.00  0.00     0.049 A 
ATOM     54  H   UNL A   1      44.161  27.606  28.046  1.00  0.00     0.167 HD
ATOM     55  C   UNL A   1      46.234  31.464  28.320  1.00  0.00     0.037 A 
ATOM     56  C   UNL A   1      43.944  24.917  27.309  1.00  0.00     0.037 A 
ATOM     57  C   UNL A   1      47.243  30.516  27.923  1.00  0.00     0.049 A 
ATOM     58  C   UNL A   1      45.379  25.305  27.054  1.00  0.00     0.074 A 
ATOM     59  C   UNL A   1      48.596  30.733  27.729  1.00  0.00     0.029 A 
ATOM     60  N   UNL A   1      47.008  29.178  27.636  1.00  0.00    -0.354 N 
ATOM     61  N   UNL A   1      45.960  26.470  27.215  1.00  0.00    -0.248 NA
ATOM     62  C   UNL A   1      46.274  24.252  26.552  1.00  0.00     0.031 C 
ATOM     63  C   UNL A   1      49.167  29.543  27.265  1.00  0.00     0.029 A 
ATOM     64  C   UNL A   1      48.184  28.567  27.233  1.00  0.00     0.049 A 
ATOM     65  H   UNL A   1      46.135  28.730  27.708  1.00  0.00     0.167 HD
ATOM     66  C   UNL A   1      47.295  26.282  26.867  1.00  0.00     0.074 A 
ATOM     67  C   UNL A   1      47.435  24.890  26.493  1.00  0.00     0.031 C 
ATOM     68  C   UNL A   1      48.312  27.178  26.863  1.00  0.00     0.037 A 
BRANCH  55  69
ATOM     69  C   UNL A   1      46.631  32.906  28.485  1.00  0.00     0.058 A 
ATOM     70  C   UNL A   1      46.571  33.813  27.414  1.00  0.00     0.135 A 
ATOM     71  C   UNL A   1      47.043  33.397  29.735  1.00  0.00     0.135 A 
ATOM     72  F   UNL A   1      46.201  33.395  26.194  1.00  0.00    -0.206 F 
ATOM     73  C   UNL A   1      46.932  35.146  27.570  1.00  0.00     0.059 A 
ATOM     74  C   UNL A   1      47.379  34.735  29.920  1.00  0.00     0.059 A 
ATOM     75  F   UNL A   1      47.123  32.574  30.793  1.00  0.00    -0.206 F 
ATOM     76  C   UNL A   1      47.332  35.599  28.827  1.00  0.00     0.060 A 
BRANCH  76  77
ATOM     77  S   UNL A   1      47.783  37.337  29.013  1.00  0.00     0.124 S 
ATOM     78  O   UNL A   1      49.004  37.408  28.216  1.00  0.00    -0.237 OA
ATOM     79  O   UNL A   1      46.622  38.021  28.453  1.00  0.00    -0.237 OA
ATOM     80  O   UNL A   1      47.964  37.491  30.453  1.00  0.00    -0.744 OA
ENDBRANCH  76  77
ENDBRANCH  55  69
BRANCH  56  81
ATOM     81  C   UNL A   1      43.474  23.533  27.032  1.00  0.00     0.058 A 
ATOM     82  C   UNL A   1      43.142  23.131  25.729  1.00  0.00     0.135 A 
ATOM     83  C   UNL A   1      43.345  22.586  28.061  1.00  0.00     0.135 A 
ATOM     84  F   UNL A   1      43.234  24.004  24.714  1.00  0.00    -0.206 F 
ATOM     85  C   UNL A   1      42.686  21.845  25.457  1.00  0.00     0.059 A 
ATOM     86  C   UNL A   1      42.917  21.286  27.809  1.00  0.00     0.059 A 
ATOM     87  F   UNL A   1      43.659  22.918  29.322  1.00  0.00    -0.206 F 
ATOM     88  C   UNL A   1      42.583  20.927  26.503  1.00  0.00     0.060 A 
BRANCH  88  89
ATOM     89  S   UNL A   1      42.044  19.245  26.125  1.00  0.00     0.124 S 
ATOM     90  O   UNL A   1      42.903  18.909  24.994  1.00  0.00    -0.237 OA
ATOM     91  O   UNL A   1      42.329  18.546  27.374  1.00  0.00    -0.237 OA
ATOM     92  O   UNL A   1      40.627  19.409  25.813  1.00  0.00    -0.744 OA
ENDBRANCH  88  89
ENDBRANCH  56  81
BRANCH  68  93
ATOM     93  C   UNL A   1      49.681  26.680  26.479  1.00  0.00     0.058 A 
ATOM     94  C   UNL A   1      50.557  26.116  27.419  1.00  0.00     0.135 A 
ATOM     95  C   UNL A   1      50.100  26.719  25.137  1.00  0.00     0.135 A 
ATOM     96  F   UNL A   1      50.211  26.058  28.715  1.00  0.00    -0.206 F 
ATOM     97  C   UNL A   1      51.808  25.631  27.049  1.00  0.00     0.059 A 
ATOM     98  C   UNL A   1      51.333  26.213  24.740  1.00  0.00     0.059 A 
ATOM     99  F   UNL A   1      49.297  27.238  24.194  1.00  0.00    -0.206 F 
ATOM    100  C   UNL A   1      52.186  25.682  25.705  1.00  0.00     0.060 A 
BRANCH 100 101
ATOM    101  S   UNL A   1      53.798  25.019  25.234  1.00  0.00     0.124 S 
ATOM    102  O   UNL A   1      53.493  23.604  25.052  1.00  0.00    -0.237 OA
ATOM    103  O   UNL A   1      54.098  25.765  24.015  1.00  0.00    -0.237 OA
ATOM    104  O   UNL A   1      54.645  25.336  26.380  1.00  0.00    -0.744 OA
ENDBRANCH 100 101
ENDBRANCH  68  93
ENDBRANCH  42  43
ENDBRANCH  35  37
ENDBRANCH  34  35
ENDBRANCH  33  34
ENDBRANCH  32  33
ENDBRANCH  31  32
ENDBRANCH   1  31
TORSDOF 22
ENDMDL
MODEL 3
REMARK VINA RESULT:     -11.4      1.674      8.593
REMARK SMILES CC(C)c1ccc(NC(=O)C(=O)N/N=C/c2ccccc2C(=O)OCCOCCOC(=O)c2ccc(-c3c4nc(c(-c5c(F)cc(S(=O)(=O)[O-])cc5F)c5ccc([nH]5)c(-c5c(F)cc(S(=O)(=O)[O-])cc5F)c5nc(c(-c6c(F)cc(S(=O)(=O)[O-])cc6F)c6ccc3[nH]6)C=C5)C=C4)cc2)cc1
REMARK SMILES IDX 26 1 25 2 24 3 22 4 23 5 21 6 16 7 17 8 18 9 20 10 19 11
REMARK SMILES IDX 15 12 14 13 13 14 11 15 12 16 9 18 8 19 10 21 7 22 4 23 5 24
REMARK SMILES IDX 100 25 6 26 99 27 2 28 1 29 3 30 27 31 28 32 29 33 30 34
REMARK SMILES IDX 31 35 32 36 33 37 34 38 98 39 35 40 97 41 36 42 37 43 38 44
REMARK SMILES IDX 91 45 39 46 96 47 90 48 92 49 40 50 95 51 89 52 88 53 41 55
REMARK SMILES IDX 75 56 54 57 74 58 55 59 58 60 73 61 93 62 56 63 57 64 72 66
REMARK SMILES IDX 94 67 59 68 42 69 43 70 52 71 44 72 45 73 51 74 53 75 46 76
REMARK SMILES IDX 47 77 48 78 49 79 50 80 76 81 77 82 86 83 78 84 79 85 85 86
REMARK SMILES IDX 87 87 80 88 81 89 82 90 83 91 84 92 60 93 61 94 70 95 62 96
REMARK SMILES IDX 63 97 69 98 71 99 64 100 65 101 66 102 67 103 68 104
REMARK H PARENT 13 17 8 20 92 54 58 65
REMARK Flexibility Score: inf
ROOT
ATOM      1  C   UNL A   1      38.386  21.763  25.462  1.00  0.00     0.202 C 
ENDROOT
BRANCH   1   2
ATOM      2  C   UNL A   1      36.939  22.210  25.689  1.00  0.00     0.261 C 
BRANCH   2   3
ATOM      3  O   UNL A   1      36.447  22.916  24.538  1.00  0.00    -0.460 OA
BRANCH   3   4
ATOM      4  C   UNL A   1      35.355  23.688  24.710  1.00  0.00     0.338 C 
ATOM      5  O   UNL A   1      35.296  24.714  25.374  1.00  0.00    -0.246 OA
BRANCH   4   6
ATOM      6  C   UNL A   1      34.225  23.232  23.851  1.00  0.00     0.068 A 
ATOM      7  C   UNL A   1      33.575  24.011  22.885  1.00  0.00     0.009 A 
ATOM      8  C   UNL A   1      32.533  23.486  22.112  1.00  0.00     0.010 A 
ATOM      9  C   UNL A   1      32.099  22.180  22.335  1.00  0.00     0.001 A 
ATOM     10  C   UNL A   1      33.768  21.922  24.067  1.00  0.00     0.016 A 
ATOM     11  C   UNL A   1      32.702  21.406  23.325  1.00  0.00     0.001 A 
BRANCH   7  12
ATOM     12  C   UNL A   1      33.796  25.452  22.796  1.00  0.00     0.142 C 
ATOM     13  N   UNL A   1      33.086  26.242  22.053  1.00  0.00    -0.180 NA
BRANCH  13  14
ATOM     14  N   UNL A   1      33.509  27.548  22.106  1.00  0.00    -0.239 N 
ATOM     15  C   UNL A   1      32.831  28.573  22.745  1.00  0.00     0.329 C 
ATOM     16  O   UNL A   1      33.428  29.380  23.446  1.00  0.00    -0.262 OA
ATOM     17  H   UNL A   1      34.356  27.773  21.657  1.00  0.00     0.194 HD
BRANCH  15  18
ATOM     18  C   UNL A   1      31.305  28.643  22.561  1.00  0.00     0.315 C 
ATOM     19  N   UNL A   1      30.460  27.803  23.257  1.00  0.00    -0.318 N 
ATOM     20  H   UNL A   1      29.510  27.927  23.023  1.00  0.00     0.170 HD
ATOM     21  O   UNL A   1      30.816  29.400  21.721  1.00  0.00    -0.263 OA
BRANCH  19  22
ATOM     22  C   UNL A   1      30.667  26.809  24.229  1.00  0.00     0.041 A 
ATOM     23  C   UNL A   1      31.064  24.628  25.997  1.00  0.00    -0.045 A 
ATOM     24  C   UNL A   1      31.587  25.894  26.274  1.00  0.00     0.006 A 
ATOM     25  C   UNL A   1      30.316  24.469  24.826  1.00  0.00     0.006 A 
ATOM     26  C   UNL A   1      31.370  26.976  25.414  1.00  0.00     0.026 A 
ATOM     27  C   UNL A   1      30.115  25.550  23.958  1.00  0.00     0.026 A 
BRANCH  23  28
ATOM     28  C   UNL A   1      31.317  23.439  26.909  1.00  0.00     0.013 C 
ATOM     29  C   UNL A   1      30.764  22.165  26.275  1.00  0.00     0.012 C 
ATOM     30  C   UNL A   1      32.798  23.251  27.259  1.00  0.00     0.012 C 
ENDBRANCH  23  28
ENDBRANCH  19  22
ENDBRANCH  15  18
ENDBRANCH  13  14
ENDBRANCH   7  12
ENDBRANCH   4   6
ENDBRANCH   3   4
ENDBRANCH   2   3
ENDBRANCH   1   2
BRANCH   1  31
ATOM     31  O   UNL A   1      39.297  22.040  26.529  1.00  0.00    -0.374 OA
BRANCH  31  32
ATOM     32  C   UNL A   1      40.689  21.975  26.220  1.00  0.00     0.202 C 
BRANCH  32  33
ATOM     33  C   UNL A   1      41.471  23.294  26.262  1.00  0.00     0.261 C 
BRANCH  33  34
ATOM     34  O   UNL A   1      40.616  24.447  26.320  1.00  0.00    -0.460 OA
BRANCH  34  35
ATOM     35  C   UNL A   1      41.261  25.633  26.196  1.00  0.00     0.338 C 
ATOM     36  O   UNL A   1      41.671  26.143  25.162  1.00  0.00    -0.246 OA
BRANCH  35  37
ATOM     37  C   UNL A   1      41.272  26.342  27.485  1.00  0.00     0.060 A 
ATOM     38  C   UNL A   1      40.299  25.996  28.431  1.00  0.00     0.016 A 
ATOM     39  C   UNL A   1      42.172  27.378  27.738  1.00  0.00     0.016 A 
ATOM     40  C   UNL A   1      40.206  26.701  29.629  1.00  0.00     0.010 A 
ATOM     41  C   UNL A   1      42.077  28.083  28.943  1.00  0.00     0.010 A 
ATOM     42  C   UNL A   1      41.081  27.764  29.886  1.00  0.00    -0.014 A 
BRANCH  42  43
ATOM     43  C   UNL A   1      40.891  28.614  31.090  1.00  0.00     0.031 A 
ATOM     44  C   UNL A   1      39.815  29.666  31.076  1.00  0.00     0.074 A 
ATOM     45  C   UNL A   1      41.681  28.465  32.170  1.00  0.00     0.049 A 
ATOM     46  N   UNL A   1      39.506  30.548  31.991  1.00  0.00    -0.248 NA
ATOM     47  C   UNL A   1      38.987  29.748  29.862  1.00  0.00     0.031 C 
ATOM     48  C   UNL A   1      42.749  27.474  32.305  1.00  0.00     0.029 A 
ATOM     49  N   UNL A   1      41.725  29.166  33.350  1.00  0.00    -0.354 N 
ATOM     50  C   UNL A   1      38.485  31.317  31.448  1.00  0.00     0.074 A 
ATOM     51  C   UNL A   1      38.222  30.796  30.125  1.00  0.00     0.031 C 
ATOM     52  C   UNL A   1      43.349  27.637  33.497  1.00  0.00     0.029 A 
ATOM     53  C   UNL A   1      42.738  28.769  34.191  1.00  0.00     0.049 A 
ATOM     54  H   UNL A   1      41.091  29.885  33.573  1.00  0.00     0.167 HD
ATOM     55  C   UNL A   1      37.837  32.372  31.997  1.00  0.00     0.037 A 
ATOM     56  C   UNL A   1      43.148  29.283  35.368  1.00  0.00     0.037 A 
ATOM     57  C   UNL A   1      38.136  32.915  33.297  1.00  0.00     0.049 A 
ATOM     58  C   UNL A   1      42.429  30.476  35.945  1.00  0.00     0.074 A 
ATOM     59  C   UNL A   1      37.505  33.952  33.961  1.00  0.00     0.029 A 
ATOM     60  N   UNL A   1      39.166  32.481  34.121  1.00  0.00    -0.354 N 
ATOM     61  N   UNL A   1      41.413  31.145  35.452  1.00  0.00    -0.248 NA
ATOM     62  C   UNL A   1      42.912  30.985  37.237  1.00  0.00     0.031 C 
ATOM     63  C   UNL A   1      38.191  34.188  35.157  1.00  0.00     0.029 A 
ATOM     64  C   UNL A   1      39.209  33.254  35.271  1.00  0.00     0.049 A 
ATOM     65  H   UNL A   1      39.775  31.736  33.919  1.00  0.00     0.167 HD
ATOM     66  C   UNL A   1      41.115  32.130  36.389  1.00  0.00     0.074 A 
ATOM     67  C   UNL A   1      42.054  31.966  37.478  1.00  0.00     0.031 C 
ATOM     68  C   UNL A   1      40.149  33.081  36.351  1.00  0.00     0.037 A 
BRANCH  55  69
ATOM     69  C   UNL A   1      36.758  33.028  31.178  1.00  0.00     0.058 A 
ATOM     70  C   UNL A   1      37.064  33.863  30.091  1.00  0.00     0.135 A 
ATOM     71  C   UNL A   1      35.402  32.793  31.459  1.00  0.00     0.135 A 
ATOM     72  F   UNL A   1      38.343  34.137  29.788  1.00  0.00    -0.206 F 
ATOM     73  C   UNL A   1      36.067  34.463  29.331  1.00  0.00     0.059 A 
ATOM     74  C   UNL A   1      34.387  33.358  30.692  1.00  0.00     0.059 A 
ATOM     75  F   UNL A   1      35.050  32.006  32.489  1.00  0.00    -0.206 F 
ATOM     76  C   UNL A   1      34.731  34.203  29.638  1.00  0.00     0.060 A 
BRANCH  76  77
ATOM     77  S   UNL A   1      33.450  34.979  28.630  1.00  0.00     0.124 S 
ATOM     78  O   UNL A   1      34.219  35.989  27.908  1.00  0.00    -0.237 OA
ATOM     79  O   UNL A   1      32.964  33.861  27.829  1.00  0.00    -0.237 OA
ATOM     80  O   UNL A   1      32.506  35.496  29.617  1.00  0.00    -0.744 OA
ENDBRANCH  76  77
ENDBRANCH  55  69
BRANCH  56  81
ATOM     81  C   UNL A   1      44.309  28.683  36.080  1.00  0.00     0.058 A 
ATOM     82  C   UNL A   1      44.136  27.607  36.963  1.00  0.00     0.135 A 
ATOM     83  C   UNL A   1      45.611  29.174  35.895  1.00  0.00     0.135 A 
ATOM     84  F   UNL A   1      42.909  27.111  37.185  1.00  0.00    -0.206 F 
ATOM     85  C   UNL A   1      45.210  27.046  37.648  1.00  0.00     0.059 A 
ATOM     86  C   UNL A   1      46.705  28.612  36.548  1.00  0.00     0.059 A 
ATOM     87  F   UNL A   1      45.831  30.196  35.054  1.00  0.00    -0.206 F 
ATOM     88  C   UNL A   1      46.492  27.552  37.429  1.00  0.00     0.060 A 
BRANCH  88  89
ATOM     89  S   UNL A   1      47.883  26.776  38.282  1.00  0.00     0.124 S 
ATOM     90  O   UNL A   1      49.010  27.550  37.771  1.00  0.00    -0.237 OA
ATOM     91  O   UNL A   1      47.540  26.994  39.683  1.00  0.00    -0.237 OA
ATOM     92  O   UNL A   1      47.817  25.388  37.835  1.00  0.00    -0.744 OA
ENDBRANCH  88  89
ENDBRANCH  56  81
BRANCH  68  93
ATOM     93  C   UNL A   1      40.026  33.998  37.540  1.00  0.00     0.058 A 
ATOM     94  C   UNL A   1      40.631  35.264  37.568  1.00  0.00     0.135 A 
ATOM     95  C   UNL A   1      39.244  33.624  38.647  1.00  0.00     0.135 A 
ATOM     96  F   UNL A   1      41.393  35.671  36.541  1.00  0.00    -0.206 F 
ATOM     97  C   UNL A   1      40.486  36.116  38.659  1.00  0.00     0.059 A 
ATOM     98  C   UNL A   1      39.061  34.471  39.734  1.00  0.00     0.059 A 
ATOM     99  F   UNL A   1      38.633  32.429  38.668  1.00  0.00    -0.206 F 
ATOM    100  C   UNL A   1      39.696  35.711  39.738  1.00  0.00     0.060 A 
BRANCH 100 101
ATOM    101  S   UNL A   1      39.490  36.839  41.132  1.00  0.00     0.124 S 
ATOM    102  O   UNL A   1      40.866  36.986  41.596  1.00  0.00    -0.237 OA
ATOM    103  O   UNL A   1      38.906  38.017  40.497  1.00  0.00    -0.237 OA
ATOM    104  O   UNL A   1      38.599  36.111  42.030  1.00  0.00    -0.744 OA
ENDBRANCH 100 101
ENDBRANCH  68  93
ENDBRANCH  42  43
ENDBRANCH  35  37
ENDBRANCH  34  35
ENDBRANCH  33  34
ENDBRANCH  32  33
ENDBRANCH  31  32
ENDBRANCH   1  31
TORSDOF 22
ENDMDL
