MODEL 1
REMARK VINA RESULT:     -11.2      0.000      0.000
REMARK SMILES O=Cc1c(OCc2ccc(C(=O)OCCOCCOC(=O)c3ccc(-c4c5nc(c(-c6c(F)cc(S(=O)(=O)[O-])cc6F)c6ccc([nH]6)c(-c6c(F)cc(S(=O)(=O)[O-])cc6F)c6nc(c(-c7c(F)cc(S(=O)(=O)[O-])cc7F)c7ccc4[nH]7)C=C6)C=C5)cc3)cc2)ccc2ccccc12
REMARK SMILES IDX 15 1 14 2 13 3 11 4 12 5 10 6 7 7 8 8 89 9 9 10 88 11 6 12
REMARK SMILES IDX 5 13 4 14 3 15 97 16 90 17 92 18 96 19 91 20 93 21 95 22
REMARK SMILES IDX 94 23 2 24 1 25 16 26 17 27 18 28 19 29 20 30 21 31 22 32
REMARK SMILES IDX 23 33 87 34 24 35 86 36 25 37 26 38 27 39 80 40 28 41 85 42
REMARK SMILES IDX 79 43 81 44 29 45 84 46 78 47 77 48 30 50 64 51 43 52 63 53
REMARK SMILES IDX 44 54 47 55 62 56 82 57 45 58 46 59 61 61 83 62 48 63 31 64
REMARK SMILES IDX 32 65 41 66 33 67 34 68 40 69 42 70 35 71 36 72 37 73 38 74
REMARK SMILES IDX 39 75 65 76 66 77 75 78 67 79 68 80 74 81 76 82 69 83 70 84
REMARK SMILES IDX 71 85 72 86 73 87 49 88 50 89 59 90 51 91 52 92 58 93 60 94
REMARK SMILES IDX 53 95 54 96 55 97 56 98 57 99
REMARK H PARENT 81 49 47 60
REMARK Flexibility Score: inf
ROOT
ATOM      1  C   UNL A   1      43.094  20.479  25.978  1.00  0.00     0.202 C 
ENDROOT
BRANCH   1   2
ATOM      2  C   UNL A   1      41.727  19.853  26.274  1.00  0.00     0.261 C 
BRANCH   2   3
ATOM      3  O   UNL A   1      40.659  20.663  25.755  1.00  0.00    -0.460 OA
BRANCH   3   4
ATOM      4  C   UNL A   1      40.015  21.400  26.687  1.00  0.00     0.338 C 
ATOM      5  O   UNL A   1      40.402  21.675  27.814  1.00  0.00    -0.246 OA
BRANCH   4   6
ATOM      6  C   UNL A   1      38.813  22.023  26.101  1.00  0.00     0.060 A 
ATOM      7  C   UNL A   1      36.404  23.232  25.363  1.00  0.00    -0.011 A 
ATOM      8  C   UNL A   1      37.381  23.965  26.049  1.00  0.00     0.008 A 
ATOM      9  C   UNL A   1      36.723  21.941  24.903  1.00  0.00     0.008 A 
ATOM     10  C   UNL A   1      38.557  23.349  26.459  1.00  0.00     0.016 A 
ATOM     11  C   UNL A   1      37.934  21.337  25.263  1.00  0.00     0.016 A 
BRANCH   7  12
ATOM     12  C   UNL A   1      34.985  23.754  25.195  1.00  0.00     0.265 C 
BRANCH  12  13
ATOM     13  O   UNL A   1      34.828  24.898  24.341  1.00  0.00    -0.488 OA
BRANCH  13  14
ATOM     14  C   UNL A   1      33.867  25.844  24.595  1.00  0.00     0.130 A 
ATOM     15  C   UNL A   1      32.923  26.079  23.576  1.00  0.00     0.064 A 
ATOM     16  C   UNL A   1      32.029  27.188  23.620  1.00  0.00    -0.004 A 
ATOM     17  C   UNL A   1      33.850  26.664  25.721  1.00  0.00     0.048 A 
ATOM     18  C   UNL A   1      32.106  28.056  24.735  1.00  0.00    -0.017 A 
ATOM     19  C   UNL A   1      31.065  27.493  22.622  1.00  0.00     0.009 A 
ATOM     20  C   UNL A   1      32.998  27.769  25.776  1.00  0.00     0.012 A 
ATOM     21  C   UNL A   1      31.292  29.199  24.798  1.00  0.00     0.009 A 
ATOM     22  C   UNL A   1      30.254  28.627  22.706  1.00  0.00     0.001 A 
ATOM     23  C   UNL A   1      30.377  29.487  23.787  1.00  0.00     0.001 A 
BRANCH  15  24
ATOM     24  C   UNL A   1      32.914  25.196  22.388  1.00  0.00     0.264 C 
ATOM     25  O   UNL A   1      33.648  25.361  21.422  1.00  0.00    -0.298 OA
ENDBRANCH  15  24
ENDBRANCH  13  14
ENDBRANCH  12  13
ENDBRANCH   7  12
ENDBRANCH   4   6
ENDBRANCH   3   4
ENDBRANCH   2   3
ENDBRANCH   1   2
BRANCH   1  26
ATOM     26  O   UNL A   1      43.123  21.517  24.997  1.00  0.00    -0.374 OA
BRANCH  26  27
ATOM     27  C   UNL A   1      43.854  22.701  25.326  1.00  0.00     0.202 C 
BRANCH  27  28
ATOM     28  C   UNL A   1      43.355  23.513  26.527  1.00  0.00     0.261 C 
BRANCH  28  29
ATOM     29  O   UNL A   1      42.020  24.009  26.325  1.00  0.00    -0.460 OA
BRANCH  29  30
ATOM     30  C   UNL A   1      41.943  25.323  26.010  1.00  0.00     0.338 C 
ATOM     31  O   UNL A   1      41.771  25.807  24.898  1.00  0.00    -0.246 OA
BRANCH  30  32
ATOM     32  C   UNL A   1      41.898  26.129  27.243  1.00  0.00     0.060 A 
ATOM     33  C   UNL A   1      40.837  25.903  28.128  1.00  0.00     0.016 A 
ATOM     34  C   UNL A   1      42.849  27.117  27.512  1.00  0.00     0.016 A 
ATOM     35  C   UNL A   1      40.699  26.689  29.269  1.00  0.00     0.010 A 
ATOM     36  C   UNL A   1      42.703  27.913  28.654  1.00  0.00     0.010 A 
ATOM     37  C   UNL A   1      41.614  27.720  29.523  1.00  0.00    -0.014 A 
BRANCH  37  38
ATOM     38  C   UNL A   1      41.370  28.662  30.640  1.00  0.00     0.031 A 
ATOM     39  C   UNL A   1      42.237  28.592  31.866  1.00  0.00     0.074 A 
ATOM     40  C   UNL A   1      40.393  29.583  30.553  1.00  0.00     0.049 A 
ATOM     41  N   UNL A   1      42.175  29.295  32.966  1.00  0.00    -0.248 NA
ATOM     42  C   UNL A   1      43.315  27.592  31.848  1.00  0.00     0.031 C 
ATOM     43  C   UNL A   1      39.514  29.772  29.400  1.00  0.00     0.029 A 
ATOM     44  N   UNL A   1      39.974  30.528  31.455  1.00  0.00    -0.354 N 
ATOM     45  C   UNL A   1      43.200  28.822  33.776  1.00  0.00     0.074 A 
ATOM     46  C   UNL A   1      43.850  27.751  33.050  1.00  0.00     0.031 C 
ATOM     47  C   UNL A   1      38.652  30.767  29.669  1.00  0.00     0.029 A 
ATOM     48  C   UNL A   1      38.897  31.261  31.023  1.00  0.00     0.049 A 
ATOM     49  H   UNL A   1      40.405  30.666  32.330  1.00  0.00     0.167 HD
ATOM     50  C   UNL A   1      43.570  29.246  35.009  1.00  0.00     0.037 A 
ATOM     51  C   UNL A   1      38.176  32.209  31.656  1.00  0.00     0.037 A 
ATOM     52  C   UNL A   1      42.914  30.309  35.726  1.00  0.00     0.049 A 
ATOM     53  C   UNL A   1      38.554  32.611  33.056  1.00  0.00     0.074 A 
ATOM     54  C   UNL A   1      43.232  30.836  36.965  1.00  0.00     0.029 A 
ATOM     55  N   UNL A   1      41.794  30.995  35.277  1.00  0.00    -0.354 N 
ATOM     56  N   UNL A   1      39.546  32.179  33.799  1.00  0.00    -0.248 NA
ATOM     57  C   UNL A   1      37.712  33.623  33.708  1.00  0.00     0.031 C 
ATOM     58  C   UNL A   1      42.273  31.803  37.289  1.00  0.00     0.029 A 
ATOM     59  C   UNL A   1      41.386  31.914  36.229  1.00  0.00     0.049 A 
ATOM     60  H   UNL A   1      41.354  30.850  34.408  1.00  0.00     0.167 HD
ATOM     61  C   UNL A   1      39.458  32.878  34.998  1.00  0.00     0.074 A 
ATOM     62  C   UNL A   1      38.323  33.771  34.876  1.00  0.00     0.031 C 
ATOM     63  C   UNL A   1      40.245  32.788  36.100  1.00  0.00     0.037 A 
BRANCH  50  64
ATOM     64  C   UNL A   1      44.717  28.532  35.670  1.00  0.00     0.058 A 
ATOM     65  C   UNL A   1      46.052  28.907  35.448  1.00  0.00     0.135 A 
ATOM     66  C   UNL A   1      44.476  27.457  36.541  1.00  0.00     0.135 A 
ATOM     67  F   UNL A   1      46.340  29.918  34.613  1.00  0.00    -0.206 F 
ATOM     68  C   UNL A   1      47.108  28.219  36.036  1.00  0.00     0.059 A 
ATOM     69  C   UNL A   1      45.516  26.772  37.162  1.00  0.00     0.059 A 
ATOM     70  F   UNL A   1      43.219  27.056  36.789  1.00  0.00    -0.206 F 
ATOM     71  C   UNL A   1      46.830  27.147  36.887  1.00  0.00     0.060 A 
BRANCH  71  72
ATOM     72  S   UNL A   1      48.211  26.246  37.622  1.00  0.00     0.124 S 
ATOM     73  O   UNL A   1      48.270  26.841  38.953  1.00  0.00    -0.237 OA
ATOM     74  O   UNL A   1      47.749  24.864  37.565  1.00  0.00    -0.237 OA
ATOM     75  O   UNL A   1      49.332  26.565  36.742  1.00  0.00    -0.744 OA
ENDBRANCH  71  72
ENDBRANCH  50  64
BRANCH  51  76
ATOM     76  C   UNL A   1      37.018  32.834  30.965  1.00  0.00     0.058 A 
ATOM     77  C   UNL A   1      35.704  32.443  31.259  1.00  0.00     0.135 A 
ATOM     78  C   UNL A   1      37.202  33.858  30.023  1.00  0.00     0.135 A 
ATOM     79  F   UNL A   1      35.480  31.458  32.142  1.00  0.00    -0.206 F 
ATOM     80  C   UNL A   1      34.611  33.047  30.647  1.00  0.00     0.059 A 
ATOM     81  C   UNL A   1      36.124  34.494  29.416  1.00  0.00     0.059 A 
ATOM     82  F   UNL A   1      38.440  34.275  29.714  1.00  0.00    -0.206 F 
ATOM     83  C   UNL A   1      34.831  34.080  29.733  1.00  0.00     0.060 A 
BRANCH  83  84
ATOM     84  S   UNL A   1      33.402  34.916  29.010  1.00  0.00     0.124 S 
ATOM     85  O   UNL A   1      34.007  36.139  28.495  1.00  0.00    -0.237 OA
ATOM     86  O   UNL A   1      32.959  33.951  28.010  1.00  0.00    -0.237 OA
ATOM     87  O   UNL A   1      32.504  35.086  30.148  1.00  0.00    -0.744 OA
ENDBRANCH  83  84
ENDBRANCH  51  76
BRANCH  63  88
ATOM     88  C   UNL A   1      39.910  33.683  37.263  1.00  0.00     0.058 A 
ATOM     89  C   UNL A   1      40.490  34.953  37.402  1.00  0.00     0.135 A 
ATOM     90  C   UNL A   1      38.961  33.288  38.219  1.00  0.00     0.135 A 
ATOM     91  F   UNL A   1      41.409  35.377  36.519  1.00  0.00    -0.206 F 
ATOM     92  C   UNL A   1      40.158  35.793  38.461  1.00  0.00     0.059 A 
ATOM     93  C   UNL A   1      38.593  34.122  39.271  1.00  0.00     0.059 A 
ATOM     94  F   UNL A   1      38.368  32.087  38.129  1.00  0.00    -0.206 F 
ATOM     95  C   UNL A   1      39.206  35.368  39.389  1.00  0.00     0.060 A 
BRANCH  95  96
ATOM     96  S   UNL A   1      38.758  36.482  40.739  1.00  0.00     0.124 S 
ATOM     97  O   UNL A   1      38.257  37.642  40.008  1.00  0.00    -0.237 OA
ATOM     98  O   UNL A   1      37.755  35.707  41.463  1.00  0.00    -0.237 OA
ATOM     99  O   UNL A   1      40.018  36.683  41.448  1.00  0.00    -0.744 OA
ENDBRANCH  95  96
ENDBRANCH  63  88
ENDBRANCH  37  38
ENDBRANCH  30  32
ENDBRANCH  29  30
ENDBRANCH  28  29
ENDBRANCH  27  28
ENDBRANCH  26  27
ENDBRANCH   1  26
TORSDOF 21
ENDMDL
MODEL 2
REMARK VINA RESULT:     -11.0      6.064     12.135
REMARK SMILES O=Cc1c(OCc2ccc(C(=O)OCCOCCOC(=O)c3ccc(-c4c5nc(c(-c6c(F)cc(S(=O)(=O)[O-])cc6F)c6ccc([nH]6)c(-c6c(F)cc(S(=O)(=O)[O-])cc6F)c6nc(c(-c7c(F)cc(S(=O)(=O)[O-])cc7F)c7ccc4[nH]7)C=C6)C=C5)cc3)cc2)ccc2ccccc12
REMARK SMILES IDX 15 1 14 2 13 3 11 4 12 5 10 6 7 7 8 8 89 9 9 10 88 11 6 12
REMARK SMILES IDX 5 13 4 14 3 15 97 16 90 17 92 18 96 19 91 20 93 21 95 22
REMARK SMILES IDX 94 23 2 24 1 25 16 26 17 27 18 28 19 29 20 30 21 31 22 32
REMARK SMILES IDX 23 33 87 34 24 35 86 36 25 37 26 38 27 39 80 40 28 41 85 42
REMARK SMILES IDX 79 43 81 44 29 45 84 46 78 47 77 48 30 50 64 51 43 52 63 53
REMARK SMILES IDX 44 54 47 55 62 56 82 57 45 58 46 59 61 61 83 62 48 63 31 64
REMARK SMILES IDX 32 65 41 66 33 67 34 68 40 69 42 70 35 71 36 72 37 73 38 74
REMARK SMILES IDX 39 75 65 76 66 77 75 78 67 79 68 80 74 81 76 82 69 83 70 84
REMARK SMILES IDX 71 85 72 86 73 87 49 88 50 89 59 90 51 91 52 92 58 93 60 94
REMARK SMILES IDX 53 95 54 96 55 97 56 98 57 99
REMARK H PARENT 81 49 47 60
REMARK Flexibility Score: inf
ROOT
ATOM      1  C   UNL A   1      34.982  30.711  27.769  1.00  0.00     0.202 C 
ENDROOT
BRANCH   1   2
ATOM      2  C   UNL A   1      34.327  29.687  26.836  1.00  0.00     0.261 C 
BRANCH   2   3
ATOM      3  O   UNL A   1      32.999  29.356  27.276  1.00  0.00    -0.460 OA
BRANCH   3   4
ATOM      4  C   UNL A   1      32.016  29.787  26.455  1.00  0.00     0.338 C 
ATOM      5  O   UNL A   1      31.761  30.943  26.145  1.00  0.00    -0.246 OA
BRANCH   4   6
ATOM      6  C   UNL A   1      31.364  28.640  25.796  1.00  0.00     0.060 A 
ATOM      7  C   UNL A   1      30.463  26.269  24.621  1.00  0.00    -0.011 A 
ATOM      8  C   UNL A   1      30.642  26.346  26.008  1.00  0.00     0.008 A 
ATOM      9  C   UNL A   1      30.578  27.445  23.856  1.00  0.00     0.008 A 
ATOM     10  C   UNL A   1      31.136  27.510  26.585  1.00  0.00     0.016 A 
ATOM     11  C   UNL A   1      31.019  28.637  24.444  1.00  0.00     0.016 A 
BRANCH   7  12
ATOM     12  C   UNL A   1      30.255  24.938  23.916  1.00  0.00     0.265 C 
BRANCH  12  13
ATOM     13  O   UNL A   1      30.851  23.790  24.541  1.00  0.00    -0.488 OA
BRANCH  13  14
ATOM     14  C   UNL A   1      32.140  23.416  24.251  1.00  0.00     0.130 A 
ATOM     15  C   UNL A   1      33.061  23.436  25.316  1.00  0.00     0.064 A 
ATOM     16  C   UNL A   1      34.463  23.300  25.101  1.00  0.00    -0.004 A 
ATOM     17  C   UNL A   1      32.612  23.156  22.966  1.00  0.00     0.048 A 
ATOM     18  C   UNL A   1      34.915  23.132  23.771  1.00  0.00    -0.017 A 
ATOM     19  C   UNL A   1      35.447  23.326  26.125  1.00  0.00     0.009 A 
ATOM     20  C   UNL A   1      33.983  23.041  22.728  1.00  0.00     0.012 A 
ATOM     21  C   UNL A   1      36.290  23.057  23.495  1.00  0.00     0.009 A 
ATOM     22  C   UNL A   1      36.811  23.237  25.836  1.00  0.00     0.001 A 
ATOM     23  C   UNL A   1      37.233  23.116  24.520  1.00  0.00     0.001 A 
BRANCH  15  24
ATOM     24  C   UNL A   1      32.566  23.684  26.689  1.00  0.00     0.264 C 
ATOM     25  O   UNL A   1      32.161  22.796  27.428  1.00  0.00    -0.298 OA
ENDBRANCH  15  24
ENDBRANCH  13  14
ENDBRANCH  12  13
ENDBRANCH   7  12
ENDBRANCH   4   6
ENDBRANCH   3   4
ENDBRANCH   2   3
ENDBRANCH   1   2
BRANCH   1  26
ATOM     26  O   UNL A   1      34.428  32.027  27.762  1.00  0.00    -0.374 OA
BRANCH  26  27
ATOM     27  C   UNL A   1      35.219  33.068  28.343  1.00  0.00     0.202 C 
BRANCH  27  28
ATOM     28  C   UNL A   1      35.383  33.044  29.867  1.00  0.00     0.261 C 
BRANCH  28  29
ATOM     29  O   UNL A   1      36.727  32.714  30.259  1.00  0.00    -0.460 OA
BRANCH  29  30
ATOM     30  C   UNL A   1      36.869  31.500  30.841  1.00  0.00     0.338 C 
ATOM     31  O   UNL A   1      36.062  30.929  31.566  1.00  0.00    -0.246 OA
BRANCH  30  32
ATOM     32  C   UNL A   1      38.080  30.839  30.324  1.00  0.00     0.060 A 
ATOM     33  C   UNL A   1      39.037  30.418  31.257  1.00  0.00     0.016 A 
ATOM     34  C   UNL A   1      38.301  30.671  28.955  1.00  0.00     0.016 A 
ATOM     35  C   UNL A   1      40.237  29.859  30.823  1.00  0.00     0.010 A 
ATOM     36  C   UNL A   1      39.512  30.120  28.521  1.00  0.00     0.010 A 
ATOM     37  C   UNL A   1      40.494  29.735  29.451  1.00  0.00    -0.014 A 
BRANCH  37  38
ATOM     38  C   UNL A   1      41.835  29.303  28.990  1.00  0.00     0.031 A 
ATOM     39  C   UNL A   1      42.951  30.307  28.929  1.00  0.00     0.074 A 
ATOM     40  C   UNL A   1      42.056  28.022  28.645  1.00  0.00     0.049 A 
ATOM     41  N   UNL A   1      44.185  30.151  28.525  1.00  0.00    -0.248 NA
ATOM     42  C   UNL A   1      42.631  31.670  29.380  1.00  0.00     0.031 C 
ATOM     43  C   UNL A   1      41.062  26.951  28.699  1.00  0.00     0.029 A 
ATOM     44  N   UNL A   1      43.189  27.407  28.173  1.00  0.00    -0.354 N 
ATOM     45  C   UNL A   1      44.789  31.394  28.667  1.00  0.00     0.074 A 
ATOM     46  C   UNL A   1      43.777  32.301  29.167  1.00  0.00     0.031 C 
ATOM     47  C   UNL A   1      41.627  25.811  28.269  1.00  0.00     0.029 A 
ATOM     48  C   UNL A   1      43.010  26.079  27.877  1.00  0.00     0.049 A 
ATOM     49  H   UNL A   1      44.047  27.876  28.058  1.00  0.00     0.167 HD
ATOM     50  C   UNL A   1      46.073  31.746  28.411  1.00  0.00     0.037 A 
ATOM     51  C   UNL A   1      43.859  25.185  27.331  1.00  0.00     0.037 A 
ATOM     52  C   UNL A   1      47.072  30.839  27.909  1.00  0.00     0.049 A 
ATOM     53  C   UNL A   1      45.258  25.616  26.980  1.00  0.00     0.074 A 
ATOM     54  C   UNL A   1      48.408  31.088  27.648  1.00  0.00     0.029 A 
ATOM     55  N   UNL A   1      46.841  29.512  27.572  1.00  0.00    -0.354 N 
ATOM     56  N   UNL A   1      45.828  26.786  27.149  1.00  0.00    -0.248 NA
ATOM     57  C   UNL A   1      46.127  24.609  26.357  1.00  0.00     0.031 C 
ATOM     58  C   UNL A   1      48.972  29.927  27.104  1.00  0.00     0.029 A 
ATOM     59  C   UNL A   1      47.999  28.939  27.072  1.00  0.00     0.049 A 
ATOM     60  H   UNL A   1      45.980  29.045  27.675  1.00  0.00     0.167 HD
ATOM     61  C   UNL A   1      47.126  26.651  26.669  1.00  0.00     0.074 A 
ATOM     62  C   UNL A   1      47.261  25.282  26.216  1.00  0.00     0.031 C 
ATOM     63  C   UNL A   1      48.116  27.578  26.610  1.00  0.00     0.037 A 
BRANCH  50  64
ATOM     64  C   UNL A   1      46.454  33.183  28.639  1.00  0.00     0.058 A 
ATOM     65  C   UNL A   1      46.865  33.652  29.897  1.00  0.00     0.135 A 
ATOM     66  C   UNL A   1      46.411  34.105  27.580  1.00  0.00     0.135 A 
ATOM     67  F   UNL A   1      46.910  32.816  30.948  1.00  0.00    -0.206 F 
ATOM     68  C   UNL A   1      47.182  34.989  30.108  1.00  0.00     0.059 A 
ATOM     69  C   UNL A   1      46.750  35.443  27.762  1.00  0.00     0.059 A 
ATOM     70  F   UNL A   1      46.026  33.712  26.356  1.00  0.00    -0.206 F 
ATOM     71  C   UNL A   1      47.115  35.879  29.034  1.00  0.00     0.060 A 
BRANCH  71  72
ATOM     72  S   UNL A   1      47.503  37.619  29.327  1.00  0.00     0.124 S 
ATOM     73  O   UNL A   1      48.154  37.985  28.073  1.00  0.00    -0.237 OA
ATOM     74  O   UNL A   1      46.184  38.201  29.550  1.00  0.00    -0.237 OA
ATOM     75  O   UNL A   1      48.374  37.580  30.498  1.00  0.00    -0.744 OA
ENDBRANCH  71  72
ENDBRANCH  50  64
BRANCH  51  76
ATOM     76  C   UNL A   1      43.399  23.795  27.079  1.00  0.00     0.058 A 
ATOM     77  C   UNL A   1      43.240  22.883  28.132  1.00  0.00     0.135 A 
ATOM     78  C   UNL A   1      43.078  23.360  25.783  1.00  0.00     0.135 A 
ATOM     79  F   UNL A   1      43.548  23.248  29.387  1.00  0.00    -0.206 F 
ATOM     80  C   UNL A   1      42.775  21.591  27.913  1.00  0.00     0.059 A 
ATOM     81  C   UNL A   1      42.588  22.081  25.542  1.00  0.00     0.059 A 
ATOM     82  F   UNL A   1      43.205  24.198  24.742  1.00  0.00    -0.206 F 
ATOM     83  C   UNL A   1      42.441  21.203  26.614  1.00  0.00     0.060 A 
BRANCH  83  84
ATOM     84  S   UNL A   1      41.756  19.552  26.353  1.00  0.00     0.124 S 
ATOM     85  O   UNL A   1      42.420  19.150  25.118  1.00  0.00    -0.237 OA
ATOM     86  O   UNL A   1      42.177  18.852  27.563  1.00  0.00    -0.237 OA
ATOM     87  O   UNL A   1      40.321  19.798  26.248  1.00  0.00    -0.744 OA
ENDBRANCH  83  84
ENDBRANCH  51  76
BRANCH  63  88
ATOM     88  C   UNL A   1      49.438  27.140  26.039  1.00  0.00     0.058 A 
ATOM     89  C   UNL A   1      49.697  27.194  24.661  1.00  0.00     0.135 A 
ATOM     90  C   UNL A   1      50.475  26.712  26.884  1.00  0.00     0.135 A 
ATOM     91  F   UNL A   1      48.737  27.589  23.809  1.00  0.00    -0.206 F 
ATOM     92  C   UNL A   1      50.930  26.818  24.137  1.00  0.00     0.059 A 
ATOM     93  C   UNL A   1      51.725  26.357  26.385  1.00  0.00     0.059 A 
ATOM     94  F   UNL A   1      50.285  26.651  28.212  1.00  0.00    -0.206 F 
ATOM     95  C   UNL A   1      51.938  26.403  25.008  1.00  0.00     0.060 A 
BRANCH  95  96
ATOM     96  S   UNL A   1      53.545  25.951  24.318  1.00  0.00     0.124 S 
ATOM     97  O   UNL A   1      54.443  26.819  25.074  1.00  0.00    -0.237 OA
ATOM     98  O   UNL A   1      53.630  24.528  24.628  1.00  0.00    -0.237 OA
ATOM     99  O   UNL A   1      53.410  26.271  22.901  1.00  0.00    -0.744 OA
ENDBRANCH  95  96
ENDBRANCH  63  88
ENDBRANCH  37  38
ENDBRANCH  30  32
ENDBRANCH  29  30
ENDBRANCH  28  29
ENDBRANCH  27  28
ENDBRANCH  26  27
ENDBRANCH   1  26
TORSDOF 21
ENDMDL
MODEL 3
REMARK VINA RESULT:     -10.9      6.015     12.062
REMARK SMILES O=Cc1c(OCc2ccc(C(=O)OCCOCCOC(=O)c3ccc(-c4c5nc(c(-c6c(F)cc(S(=O)(=O)[O-])cc6F)c6ccc([nH]6)c(-c6c(F)cc(S(=O)(=O)[O-])cc6F)c6nc(c(-c7c(F)cc(S(=O)(=O)[O-])cc7F)c7ccc4[nH]7)C=C6)C=C5)cc3)cc2)ccc2ccccc12
REMARK SMILES IDX 15 1 14 2 13 3 11 4 12 5 10 6 7 7 8 8 89 9 9 10 88 11 6 12
REMARK SMILES IDX 5 13 4 14 3 15 97 16 90 17 92 18 96 19 91 20 93 21 95 22
REMARK SMILES IDX 94 23 2 24 1 25 16 26 17 27 18 28 19 29 20 30 21 31 22 32
REMARK SMILES IDX 23 33 87 34 24 35 86 36 25 37 26 38 27 39 80 40 28 41 85 42
REMARK SMILES IDX 79 43 81 44 29 45 84 46 78 47 77 48 30 50 64 51 43 52 63 53
REMARK SMILES IDX 44 54 47 55 62 56 82 57 45 58 46 59 61 61 83 62 48 63 31 64
REMARK SMILES IDX 32 65 41 66 33 67 34 68 40 69 42 70 35 71 36 72 37 73 38 74
REMARK SMILES IDX 39 75 65 76 66 77 75 78 67 79 68 80 74 81 76 82 69 83 70 84
REMARK SMILES IDX 71 85 72 86 73 87 49 88 50 89 59 90 51 91 52 92 58 93 60 94
REMARK SMILES IDX 53 95 54 96 55 97 56 98 57 99
REMARK H PARENT 81 49 47 60
REMARK Flexibility Score: inf
ROOT
ATOM      1  C   UNL A   1      34.807  30.505  27.911  1.00  0.00     0.202 C 
ENDROOT
BRANCH   1   2
ATOM      2  C   UNL A   1      34.415  29.480  26.842  1.00  0.00     0.261 C 
BRANCH   2   3
ATOM      3  O   UNL A   1      33.094  28.963  27.074  1.00  0.00    -0.460 OA
BRANCH   3   4
ATOM      4  C   UNL A   1      32.360  28.784  25.953  1.00  0.00     0.338 C 
ATOM      5  O   UNL A   1      31.596  29.584  25.431  1.00  0.00    -0.246 OA
BRANCH   4   6
ATOM      6  C   UNL A   1      32.740  27.521  25.293  1.00  0.00     0.060 A 
ATOM      7  C   UNL A   1      33.753  25.111  24.305  1.00  0.00    -0.011 A 
ATOM      8  C   UNL A   1      33.133  25.155  25.560  1.00  0.00     0.008 A 
ATOM      9  C   UNL A   1      33.703  26.253  23.484  1.00  0.00     0.008 A 
ATOM     10  C   UNL A   1      32.674  26.362  26.071  1.00  0.00     0.016 A 
ATOM     11  C   UNL A   1      33.186  27.459  23.973  1.00  0.00     0.016 A 
BRANCH   7  12
ATOM     12  C   UNL A   1      34.562  23.904  23.855  1.00  0.00     0.265 C 
BRANCH  12  13
ATOM     13  O   UNL A   1      34.806  22.899  24.852  1.00  0.00    -0.488 OA
BRANCH  13  14
ATOM     14  C   UNL A   1      34.161  21.688  24.810  1.00  0.00     0.130 A 
ATOM     15  C   UNL A   1      34.971  20.536  24.826  1.00  0.00     0.064 A 
ATOM     16  C   UNL A   1      34.444  19.241  24.550  1.00  0.00    -0.004 A 
ATOM     17  C   UNL A   1      32.790  21.536  24.618  1.00  0.00     0.048 A 
ATOM     18  C   UNL A   1      33.062  19.138  24.265  1.00  0.00    -0.017 A 
ATOM     19  C   UNL A   1      35.205  18.042  24.534  1.00  0.00     0.009 A 
ATOM     20  C   UNL A   1      32.253  20.280  24.325  1.00  0.00     0.012 A 
ATOM     21  C   UNL A   1      32.502  17.895  23.925  1.00  0.00     0.009 A 
ATOM     22  C   UNL A   1      34.631  16.812  24.206  1.00  0.00     0.001 A 
ATOM     23  C   UNL A   1      33.282  16.740  23.888  1.00  0.00     0.001 A 
BRANCH  15  24
ATOM     24  C   UNL A   1      36.426  20.685  25.056  1.00  0.00     0.264 C 
ATOM     25  O   UNL A   1      36.899  21.436  25.899  1.00  0.00    -0.298 OA
ENDBRANCH  15  24
ENDBRANCH  13  14
ENDBRANCH  12  13
ENDBRANCH   7  12
ENDBRANCH   4   6
ENDBRANCH   3   4
ENDBRANCH   2   3
ENDBRANCH   1   2
BRANCH   1  26
ATOM     26  O   UNL A   1      34.296  31.829  27.744  1.00  0.00    -0.374 OA
BRANCH  26  27
ATOM     27  C   UNL A   1      35.196  32.909  28.003  1.00  0.00     0.202 C 
BRANCH  27  28
ATOM     28  C   UNL A   1      35.399  33.307  29.469  1.00  0.00     0.261 C 
BRANCH  28  29
ATOM     29  O   UNL A   1      36.702  32.936  29.953  1.00  0.00    -0.460 OA
BRANCH  29  30
ATOM     30  C   UNL A   1      36.757  31.739  30.582  1.00  0.00     0.338 C 
ATOM     31  O   UNL A   1      35.881  31.224  31.267  1.00  0.00    -0.246 OA
BRANCH  30  32
ATOM     32  C   UNL A   1      37.974  31.017  30.173  1.00  0.00     0.060 A 
ATOM     33  C   UNL A   1      38.903  30.693  31.170  1.00  0.00     0.016 A 
ATOM     34  C   UNL A   1      38.228  30.699  28.837  1.00  0.00     0.016 A 
ATOM     35  C   UNL A   1      40.107  30.082  30.832  1.00  0.00     0.010 A 
ATOM     36  C   UNL A   1      39.443  30.094  28.497  1.00  0.00     0.010 A 
ATOM     37  C   UNL A   1      40.398  29.807  29.489  1.00  0.00    -0.014 A 
BRANCH  37  38
ATOM     38  C   UNL A   1      41.745  29.317  29.113  1.00  0.00     0.031 A 
ATOM     39  C   UNL A   1      42.908  30.269  29.136  1.00  0.00     0.074 A 
ATOM     40  C   UNL A   1      41.932  28.030  28.770  1.00  0.00     0.049 A 
ATOM     41  N   UNL A   1      44.157  30.060  28.813  1.00  0.00    -0.248 NA
ATOM     42  C   UNL A   1      42.620  31.643  29.579  1.00  0.00     0.031 C 
ATOM     43  C   UNL A   1      40.888  27.005  28.748  1.00  0.00     0.029 A 
ATOM     44  N   UNL A   1      43.064  27.367  28.369  1.00  0.00    -0.354 N 
ATOM     45  C   UNL A   1      44.806  31.273  29.008  1.00  0.00     0.074 A 
ATOM     46  C   UNL A   1      43.805  32.222  29.448  1.00  0.00     0.031 C 
ATOM     47  C   UNL A   1      41.429  25.843  28.345  1.00  0.00     0.029 A 
ATOM     48  C   UNL A   1      42.845  26.050  28.048  1.00  0.00     0.049 A 
ATOM     49  H   UNL A   1      43.948  27.797  28.315  1.00  0.00     0.167 HD
ATOM     50  C   UNL A   1      46.118  31.568  28.841  1.00  0.00     0.037 A 
ATOM     51  C   UNL A   1      43.688  25.123  27.551  1.00  0.00     0.037 A 
ATOM     52  C   UNL A   1      47.108  30.619  28.396  1.00  0.00     0.049 A 
ATOM     53  C   UNL A   1      45.125  25.492  27.297  1.00  0.00     0.074 A 
ATOM     54  C   UNL A   1      48.468  30.809  28.227  1.00  0.00     0.029 A 
ATOM     55  N   UNL A   1      46.839  29.307  28.032  1.00  0.00    -0.354 N 
ATOM     56  N   UNL A   1      45.734  26.633  27.515  1.00  0.00    -0.248 NA
ATOM     57  C   UNL A   1      45.988  24.450  26.722  1.00  0.00     0.031 C 
ATOM     58  C   UNL A   1      49.013  29.627  27.710  1.00  0.00     0.029 A 
ATOM     59  C   UNL A   1      48.001  28.686  27.604  1.00  0.00     0.049 A 
ATOM     60  H   UNL A   1      45.954  28.879  28.073  1.00  0.00     0.167 HD
ATOM     61  C   UNL A   1      47.055  26.443  27.121  1.00  0.00     0.074 A 
ATOM     62  C   UNL A   1      47.158  25.072  26.664  1.00  0.00     0.031 C 
ATOM     63  C   UNL A   1      48.087  27.323  27.137  1.00  0.00     0.037 A 
BRANCH  50  64
ATOM     64  C   UNL A   1      46.548  32.985  29.107  1.00  0.00     0.058 A 
ATOM     65  C   UNL A   1      46.537  33.965  28.102  1.00  0.00     0.135 A 
ATOM     66  C   UNL A   1      46.974  33.367  30.390  1.00  0.00     0.135 A 
ATOM     67  F   UNL A   1      46.153  33.651  26.855  1.00  0.00    -0.206 F 
ATOM     68  C   UNL A   1      46.970  35.264  28.349  1.00  0.00     0.059 A 
ATOM     69  C   UNL A   1      47.385  34.668  30.665  1.00  0.00     0.059 A 
ATOM     70  F   UNL A   1      47.004  32.470  31.388  1.00  0.00    -0.206 F 
ATOM     71  C   UNL A   1      47.399  35.604  29.633  1.00  0.00     0.060 A 
BRANCH  71  72
ATOM     72  S   UNL A   1      47.983  37.287  29.932  1.00  0.00     0.124 S 
ATOM     73  O   UNL A   1      48.845  37.091  31.094  1.00  0.00    -0.237 OA
ATOM     74  O   UNL A   1      48.665  37.609  28.684  1.00  0.00    -0.237 OA
ATOM     75  O   UNL A   1      46.754  38.034  30.182  1.00  0.00    -0.744 OA
ENDBRANCH  71  72
ENDBRANCH  50  64
BRANCH  51  76
ATOM     76  C   UNL A   1      43.184  23.756  27.255  1.00  0.00     0.058 A 
ATOM     77  C   UNL A   1      42.784  23.398  25.960  1.00  0.00     0.135 A 
ATOM     78  C   UNL A   1      43.124  22.772  28.254  1.00  0.00     0.135 A 
ATOM     79  F   UNL A   1      42.810  24.309  24.974  1.00  0.00    -0.206 F 
ATOM     80  C   UNL A   1      42.347  22.112  25.663  1.00  0.00     0.059 A 
ATOM     81  C   UNL A   1      42.713  21.473  27.977  1.00  0.00     0.059 A 
ATOM     82  F   UNL A   1      43.505  23.063  29.509  1.00  0.00    -0.206 F 
ATOM     83  C   UNL A   1      42.324  21.152  26.677  1.00  0.00     0.060 A 
BRANCH  83  84
ATOM     84  S   UNL A   1      41.838  19.463  26.261  1.00  0.00     0.124 S 
ATOM     85  O   UNL A   1      42.623  19.219  25.057  1.00  0.00    -0.237 OA
ATOM     86  O   UNL A   1      42.247  18.726  27.453  1.00  0.00    -0.237 OA
ATOM     87  O   UNL A   1      40.395  19.570  26.064  1.00  0.00    -0.744 OA
ENDBRANCH  83  84
ENDBRANCH  51  76
BRANCH  63  88
ATOM     88  C   UNL A   1      49.423  26.830  26.650  1.00  0.00     0.058 A 
ATOM     89  C   UNL A   1      50.380  26.309  27.534  1.00  0.00     0.135 A 
ATOM     90  C   UNL A   1      49.729  26.831  25.279  1.00  0.00     0.135 A 
ATOM     91  F   UNL A   1      50.141  26.292  28.855  1.00  0.00    -0.206 F 
ATOM     92  C   UNL A   1      51.603  25.825  27.079  1.00  0.00     0.059 A 
ATOM     93  C   UNL A   1      50.935  26.327  24.800  1.00  0.00     0.059 A 
ATOM     94  F   UNL A   1      48.846  27.310  24.389  1.00  0.00    -0.206 F 
ATOM     95  C   UNL A   1      51.870  25.837  25.710  1.00  0.00     0.060 A 
BRANCH  95  96
ATOM     96  S   UNL A   1      53.447  25.174  25.129  1.00  0.00     0.124 S 
ATOM     97  O   UNL A   1      53.214  23.737  25.226  1.00  0.00    -0.237 OA
ATOM     98  O   UNL A   1      53.534  25.713  23.776  1.00  0.00    -0.237 OA
ATOM     99  O   UNL A   1      54.414  25.718  26.077  1.00  0.00    -0.744 OA
ENDBRANCH  95  96
ENDBRANCH  63  88
ENDBRANCH  37  38
ENDBRANCH  30  32
ENDBRANCH  29  30
ENDBRANCH  28  29
ENDBRANCH  27  28
ENDBRANCH  26  27
ENDBRANCH   1  26
TORSDOF 21
ENDMDL
