MODEL 1
REMARK VINA RESULT:     -11.1      0.000      0.000
REMARK SMILES [NH3+]C[C@H]1CC[C@@H](C(=O)NCc2ccc(C(=O)OCCOCCOC(=O)c3ccc(-c4c5nc(c(-c6c(F)cc(S(=O)(=O)[O-])cc6F)c6ccc([nH]6)c(-c6c(F)cc(S(=O)(=O)[O-])cc6F)c6nc(c(-c7c(F)cc(S(=O)(=O)[O-])cc7F)c7ccc4[nH]7)C=C6)C=C5)cc3)cc2)CC1
REMARK SMILES IDX 19 1 18 2 17 3 15 4 16 5 14 6 11 7 12 8 93 9 13 10 92 11
REMARK SMILES IDX 10 12 9 13 7 14 8 15 6 17 3 18 4 19 95 20 5 21 94 22 2 23
REMARK SMILES IDX 1 24 20 28 21 29 22 30 23 31 24 32 25 33 26 34 27 35 91 36
REMARK SMILES IDX 28 37 90 38 29 39 30 40 31 41 84 42 32 43 89 44 83 45 85 46
REMARK SMILES IDX 33 47 88 48 82 49 81 50 34 52 68 53 47 54 67 55 48 56 51 57
REMARK SMILES IDX 66 58 86 59 49 60 50 61 65 63 87 64 52 65 35 66 36 67 45 68
REMARK SMILES IDX 37 69 38 70 44 71 46 72 39 73 40 74 41 75 42 76 43 77 69 78
REMARK SMILES IDX 70 79 79 80 71 81 72 82 78 83 80 84 73 85 74 86 75 87 76 88
REMARK SMILES IDX 77 89 53 90 54 91 63 92 55 93 56 94 62 95 64 96 57 97 58 98
REMARK SMILES IDX 59 99 60 100 61 101
REMARK H PARENT 9 16 1 25 1 26 1 27 85 51 51 62
REMARK Flexibility Score: inf
ROOT
ATOM      1  C   UNL A   1      40.496  21.316  27.286  1.00  0.00     0.202 C 
ENDROOT
BRANCH   1   2
ATOM      2  C   UNL A   1      39.962  21.574  25.874  1.00  0.00     0.261 C 
BRANCH   2   3
ATOM      3  O   UNL A   1      38.541  21.784  25.857  1.00  0.00    -0.460 OA
BRANCH   3   4
ATOM      4  C   UNL A   1      37.851  20.876  25.125  1.00  0.00     0.338 C 
ATOM      5  O   UNL A   1      38.163  19.707  24.941  1.00  0.00    -0.246 OA
BRANCH   4   6
ATOM      6  C   UNL A   1      36.556  21.424  24.647  1.00  0.00     0.060 A 
ATOM      7  C   UNL A   1      34.205  22.570  23.577  1.00  0.00    -0.029 A 
ATOM      8  C   UNL A   1      35.466  23.103  23.283  1.00  0.00     0.006 A 
ATOM      9  C   UNL A   1      34.137  21.464  24.442  1.00  0.00     0.006 A 
ATOM     10  C   UNL A   1      36.626  22.524  23.789  1.00  0.00     0.016 A 
ATOM     11  C   UNL A   1      35.304  20.897  24.983  1.00  0.00     0.016 A 
BRANCH   7  12
ATOM     12  C   UNL A   1      32.968  23.118  22.900  1.00  0.00     0.151 C 
BRANCH  12  13
ATOM     13  N   UNL A   1      33.230  24.297  22.106  1.00  0.00    -0.352 N 
ATOM     14  C   UNL A   1      33.283  25.623  22.358  1.00  0.00     0.223 C 
ATOM     15  O   UNL A   1      33.731  26.314  21.430  1.00  0.00    -0.275 OA
ATOM     16  H   UNL A   1      33.411  24.084  21.163  1.00  0.00     0.163 HD
BRANCH  14  17
ATOM     17  C   UNL A   1      32.824  26.338  23.639  1.00  0.00     0.078 C 
ATOM     18  C   UNL A   1      30.883  28.657  23.670  1.00  0.00     0.044 C 
ATOM     19  C   UNL A   1      30.391  27.196  23.625  1.00  0.00     0.010 C 
ATOM     20  C   UNL A   1      32.367  28.844  23.330  1.00  0.00     0.010 C 
ATOM     21  C   UNL A   1      31.381  26.140  24.090  1.00  0.00     0.014 C 
ATOM     22  C   UNL A   1      33.312  27.765  23.829  1.00  0.00     0.014 C 
BRANCH  18  23
ATOM     23  C   UNL A   1      29.960  29.505  22.750  1.00  0.00     0.262 C 
BRANCH  23  24
ATOM     24  N   UNL A   1      30.603  30.133  21.601  1.00  0.00    -0.357 N 
ATOM     25  H   UNL A   1      30.132  29.840  20.745  1.00  0.00     0.344 HD
ATOM     26  H   UNL A   1      31.583  29.852  21.564  1.00  0.00     0.344 HD
ATOM     27  H   UNL A   1      30.543  31.147  21.691  1.00  0.00     0.344 HD
ENDBRANCH  23  24
ENDBRANCH  18  23
ENDBRANCH  14  17
ENDBRANCH  12  13
ENDBRANCH   7  12
ENDBRANCH   4   6
ENDBRANCH   3   4
ENDBRANCH   2   3
ENDBRANCH   1   2
BRANCH   1  28
ATOM     28  O   UNL A   1      41.889  21.041  27.408  1.00  0.00    -0.374 OA
BRANCH  28  29
ATOM     29  C   UNL A   1      42.692  21.173  26.231  1.00  0.00     0.202 C 
BRANCH  29  30
ATOM     30  C   UNL A   1      43.713  22.318  26.216  1.00  0.00     0.261 C 
BRANCH  30  31
ATOM     31  O   UNL A   1      43.275  23.434  27.016  1.00  0.00    -0.460 OA
BRANCH  31  32
ATOM     32  C   UNL A   1      42.865  24.519  26.318  1.00  0.00     0.338 C 
ATOM     33  O   UNL A   1      42.768  24.620  25.099  1.00  0.00    -0.246 OA
BRANCH  32  34
ATOM     34  C   UNL A   1      42.327  25.533  27.241  1.00  0.00     0.060 A 
ATOM     35  C   UNL A   1      42.995  26.762  27.320  1.00  0.00     0.016 A 
ATOM     36  C   UNL A   1      41.234  25.264  28.066  1.00  0.00     0.016 A 
ATOM     37  C   UNL A   1      42.598  27.713  28.256  1.00  0.00     0.010 A 
ATOM     38  C   UNL A   1      40.845  26.216  29.015  1.00  0.00     0.010 A 
ATOM     39  C   UNL A   1      41.548  27.429  29.138  1.00  0.00    -0.014 A 
BRANCH  39  40
ATOM     40  C   UNL A   1      41.294  28.334  30.284  1.00  0.00     0.031 A 
ATOM     41  C   UNL A   1      42.156  28.210  31.512  1.00  0.00     0.074 A 
ATOM     42  C   UNL A   1      40.337  29.278  30.220  1.00  0.00     0.049 A 
ATOM     43  N   UNL A   1      42.103  28.879  32.633  1.00  0.00    -0.248 NA
ATOM     44  C   UNL A   1      43.218  27.191  31.467  1.00  0.00     0.031 C 
ATOM     45  C   UNL A   1      39.465  29.518  29.070  1.00  0.00     0.029 A 
ATOM     46  N   UNL A   1      39.937  30.207  31.146  1.00  0.00    -0.354 N 
ATOM     47  C   UNL A   1      43.117  28.362  33.430  1.00  0.00     0.074 A 
ATOM     48  C   UNL A   1      43.750  27.301  32.676  1.00  0.00     0.031 C 
ATOM     49  C   UNL A   1      38.624  30.524  29.365  1.00  0.00     0.029 A 
ATOM     50  C   UNL A   1      38.879  30.979  30.731  1.00  0.00     0.049 A 
ATOM     51  H   UNL A   1      40.368  30.311  32.025  1.00  0.00     0.167 HD
ATOM     52  C   UNL A   1      43.494  28.743  34.675  1.00  0.00     0.037 A 
ATOM     53  C   UNL A   1      38.186  31.931  31.386  1.00  0.00     0.037 A 
ATOM     54  C   UNL A   1      42.863  29.802  35.419  1.00  0.00     0.049 A 
ATOM     55  C   UNL A   1      38.587  32.301  32.791  1.00  0.00     0.074 A 
ATOM     56  C   UNL A   1      43.183  30.277  36.679  1.00  0.00     0.029 A 
ATOM     57  N   UNL A   1      41.779  30.545  34.974  1.00  0.00    -0.354 N 
ATOM     58  N   UNL A   1      39.562  31.819  33.525  1.00  0.00    -0.248 NA
ATOM     59  C   UNL A   1      37.798  33.347  33.455  1.00  0.00     0.031 C 
ATOM     60  C   UNL A   1      42.263  31.275  37.014  1.00  0.00     0.029 A 
ATOM     61  C   UNL A   1      41.403  31.460  35.944  1.00  0.00     0.049 A 
ATOM     62  H   UNL A   1      41.344  30.438  34.098  1.00  0.00     0.167 HD
ATOM     63  C   UNL A   1      39.521  32.523  34.724  1.00  0.00     0.074 A 
ATOM     64  C   UNL A   1      38.429  33.469  34.614  1.00  0.00     0.031 C 
ATOM     65  C   UNL A   1      40.316  32.399  35.816  1.00  0.00     0.037 A 
BRANCH  52  66
ATOM     66  C   UNL A   1      44.626  27.990  35.318  1.00  0.00     0.058 A 
ATOM     67  C   UNL A   1      45.960  28.410  35.195  1.00  0.00     0.135 A 
ATOM     68  C   UNL A   1      44.369  26.846  36.091  1.00  0.00     0.135 A 
ATOM     69  F   UNL A   1      46.264  29.487  34.453  1.00  0.00    -0.206 F 
ATOM     70  C   UNL A   1      47.002  27.706  35.791  1.00  0.00     0.059 A 
ATOM     71  C   UNL A   1      45.392  26.142  36.718  1.00  0.00     0.059 A 
ATOM     72  F   UNL A   1      43.112  26.399  36.240  1.00  0.00    -0.206 F 
ATOM     73  C   UNL A   1      46.708  26.572  36.550  1.00  0.00     0.060 A 
BRANCH  73  74
ATOM     74  S   UNL A   1      48.069  25.667  37.316  1.00  0.00     0.124 S 
ATOM     75  O   UNL A   1      49.170  25.974  36.408  1.00  0.00    -0.237 OA
ATOM     76  O   UNL A   1      48.148  26.283  38.637  1.00  0.00    -0.237 OA
ATOM     77  O   UNL A   1      47.610  24.282  37.300  1.00  0.00    -0.744 OA
ENDBRANCH  73  74
ENDBRANCH  52  66
BRANCH  53  78
ATOM     78  C   UNL A   1      37.034  32.597  30.722  1.00  0.00     0.058 A 
ATOM     79  C   UNL A   1      37.224  33.667  29.836  1.00  0.00     0.135 A 
ATOM     80  C   UNL A   1      35.717  32.172  30.959  1.00  0.00     0.135 A 
ATOM     81  F   UNL A   1      38.464  34.118  29.586  1.00  0.00    -0.206 F 
ATOM     82  C   UNL A   1      36.153  34.300  29.214  1.00  0.00     0.059 A 
ATOM     83  C   UNL A   1      34.630  32.772  30.331  1.00  0.00     0.059 A 
ATOM     84  F   UNL A   1      35.480  31.146  31.791  1.00  0.00    -0.206 F 
ATOM     85  C   UNL A   1      34.857  33.841  29.466  1.00  0.00     0.060 A 
BRANCH  85  86
ATOM     86  S   UNL A   1      33.477  34.632  28.613  1.00  0.00     0.124 S 
ATOM     87  O   UNL A   1      32.997  33.549  27.764  1.00  0.00    -0.237 OA
ATOM     88  O   UNL A   1      32.607  35.010  29.723  1.00  0.00    -0.237 OA
ATOM     89  O   UNL A   1      34.110  35.748  27.916  1.00  0.00    -0.744 OA
ENDBRANCH  85  86
ENDBRANCH  53  78
BRANCH  65  90
ATOM     90  C   UNL A   1      40.060  33.331  36.970  1.00  0.00     0.058 A 
ATOM     91  C   UNL A   1      40.771  34.531  37.122  1.00  0.00     0.135 A 
ATOM     92  C   UNL A   1      39.055  33.041  37.907  1.00  0.00     0.135 A 
ATOM     93  F   UNL A   1      41.745  34.854  36.258  1.00  0.00    -0.206 F 
ATOM     94  C   UNL A   1      40.511  35.399  38.178  1.00  0.00     0.059 A 
ATOM     95  C   UNL A   1      38.759  33.907  38.954  1.00  0.00     0.059 A 
ATOM     96  F   UNL A   1      38.337  31.911  37.801  1.00  0.00    -0.206 F 
ATOM     97  C   UNL A   1      39.502  35.080  39.089  1.00  0.00     0.060 A 
BRANCH  97  98
ATOM     98  S   UNL A   1      39.155  36.228  40.439  1.00  0.00     0.124 S 
ATOM     99  O   UNL A   1      40.465  36.343  41.071  1.00  0.00    -0.237 OA
ATOM    100  O   UNL A   1      38.687  37.414  39.728  1.00  0.00    -0.237 OA
ATOM    101  O   UNL A   1      38.138  35.533  41.222  1.00  0.00    -0.744 OA
ENDBRANCH  97  98
ENDBRANCH  65  90
ENDBRANCH  39  40
ENDBRANCH  32  34
ENDBRANCH  31  32
ENDBRANCH  30  31
ENDBRANCH  29  30
ENDBRANCH  28  29
ENDBRANCH   1  28
TORSDOF 22
ENDMDL
MODEL 2
REMARK VINA RESULT:     -11.0      0.870      2.125
REMARK SMILES [NH3+]C[C@H]1CC[C@@H](C(=O)NCc2ccc(C(=O)OCCOCCOC(=O)c3ccc(-c4c5nc(c(-c6c(F)cc(S(=O)(=O)[O-])cc6F)c6ccc([nH]6)c(-c6c(F)cc(S(=O)(=O)[O-])cc6F)c6nc(c(-c7c(F)cc(S(=O)(=O)[O-])cc7F)c7ccc4[nH]7)C=C6)C=C5)cc3)cc2)CC1
REMARK SMILES IDX 19 1 18 2 17 3 15 4 16 5 14 6 11 7 12 8 93 9 13 10 92 11
REMARK SMILES IDX 10 12 9 13 7 14 8 15 6 17 3 18 4 19 95 20 5 21 94 22 2 23
REMARK SMILES IDX 1 24 20 28 21 29 22 30 23 31 24 32 25 33 26 34 27 35 91 36
REMARK SMILES IDX 28 37 90 38 29 39 30 40 31 41 84 42 32 43 89 44 83 45 85 46
REMARK SMILES IDX 33 47 88 48 82 49 81 50 34 52 68 53 47 54 67 55 48 56 51 57
REMARK SMILES IDX 66 58 86 59 49 60 50 61 65 63 87 64 52 65 35 66 36 67 45 68
REMARK SMILES IDX 37 69 38 70 44 71 46 72 39 73 40 74 41 75 42 76 43 77 69 78
REMARK SMILES IDX 70 79 79 80 71 81 72 82 78 83 80 84 73 85 74 86 75 87 76 88
REMARK SMILES IDX 77 89 53 90 54 91 63 92 55 93 56 94 62 95 64 96 57 97 58 98
REMARK SMILES IDX 59 99 60 100 61 101
REMARK H PARENT 9 16 1 25 1 26 1 27 85 51 51 62
REMARK Flexibility Score: inf
ROOT
ATOM      1  C   UNL A   1      40.438  21.558  27.249  1.00  0.00     0.202 C 
ENDROOT
BRANCH   1   2
ATOM      2  C   UNL A   1      39.887  21.754  25.834  1.00  0.00     0.261 C 
BRANCH   2   3
ATOM      3  O   UNL A   1      38.462  21.942  25.824  1.00  0.00    -0.460 OA
BRANCH   3   4
ATOM      4  C   UNL A   1      37.779  20.996  25.135  1.00  0.00     0.338 C 
ATOM      5  O   UNL A   1      38.100  19.822  25.004  1.00  0.00    -0.246 OA
BRANCH   4   6
ATOM      6  C   UNL A   1      36.481  21.512  24.632  1.00  0.00     0.060 A 
ATOM      7  C   UNL A   1      34.122  22.606  23.523  1.00  0.00    -0.029 A 
ATOM      8  C   UNL A   1      35.372  23.190  23.281  1.00  0.00     0.006 A 
ATOM      9  C   UNL A   1      34.068  21.475  24.356  1.00  0.00     0.006 A 
ATOM     10  C   UNL A   1      36.537  22.638  23.806  1.00  0.00     0.016 A 
ATOM     11  C   UNL A   1      35.238  20.934  24.917  1.00  0.00     0.016 A 
BRANCH   7  12
ATOM     12  C   UNL A   1      32.887  23.129  22.824  1.00  0.00     0.151 C 
BRANCH  12  13
ATOM     13  N   UNL A   1      33.145  24.299  22.016  1.00  0.00    -0.352 N 
ATOM     14  C   UNL A   1      33.214  25.626  22.256  1.00  0.00     0.223 C 
ATOM     15  O   UNL A   1      33.650  26.307  21.315  1.00  0.00    -0.275 OA
ATOM     16  H   UNL A   1      33.305  24.078  21.071  1.00  0.00     0.163 HD
BRANCH  14  17
ATOM     17  C   UNL A   1      32.787  26.355  23.541  1.00  0.00     0.078 C 
ATOM     18  C   UNL A   1      31.696  24.954  25.989  1.00  0.00     0.044 C 
ATOM     19  C   UNL A   1      33.213  25.077  25.741  1.00  0.00     0.010 C 
ATOM     20  C   UNL A   1      30.821  25.251  24.765  1.00  0.00     0.010 C 
ATOM     21  C   UNL A   1      33.650  26.176  24.785  1.00  0.00     0.014 C 
ATOM     22  C   UNL A   1      31.298  26.365  23.850  1.00  0.00     0.014 C 
BRANCH  18  23
ATOM     23  C   UNL A   1      31.417  23.544  26.581  1.00  0.00     0.262 C 
BRANCH  23  24
ATOM     24  N   UNL A   1      32.529  22.913  27.284  1.00  0.00    -0.357 N 
ATOM     25  H   UNL A   1      33.234  23.617  27.505  1.00  0.00     0.344 HD
ATOM     26  H   UNL A   1      32.941  22.193  26.691  1.00  0.00     0.344 HD
ATOM     27  H   UNL A   1      32.189  22.490  28.147  1.00  0.00     0.344 HD
ENDBRANCH  23  24
ENDBRANCH  18  23
ENDBRANCH  14  17
ENDBRANCH  12  13
ENDBRANCH   7  12
ENDBRANCH   4   6
ENDBRANCH   3   4
ENDBRANCH   2   3
ENDBRANCH   1   2
BRANCH   1  28
ATOM     28  O   UNL A   1      41.795  21.135  27.359  1.00  0.00    -0.374 OA
BRANCH  28  29
ATOM     29  C   UNL A   1      42.601  21.195  26.179  1.00  0.00     0.202 C 
BRANCH  29  30
ATOM     30  C   UNL A   1      43.650  22.313  26.115  1.00  0.00     0.261 C 
BRANCH  30  31
ATOM     31  O   UNL A   1      43.267  23.450  26.916  1.00  0.00    -0.460 OA
BRANCH  31  32
ATOM     32  C   UNL A   1      42.817  24.520  26.221  1.00  0.00     0.338 C 
ATOM     33  O   UNL A   1      42.698  24.614  25.004  1.00  0.00    -0.246 OA
BRANCH  32  34
ATOM     34  C   UNL A   1      42.268  25.523  27.149  1.00  0.00     0.060 A 
ATOM     35  C   UNL A   1      42.916  26.763  27.227  1.00  0.00     0.016 A 
ATOM     36  C   UNL A   1      41.183  25.235  27.979  1.00  0.00     0.016 A 
ATOM     37  C   UNL A   1      42.508  27.705  28.168  1.00  0.00     0.010 A 
ATOM     38  C   UNL A   1      40.783  26.178  28.933  1.00  0.00     0.010 A 
ATOM     39  C   UNL A   1      41.467  27.402  29.055  1.00  0.00    -0.014 A 
BRANCH  39  40
ATOM     40  C   UNL A   1      41.205  28.301  30.204  1.00  0.00     0.031 A 
ATOM     41  C   UNL A   1      42.057  28.168  31.438  1.00  0.00     0.074 A 
ATOM     42  C   UNL A   1      40.249  29.245  30.138  1.00  0.00     0.049 A 
ATOM     43  N   UNL A   1      41.996  28.831  32.563  1.00  0.00    -0.248 NA
ATOM     44  C   UNL A   1      43.119  27.149  31.396  1.00  0.00     0.031 C 
ATOM     45  C   UNL A   1      39.386  29.492  28.983  1.00  0.00     0.029 A 
ATOM     46  N   UNL A   1      39.842  30.169  31.067  1.00  0.00    -0.354 N 
ATOM     47  C   UNL A   1      43.003  28.308  33.365  1.00  0.00     0.074 A 
ATOM     48  C   UNL A   1      43.641  27.251  32.609  1.00  0.00     0.031 C 
ATOM     49  C   UNL A   1      38.543  30.497  29.277  1.00  0.00     0.029 A 
ATOM     50  C   UNL A   1      38.788  30.944  30.648  1.00  0.00     0.049 A 
ATOM     51  H   UNL A   1      40.266  30.267  31.950  1.00  0.00     0.167 HD
ATOM     52  C   UNL A   1      43.370  28.681  34.615  1.00  0.00     0.037 A 
ATOM     53  C   UNL A   1      38.090  31.892  31.304  1.00  0.00     0.037 A 
ATOM     54  C   UNL A   1      42.734  29.736  35.360  1.00  0.00     0.049 A 
ATOM     55  C   UNL A   1      38.480  32.253  32.713  1.00  0.00     0.074 A 
ATOM     56  C   UNL A   1      43.044  30.203  36.625  1.00  0.00     0.029 A 
ATOM     57  N   UNL A   1      41.654  30.483  34.912  1.00  0.00    -0.354 N 
ATOM     58  N   UNL A   1      39.449  31.766  33.452  1.00  0.00    -0.248 NA
ATOM     59  C   UNL A   1      37.686  33.296  33.377  1.00  0.00     0.031 C 
ATOM     60  C   UNL A   1      42.121  31.200  36.960  1.00  0.00     0.029 A 
ATOM     61  C   UNL A   1      41.270  31.391  35.884  1.00  0.00     0.049 A 
ATOM     62  H   UNL A   1      41.225  30.381  34.031  1.00  0.00     0.167 HD
ATOM     63  C   UNL A   1      39.399  32.463  34.656  1.00  0.00     0.074 A 
ATOM     64  C   UNL A   1      38.308  33.410  34.543  1.00  0.00     0.031 C 
ATOM     65  C   UNL A   1      40.185  32.332  35.753  1.00  0.00     0.037 A 
BRANCH  52  66
ATOM     66  C   UNL A   1      44.497  27.924  35.263  1.00  0.00     0.058 A 
ATOM     67  C   UNL A   1      44.267  26.787  36.053  1.00  0.00     0.135 A 
ATOM     68  C   UNL A   1      45.828  28.329  35.069  1.00  0.00     0.135 A 
ATOM     69  F   UNL A   1      43.014  26.367  36.287  1.00  0.00    -0.206 F 
ATOM     70  C   UNL A   1      45.315  26.094  36.653  1.00  0.00     0.059 A 
ATOM     71  C   UNL A   1      46.893  27.636  35.636  1.00  0.00     0.059 A 
ATOM     72  F   UNL A   1      46.104  29.411  34.325  1.00  0.00    -0.206 F 
ATOM     73  C   UNL A   1      46.624  26.527  36.439  1.00  0.00     0.060 A 
BRANCH  73  74
ATOM     74  S   UNL A   1      47.974  25.620  37.223  1.00  0.00     0.124 S 
ATOM     75  O   UNL A   1      49.069  25.863  36.290  1.00  0.00    -0.237 OA
ATOM     76  O   UNL A   1      48.085  26.285  38.518  1.00  0.00    -0.237 OA
ATOM     77  O   UNL A   1      47.481  24.247  37.268  1.00  0.00    -0.744 OA
ENDBRANCH  73  74
ENDBRANCH  52  66
BRANCH  53  78
ATOM     78  C   UNL A   1      36.944  32.563  30.634  1.00  0.00     0.058 A 
ATOM     79  C   UNL A   1      35.621  32.181  30.897  1.00  0.00     0.135 A 
ATOM     80  C   UNL A   1      37.152  33.608  29.719  1.00  0.00     0.135 A 
ATOM     81  F   UNL A   1      35.371  31.179  31.755  1.00  0.00    -0.206 F 
ATOM     82  C   UNL A   1      34.544  32.800  30.271  1.00  0.00     0.059 A 
ATOM     83  C   UNL A   1      36.092  34.260  29.098  1.00  0.00     0.059 A 
ATOM     84  F   UNL A   1      38.399  34.019  29.440  1.00  0.00    -0.206 F 
ATOM     85  C   UNL A   1      34.791  33.843  29.375  1.00  0.00     0.060 A 
BRANCH  85  86
ATOM     86  S   UNL A   1      33.384  34.678  28.609  1.00  0.00     0.124 S 
ATOM     87  O   UNL A   1      32.906  33.659  27.683  1.00  0.00    -0.237 OA
ATOM     88  O   UNL A   1      32.528  34.952  29.759  1.00  0.00    -0.237 OA
ATOM     89  O   UNL A   1      33.990  35.856  27.995  1.00  0.00    -0.744 OA
ENDBRANCH  85  86
ENDBRANCH  53  78
BRANCH  65  90
ATOM     90  C   UNL A   1      39.921  33.257  36.911  1.00  0.00     0.058 A 
ATOM     91  C   UNL A   1      38.999  32.935  37.919  1.00  0.00     0.135 A 
ATOM     92  C   UNL A   1      40.639  34.457  37.037  1.00  0.00     0.135 A 
ATOM     93  F   UNL A   1      38.283  31.803  37.844  1.00  0.00    -0.206 F 
ATOM     94  C   UNL A   1      38.779  33.785  38.999  1.00  0.00     0.059 A 
ATOM     95  C   UNL A   1      40.456  35.308  38.122  1.00  0.00     0.059 A 
ATOM     96  F   UNL A   1      41.542  34.807  36.107  1.00  0.00    -0.206 F 
ATOM     97  C   UNL A   1      39.514  34.969  39.093  1.00  0.00     0.060 A 
BRANCH  97  98
ATOM     98  S   UNL A   1      39.240  36.049  40.514  1.00  0.00     0.124 S 
ATOM     99  O   UNL A   1      39.156  37.359  39.876  1.00  0.00    -0.237 OA
ATOM    100  O   UNL A   1      37.992  35.530  41.065  1.00  0.00    -0.237 OA
ATOM    101  O   UNL A   1      40.422  35.828  41.341  1.00  0.00    -0.744 OA
ENDBRANCH  97  98
ENDBRANCH  65  90
ENDBRANCH  39  40
ENDBRANCH  32  34
ENDBRANCH  31  32
ENDBRANCH  30  31
ENDBRANCH  29  30
ENDBRANCH  28  29
ENDBRANCH   1  28
TORSDOF 22
ENDMDL
MODEL 3
REMARK VINA RESULT:     -10.9      6.440     12.096
REMARK SMILES [NH3+]C[C@H]1CC[C@@H](C(=O)NCc2ccc(C(=O)OCCOCCOC(=O)c3ccc(-c4c5nc(c(-c6c(F)cc(S(=O)(=O)[O-])cc6F)c6ccc([nH]6)c(-c6c(F)cc(S(=O)(=O)[O-])cc6F)c6nc(c(-c7c(F)cc(S(=O)(=O)[O-])cc7F)c7ccc4[nH]7)C=C6)C=C5)cc3)cc2)CC1
REMARK SMILES IDX 19 1 18 2 17 3 15 4 16 5 14 6 11 7 12 8 93 9 13 10 92 11
REMARK SMILES IDX 10 12 9 13 7 14 8 15 6 17 3 18 4 19 95 20 5 21 94 22 2 23
REMARK SMILES IDX 1 24 20 28 21 29 22 30 23 31 24 32 25 33 26 34 27 35 91 36
REMARK SMILES IDX 28 37 90 38 29 39 30 40 31 41 84 42 32 43 89 44 83 45 85 46
REMARK SMILES IDX 33 47 88 48 82 49 81 50 34 52 68 53 47 54 67 55 48 56 51 57
REMARK SMILES IDX 66 58 86 59 49 60 50 61 65 63 87 64 52 65 35 66 36 67 45 68
REMARK SMILES IDX 37 69 38 70 44 71 46 72 39 73 40 74 41 75 42 76 43 77 69 78
REMARK SMILES IDX 70 79 79 80 71 81 72 82 78 83 80 84 73 85 74 86 75 87 76 88
REMARK SMILES IDX 77 89 53 90 54 91 63 92 55 93 56 94 62 95 64 96 57 97 58 98
REMARK SMILES IDX 59 99 60 100 61 101
REMARK H PARENT 9 16 1 25 1 26 1 27 85 51 51 62
REMARK Flexibility Score: inf
ROOT
ATOM      1  C   UNL A   1      31.996  29.463  26.413  1.00  0.00     0.202 C 
ENDROOT
BRANCH   1   2
ATOM      2  C   UNL A   1      32.399  29.553  24.938  1.00  0.00     0.261 C 
BRANCH   2   3
ATOM      3  O   UNL A   1      32.443  28.264  24.304  1.00  0.00    -0.460 OA
BRANCH   3   4
ATOM      4  C   UNL A   1      31.226  27.746  24.008  1.00  0.00     0.338 C 
ATOM      5  O   UNL A   1      30.361  28.276  23.323  1.00  0.00    -0.246 OA
BRANCH   4   6
ATOM      6  C   UNL A   1      31.082  26.357  24.514  1.00  0.00     0.060 A 
ATOM      7  C   UNL A   1      30.895  23.646  25.287  1.00  0.00    -0.029 A 
ATOM      8  C   UNL A   1      31.039  24.004  23.941  1.00  0.00     0.006 A 
ATOM      9  C   UNL A   1      30.819  24.673  26.243  1.00  0.00     0.006 A 
ATOM     10  C   UNL A   1      31.156  25.338  23.561  1.00  0.00     0.016 A 
ATOM     11  C   UNL A   1      30.902  26.023  25.861  1.00  0.00     0.016 A 
BRANCH   7  12
ATOM     12  C   UNL A   1      30.920  22.190  25.696  1.00  0.00     0.151 C 
BRANCH  12  13
ATOM     13  N   UNL A   1      32.039  21.859  26.550  1.00  0.00    -0.352 N 
ATOM     14  C   UNL A   1      33.380  21.984  26.454  1.00  0.00     0.223 C 
ATOM     15  O   UNL A   1      34.005  21.746  27.499  1.00  0.00    -0.275 OA
ATOM     16  H   UNL A   1      31.758  21.446  27.397  1.00  0.00     0.163 HD
BRANCH  14  17
ATOM     17  C   UNL A   1      34.185  22.355  25.198  1.00  0.00     0.078 C 
ATOM     18  C   UNL A   1      37.130  23.042  25.225  1.00  0.00     0.044 C 
ATOM     19  C   UNL A   1      36.645  21.578  25.181  1.00  0.00     0.010 C 
ATOM     20  C   UNL A   1      36.054  24.061  25.619  1.00  0.00     0.010 C 
ATOM     21  C   UNL A   1      35.222  21.358  24.693  1.00  0.00     0.014 C 
ATOM     22  C   UNL A   1      34.654  23.798  25.095  1.00  0.00     0.014 C 
BRANCH  18  23
ATOM     23  C   UNL A   1      38.372  23.110  26.159  1.00  0.00     0.262 C 
BRANCH  23  24
ATOM     24  N   UNL A   1      39.455  22.183  25.851  1.00  0.00    -0.357 N 
ATOM     25  H   UNL A   1      39.270  21.283  26.295  1.00  0.00     0.344 HD
ATOM     26  H   UNL A   1      40.336  22.560  26.202  1.00  0.00     0.344 HD
ATOM     27  H   UNL A   1      39.518  22.056  24.841  1.00  0.00     0.344 HD
ENDBRANCH  23  24
ENDBRANCH  18  23
ENDBRANCH  14  17
ENDBRANCH  12  13
ENDBRANCH   7  12
ENDBRANCH   4   6
ENDBRANCH   3   4
ENDBRANCH   2   3
ENDBRANCH   1   2
BRANCH   1  28
ATOM     28  O   UNL A   1      32.501  30.473  27.282  1.00  0.00    -0.374 OA
BRANCH  28  29
ATOM     29  C   UNL A   1      33.903  30.752  27.222  1.00  0.00     0.202 C 
BRANCH  29  30
ATOM     30  C   UNL A   1      34.821  29.864  28.071  1.00  0.00     0.261 C 
BRANCH  30  31
ATOM     31  O   UNL A   1      35.760  30.644  28.838  1.00  0.00    -0.460 OA
BRANCH  31  32
ATOM     32  C   UNL A   1      36.406  29.971  29.817  1.00  0.00     0.338 C 
ATOM     33  O   UNL A   1      35.900  29.358  30.752  1.00  0.00    -0.246 OA
BRANCH  32  34
ATOM     34  C   UNL A   1      37.842  29.881  29.499  1.00  0.00     0.060 A 
ATOM     35  C   UNL A   1      38.206  29.795  28.149  1.00  0.00     0.016 A 
ATOM     36  C   UNL A   1      38.810  29.812  30.502  1.00  0.00     0.016 A 
ATOM     37  C   UNL A   1      39.539  29.594  27.797  1.00  0.00     0.010 A 
ATOM     38  C   UNL A   1      40.146  29.598  30.147  1.00  0.00     0.010 A 
ATOM     39  C   UNL A   1      40.510  29.452  28.796  1.00  0.00    -0.014 A 
BRANCH  39  40
ATOM     40  C   UNL A   1      41.871  28.996  28.427  1.00  0.00     0.031 A 
ATOM     41  C   UNL A   1      42.993  29.999  28.408  1.00  0.00     0.074 A 
ATOM     42  C   UNL A   1      42.114  27.702  28.148  1.00  0.00     0.049 A 
ATOM     43  N   UNL A   1      44.252  29.830  28.099  1.00  0.00    -0.248 NA
ATOM     44  C   UNL A   1      42.646  31.378  28.787  1.00  0.00     0.031 C 
ATOM     45  C   UNL A   1      41.116  26.633  28.169  1.00  0.00     0.029 A 
ATOM     46  N   UNL A   1      43.277  27.070  27.787  1.00  0.00    -0.354 N 
ATOM     47  C   UNL A   1      44.846  31.078  28.240  1.00  0.00     0.074 A 
ATOM     48  C   UNL A   1      43.804  32.003  28.632  1.00  0.00     0.031 C 
ATOM     49  C   UNL A   1      41.709  25.477  27.825  1.00  0.00     0.029 A 
ATOM     50  C   UNL A   1      43.120  25.729  27.533  1.00  0.00     0.049 A 
ATOM     51  H   UNL A   1      44.142  27.534  27.717  1.00  0.00     0.167 HD
ATOM     52  C   UNL A   1      46.146  31.422  28.068  1.00  0.00     0.037 A 
ATOM     53  C   UNL A   1      44.009  24.815  27.097  1.00  0.00     0.037 A 
ATOM     54  C   UNL A   1      47.179  30.497  27.681  1.00  0.00     0.049 A 
ATOM     55  C   UNL A   1      45.438  25.231  26.859  1.00  0.00     0.074 A 
ATOM     56  C   UNL A   1      48.529  30.742  27.499  1.00  0.00     0.029 A 
ATOM     57  N   UNL A   1      46.977  29.151  27.410  1.00  0.00    -0.354 N 
ATOM     58  N   UNL A   1      45.992  26.410  27.017  1.00  0.00    -0.248 NA
ATOM     59  C   UNL A   1      46.364  24.192  26.388  1.00  0.00     0.031 C 
ATOM     60  C   UNL A   1      49.134  29.555  27.072  1.00  0.00     0.029 A 
ATOM     61  C   UNL A   1      48.172  28.558  27.039  1.00  0.00     0.049 A 
ATOM     62  H   UNL A   1      46.111  28.687  27.473  1.00  0.00     0.167 HD
ATOM     63  C   UNL A   1      47.335  26.248  26.693  1.00  0.00     0.074 A 
ATOM     64  C   UNL A   1      47.511  24.855  26.337  1.00  0.00     0.031 C 
ATOM     65  C   UNL A   1      48.332  27.167  26.692  1.00  0.00     0.037 A 
BRANCH  52  66
ATOM     66  C   UNL A   1      46.515  32.865  28.272  1.00  0.00     0.058 A 
ATOM     67  C   UNL A   1      46.947  33.351  29.516  1.00  0.00     0.135 A 
ATOM     68  C   UNL A   1      46.461  33.770  27.199  1.00  0.00     0.135 A 
ATOM     69  F   UNL A   1      47.000  32.534  30.580  1.00  0.00    -0.206 F 
ATOM     70  C   UNL A   1      47.283  34.689  29.698  1.00  0.00     0.059 A 
ATOM     71  C   UNL A   1      46.819  35.106  27.351  1.00  0.00     0.059 A 
ATOM     72  F   UNL A   1      46.053  33.360  25.988  1.00  0.00    -0.206 F 
ATOM     73  C   UNL A   1      47.215  35.559  28.609  1.00  0.00     0.060 A 
BRANCH  73  74
ATOM     74  S   UNL A   1      47.653  37.293  28.858  1.00  0.00     0.124 S 
ATOM     75  O   UNL A   1      48.471  37.216  30.065  1.00  0.00    -0.237 OA
ATOM     76  O   UNL A   1      48.369  37.614  27.627  1.00  0.00    -0.237 OA
ATOM     77  O   UNL A   1      46.361  37.952  29.017  1.00  0.00    -0.744 OA
ENDBRANCH  73  74
ENDBRANCH  52  66
BRANCH  53  78
ATOM     78  C   UNL A   1      43.572  23.415  26.852  1.00  0.00     0.058 A 
ATOM     79  C   UNL A   1      43.276  22.548  27.913  1.00  0.00     0.135 A 
ATOM     80  C   UNL A   1      43.437  22.918  25.545  1.00  0.00     0.135 A 
ATOM     81  F   UNL A   1      43.402  22.973  29.180  1.00  0.00    -0.206 F 
ATOM     82  C   UNL A   1      42.872  21.235  27.692  1.00  0.00     0.059 A 
ATOM     83  C   UNL A   1      43.011  21.617  25.297  1.00  0.00     0.059 A 
ATOM     84  F   UNL A   1      43.698  23.710  24.493  1.00  0.00    -0.206 F 
ATOM     85  C   UNL A   1      42.738  20.780  26.378  1.00  0.00     0.060 A 
BRANCH  85  86
ATOM     86  S   UNL A   1      42.160  19.092  26.100  1.00  0.00     0.124 S 
ATOM     87  O   UNL A   1      40.745  19.309  25.825  1.00  0.00    -0.237 OA
ATOM     88  O   UNL A   1      42.976  18.672  24.965  1.00  0.00    -0.237 OA
ATOM     89  O   UNL A   1      42.464  18.423  27.362  1.00  0.00    -0.744 OA
ENDBRANCH  85  86
ENDBRANCH  53  78
BRANCH  65  90
ATOM     90  C   UNL A   1      49.713  26.693  26.329  1.00  0.00     0.058 A 
ATOM     91  C   UNL A   1      50.209  26.795  25.020  1.00  0.00     0.135 A 
ATOM     92  C   UNL A   1      50.569  26.178  27.316  1.00  0.00     0.135 A 
ATOM     93  F   UNL A   1      49.431  27.275  24.038  1.00  0.00    -0.206 F 
ATOM     94  C   UNL A   1      51.497  26.377  24.697  1.00  0.00     0.059 A 
ATOM     95  C   UNL A   1      51.869  25.781  27.022  1.00  0.00     0.059 A 
ATOM     96  F   UNL A   1      50.149  26.071  28.587  1.00  0.00    -0.206 F 
ATOM     97  C   UNL A   1      52.321  25.873  25.706  1.00  0.00     0.060 A 
BRANCH  97  98
ATOM     98  S   UNL A   1      53.999  25.361  25.280  1.00  0.00     0.124 S 
ATOM     99  O   UNL A   1      54.769  25.935  26.378  1.00  0.00    -0.237 OA
ATOM    100  O   UNL A   1      53.890  23.905  25.274  1.00  0.00    -0.237 OA
ATOM    101  O   UNL A   1      54.218  25.971  23.972  1.00  0.00    -0.744 OA
ENDBRANCH  97  98
ENDBRANCH  65  90
ENDBRANCH  39  40
ENDBRANCH  32  34
ENDBRANCH  31  32
ENDBRANCH  30  31
ENDBRANCH  29  30
ENDBRANCH  28  29
ENDBRANCH   1  28
TORSDOF 22
ENDMDL
