MODEL 1
REMARK VINA RESULT:     -12.7      0.000      0.000
REMARK SMILES Cc1coc2c(C)c3oc(=O)c(CC(=O)NCC(=O)N[C@H](C(=O)OCCOCCOC(=O)c4ccc(-c5c6nc(c(-c7c(F)cc(S(=O)(=O)[O-])cc7F)c7ccc([nH]7)c(-c7c(F)cc(S(=O)(=O)[O-])cc7F)c7nc(c(-c8c(F)cc(S(=O)(=O)[O-])cc8F)c8ccc5[nH]8)C=C7)C=C6)cc4)C(C)C)c(C)c3cc12
REMARK SMILES IDX 26 1 25 2 24 3 22 4 23 5 21 6 20 7 18 8 19 9 17 11 16 12
REMARK SMILES IDX 14 13 15 14 13 16 12 17 1 18 2 19 3 20 106 21 4 22 5 23
REMARK SMILES IDX 105 24 6 25 104 26 7 27 8 28 102 29 9 30 103 31 10 32 11 33
REMARK SMILES IDX 99 34 100 35 101 36 27 37 28 38 29 39 30 40 31 41 32 42
REMARK SMILES IDX 33 43 34 44 98 45 35 46 97 47 36 48 37 49 38 50 91 51 39 52
REMARK SMILES IDX 96 53 90 54 92 55 40 56 95 57 89 58 88 59 41 61 75 62 54 63
REMARK SMILES IDX 74 64 55 65 58 66 73 67 93 68 56 69 57 70 72 72 94 73 59 74
REMARK SMILES IDX 42 75 43 76 52 77 44 78 45 79 51 80 53 81 46 82 47 83 48 84
REMARK SMILES IDX 49 85 50 86 76 87 77 88 86 89 78 90 79 91 85 92 87 93 80 94
REMARK SMILES IDX 81 95 82 96 83 97 84 98 60 99 61 100 70 101 62 102 63 103
REMARK SMILES IDX 69 104 71 105 64 106 65 107 66 108 67 109 68 110
REMARK H PARENT 20 10 16 15 92 60 58 71
REMARK Flexibility Score: inf
ROOT
ATOM      1  C   UNL A   1      32.951  30.508  26.588  1.00  0.00     0.202 C 
ENDROOT
BRANCH   1   2
ATOM      2  C   UNL A   1      34.100  29.420  26.274  1.00  0.00     0.261 C 
BRANCH   2   3
ATOM      3  O   UNL A   1      33.866  28.539  25.098  1.00  0.00    -0.462 OA
BRANCH   3   4
ATOM      4  C   UNL A   1      33.136  28.690  23.936  1.00  0.00     0.328 C 
ATOM      5  O   UNL A   1      33.597  29.254  22.947  1.00  0.00    -0.250 OA
BRANCH   4   6
ATOM      6  C   UNL A   1      31.485  28.061  23.943  1.00  0.00     0.194 C 
BRANCH   6   7
ATOM      7  N   UNL A   1      31.026  27.878  25.361  1.00  0.00    -0.341 N 
ATOM      8  C   UNL A   1      30.706  26.757  26.075  1.00  0.00     0.240 C 
ATOM      9  O   UNL A   1      30.978  26.747  27.280  1.00  0.00    -0.273 OA
ATOM     10  H   UNL A   1      30.940  28.717  25.869  1.00  0.00     0.164 HD
BRANCH   8  11
ATOM     11  C   UNL A   1      30.173  25.500  25.419  1.00  0.00     0.216 C 
BRANCH  11  12
ATOM     12  N   UNL A   1      29.576  24.649  26.396  1.00  0.00    -0.347 N 
ATOM     13  C   UNL A   1      29.913  23.388  26.685  1.00  0.00     0.225 C 
ATOM     14  O   UNL A   1      29.424  22.918  27.718  1.00  0.00    -0.275 OA
ATOM     15  H   UNL A   1      28.833  25.033  26.914  1.00  0.00     0.164 HD
BRANCH  13  16
ATOM     16  C   UNL A   1      30.869  22.565  25.791  1.00  0.00     0.143 C 
BRANCH  16  17
ATOM     17  C   UNL A   1      32.448  22.572  25.718  1.00  0.00     0.051 A 
ATOM     18  C   UNL A   1      39.708  24.730  26.983  1.00  0.00     0.048 C 
ATOM     19  C   UNL A   1      39.285  23.424  26.419  1.00  0.00    -0.005 A 
ATOM     20  C   UNL A   1      40.118  22.402  26.022  1.00  0.00     0.199 A 
ATOM     21  C   UNL A   1      37.940  22.968  26.175  1.00  0.00     0.024 A 
ATOM     22  O   UNL A   1      39.408  21.338  25.589  1.00  0.00    -0.464 OA
ATOM     23  C   UNL A   1      38.079  21.647  25.676  1.00  0.00     0.140 A 
ATOM     24  C   UNL A   1      36.670  23.626  26.355  1.00  0.00     0.024 A 
ATOM     25  C   UNL A   1      37.084  20.716  25.319  1.00  0.00     0.036 A 
ATOM     26  C   UNL A   1      35.540  22.906  26.031  1.00  0.00     0.022 A 
ATOM     27  C   UNL A   1      37.275  19.334  24.824  1.00  0.00     0.052 C 
ATOM     28  C   UNL A   1      35.872  21.321  25.553  1.00  0.00     0.145 A 
ATOM     29  C   UNL A   1      33.766  23.591  25.935  1.00  0.00    -0.029 A 
ATOM     30  O   UNL A   1      34.426  20.265  25.309  1.00  0.00    -0.422 OA
ATOM     31  C   UNL A   1      33.999  25.101  26.041  1.00  0.00     0.046 C 
ATOM     32  C   UNL A   1      32.731  20.722  25.181  1.00  0.00     0.340 A 
ATOM     33  O   UNL A   1      31.870  19.931  24.827  1.00  0.00    -0.246 OA
ENDBRANCH  16  17
ENDBRANCH  13  16
ENDBRANCH  11  12
ENDBRANCH   8  11
ENDBRANCH   6   7
BRANCH   6  34
ATOM     34  C   UNL A   1      29.910  28.326  22.917  1.00  0.00     0.017 C 
ATOM     35  C   UNL A   1      27.874  27.786  23.445  1.00  0.00     0.010 C 
ATOM     36  C   UNL A   1      30.471  29.692  22.062  1.00  0.00     0.010 C 
ENDBRANCH   6  34
ENDBRANCH   4   6
ENDBRANCH   3   4
ENDBRANCH   2   3
ENDBRANCH   1   2
BRANCH   1  37
ATOM     37  O   UNL A   1      32.974  31.338  27.791  1.00  0.00    -0.374 OA
BRANCH  37  38
ATOM     38  C   UNL A   1      33.563  32.647  27.657  1.00  0.00     0.202 C 
BRANCH  38  39
ATOM     39  C   UNL A   1      34.972  33.055  28.120  1.00  0.00     0.261 C 
BRANCH  39  40
ATOM     40  O   UNL A   1      35.202  32.468  29.367  1.00  0.00    -0.460 OA
BRANCH  40  41
ATOM     41  C   UNL A   1      36.225  31.609  29.167  1.00  0.00     0.338 C 
ATOM     42  O   UNL A   1      36.606  31.198  28.082  1.00  0.00    -0.246 OA
BRANCH  41  43
ATOM     43  C   UNL A   1      36.863  31.327  30.470  1.00  0.00     0.060 A 
ATOM     44  C   UNL A   1      38.050  32.020  30.521  1.00  0.00     0.016 A 
ATOM     45  C   UNL A   1      36.724  30.023  30.975  1.00  0.00     0.016 A 
ATOM     46  C   UNL A   1      39.137  31.220  30.353  1.00  0.00     0.010 A 
ATOM     47  C   UNL A   1      37.841  29.238  30.980  1.00  0.00     0.010 A 
ATOM     48  C   UNL A   1      38.995  29.821  30.488  1.00  0.00    -0.014 A 
BRANCH  48  49
ATOM     49  C   UNL A   1      40.191  29.031  30.348  1.00  0.00     0.031 A 
ATOM     50  C   UNL A   1      40.768  28.883  31.696  1.00  0.00     0.074 A 
ATOM     51  C   UNL A   1      40.690  28.558  29.192  1.00  0.00     0.049 A 
ATOM     52  N   UNL A   1      41.660  29.672  32.193  1.00  0.00    -0.248 NA
ATOM     53  C   UNL A   1      40.031  28.104  32.703  1.00  0.00     0.031 C 
ATOM     54  C   UNL A   1      40.111  28.546  27.846  1.00  0.00     0.029 A 
ATOM     55  N   UNL A   1      41.889  27.937  29.010  1.00  0.00    -0.354 N 
ATOM     56  C   UNL A   1      41.805  29.271  33.506  1.00  0.00     0.074 A 
ATOM     57  C   UNL A   1      40.627  28.509  33.827  1.00  0.00     0.031 C 
ATOM     58  C   UNL A   1      40.853  27.743  27.039  1.00  0.00     0.029 A 
ATOM     59  C   UNL A   1      42.041  27.322  27.764  1.00  0.00     0.049 A 
ATOM     60  H   UNL A   1      42.591  27.922  29.699  1.00  0.00     0.167 HD
ATOM     61  C   UNL A   1      43.043  29.293  34.060  1.00  0.00     0.037 A 
ATOM     62  C   UNL A   1      43.112  26.573  27.382  1.00  0.00     0.037 A 
ATOM     63  C   UNL A   1      43.936  30.111  33.273  1.00  0.00     0.049 A 
ATOM     64  C   UNL A   1      44.241  27.034  28.230  1.00  0.00     0.074 A 
ATOM     65  C   UNL A   1      44.134  31.463  33.080  1.00  0.00     0.029 A 
ATOM     66  N   UNL A   1      44.434  29.465  32.167  1.00  0.00    -0.354 N 
ATOM     67  N   UNL A   1      44.760  28.226  28.128  1.00  0.00    -0.248 NA
ATOM     68  C   UNL A   1      44.510  26.337  29.483  1.00  0.00     0.031 C 
ATOM     69  C   UNL A   1      44.612  31.609  31.742  1.00  0.00     0.029 A 
ATOM     70  C   UNL A   1      44.765  30.347  31.173  1.00  0.00     0.049 A 
ATOM     71  H   UNL A   1      44.539  28.489  32.097  1.00  0.00     0.167 HD
ATOM     72  C   UNL A   1      45.052  28.592  29.429  1.00  0.00     0.074 A 
ATOM     73  C   UNL A   1      45.017  27.348  30.195  1.00  0.00     0.031 C 
ATOM     74  C   UNL A   1      44.984  29.900  29.814  1.00  0.00     0.037 A 
BRANCH  61  75
ATOM     75  C   UNL A   1      43.544  28.177  34.936  1.00  0.00     0.058 A 
ATOM     76  C   UNL A   1      44.028  28.472  36.221  1.00  0.00     0.135 A 
ATOM     77  C   UNL A   1      43.815  26.870  34.464  1.00  0.00     0.135 A 
ATOM     78  F   UNL A   1      43.871  29.699  36.742  1.00  0.00    -0.206 F 
ATOM     79  C   UNL A   1      44.733  27.536  36.980  1.00  0.00     0.059 A 
ATOM     80  C   UNL A   1      44.460  25.907  35.222  1.00  0.00     0.059 A 
ATOM     81  F   UNL A   1      43.556  26.488  33.208  1.00  0.00    -0.206 F 
ATOM     82  C   UNL A   1      44.935  26.254  36.473  1.00  0.00     0.060 A 
BRANCH  82  83
ATOM     83  S   UNL A   1      45.850  25.046  37.442  1.00  0.00     0.124 S 
ATOM     84  O   UNL A   1      46.755  25.901  38.201  1.00  0.00    -0.237 OA
ATOM     85  O   UNL A   1      44.781  24.406  38.200  1.00  0.00    -0.237 OA
ATOM     86  O   UNL A   1      46.478  24.206  36.426  1.00  0.00    -0.744 OA
ENDBRANCH  82  83
ENDBRANCH  61  75
BRANCH  62  87
ATOM     87  C   UNL A   1      43.164  25.244  26.707  1.00  0.00     0.058 A 
ATOM     88  C   UNL A   1      43.547  25.138  25.352  1.00  0.00     0.135 A 
ATOM     89  C   UNL A   1      43.196  24.051  27.449  1.00  0.00     0.135 A 
ATOM     90  F   UNL A   1      43.554  26.227  24.568  1.00  0.00    -0.206 F 
ATOM     91  C   UNL A   1      44.013  23.941  24.791  1.00  0.00     0.059 A 
ATOM     92  C   UNL A   1      43.658  22.845  26.913  1.00  0.00     0.059 A 
ATOM     93  F   UNL A   1      42.875  24.050  28.753  1.00  0.00    -0.206 F 
ATOM     94  C   UNL A   1      44.097  22.804  25.591  1.00  0.00     0.060 A 
BRANCH  94  95
ATOM     95  S   UNL A   1      44.887  21.311  24.934  1.00  0.00     0.124 S 
ATOM     96  O   UNL A   1      44.604  21.418  23.507  1.00  0.00    -0.237 OA
ATOM     97  O   UNL A   1      46.281  21.504  25.321  1.00  0.00    -0.237 OA
ATOM     98  O   UNL A   1      44.195  20.227  25.627  1.00  0.00    -0.744 OA
ENDBRANCH  94  95
ENDBRANCH  62  87
BRANCH  74  99
ATOM     99  C   UNL A   1      45.073  30.940  28.735  1.00  0.00     0.058 A 
ATOM    100  C   UNL A   1      46.253  31.372  28.103  1.00  0.00     0.135 A 
ATOM    101  C   UNL A   1      43.862  31.471  28.270  1.00  0.00     0.135 A 
ATOM    102  F   UNL A   1      47.445  30.857  28.446  1.00  0.00    -0.206 F 
ATOM    103  C   UNL A   1      46.225  32.319  27.074  1.00  0.00     0.059 A 
ATOM    104  C   UNL A   1      43.808  32.391  27.233  1.00  0.00     0.059 A 
ATOM    105  F   UNL A   1      42.701  31.062  28.808  1.00  0.00    -0.206 F 
ATOM    106  C   UNL A   1      44.994  32.825  26.649  1.00  0.00     0.060 A 
BRANCH 106 107
ATOM    107  S   UNL A   1      44.938  34.034  25.307  1.00  0.00     0.124 S 
ATOM    108  O   UNL A   1      44.421  33.242  24.197  1.00  0.00    -0.237 OA
ATOM    109  O   UNL A   1      44.033  35.051  25.837  1.00  0.00    -0.237 OA
ATOM    110  O   UNL A   1      46.329  34.460  25.172  1.00  0.00    -0.744 OA
ENDBRANCH 106 107
ENDBRANCH  74  99
ENDBRANCH  48  49
ENDBRANCH  41  43
ENDBRANCH  40  41
ENDBRANCH  39  40
ENDBRANCH  38  39
ENDBRANCH  37  38
ENDBRANCH   1  37
TORSDOF 23
ENDMDL
MODEL 2
REMARK VINA RESULT:     -11.5      4.346      9.580
REMARK SMILES Cc1coc2c(C)c3oc(=O)c(CC(=O)NCC(=O)N[C@H](C(=O)OCCOCCOC(=O)c4ccc(-c5c6nc(c(-c7c(F)cc(S(=O)(=O)[O-])cc7F)c7ccc([nH]7)c(-c7c(F)cc(S(=O)(=O)[O-])cc7F)c7nc(c(-c8c(F)cc(S(=O)(=O)[O-])cc8F)c8ccc5[nH]8)C=C7)C=C6)cc4)C(C)C)c(C)c3cc12
REMARK SMILES IDX 26 1 25 2 24 3 22 4 23 5 21 6 20 7 18 8 19 9 17 11 16 12
REMARK SMILES IDX 14 13 15 14 13 16 12 17 1 18 2 19 3 20 106 21 4 22 5 23
REMARK SMILES IDX 105 24 6 25 104 26 7 27 8 28 102 29 9 30 103 31 10 32 11 33
REMARK SMILES IDX 99 34 100 35 101 36 27 37 28 38 29 39 30 40 31 41 32 42
REMARK SMILES IDX 33 43 34 44 98 45 35 46 97 47 36 48 37 49 38 50 91 51 39 52
REMARK SMILES IDX 96 53 90 54 92 55 40 56 95 57 89 58 88 59 41 61 75 62 54 63
REMARK SMILES IDX 74 64 55 65 58 66 73 67 93 68 56 69 57 70 72 72 94 73 59 74
REMARK SMILES IDX 42 75 43 76 52 77 44 78 45 79 51 80 53 81 46 82 47 83 48 84
REMARK SMILES IDX 49 85 50 86 76 87 77 88 86 89 78 90 79 91 85 92 87 93 80 94
REMARK SMILES IDX 81 95 82 96 83 97 84 98 60 99 61 100 70 101 62 102 63 103
REMARK SMILES IDX 69 104 71 105 64 106 65 107 66 108 67 109 68 110
REMARK H PARENT 20 10 16 15 92 60 58 71
REMARK Flexibility Score: inf
ROOT
ATOM      1  C   UNL A   1      32.386  31.186  26.610  1.00  0.00     0.202 C 
ENDROOT
BRANCH   1   2
ATOM      2  C   UNL A   1      33.624  30.172  26.819  1.00  0.00     0.261 C 
BRANCH   2   3
ATOM      3  O   UNL A   1      33.848  29.178  25.734  1.00  0.00    -0.462 OA
BRANCH   3   4
ATOM      4  C   UNL A   1      33.301  29.012  24.478  1.00  0.00     0.328 C 
ATOM      5  O   UNL A   1      33.947  29.225  23.455  1.00  0.00    -0.250 OA
BRANCH   4   6
ATOM      6  C   UNL A   1      31.609  28.511  24.404  1.00  0.00     0.194 C 
BRANCH   6   7
ATOM      7  N   UNL A   1      31.226  27.850  25.698  1.00  0.00    -0.341 N 
ATOM      8  C   UNL A   1      31.009  26.539  26.020  1.00  0.00     0.240 C 
ATOM      9  O   UNL A   1      31.336  26.165  27.150  1.00  0.00    -0.273 OA
ATOM     10  H   UNL A   1      31.111  28.474  26.450  1.00  0.00     0.164 HD
BRANCH   8  11
ATOM     11  C   UNL A   1      30.527  25.522  25.006  1.00  0.00     0.216 C 
BRANCH  11  12
ATOM     12  N   UNL A   1      29.954  24.398  25.669  1.00  0.00    -0.347 N 
ATOM     13  C   UNL A   1      30.417  23.144  25.686  1.00  0.00     0.225 C 
ATOM     14  O   UNL A   1      29.898  22.383  26.508  1.00  0.00    -0.275 OA
ATOM     15  H   UNL A   1      29.124  24.563  26.171  1.00  0.00     0.164 HD
BRANCH  13  16
ATOM     16  C   UNL A   1      31.548  22.671  24.742  1.00  0.00     0.143 C 
BRANCH  16  17
ATOM     17  C   UNL A   1      33.116  22.727  24.929  1.00  0.00     0.051 A 
ATOM     18  C   UNL A   1      40.001  25.127  27.337  1.00  0.00     0.048 C 
ATOM     19  C   UNL A   1      39.715  23.802  26.733  1.00  0.00    -0.005 A 
ATOM     20  C   UNL A   1      40.632  22.802  26.495  1.00  0.00     0.199 A 
ATOM     21  C   UNL A   1      38.443  23.301  26.279  1.00  0.00     0.024 A 
ATOM     22  O   UNL A   1      40.035  21.711  25.968  1.00  0.00    -0.464 OA
ATOM     23  C   UNL A   1      38.701  21.979  25.831  1.00  0.00     0.140 A 
ATOM     24  C   UNL A   1      37.142  23.921  26.236  1.00  0.00     0.024 A 
ATOM     25  C   UNL A   1      37.806  21.014  25.330  1.00  0.00     0.036 A 
ATOM     26  C   UNL A   1      36.102  23.162  25.742  1.00  0.00     0.022 A 
ATOM     27  C   UNL A   1      38.117  19.633  24.895  1.00  0.00     0.052 C 
ATOM     28  C   UNL A   1      36.555  21.583  25.351  1.00  0.00     0.145 A 
ATOM     29  C   UNL A   1      34.349  23.789  25.344  1.00  0.00    -0.029 A 
ATOM     30  O   UNL A   1      35.201  20.479  24.889  1.00  0.00    -0.422 OA
ATOM     31  C   UNL A   1      34.518  25.307  25.462  1.00  0.00     0.046 C 
ATOM     32  C   UNL A   1      33.538  20.881  24.477  1.00  0.00     0.340 A 
ATOM     33  O   UNL A   1      32.770  20.059  23.999  1.00  0.00    -0.246 OA
ENDBRANCH  16  17
ENDBRANCH  13  16
ENDBRANCH  11  12
ENDBRANCH   8  11
ENDBRANCH   6   7
BRANCH   6  34
ATOM     34  C   UNL A   1      29.998  29.210  23.682  1.00  0.00     0.017 C 
ATOM     35  C   UNL A   1      29.208  31.221  23.899  1.00  0.00     0.010 C 
ATOM     36  C   UNL A   1      29.932  28.170  22.331  1.00  0.00     0.010 C 
ENDBRANCH   6  34
ENDBRANCH   4   6
ENDBRANCH   3   4
ENDBRANCH   2   3
ENDBRANCH   1   2
BRANCH   1  37
ATOM     37  O   UNL A   1      32.128  32.296  27.526  1.00  0.00    -0.374 OA
BRANCH  37  38
ATOM     38  C   UNL A   1      33.116  33.345  27.559  1.00  0.00     0.202 C 
BRANCH  38  39
ATOM     39  C   UNL A   1      34.159  33.568  28.668  1.00  0.00     0.261 C 
BRANCH  39  40
ATOM     40  O   UNL A   1      34.046  32.517  29.582  1.00  0.00    -0.460 OA
BRANCH  40  41
ATOM     41  C   UNL A   1      35.303  32.045  29.731  1.00  0.00     0.338 C 
ATOM     42  O   UNL A   1      36.160  32.020  28.863  1.00  0.00    -0.246 OA
BRANCH  41  43
ATOM     43  C   UNL A   1      35.493  31.654  31.145  1.00  0.00     0.060 A 
ATOM     44  C   UNL A   1      35.326  32.777  31.922  1.00  0.00     0.016 A 
ATOM     45  C   UNL A   1      36.479  30.689  31.408  1.00  0.00     0.016 A 
ATOM     46  C   UNL A   1      36.501  33.271  32.396  1.00  0.00     0.010 A 
ATOM     47  C   UNL A   1      37.612  31.116  32.040  1.00  0.00     0.010 A 
ATOM     48  C   UNL A   1      37.659  32.462  32.356  1.00  0.00    -0.014 A 
BRANCH  48  49
ATOM     49  C   UNL A   1      38.861  33.022  32.918  1.00  0.00     0.031 A 
ATOM     50  C   UNL A   1      39.707  33.445  31.789  1.00  0.00     0.074 A 
ATOM     51  C   UNL A   1      39.154  33.100  34.229  1.00  0.00     0.049 A 
ATOM     52  N   UNL A   1      40.615  32.707  31.246  1.00  0.00    -0.248 NA
ATOM     53  C   UNL A   1      39.250  34.555  30.936  1.00  0.00     0.031 C 
ATOM     54  C   UNL A   1      38.320  32.828  35.403  1.00  0.00     0.029 A 
ATOM     55  N   UNL A   1      40.337  33.486  34.783  1.00  0.00    -0.354 N 
ATOM     56  C   UNL A   1      41.051  33.421  30.148  1.00  0.00     0.074 A 
ATOM     57  C   UNL A   1      40.026  34.389  29.862  1.00  0.00     0.031 C 
ATOM     58  C   UNL A   1      38.946  33.283  36.520  1.00  0.00     0.029 A 
ATOM     59  C   UNL A   1      40.285  33.721  36.160  1.00  0.00     0.049 A 
ATOM     60  H   UNL A   1      41.162  33.591  34.257  1.00  0.00     0.167 HD
ATOM     61  C   UNL A   1      42.370  33.384  29.829  1.00  0.00     0.037 A 
ATOM     62  C   UNL A   1      41.313  34.194  36.917  1.00  0.00     0.037 A 
ATOM     63  C   UNL A   1      43.019  32.276  30.489  1.00  0.00     0.049 A 
ATOM     64  C   UNL A   1      42.550  33.830  36.178  1.00  0.00     0.074 A 
ATOM     65  C   UNL A   1      43.068  30.907  30.318  1.00  0.00     0.029 A 
ATOM     66  N   UNL A   1      43.335  32.532  31.802  1.00  0.00    -0.354 N 
ATOM     67  N   UNL A   1      42.941  32.596  36.020  1.00  0.00    -0.248 NA
ATOM     68  C   UNL A   1      43.117  34.794  35.242  1.00  0.00     0.031 C 
ATOM     69  C   UNL A   1      43.255  30.348  31.619  1.00  0.00     0.029 A 
ATOM     70  C   UNL A   1      43.389  31.382  32.543  1.00  0.00     0.049 A 
ATOM     71  H   UNL A   1      43.500  33.432  32.165  1.00  0.00     0.167 HD
ATOM     72  C   UNL A   1      43.459  32.555  34.739  1.00  0.00     0.074 A 
ATOM     73  C   UNL A   1      43.676  33.951  34.367  1.00  0.00     0.031 C 
ATOM     74  C   UNL A   1      43.366  31.418  33.989  1.00  0.00     0.037 A 
BRANCH  61  75
ATOM     75  C   UNL A   1      43.122  34.618  29.409  1.00  0.00     0.058 A 
ATOM     76  C   UNL A   1      43.186  35.717  30.282  1.00  0.00     0.135 A 
ATOM     77  C   UNL A   1      43.552  34.862  28.083  1.00  0.00     0.135 A 
ATOM     78  F   UNL A   1      42.754  35.608  31.547  1.00  0.00    -0.206 F 
ATOM     79  C   UNL A   1      43.643  36.968  29.864  1.00  0.00     0.059 A 
ATOM     80  C   UNL A   1      44.063  36.078  27.662  1.00  0.00     0.059 A 
ATOM     81  F   UNL A   1      43.408  33.964  27.101  1.00  0.00    -0.206 F 
ATOM     82  C   UNL A   1      44.087  37.134  28.553  1.00  0.00     0.060 A 
BRANCH  82  83
ATOM     83  S   UNL A   1      44.667  38.746  28.006  1.00  0.00     0.124 S 
ATOM     84  O   UNL A   1      44.576  39.526  29.234  1.00  0.00    -0.237 OA
ATOM     85  O   UNL A   1      46.014  38.431  27.542  1.00  0.00    -0.237 OA
ATOM     86  O   UNL A   1      43.719  39.106  26.956  1.00  0.00    -0.744 OA
ENDBRANCH  82  83
ENDBRANCH  61  75
BRANCH  62  87
ATOM     87  C   UNL A   1      41.333  35.275  37.943  1.00  0.00     0.058 A 
ATOM     88  C   UNL A   1      40.392  36.327  37.901  1.00  0.00     0.135 A 
ATOM     89  C   UNL A   1      42.016  35.111  39.160  1.00  0.00     0.135 A 
ATOM     90  F   UNL A   1      39.686  36.554  36.782  1.00  0.00    -0.206 F 
ATOM     91  C   UNL A   1      40.086  37.112  39.021  1.00  0.00     0.059 A 
ATOM     92  C   UNL A   1      41.728  35.881  40.292  1.00  0.00     0.059 A 
ATOM     93  F   UNL A   1      42.912  34.123  39.311  1.00  0.00    -0.206 F 
ATOM     94  C   UNL A   1      40.738  36.859  40.225  1.00  0.00     0.060 A 
BRANCH  94  95
ATOM     95  S   UNL A   1      40.206  37.727  41.725  1.00  0.00     0.124 S 
ATOM     96  O   UNL A   1      41.415  37.701  42.540  1.00  0.00    -0.237 OA
ATOM     97  O   UNL A   1      39.820  39.035  41.203  1.00  0.00    -0.237 OA
ATOM     98  O   UNL A   1      39.103  36.906  42.219  1.00  0.00    -0.744 OA
ENDBRANCH  94  95
ENDBRANCH  62  87
BRANCH  74  99
ATOM     99  C   UNL A   1      43.155  30.126  34.724  1.00  0.00     0.058 A 
ATOM    100  C   UNL A   1      44.157  29.354  35.339  1.00  0.00     0.135 A 
ATOM    101  C   UNL A   1      41.830  29.692  34.868  1.00  0.00     0.135 A 
ATOM    102  F   UNL A   1      45.442  29.743  35.304  1.00  0.00    -0.206 F 
ATOM    103  C   UNL A   1      43.851  28.183  36.039  1.00  0.00     0.059 A 
ATOM    104  C   UNL A   1      41.500  28.548  35.580  1.00  0.00     0.059 A 
ATOM    105  F   UNL A   1      40.827  30.413  34.338  1.00  0.00    -0.206 F 
ATOM    106  C   UNL A   1      42.515  27.787  36.151  1.00  0.00     0.060 A 
BRANCH 106 107
ATOM    107  S   UNL A   1      42.100  26.287  37.068  1.00  0.00     0.124 S 
ATOM    108  O   UNL A   1      40.681  26.478  37.347  1.00  0.00    -0.237 OA
ATOM    109  O   UNL A   1      42.423  25.232  36.110  1.00  0.00    -0.237 OA
ATOM    110  O   UNL A   1      42.976  26.346  38.236  1.00  0.00    -0.744 OA
ENDBRANCH 106 107
ENDBRANCH  74  99
ENDBRANCH  48  49
ENDBRANCH  41  43
ENDBRANCH  40  41
ENDBRANCH  39  40
ENDBRANCH  38  39
ENDBRANCH  37  38
ENDBRANCH   1  37
TORSDOF 23
ENDMDL
MODEL 3
REMARK VINA RESULT:     -10.9      4.549     10.902
REMARK SMILES Cc1coc2c(C)c3oc(=O)c(CC(=O)NCC(=O)N[C@H](C(=O)OCCOCCOC(=O)c4ccc(-c5c6nc(c(-c7c(F)cc(S(=O)(=O)[O-])cc7F)c7ccc([nH]7)c(-c7c(F)cc(S(=O)(=O)[O-])cc7F)c7nc(c(-c8c(F)cc(S(=O)(=O)[O-])cc8F)c8ccc5[nH]8)C=C7)C=C6)cc4)C(C)C)c(C)c3cc12
REMARK SMILES IDX 26 1 25 2 24 3 22 4 23 5 21 6 20 7 18 8 19 9 17 11 16 12
REMARK SMILES IDX 14 13 15 14 13 16 12 17 1 18 2 19 3 20 106 21 4 22 5 23
REMARK SMILES IDX 105 24 6 25 104 26 7 27 8 28 102 29 9 30 103 31 10 32 11 33
REMARK SMILES IDX 99 34 100 35 101 36 27 37 28 38 29 39 30 40 31 41 32 42
REMARK SMILES IDX 33 43 34 44 98 45 35 46 97 47 36 48 37 49 38 50 91 51 39 52
REMARK SMILES IDX 96 53 90 54 92 55 40 56 95 57 89 58 88 59 41 61 75 62 54 63
REMARK SMILES IDX 74 64 55 65 58 66 73 67 93 68 56 69 57 70 72 72 94 73 59 74
REMARK SMILES IDX 42 75 43 76 52 77 44 78 45 79 51 80 53 81 46 82 47 83 48 84
REMARK SMILES IDX 49 85 50 86 76 87 77 88 86 89 78 90 79 91 85 92 87 93 80 94
REMARK SMILES IDX 81 95 82 96 83 97 84 98 60 99 61 100 70 101 62 102 63 103
REMARK SMILES IDX 69 104 71 105 64 106 65 107 66 108 67 109 68 110
REMARK H PARENT 20 10 16 15 92 60 58 71
REMARK Flexibility Score: inf
ROOT
ATOM      1  C   UNL A   1      39.165  28.189  28.169  1.00  0.00     0.202 C 
ENDROOT
BRANCH   1   2
ATOM      2  C   UNL A   1      39.922  27.169  29.164  1.00  0.00     0.261 C 
BRANCH   2   3
ATOM      3  O   UNL A   1      41.131  26.495  28.618  1.00  0.00    -0.462 OA
BRANCH   3   4
ATOM      4  C   UNL A   1      42.345  26.963  28.157  1.00  0.00     0.328 C 
ATOM      5  O   UNL A   1      42.549  28.158  27.960  1.00  0.00    -0.250 OA
BRANCH   4   6
ATOM      6  C   UNL A   1      43.592  25.756  27.826  1.00  0.00     0.194 C 
BRANCH   6   7
ATOM      7  N   UNL A   1      43.721  24.834  29.005  1.00  0.00    -0.341 N 
ATOM      8  C   UNL A   1      43.341  23.534  29.189  1.00  0.00     0.240 C 
ATOM      9  O   UNL A   1      44.058  22.821  29.896  1.00  0.00    -0.273 OA
ATOM     10  H   UNL A   1      44.160  25.239  29.788  1.00  0.00     0.164 HD
BRANCH   8  11
ATOM     11  C   UNL A   1      42.172  22.917  28.448  1.00  0.00     0.216 C 
BRANCH  11  12
ATOM     12  N   UNL A   1      42.317  21.500  28.390  1.00  0.00    -0.347 N 
ATOM     13  C   UNL A   1      42.008  20.695  27.368  1.00  0.00     0.225 C 
ATOM     14  O   UNL A   1      42.430  19.537  27.442  1.00  0.00    -0.275 OA
ATOM     15  H   UNL A   1      42.687  21.065  29.192  1.00  0.00     0.164 HD
BRANCH  13  16
ATOM     16  C   UNL A   1      41.183  21.184  26.155  1.00  0.00     0.143 C 
BRANCH  16  17
ATOM     17  C   UNL A   1      39.678  21.660  26.077  1.00  0.00     0.051 A 
ATOM     18  C   UNL A   1      33.627  26.351  25.485  1.00  0.00     0.048 C 
ATOM     19  C   UNL A   1      33.594  24.878  25.311  1.00  0.00    -0.005 A 
ATOM     20  C   UNL A   1      32.480  24.118  25.030  1.00  0.00     0.199 A 
ATOM     21  C   UNL A   1      34.700  23.958  25.398  1.00  0.00     0.024 A 
ATOM     22  O   UNL A   1      32.803  22.813  24.899  1.00  0.00    -0.464 OA
ATOM     23  C   UNL A   1      34.148  22.683  25.109  1.00  0.00     0.140 A 
ATOM     24  C   UNL A   1      36.090  24.177  25.710  1.00  0.00     0.024 A 
ATOM     25  C   UNL A   1      34.789  21.433  25.010  1.00  0.00     0.036 A 
ATOM     26  C   UNL A   1      36.914  23.071  25.706  1.00  0.00     0.022 A 
ATOM     27  C   UNL A   1      34.175  20.126  24.681  1.00  0.00     0.052 C 
ATOM     28  C   UNL A   1      36.126  21.652  25.242  1.00  0.00     0.145 A 
ATOM     29  C   UNL A   1      38.719  23.019  26.311  1.00  0.00    -0.029 A 
ATOM     30  O   UNL A   1      37.191  20.209  25.023  1.00  0.00    -0.422 OA
ATOM     31  C   UNL A   1      38.866  24.380  26.998  1.00  0.00     0.046 C 
ATOM     32  C   UNL A   1      38.862  19.980  25.527  1.00  0.00     0.340 A 
ATOM     33  O   UNL A   1      39.409  18.888  25.487  1.00  0.00    -0.246 OA
ENDBRANCH  16  17
ENDBRANCH  13  16
ENDBRANCH  11  12
ENDBRANCH   8  11
ENDBRANCH   6   7
BRANCH   6  34
ATOM     34  C   UNL A   1      44.172  24.756  26.321  1.00  0.00     0.017 C 
ATOM     35  C   UNL A   1      45.598  23.119  26.281  1.00  0.00     0.010 C 
ATOM     36  C   UNL A   1      42.750  24.964  25.399  1.00  0.00     0.010 C 
ENDBRANCH   6  34
ENDBRANCH   4   6
ENDBRANCH   3   4
ENDBRANCH   2   3
ENDBRANCH   1   2
BRANCH   1  37
ATOM     37  O   UNL A   1      37.943  28.891  28.557  1.00  0.00    -0.374 OA
BRANCH  37  38
ATOM     38  C   UNL A   1      37.486  29.926  27.663  1.00  0.00     0.202 C 
BRANCH  38  39
ATOM     39  C   UNL A   1      36.219  30.779  27.843  1.00  0.00     0.261 C 
BRANCH  39  40
ATOM     40  O   UNL A   1      36.463  31.705  28.862  1.00  0.00    -0.460 OA
BRANCH  40  41
ATOM     41  C   UNL A   1      35.257  31.936  29.423  1.00  0.00     0.338 C 
ATOM     42  O   UNL A   1      34.255  32.303  28.830  1.00  0.00    -0.246 OA
BRANCH  41  43
ATOM     43  C   UNL A   1      35.330  31.577  30.856  1.00  0.00     0.060 A 
ATOM     44  C   UNL A   1      35.132  32.723  31.590  1.00  0.00     0.016 A 
ATOM     45  C   UNL A   1      36.269  30.597  31.217  1.00  0.00     0.016 A 
ATOM     46  C   UNL A   1      36.280  33.203  32.141  1.00  0.00     0.010 A 
ATOM     47  C   UNL A   1      37.361  31.014  31.923  1.00  0.00     0.010 A 
ATOM     48  C   UNL A   1      37.417  32.367  32.209  1.00  0.00    -0.014 A 
BRANCH  48  49
ATOM     49  C   UNL A   1      38.587  32.913  32.848  1.00  0.00     0.031 A 
ATOM     50  C   UNL A   1      39.443  33.460  31.781  1.00  0.00     0.074 A 
ATOM     51  C   UNL A   1      38.847  32.885  34.167  1.00  0.00     0.049 A 
ATOM     52  N   UNL A   1      40.387  32.801  31.199  1.00  0.00    -0.248 NA
ATOM     53  C   UNL A   1      38.968  34.625  31.016  1.00  0.00     0.031 C 
ATOM     54  C   UNL A   1      37.998  32.486  35.292  1.00  0.00     0.029 A 
ATOM     55  N   UNL A   1      40.004  33.259  34.782  1.00  0.00    -0.354 N 
ATOM     56  C   UNL A   1      40.823  33.622  30.178  1.00  0.00     0.074 A 
ATOM     57  C   UNL A   1      39.772  34.578  29.952  1.00  0.00     0.031 C 
ATOM     58  C   UNL A   1      38.583  32.861  36.460  1.00  0.00     0.029 A 
ATOM     59  C   UNL A   1      39.914  33.371  36.172  1.00  0.00     0.049 A 
ATOM     60  H   UNL A   1      40.837  33.435  34.288  1.00  0.00     0.167 HD
ATOM     61  C   UNL A   1      42.149  33.655  29.891  1.00  0.00     0.037 A 
ATOM     62  C   UNL A   1      40.909  33.808  36.993  1.00  0.00     0.037 A 
ATOM     63  C   UNL A   1      42.820  32.514  30.469  1.00  0.00     0.049 A 
ATOM     64  C   UNL A   1      42.173  33.550  36.256  1.00  0.00     0.074 A 
ATOM     65  C   UNL A   1      42.919  31.168  30.180  1.00  0.00     0.029 A 
ATOM     66  N   UNL A   1      43.098  32.665  31.806  1.00  0.00    -0.354 N 
ATOM     67  N   UNL A   1      42.609  32.347  36.003  1.00  0.00    -0.248 NA
ATOM     68  C   UNL A   1      42.728  34.609  35.422  1.00  0.00     0.031 C 
ATOM     69  C   UNL A   1      43.096  30.504  31.432  1.00  0.00     0.029 A 
ATOM     70  C   UNL A   1      43.175  31.457  32.445  1.00  0.00     0.049 A 
ATOM     71  H   UNL A   1      43.225  33.534  32.250  1.00  0.00     0.167 HD
ATOM     72  C   UNL A   1      43.156  32.435  34.736  1.00  0.00     0.074 A 
ATOM     73  C   UNL A   1      43.334  33.865  34.492  1.00  0.00     0.031 C 
ATOM     74  C   UNL A   1      43.119  31.365  33.889  1.00  0.00     0.037 A 
BRANCH  61  75
ATOM     75  C   UNL A   1      42.868  34.943  29.598  1.00  0.00     0.058 A 
ATOM     76  C   UNL A   1      43.493  35.117  28.352  1.00  0.00     0.135 A 
ATOM     77  C   UNL A   1      43.196  35.902  30.586  1.00  0.00     0.135 A 
ATOM     78  F   UNL A   1      43.293  34.234  27.361  1.00  0.00    -0.206 F 
ATOM     79  C   UNL A   1      44.381  36.166  28.108  1.00  0.00     0.059 A 
ATOM     80  C   UNL A   1      44.027  36.984  30.349  1.00  0.00     0.059 A 
ATOM     81  F   UNL A   1      42.805  35.787  31.861  1.00  0.00    -0.206 F 
ATOM     82  C   UNL A   1      44.633  37.099  29.112  1.00  0.00     0.060 A 
BRANCH  82  83
ATOM     83  S   UNL A   1      45.783  38.448  28.808  1.00  0.00     0.124 S 
ATOM     84  O   UNL A   1      45.280  38.987  27.550  1.00  0.00    -0.237 OA
ATOM     85  O   UNL A   1      45.583  39.278  29.991  1.00  0.00    -0.237 OA
ATOM     86  O   UNL A   1      47.077  37.776  28.734  1.00  0.00    -0.744 OA
ENDBRANCH  82  83
ENDBRANCH  61  75
BRANCH  62  87
ATOM     87  C   UNL A   1      40.869  34.797  38.109  1.00  0.00     0.058 A 
ATOM     88  C   UNL A   1      41.587  34.566  39.302  1.00  0.00     0.135 A 
ATOM     89  C   UNL A   1      40.440  36.118  37.896  1.00  0.00     0.135 A 
ATOM     90  F   UNL A   1      42.043  33.336  39.586  1.00  0.00    -0.206 F 
ATOM     91  C   UNL A   1      41.931  35.597  40.188  1.00  0.00     0.059 A 
ATOM     92  C   UNL A   1      40.771  37.164  38.764  1.00  0.00     0.059 A 
ATOM     93  F   UNL A   1      39.772  36.446  36.779  1.00  0.00    -0.206 F 
ATOM     94  C   UNL A   1      41.546  36.902  39.892  1.00  0.00     0.060 A 
BRANCH  94  95
ATOM     95  S   UNL A   1      42.159  38.264  40.919  1.00  0.00     0.124 S 
ATOM     96  O   UNL A   1      41.159  38.321  41.979  1.00  0.00    -0.237 OA
ATOM     97  O   UNL A   1      43.478  37.783  41.315  1.00  0.00    -0.237 OA
ATOM     98  O   UNL A   1      42.162  39.404  40.004  1.00  0.00    -0.744 OA
ENDBRANCH  94  95
ENDBRANCH  62  87
BRANCH  74  99
ATOM     99  C   UNL A   1      42.935  30.008  34.504  1.00  0.00     0.058 A 
ATOM    100  C   UNL A   1      43.932  29.254  35.148  1.00  0.00     0.135 A 
ATOM    101  C   UNL A   1      41.635  29.482  34.493  1.00  0.00     0.135 A 
ATOM    102  F   UNL A   1      45.185  29.724  35.260  1.00  0.00    -0.206 F 
ATOM    103  C   UNL A   1      43.648  28.013  35.729  1.00  0.00     0.059 A 
ATOM    104  C   UNL A   1      41.325  28.266  35.085  1.00  0.00     0.059 A 
ATOM    105  F   UNL A   1      40.635  30.179  33.928  1.00  0.00    -0.206 F 
ATOM    106  C   UNL A   1      42.338  27.528  35.688  1.00  0.00     0.060 A 
BRANCH 106 107
ATOM    107  S   UNL A   1      41.950  25.936  36.450  1.00  0.00     0.124 S 
ATOM    108  O   UNL A   1      41.621  26.320  37.818  1.00  0.00    -0.237 OA
ATOM    109  O   UNL A   1      40.833  25.461  35.637  1.00  0.00    -0.237 OA
ATOM    110  O   UNL A   1      43.188  25.173  36.299  1.00  0.00    -0.744 OA
ENDBRANCH 106 107
ENDBRANCH  74  99
ENDBRANCH  48  49
ENDBRANCH  41  43
ENDBRANCH  40  41
ENDBRANCH  39  40
ENDBRANCH  38  39
ENDBRANCH  37  38
ENDBRANCH   1  37
TORSDOF 23
ENDMDL
