MODEL 1
REMARK VINA RESULT:     -12.2      0.000      0.000
REMARK SMILES O=C(OCCOCCOC(=O)c1ccc(-c2c3nc(c(-c4c(F)cc(S(=O)(=O)[O-])cc4F)c4ccc([nH]4)c(-c4c(F)cc(S(=O)(=O)[O-])cc4F)c4nc(c(-c5c(F)cc(S(=O)(=O)[O-])cc5F)c5ccc2[nH]5)C=C4)C=C3)cc1)C1=Cc2cc(Cl)cc(Cl)c2O[C@@H]1C(F)(F)F
REMARK SMILES IDX 7 1 6 2 5 3 4 4 3 5 2 6 1 7 78 8 79 9 89 10 80 11 88 12
REMARK SMILES IDX 81 13 87 14 82 15 85 16 83 17 84 18 86 19 90 20 91 21 92 22
REMARK SMILES IDX 93 23 8 24 9 25 10 26 11 27 12 28 13 29 77 30 14 31 76 32
REMARK SMILES IDX 15 33 16 34 17 35 70 36 18 37 75 38 69 39 71 40 19 41 74 42
REMARK SMILES IDX 68 43 67 44 20 46 54 47 33 48 53 49 34 50 37 51 52 52 72 53
REMARK SMILES IDX 35 54 36 55 51 57 73 58 38 59 21 60 22 61 31 62 23 63 24 64
REMARK SMILES IDX 30 65 32 66 25 67 26 68 27 69 28 70 29 71 55 72 56 73 65 74
REMARK SMILES IDX 57 75 58 76 64 77 66 78 59 79 60 80 61 81 62 82 63 83 39 84
REMARK SMILES IDX 40 85 49 86 41 87 42 88 48 89 50 90 43 91 44 92 45 93 46 94
REMARK SMILES IDX 47 95
REMARK H PARENT 71 45 37 56
REMARK Flexibility Score: inf
ROOT
ATOM      1  C   UNL A   1      42.482  21.965  26.473  1.00  0.00     0.202 C 
ENDROOT
BRANCH   1   2
ATOM      2  O   UNL A   1      41.371  21.408  25.752  1.00  0.00    -0.374 OA
BRANCH   2   3
ATOM      3  C   UNL A   1      39.882  20.975  26.157  1.00  0.00     0.202 C 
BRANCH   3   4
ATOM      4  C   UNL A   1      37.932  21.490  25.353  1.00  0.00     0.261 C 
BRANCH   4   5
ATOM      5  O   UNL A   1      37.398  22.907  25.073  1.00  0.00    -0.460 OA
BRANCH   5   6
ATOM      6  C   UNL A   1      36.499  22.933  24.086  1.00  0.00     0.338 C 
ATOM      7  O   UNL A   1      36.659  23.116  22.905  1.00  0.00    -0.246 OA
BRANCH   6   8
ATOM      8  C   UNL A   1      35.346  23.086  24.945  1.00  0.00     0.087 C 
ATOM      9  C   UNL A   1      35.226  24.469  25.478  1.00  0.00     0.027 C 
ATOM     10  C   UNL A   1      34.085  22.261  23.731  1.00  0.00     0.316 C 
ATOM     11  C   UNL A   1      33.986  25.663  24.898  1.00  0.00     0.020 A 
ATOM     12  O   UNL A   1      32.815  23.538  23.040  1.00  0.00    -0.474 OA
ATOM     13  C   UNL A   1      34.023  26.953  25.354  1.00  0.00     0.032 A 
ATOM     14  C   UNL A   1      32.871  25.266  23.628  1.00  0.00     0.146 A 
ATOM     15  C   UNL A   1      33.169  27.846  24.680  1.00  0.00     0.043 A 
ATOM     16  C   UNL A   1      32.239  26.250  22.920  1.00  0.00     0.085 A 
ATOM     17  Cl  UNL A   1      33.126  29.475  25.276  1.00  0.00    -0.084 Cl
ATOM     18  C   UNL A   1      32.372  27.533  23.503  1.00  0.00     0.045 A 
ATOM     19  Cl  UNL A   1      31.695  26.044  21.320  1.00  0.00    -0.080 Cl
BRANCH  10  20
ATOM     20  C   UNL A   1      33.881  20.899  24.528  1.00  0.00     0.430 C 
ATOM     21  F   UNL A   1      33.356  21.009  25.761  1.00  0.00    -0.167 F 
ATOM     22  F   UNL A   1      32.963  20.162  23.831  1.00  0.00    -0.167 F 
ATOM     23  F   UNL A   1      34.974  20.105  24.588  1.00  0.00    -0.167 F 
ENDBRANCH  10  20
ENDBRANCH   6   8
ENDBRANCH   5   6
ENDBRANCH   4   5
ENDBRANCH   3   4
ENDBRANCH   2   3
ENDBRANCH   1   2
BRANCH   1  24
ATOM     24  C   UNL A   1      42.786  23.446  26.291  1.00  0.00     0.261 C 
BRANCH  24  25
ATOM     25  O   UNL A   1      41.640  24.265  26.410  1.00  0.00    -0.460 OA
BRANCH  25  26
ATOM     26  C   UNL A   1      41.868  25.551  26.064  1.00  0.00     0.338 C 
ATOM     27  O   UNL A   1      42.172  25.986  24.967  1.00  0.00    -0.246 OA
BRANCH  26  28
ATOM     28  C   UNL A   1      41.682  26.385  27.257  1.00  0.00     0.060 A 
ATOM     29  C   UNL A   1      40.666  26.020  28.142  1.00  0.00     0.016 A 
ATOM     30  C   UNL A   1      42.518  27.483  27.520  1.00  0.00     0.016 A 
ATOM     31  C   UNL A   1      40.494  26.747  29.309  1.00  0.00     0.010 A 
ATOM     32  C   UNL A   1      42.352  28.202  28.696  1.00  0.00     0.010 A 
ATOM     33  C   UNL A   1      41.327  27.843  29.579  1.00  0.00    -0.014 A 
BRANCH  33  34
ATOM     34  C   UNL A   1      40.981  28.717  30.709  1.00  0.00     0.031 A 
ATOM     35  C   UNL A   1      41.810  28.604  31.950  1.00  0.00     0.074 A 
ATOM     36  C   UNL A   1      40.012  29.638  30.582  1.00  0.00     0.049 A 
ATOM     37  N   UNL A   1      41.792  29.346  33.021  1.00  0.00    -0.248 NA
ATOM     38  C   UNL A   1      42.799  27.511  31.985  1.00  0.00     0.031 C 
ATOM     39  C   UNL A   1      39.155  29.808  29.409  1.00  0.00     0.029 A 
ATOM     40  N   UNL A   1      39.595  30.610  31.448  1.00  0.00    -0.354 N 
ATOM     41  C   UNL A   1      42.792  28.840  33.837  1.00  0.00     0.074 A 
ATOM     42  C   UNL A   1      43.348  27.681  33.176  1.00  0.00     0.031 C 
ATOM     43  C   UNL A   1      38.315  30.834  29.627  1.00  0.00     0.029 A 
ATOM     44  C   UNL A   1      38.564  31.376  30.960  1.00  0.00     0.049 A 
ATOM     45  H   UNL A   1      39.995  30.750  32.337  1.00  0.00     0.167 HD
ATOM     46  C   UNL A   1      43.227  29.324  35.022  1.00  0.00     0.037 A 
ATOM     47  C   UNL A   1      37.897  32.393  31.539  1.00  0.00     0.037 A 
ATOM     48  C   UNL A   1      42.630  30.454  35.680  1.00  0.00     0.049 A 
ATOM     49  C   UNL A   1      38.346  32.857  32.902  1.00  0.00     0.074 A 
ATOM     50  C   UNL A   1      42.969  31.020  36.893  1.00  0.00     0.029 A 
ATOM     51  N   UNL A   1      41.558  31.182  35.182  1.00  0.00    -0.354 N 
ATOM     52  N   UNL A   1      39.327  32.403  33.648  1.00  0.00    -0.248 NA
ATOM     53  C   UNL A   1      37.611  33.982  33.492  1.00  0.00     0.031 C 
ATOM     54  C   UNL A   1      42.062  32.051  37.159  1.00  0.00     0.029 A 
ATOM     55  C   UNL A   1      41.203  32.177  36.077  1.00  0.00     0.049 A 
ATOM     56  H   UNL A   1      41.114  31.017  34.319  1.00  0.00     0.167 HD
ATOM     57  C   UNL A   1      39.344  33.206  34.784  1.00  0.00     0.074 A 
ATOM     58  C   UNL A   1      38.296  34.191  34.607  1.00  0.00     0.031 C 
ATOM     59  C   UNL A   1      40.147  33.139  35.878  1.00  0.00     0.037 A 
BRANCH  46  60
ATOM     60  C   UNL A   1      44.382  28.619  35.672  1.00  0.00     0.058 A 
ATOM     61  C   UNL A   1      45.712  28.983  35.402  1.00  0.00     0.135 A 
ATOM     62  C   UNL A   1      44.160  27.579  36.587  1.00  0.00     0.135 A 
ATOM     63  F   UNL A   1      45.982  29.949  34.509  1.00  0.00    -0.206 F 
ATOM     64  C   UNL A   1      46.781  28.331  36.006  1.00  0.00     0.059 A 
ATOM     65  C   UNL A   1      45.213  26.935  37.228  1.00  0.00     0.059 A 
ATOM     66  F   UNL A   1      42.910  27.179  36.866  1.00  0.00    -0.206 F 
ATOM     67  C   UNL A   1      46.520  27.314  36.925  1.00  0.00     0.060 A 
BRANCH  67  68
ATOM     68  S   UNL A   1      47.919  26.502  37.725  1.00  0.00     0.124 S 
ATOM     69  O   UNL A   1      47.955  27.184  39.016  1.00  0.00    -0.237 OA
ATOM     70  O   UNL A   1      47.491  25.109  37.755  1.00  0.00    -0.237 OA
ATOM     71  O   UNL A   1      49.038  26.794  36.833  1.00  0.00    -0.744 OA
ENDBRANCH  67  68
ENDBRANCH  46  60
BRANCH  47  72
ATOM     72  C   UNL A   1      36.739  33.024  30.849  1.00  0.00     0.058 A 
ATOM     73  C   UNL A   1      36.912  33.895  29.762  1.00  0.00     0.135 A 
ATOM     74  C   UNL A   1      35.427  32.786  31.288  1.00  0.00     0.135 A 
ATOM     75  F   UNL A   1      38.144  34.160  29.303  1.00  0.00    -0.206 F 
ATOM     76  C   UNL A   1      35.831  34.531  29.157  1.00  0.00     0.059 A 
ATOM     77  C   UNL A   1      34.328  33.381  30.678  1.00  0.00     0.059 A 
ATOM     78  F   UNL A   1      35.201  31.951  32.314  1.00  0.00    -0.206 F 
ATOM     79  C   UNL A   1      34.542  34.267  29.623  1.00  0.00     0.060 A 
BRANCH  79  80
ATOM     80  S   UNL A   1      33.145  35.077  28.817  1.00  0.00     0.124 S 
ATOM     81  O   UNL A   1      32.287  35.387  29.955  1.00  0.00    -0.237 OA
ATOM     82  O   UNL A   1      33.787  36.219  28.173  1.00  0.00    -0.237 OA
ATOM     83  O   UNL A   1      32.640  34.054  27.906  1.00  0.00    -0.744 OA
ENDBRANCH  79  80
ENDBRANCH  47  72
BRANCH  59  84
ATOM     84  C   UNL A   1      39.936  34.180  36.947  1.00  0.00     0.058 A 
ATOM     85  C   UNL A   1      40.456  35.480  36.830  1.00  0.00     0.135 A 
ATOM     86  C   UNL A   1      39.192  33.874  38.097  1.00  0.00     0.135 A 
ATOM     87  F   UNL A   1      41.174  35.827  35.751  1.00  0.00    -0.206 F 
ATOM     88  C   UNL A   1      40.295  36.419  37.842  1.00  0.00     0.059 A 
ATOM     89  C   UNL A   1      38.981  34.811  39.102  1.00  0.00     0.059 A 
ATOM     90  F   UNL A   1      38.654  32.653  38.254  1.00  0.00    -0.206 F 
ATOM     91  C   UNL A   1      39.558  36.074  38.976  1.00  0.00     0.060 A 
BRANCH  91  92
ATOM     92  S   UNL A   1      39.367  37.299  40.287  1.00  0.00     0.124 S 
ATOM     93  O   UNL A   1      40.757  37.631  40.582  1.00  0.00    -0.237 OA
ATOM     94  O   UNL A   1      38.592  38.344  39.624  1.00  0.00    -0.237 OA
ATOM     95  O   UNL A   1      38.659  36.570  41.335  1.00  0.00    -0.744 OA
ENDBRANCH  91  92
ENDBRANCH  59  84
ENDBRANCH  33  34
ENDBRANCH  26  28
ENDBRANCH  25  26
ENDBRANCH  24  25
ENDBRANCH   1  24
TORSDOF 18
ENDMDL
MODEL 2
REMARK VINA RESULT:     -12.2      6.571     13.626
REMARK SMILES O=C(OCCOCCOC(=O)c1ccc(-c2c3nc(c(-c4c(F)cc(S(=O)(=O)[O-])cc4F)c4ccc([nH]4)c(-c4c(F)cc(S(=O)(=O)[O-])cc4F)c4nc(c(-c5c(F)cc(S(=O)(=O)[O-])cc5F)c5ccc2[nH]5)C=C4)C=C3)cc1)C1=Cc2cc(Cl)cc(Cl)c2O[C@@H]1C(F)(F)F
REMARK SMILES IDX 7 1 6 2 5 3 4 4 3 5 2 6 1 7 78 8 79 9 89 10 80 11 88 12
REMARK SMILES IDX 81 13 87 14 82 15 85 16 83 17 84 18 86 19 90 20 91 21 92 22
REMARK SMILES IDX 93 23 8 24 9 25 10 26 11 27 12 28 13 29 77 30 14 31 76 32
REMARK SMILES IDX 15 33 16 34 17 35 70 36 18 37 75 38 69 39 71 40 19 41 74 42
REMARK SMILES IDX 68 43 67 44 20 46 54 47 33 48 53 49 34 50 37 51 52 52 72 53
REMARK SMILES IDX 35 54 36 55 51 57 73 58 38 59 21 60 22 61 31 62 23 63 24 64
REMARK SMILES IDX 30 65 32 66 25 67 26 68 27 69 28 70 29 71 55 72 56 73 65 74
REMARK SMILES IDX 57 75 58 76 64 77 66 78 59 79 60 80 61 81 62 82 63 83 39 84
REMARK SMILES IDX 40 85 49 86 41 87 42 88 48 89 50 90 43 91 44 92 45 93 46 94
REMARK SMILES IDX 47 95
REMARK H PARENT 71 45 37 56
REMARK Flexibility Score: inf
ROOT
ATOM      1  C   UNL A   1      34.702  33.337  29.935  1.00  0.00     0.202 C 
ENDROOT
BRANCH   1   2
ATOM      2  O   UNL A   1      33.845  34.218  30.679  1.00  0.00    -0.374 OA
BRANCH   2   3
ATOM      3  C   UNL A   1      34.000  35.031  32.052  1.00  0.00     0.202 C 
BRANCH   3   4
ATOM      4  C   UNL A   1      35.218  34.709  33.820  1.00  0.00     0.261 C 
BRANCH   4   5
ATOM      5  O   UNL A   1      36.278  33.609  34.019  1.00  0.00    -0.460 OA
BRANCH   5   6
ATOM      6  C   UNL A   1      37.527  34.078  33.950  1.00  0.00     0.338 C 
ATOM      7  O   UNL A   1      37.964  35.151  34.282  1.00  0.00    -0.246 OA
BRANCH   6   8
ATOM      8  C   UNL A   1      38.004  33.080  33.019  1.00  0.00     0.087 C 
ATOM      9  C   UNL A   1      38.218  33.642  31.660  1.00  0.00     0.027 C 
ATOM     10  C   UNL A   1      39.408  32.399  34.164  1.00  0.00     0.316 C 
ATOM     11  C   UNL A   1      39.862  33.967  30.957  1.00  0.00     0.020 A 
ATOM     12  O   UNL A   1      41.160  32.814  33.472  1.00  0.00    -0.474 OA
ATOM     13  C   UNL A   1      39.968  34.599  29.748  1.00  0.00     0.032 A 
ATOM     14  C   UNL A   1      41.310  33.676  31.868  1.00  0.00     0.146 A 
ATOM     15  C   UNL A   1      41.271  35.003  29.401  1.00  0.00     0.043 A 
ATOM     16  C   UNL A   1      42.485  34.286  31.527  1.00  0.00     0.085 A 
ATOM     17  Cl  UNL A   1      41.465  35.739  27.842  1.00  0.00    -0.084 Cl
ATOM     18  C   UNL A   1      42.445  34.908  30.256  1.00  0.00     0.045 A 
ATOM     19  Cl  UNL A   1      43.725  34.614  32.647  1.00  0.00    -0.080 Cl
BRANCH  10  20
ATOM     20  C   UNL A   1      38.725  31.011  34.536  1.00  0.00     0.430 C 
ATOM     21  F   UNL A   1      39.513  29.924  34.455  1.00  0.00    -0.167 F 
ATOM     22  F   UNL A   1      38.374  31.081  35.857  1.00  0.00    -0.167 F 
ATOM     23  F   UNL A   1      37.563  30.757  33.893  1.00  0.00    -0.167 F 
ENDBRANCH  10  20
ENDBRANCH   6   8
ENDBRANCH   5   6
ENDBRANCH   4   5
ENDBRANCH   3   4
ENDBRANCH   2   3
ENDBRANCH   1   2
BRANCH   1  24
ATOM     24  C   UNL A   1      35.117  32.023  30.583  1.00  0.00     0.261 C 
BRANCH  24  25
ATOM     25  O   UNL A   1      36.263  31.450  29.986  1.00  0.00    -0.460 OA
BRANCH  25  26
ATOM     26  C   UNL A   1      36.715  30.360  30.643  1.00  0.00     0.338 C 
ATOM     27  O   UNL A   1      36.136  29.709  31.495  1.00  0.00    -0.246 OA
BRANCH  26  28
ATOM     28  C   UNL A   1      38.065  30.057  30.152  1.00  0.00     0.060 A 
ATOM     29  C   UNL A   1      38.237  29.959  28.770  1.00  0.00     0.016 A 
ATOM     30  C   UNL A   1      39.149  29.912  31.033  1.00  0.00     0.016 A 
ATOM     31  C   UNL A   1      39.506  29.731  28.262  1.00  0.00     0.010 A 
ATOM     32  C   UNL A   1      40.421  29.697  30.522  1.00  0.00     0.010 A 
ATOM     33  C   UNL A   1      40.593  29.588  29.137  1.00  0.00    -0.014 A 
BRANCH  33  34
ATOM     34  C   UNL A   1      41.877  29.135  28.582  1.00  0.00     0.031 A 
ATOM     35  C   UNL A   1      42.976  30.144  28.469  1.00  0.00     0.074 A 
ATOM     36  C   UNL A   1      42.064  27.841  28.277  1.00  0.00     0.049 A 
ATOM     37  N   UNL A   1      44.224  29.966  28.142  1.00  0.00    -0.248 NA
ATOM     38  C   UNL A   1      42.622  31.542  28.776  1.00  0.00     0.031 C 
ATOM     39  C   UNL A   1      41.042  26.797  28.353  1.00  0.00     0.029 A 
ATOM     40  N   UNL A   1      43.186  27.184  27.851  1.00  0.00    -0.354 N 
ATOM     41  C   UNL A   1      44.814  31.217  28.243  1.00  0.00     0.074 A 
ATOM     42  C   UNL A   1      43.776  32.161  28.589  1.00  0.00     0.031 C 
ATOM     43  C   UNL A   1      41.590  25.624  27.992  1.00  0.00     0.029 A 
ATOM     44  C   UNL A   1      42.991  25.841  27.642  1.00  0.00     0.049 A 
ATOM     45  H   UNL A   1      44.052  27.631  27.710  1.00  0.00     0.167 HD
ATOM     46  C   UNL A   1      46.118  31.539  28.092  1.00  0.00     0.037 A 
ATOM     47  C   UNL A   1      43.853  24.903  27.207  1.00  0.00     0.037 A 
ATOM     48  C   UNL A   1      47.127  30.589  27.708  1.00  0.00     0.049 A 
ATOM     49  C   UNL A   1      45.284  25.308  26.961  1.00  0.00     0.074 A 
ATOM     50  C   UNL A   1      48.476  30.804  27.501  1.00  0.00     0.029 A 
ATOM     51  N   UNL A   1      46.891  29.244  27.459  1.00  0.00    -0.354 N 
ATOM     52  N   UNL A   1      45.848  26.486  27.107  1.00  0.00    -0.248 NA
ATOM     53  C   UNL A   1      46.202  24.255  26.509  1.00  0.00     0.031 C 
ATOM     54  C   UNL A   1      49.044  29.603  27.065  1.00  0.00     0.029 A 
ATOM     55  C   UNL A   1      48.065  28.620  27.073  1.00  0.00     0.049 A 
ATOM     56  H   UNL A   1      46.017  28.797  27.545  1.00  0.00     0.167 HD
ATOM     57  C   UNL A   1      47.191  26.308  26.792  1.00  0.00     0.074 A 
ATOM     58  C   UNL A   1      47.357  24.902  26.480  1.00  0.00     0.031 C 
ATOM     59  C   UNL A   1      48.199  27.218  26.759  1.00  0.00     0.037 A 
BRANCH  46  60
ATOM     60  C   UNL A   1      46.506  32.970  28.327  1.00  0.00     0.058 A 
ATOM     61  C   UNL A   1      46.907  33.425  29.595  1.00  0.00     0.135 A 
ATOM     62  C   UNL A   1      46.493  33.895  27.273  1.00  0.00     0.135 A 
ATOM     63  F   UNL A   1      46.905  32.590  30.647  1.00  0.00    -0.206 F 
ATOM     64  C   UNL A   1      47.268  34.750  29.811  1.00  0.00     0.059 A 
ATOM     65  C   UNL A   1      46.882  35.218  27.459  1.00  0.00     0.059 A 
ATOM     66  F   UNL A   1      46.100  33.518  26.047  1.00  0.00    -0.206 F 
ATOM     67  C   UNL A   1      47.260  35.637  28.734  1.00  0.00     0.060 A 
BRANCH  67  68
ATOM     68  S   UNL A   1      47.765  37.344  29.026  1.00  0.00     0.124 S 
ATOM     69  O   UNL A   1      48.227  37.745  27.700  1.00  0.00    -0.237 OA
ATOM     70  O   UNL A   1      46.522  37.960  29.477  1.00  0.00    -0.237 OA
ATOM     71  O   UNL A   1      48.807  37.223  30.042  1.00  0.00    -0.744 OA
ENDBRANCH  67  68
ENDBRANCH  46  60
BRANCH  47  72
ATOM     72  C   UNL A   1      43.391  23.509  26.965  1.00  0.00     0.058 A 
ATOM     73  C   UNL A   1      43.164  22.611  28.019  1.00  0.00     0.135 A 
ATOM     74  C   UNL A   1      43.192  23.037  25.657  1.00  0.00     0.135 A 
ATOM     75  F   UNL A   1      43.343  23.008  29.289  1.00  0.00    -0.206 F 
ATOM     76  C   UNL A   1      42.791  21.290  27.787  1.00  0.00     0.059 A 
ATOM     77  C   UNL A   1      42.784  21.733  25.400  1.00  0.00     0.059 A 
ATOM     78  F   UNL A   1      43.379  23.856  24.610  1.00  0.00    -0.206 F 
ATOM     79  C   UNL A   1      42.602  20.861  26.472  1.00  0.00     0.060 A 
BRANCH  79  80
ATOM     80  S   UNL A   1      42.094  19.154  26.181  1.00  0.00     0.124 S 
ATOM     81  O   UNL A   1      42.994  18.758  25.104  1.00  0.00    -0.237 OA
ATOM     82  O   UNL A   1      42.343  18.537  27.481  1.00  0.00    -0.237 OA
ATOM     83  O   UNL A   1      40.687  19.278  25.814  1.00  0.00    -0.744 OA
ENDBRANCH  79  80
ENDBRANCH  47  72
BRANCH  59  84
ATOM     84  C   UNL A   1      49.570  26.709  26.400  1.00  0.00     0.058 A 
ATOM     85  C   UNL A   1      50.111  26.873  25.114  1.00  0.00     0.135 A 
ATOM     86  C   UNL A   1      50.359  26.057  27.362  1.00  0.00     0.135 A 
ATOM     87  F   UNL A   1      49.401  27.490  24.156  1.00  0.00    -0.206 F 
ATOM     88  C   UNL A   1      51.358  26.360  24.780  1.00  0.00     0.059 A 
ATOM     89  C   UNL A   1      51.628  25.574  27.062  1.00  0.00     0.059 A 
ATOM     90  F   UNL A   1      49.903  25.889  28.613  1.00  0.00    -0.206 F 
ATOM     91  C   UNL A   1      52.108  25.708  25.760  1.00  0.00     0.060 A 
BRANCH  91  92
ATOM     92  S   UNL A   1      53.720  25.036  25.309  1.00  0.00     0.124 S 
ATOM     93  O   UNL A   1      53.893  25.568  23.960  1.00  0.00    -0.237 OA
ATOM     94  O   UNL A   1      54.591  25.607  26.332  1.00  0.00    -0.237 OA
ATOM     95  O   UNL A   1      53.525  23.592  25.393  1.00  0.00    -0.744 OA
ENDBRANCH  91  92
ENDBRANCH  59  84
ENDBRANCH  33  34
ENDBRANCH  26  28
ENDBRANCH  25  26
ENDBRANCH  24  25
ENDBRANCH   1  24
TORSDOF 18
ENDMDL
MODEL 3
REMARK VINA RESULT:     -12.1      6.518     12.023
REMARK SMILES O=C(OCCOCCOC(=O)c1ccc(-c2c3nc(c(-c4c(F)cc(S(=O)(=O)[O-])cc4F)c4ccc([nH]4)c(-c4c(F)cc(S(=O)(=O)[O-])cc4F)c4nc(c(-c5c(F)cc(S(=O)(=O)[O-])cc5F)c5ccc2[nH]5)C=C4)C=C3)cc1)C1=Cc2cc(Cl)cc(Cl)c2O[C@@H]1C(F)(F)F
REMARK SMILES IDX 7 1 6 2 5 3 4 4 3 5 2 6 1 7 78 8 79 9 89 10 80 11 88 12
REMARK SMILES IDX 81 13 87 14 82 15 85 16 83 17 84 18 86 19 90 20 91 21 92 22
REMARK SMILES IDX 93 23 8 24 9 25 10 26 11 27 12 28 13 29 77 30 14 31 76 32
REMARK SMILES IDX 15 33 16 34 17 35 70 36 18 37 75 38 69 39 71 40 19 41 74 42
REMARK SMILES IDX 68 43 67 44 20 46 54 47 33 48 53 49 34 50 37 51 52 52 72 53
REMARK SMILES IDX 35 54 36 55 51 57 73 58 38 59 21 60 22 61 31 62 23 63 24 64
REMARK SMILES IDX 30 65 32 66 25 67 26 68 27 69 28 70 29 71 55 72 56 73 65 74
REMARK SMILES IDX 57 75 58 76 64 77 66 78 59 79 60 80 61 81 62 82 63 83 39 84
REMARK SMILES IDX 40 85 49 86 41 87 42 88 48 89 50 90 43 91 44 92 45 93 46 94
REMARK SMILES IDX 47 95
REMARK H PARENT 71 45 37 56
REMARK Flexibility Score: inf
ROOT
ATOM      1  C   UNL A   1      34.222  32.267  28.779  1.00  0.00     0.202 C 
ENDROOT
BRANCH   1   2
ATOM      2  O   UNL A   1      34.293  31.617  27.499  1.00  0.00    -0.374 OA
BRANCH   2   3
ATOM      3  C   UNL A   1      33.751  30.223  26.924  1.00  0.00     0.202 C 
BRANCH   3   4
ATOM      4  C   UNL A   1      31.892  29.139  27.208  1.00  0.00     0.261 C 
BRANCH   4   5
ATOM      5  O   UNL A   1      31.741  27.646  27.555  1.00  0.00    -0.460 OA
BRANCH   5   6
ATOM      6  C   UNL A   1      31.350  26.911  26.510  1.00  0.00     0.338 C 
ATOM      7  O   UNL A   1      30.545  26.015  26.459  1.00  0.00    -0.246 OA
BRANCH   6   8
ATOM      8  C   UNL A   1      32.463  27.266  25.659  1.00  0.00     0.087 C 
ATOM      9  C   UNL A   1      33.697  26.517  26.013  1.00  0.00     0.027 C 
ATOM     10  C   UNL A   1      31.502  27.079  23.989  1.00  0.00     0.316 C 
ATOM     11  C   UNL A   1      34.366  25.156  25.012  1.00  0.00     0.020 A 
ATOM     12  O   UNL A   1      32.147  25.583  22.956  1.00  0.00    -0.474 OA
ATOM     13  C   UNL A   1      35.438  24.441  25.473  1.00  0.00     0.032 A 
ATOM     14  C   UNL A   1      33.563  24.609  23.575  1.00  0.00     0.146 A 
ATOM     15  C   UNL A   1      35.735  23.276  24.740  1.00  0.00     0.043 A 
ATOM     16  C   UNL A   1      33.812  23.366  23.065  1.00  0.00     0.085 A 
ATOM     17  Cl  UNL A   1      37.132  22.379  25.242  1.00  0.00    -0.084 Cl
ATOM     18  C   UNL A   1      34.942  22.739  23.644  1.00  0.00     0.045 A 
ATOM     19  Cl  UNL A   1      32.681  22.494  22.137  1.00  0.00    -0.080 Cl
BRANCH  10  20
ATOM     20  C   UNL A   1      31.381  28.626  23.639  1.00  0.00     0.430 C 
ATOM     21  F   UNL A   1      32.492  29.361  23.818  1.00  0.00    -0.167 F 
ATOM     22  F   UNL A   1      31.126  28.712  22.297  1.00  0.00    -0.167 F 
ATOM     23  F   UNL A   1      30.338  29.262  24.220  1.00  0.00    -0.167 F 
ENDBRANCH  10  20
ENDBRANCH   6   8
ENDBRANCH   5   6
ENDBRANCH   4   5
ENDBRANCH   3   4
ENDBRANCH   2   3
ENDBRANCH   1   2
BRANCH   1  24
ATOM     24  C   UNL A   1      35.279  31.921  29.820  1.00  0.00     0.261 C 
BRANCH  24  25
ATOM     25  O   UNL A   1      35.934  30.696  29.557  1.00  0.00    -0.460 OA
BRANCH  25  26
ATOM     26  C   UNL A   1      36.658  30.246  30.605  1.00  0.00     0.338 C 
ATOM     27  O   UNL A   1      36.287  30.087  31.755  1.00  0.00    -0.246 OA
BRANCH  26  28
ATOM     28  C   UNL A   1      38.017  29.958  30.131  1.00  0.00     0.060 A 
ATOM     29  C   UNL A   1      38.230  29.964  28.752  1.00  0.00     0.016 A 
ATOM     30  C   UNL A   1      39.071  29.724  31.030  1.00  0.00     0.016 A 
ATOM     31  C   UNL A   1      39.510  29.753  28.265  1.00  0.00     0.010 A 
ATOM     32  C   UNL A   1      40.355  29.526  30.541  1.00  0.00     0.010 A 
ATOM     33  C   UNL A   1      40.567  29.522  29.157  1.00  0.00    -0.014 A 
BRANCH  33  34
ATOM     34  C   UNL A   1      41.860  29.090  28.606  1.00  0.00     0.031 A 
ATOM     35  C   UNL A   1      42.949  30.112  28.516  1.00  0.00     0.074 A 
ATOM     36  C   UNL A   1      42.064  27.803  28.285  1.00  0.00     0.049 A 
ATOM     37  N   UNL A   1      44.202  29.951  28.196  1.00  0.00    -0.248 NA
ATOM     38  C   UNL A   1      42.578  31.502  28.838  1.00  0.00     0.031 C 
ATOM     39  C   UNL A   1      41.052  26.747  28.340  1.00  0.00     0.029 A 
ATOM     40  N   UNL A   1      43.195  27.163  27.860  1.00  0.00    -0.354 N 
ATOM     41  C   UNL A   1      44.778  31.207  28.319  1.00  0.00     0.074 A 
ATOM     42  C   UNL A   1      43.727  32.135  28.668  1.00  0.00     0.031 C 
ATOM     43  C   UNL A   1      41.614  25.584  27.967  1.00  0.00     0.029 A 
ATOM     44  C   UNL A   1      43.016  25.820  27.631  1.00  0.00     0.049 A 
ATOM     45  H   UNL A   1      44.057  27.621  27.732  1.00  0.00     0.167 HD
ATOM     46  C   UNL A   1      46.080  31.544  28.182  1.00  0.00     0.037 A 
ATOM     47  C   UNL A   1      43.891  24.897  27.191  1.00  0.00     0.037 A 
ATOM     48  C   UNL A   1      47.101  30.611  27.793  1.00  0.00     0.049 A 
ATOM     49  C   UNL A   1      45.320  25.321  26.961  1.00  0.00     0.074 A 
ATOM     50  C   UNL A   1      48.449  30.842  27.599  1.00  0.00     0.029 A 
ATOM     51  N   UNL A   1      46.881  29.266  27.524  1.00  0.00    -0.354 N 
ATOM     52  N   UNL A   1      45.870  26.503  27.128  1.00  0.00    -0.248 NA
ATOM     53  C   UNL A   1      46.252  24.283  26.502  1.00  0.00     0.031 C 
ATOM     54  C   UNL A   1      49.033  29.653  27.152  1.00  0.00     0.029 A 
ATOM     55  C   UNL A   1      48.064  28.660  27.139  1.00  0.00     0.049 A 
ATOM     56  H   UNL A   1      46.012  28.810  27.597  1.00  0.00     0.167 HD
ATOM     57  C   UNL A   1      47.217  26.342  26.821  1.00  0.00     0.074 A 
ATOM     58  C   UNL A   1      47.400  24.943  26.491  1.00  0.00     0.031 C 
ATOM     59  C   UNL A   1      48.215  27.264  26.808  1.00  0.00     0.037 A 
BRANCH  46  60
ATOM     60  C   UNL A   1      46.450  32.977  28.439  1.00  0.00     0.058 A 
ATOM     61  C   UNL A   1      46.434  33.936  27.413  1.00  0.00     0.135 A 
ATOM     62  C   UNL A   1      46.809  33.401  29.727  1.00  0.00     0.135 A 
ATOM     63  F   UNL A   1      46.130  33.577  26.155  1.00  0.00    -0.206 F 
ATOM     64  C   UNL A   1      46.774  35.262  27.652  1.00  0.00     0.059 A 
ATOM     65  C   UNL A   1      47.122  34.729  29.996  1.00  0.00     0.059 A 
ATOM     66  F   UNL A   1      46.859  32.521  30.739  1.00  0.00    -0.206 F 
ATOM     67  C   UNL A   1      47.109  35.651  28.950  1.00  0.00     0.060 A 
BRANCH  67  68
ATOM     68  S   UNL A   1      47.514  37.383  29.248  1.00  0.00     0.124 S 
ATOM     69  O   UNL A   1      46.527  38.064  28.414  1.00  0.00    -0.237 OA
ATOM     70  O   UNL A   1      47.317  37.502  30.689  1.00  0.00    -0.237 OA
ATOM     71  O   UNL A   1      48.898  37.493  28.794  1.00  0.00    -0.744 OA
ENDBRANCH  67  68
ENDBRANCH  46  60
BRANCH  47  72
ATOM     72  C   UNL A   1      43.446  23.502  26.927  1.00  0.00     0.058 A 
ATOM     73  C   UNL A   1      43.238  23.026  25.623  1.00  0.00     0.135 A 
ATOM     74  C   UNL A   1      43.190  22.618  27.989  1.00  0.00     0.135 A 
ATOM     75  F   UNL A   1      43.464  23.829  24.572  1.00  0.00    -0.206 F 
ATOM     76  C   UNL A   1      42.763  21.740  25.382  1.00  0.00     0.059 A 
ATOM     77  C   UNL A   1      42.750  21.318  27.772  1.00  0.00     0.059 A 
ATOM     78  F   UNL A   1      43.386  23.014  29.255  1.00  0.00    -0.206 F 
ATOM     79  C   UNL A   1      42.522  20.892  26.464  1.00  0.00     0.060 A 
BRANCH  79  80
ATOM     80  S   UNL A   1      41.930  19.218  26.141  1.00  0.00     0.124 S 
ATOM     81  O   UNL A   1      40.504  19.444  25.940  1.00  0.00    -0.237 OA
ATOM     82  O   UNL A   1      42.693  18.851  24.952  1.00  0.00    -0.237 OA
ATOM     83  O   UNL A   1      42.289  18.493  27.356  1.00  0.00    -0.744 OA
ENDBRANCH  79  80
ENDBRANCH  47  72
BRANCH  59  84
ATOM     84  C   UNL A   1      49.595  26.773  26.453  1.00  0.00     0.058 A 
ATOM     85  C   UNL A   1      50.124  26.917  25.159  1.00  0.00     0.135 A 
ATOM     86  C   UNL A   1      50.403  26.163  27.425  1.00  0.00     0.135 A 
ATOM     87  F   UNL A   1      49.396  27.495  24.191  1.00  0.00    -0.206 F 
ATOM     88  C   UNL A   1      51.380  26.420  24.830  1.00  0.00     0.059 A 
ATOM     89  C   UNL A   1      51.679  25.698  27.129  1.00  0.00     0.059 A 
ATOM     90  F   UNL A   1      49.957  26.016  28.683  1.00  0.00    -0.206 F 
ATOM     91  C   UNL A   1      52.149  25.809  25.821  1.00  0.00     0.060 A 
BRANCH  91  92
ATOM     92  S   UNL A   1      53.772  25.159  25.376  1.00  0.00     0.124 S 
ATOM     93  O   UNL A   1      53.931  25.673  24.019  1.00  0.00    -0.237 OA
ATOM     94  O   UNL A   1      54.635  25.762  26.388  1.00  0.00    -0.237 OA
ATOM     95  O   UNL A   1      53.602  23.714  25.484  1.00  0.00    -0.744 OA
ENDBRANCH  91  92
ENDBRANCH  59  84
ENDBRANCH  33  34
ENDBRANCH  26  28
ENDBRANCH  25  26
ENDBRANCH  24  25
ENDBRANCH   1  24
TORSDOF 18
ENDMDL
