MODEL 1
REMARK VINA RESULT:     -11.3      0.000      0.000
REMARK SMILES Cc1ccc([C@H](CC2CCCC2)C(=O)OCCOCCOC(=O)c2ccc(-c3c4nc(c(-c5c(F)cc(S(=O)(=O)[O-])cc5F)c5ccc([nH]5)c(-c5c(F)cc(S(=O)(=O)[O-])cc5F)c5nc(c(-c6c(F)cc(S(=O)(=O)[O-])cc6F)c6ccc3[nH]6)C=C5)C=C4)cc2)cc1
REMARK SMILES IDX 19 1 18 2 17 3 16 4 15 5 13 6 14 7 6 8 5 9 1 10 2 11 3 12
REMARK SMILES IDX 91 13 4 14 90 15 7 16 8 17 9 18 12 19 10 20 11 21 20 22
REMARK SMILES IDX 21 23 22 24 23 25 24 26 25 27 89 28 26 29 88 30 27 31 28 32
REMARK SMILES IDX 29 33 82 34 30 35 87 36 81 37 83 38 31 39 86 40 80 41 79 42
REMARK SMILES IDX 32 44 66 45 45 46 65 47 46 48 49 49 64 50 84 51 47 52 48 53
REMARK SMILES IDX 63 55 85 56 50 57 33 58 34 59 43 60 35 61 36 62 42 63 44 64
REMARK SMILES IDX 37 65 38 66 39 67 40 68 41 69 67 70 68 71 77 72 69 73 70 74
REMARK SMILES IDX 76 75 78 76 71 77 72 78 73 79 74 80 75 81 51 82 52 83 61 84
REMARK SMILES IDX 53 85 54 86 60 87 62 88 55 89 56 90 57 91 58 92 59 93
REMARK H PARENT 83 43 49 54
REMARK Flexibility Score: inf
ROOT
ATOM      1  C   UNL A   1      35.787  21.533  25.284  1.00  0.00     0.202 C 
ENDROOT
BRANCH   1   2
ATOM      2  O   UNL A   1      35.672  22.435  24.217  1.00  0.00    -0.374 OA
BRANCH   2   3
ATOM      3  C   UNL A   1      34.393  22.572  23.613  1.00  0.00     0.202 C 
BRANCH   3   4
ATOM      4  C   UNL A   1      33.953  23.947  24.000  1.00  0.00     0.261 C 
BRANCH   4   5
ATOM      5  O   UNL A   1      34.182  24.862  22.940  1.00  0.00    -0.463 OA
BRANCH   5   6
ATOM      6  C   UNL A   1      33.150  25.642  22.496  1.00  0.00     0.313 C 
ATOM      7  O   UNL A   1      32.723  25.738  21.365  1.00  0.00    -0.252 OA
BRANCH   6   8
ATOM      8  C   UNL A   1      32.624  26.420  23.702  1.00  0.00     0.129 C 
BRANCH   8   9
ATOM      9  C   UNL A   1      31.219  26.921  23.345  1.00  0.00    -0.034 A 
ATOM     10  C   UNL A   1      27.307  28.747  23.076  1.00  0.00     0.044 C 
ATOM     11  C   UNL A   1      28.657  28.100  23.135  1.00  0.00    -0.051 A 
ATOM     12  C   UNL A   1      29.777  28.720  22.568  1.00  0.00     0.004 A 
ATOM     13  C   UNL A   1      28.812  26.857  23.747  1.00  0.00     0.004 A 
ATOM     14  C   UNL A   1      31.049  28.146  22.686  1.00  0.00     0.005 A 
ATOM     15  C   UNL A   1      30.072  26.264  23.829  1.00  0.00     0.005 A 
ENDBRANCH   8   9
BRANCH   8  16
ATOM     16  C   UNL A   1      33.628  27.551  24.082  1.00  0.00     0.023 C 
BRANCH  16  17
ATOM     17  C   UNL A   1      33.463  28.164  25.494  1.00  0.00    -0.010 C 
ATOM     18  C   UNL A   1      32.718  29.500  25.567  1.00  0.00     0.003 C 
ATOM     19  C   UNL A   1      32.566  27.277  26.354  1.00  0.00     0.003 C 
ATOM     20  C   UNL A   1      32.023  29.567  26.924  1.00  0.00     0.000 C 
ATOM     21  C   UNL A   1      32.085  28.161  27.492  1.00  0.00     0.000 C 
ENDBRANCH  16  17
ENDBRANCH   8  16
ENDBRANCH   6   8
ENDBRANCH   5   6
ENDBRANCH   4   5
ENDBRANCH   3   4
ENDBRANCH   2   3
ENDBRANCH   1   2
BRANCH   1  22
ATOM     22  C   UNL A   1      37.209  21.184  25.694  1.00  0.00     0.261 C 
BRANCH  22  23
ATOM     23  O   UNL A   1      38.144  22.216  25.309  1.00  0.00    -0.460 OA
BRANCH  23  24
ATOM     24  C   UNL A   1      39.224  22.428  26.120  1.00  0.00     0.338 C 
ATOM     25  O   UNL A   1      40.055  21.563  26.351  1.00  0.00    -0.246 OA
BRANCH  24  26
ATOM     26  C   UNL A   1      39.376  23.857  26.517  1.00  0.00     0.060 A 
ATOM     27  C   UNL A   1      40.106  24.771  25.741  1.00  0.00     0.016 A 
ATOM     28  C   UNL A   1      38.895  24.258  27.752  1.00  0.00     0.016 A 
ATOM     29  C   UNL A   1      40.505  26.010  26.281  1.00  0.00     0.010 A 
ATOM     30  C   UNL A   1      39.427  25.390  28.334  1.00  0.00     0.010 A 
ATOM     31  C   UNL A   1      40.240  26.285  27.618  1.00  0.00    -0.014 A 
BRANCH  31  32
ATOM     32  C   UNL A   1      40.702  27.431  28.417  1.00  0.00     0.031 A 
ATOM     33  C   UNL A   1      39.719  28.531  28.623  1.00  0.00     0.074 A 
ATOM     34  C   UNL A   1      41.842  27.428  29.162  1.00  0.00     0.049 A 
ATOM     35  N   UNL A   1      39.989  29.622  29.241  1.00  0.00    -0.248 NA
ATOM     36  C   UNL A   1      38.342  28.516  28.132  1.00  0.00     0.031 C 
ATOM     37  C   UNL A   1      42.149  28.254  30.337  1.00  0.00     0.029 A 
ATOM     38  N   UNL A   1      43.031  26.698  29.002  1.00  0.00    -0.354 N 
ATOM     39  C   UNL A   1      38.819  30.298  29.493  1.00  0.00     0.074 A 
ATOM     40  C   UNL A   1      37.828  29.597  28.724  1.00  0.00     0.031 C 
ATOM     41  C   UNL A   1      43.474  28.251  30.556  1.00  0.00     0.029 A 
ATOM     42  C   UNL A   1      44.079  27.507  29.471  1.00  0.00     0.049 A 
ATOM     43  H   UNL A   1      43.114  25.790  28.630  1.00  0.00     0.167 HD
ATOM     44  C   UNL A   1      38.871  31.319  30.396  1.00  0.00     0.037 A 
ATOM     45  C   UNL A   1      45.088  27.890  28.647  1.00  0.00     0.037 A 
ATOM     46  C   UNL A   1      40.278  31.603  30.732  1.00  0.00     0.049 A 
ATOM     47  C   UNL A   1      45.106  29.386  28.543  1.00  0.00     0.074 A 
ATOM     48  C   UNL A   1      41.086  31.366  31.830  1.00  0.00     0.029 A 
ATOM     49  N   UNL A   1      41.142  31.951  29.692  1.00  0.00    -0.354 N 
ATOM     50  N   UNL A   1      44.083  30.127  28.872  1.00  0.00    -0.248 NA
ATOM     51  C   UNL A   1      46.268  30.179  28.180  1.00  0.00     0.031 C 
ATOM     52  C   UNL A   1      42.441  31.579  31.434  1.00  0.00     0.029 A 
ATOM     53  C   UNL A   1      42.458  31.968  30.102  1.00  0.00     0.049 A 
ATOM     54  H   UNL A   1      40.845  32.161  28.776  1.00  0.00     0.167 HD
ATOM     55  C   UNL A   1      44.419  31.450  28.835  1.00  0.00     0.074 A 
ATOM     56  C   UNL A   1      45.801  31.426  28.387  1.00  0.00     0.031 C 
ATOM     57  C   UNL A   1      43.514  32.417  29.187  1.00  0.00     0.037 A 
BRANCH  44  58
ATOM     58  C   UNL A   1      37.696  32.010  31.070  1.00  0.00     0.058 A 
ATOM     59  C   UNL A   1      37.310  33.309  30.661  1.00  0.00     0.135 A 
ATOM     60  C   UNL A   1      36.930  31.502  32.141  1.00  0.00     0.135 A 
ATOM     61  F   UNL A   1      37.941  33.947  29.664  1.00  0.00    -0.206 F 
ATOM     62  C   UNL A   1      36.273  34.031  31.263  1.00  0.00     0.059 A 
ATOM     63  C   UNL A   1      35.886  32.200  32.755  1.00  0.00     0.059 A 
ATOM     64  F   UNL A   1      37.140  30.297  32.671  1.00  0.00    -0.206 F 
ATOM     65  C   UNL A   1      35.562  33.468  32.311  1.00  0.00     0.060 A 
BRANCH  65  66
ATOM     66  S   UNL A   1      34.223  34.398  33.075  1.00  0.00     0.124 S 
ATOM     67  O   UNL A   1      33.944  35.416  32.067  1.00  0.00    -0.237 OA
ATOM     68  O   UNL A   1      33.198  33.375  33.249  1.00  0.00    -0.237 OA
ATOM     69  O   UNL A   1      34.817  34.899  34.313  1.00  0.00    -0.744 OA
ENDBRANCH  65  66
ENDBRANCH  44  58
BRANCH  45  70
ATOM     70  C   UNL A   1      45.433  26.815  27.661  1.00  0.00     0.058 A 
ATOM     71  C   UNL A   1      45.902  25.603  28.223  1.00  0.00     0.135 A 
ATOM     72  C   UNL A   1      44.761  26.718  26.432  1.00  0.00     0.135 A 
ATOM     73  F   UNL A   1      46.569  25.624  29.389  1.00  0.00    -0.206 F 
ATOM     74  C   UNL A   1      45.535  24.357  27.713  1.00  0.00     0.059 A 
ATOM     75  C   UNL A   1      44.389  25.472  25.900  1.00  0.00     0.059 A 
ATOM     76  F   UNL A   1      44.288  27.823  25.836  1.00  0.00    -0.206 F 
ATOM     77  C   UNL A   1      44.714  24.303  26.591  1.00  0.00     0.060 A 
BRANCH  77  78
ATOM     78  S   UNL A   1      43.884  22.730  26.213  1.00  0.00     0.124 S 
ATOM     79  O   UNL A   1      43.062  23.086  25.065  1.00  0.00    -0.237 OA
ATOM     80  O   UNL A   1      45.009  21.837  25.935  1.00  0.00    -0.237 OA
ATOM     81  O   UNL A   1      43.164  22.424  27.443  1.00  0.00    -0.744 OA
ENDBRANCH  77  78
ENDBRANCH  45  70
BRANCH  57  82
ATOM     82  C   UNL A   1      43.528  33.879  28.752  1.00  0.00     0.058 A 
ATOM     83  C   UNL A   1      43.493  34.981  29.620  1.00  0.00     0.135 A 
ATOM     84  C   UNL A   1      43.731  34.223  27.384  1.00  0.00     0.135 A 
ATOM     85  F   UNL A   1      43.394  34.851  30.945  1.00  0.00    -0.206 F 
ATOM     86  C   UNL A   1      43.603  36.300  29.176  1.00  0.00     0.059 A 
ATOM     87  C   UNL A   1      43.917  35.524  26.930  1.00  0.00     0.059 A 
ATOM     88  F   UNL A   1      43.784  33.306  26.409  1.00  0.00    -0.206 F 
ATOM     89  C   UNL A   1      43.827  36.563  27.832  1.00  0.00     0.060 A 
BRANCH  89  90
ATOM     90  S   UNL A   1      44.016  38.265  27.301  1.00  0.00     0.124 S 
ATOM     91  O   UNL A   1      45.244  38.187  26.516  1.00  0.00    -0.237 OA
ATOM     92  O   UNL A   1      42.791  38.486  26.538  1.00  0.00    -0.237 OA
ATOM     93  O   UNL A   1      44.114  39.009  28.552  1.00  0.00    -0.744 OA
ENDBRANCH  89  90
ENDBRANCH  57  82
ENDBRANCH  31  32
ENDBRANCH  24  26
ENDBRANCH  23  24
ENDBRANCH  22  23
ENDBRANCH   1  22
TORSDOF 20
ENDMDL
MODEL 2
REMARK VINA RESULT:     -11.0      1.575      2.028
REMARK SMILES Cc1ccc([C@H](CC2CCCC2)C(=O)OCCOCCOC(=O)c2ccc(-c3c4nc(c(-c5c(F)cc(S(=O)(=O)[O-])cc5F)c5ccc([nH]5)c(-c5c(F)cc(S(=O)(=O)[O-])cc5F)c5nc(c(-c6c(F)cc(S(=O)(=O)[O-])cc6F)c6ccc3[nH]6)C=C5)C=C4)cc2)cc1
REMARK SMILES IDX 19 1 18 2 17 3 16 4 15 5 13 6 14 7 6 8 5 9 1 10 2 11 3 12
REMARK SMILES IDX 91 13 4 14 90 15 7 16 8 17 9 18 12 19 10 20 11 21 20 22
REMARK SMILES IDX 21 23 22 24 23 25 24 26 25 27 89 28 26 29 88 30 27 31 28 32
REMARK SMILES IDX 29 33 82 34 30 35 87 36 81 37 83 38 31 39 86 40 80 41 79 42
REMARK SMILES IDX 32 44 66 45 45 46 65 47 46 48 49 49 64 50 84 51 47 52 48 53
REMARK SMILES IDX 63 55 85 56 50 57 33 58 34 59 43 60 35 61 36 62 42 63 44 64
REMARK SMILES IDX 37 65 38 66 39 67 40 68 41 69 67 70 68 71 77 72 69 73 70 74
REMARK SMILES IDX 76 75 78 76 71 77 72 78 73 79 74 80 75 81 51 82 52 83 61 84
REMARK SMILES IDX 53 85 54 86 60 87 62 88 55 89 56 90 57 91 58 92 59 93
REMARK H PARENT 83 43 49 54
REMARK Flexibility Score: inf
ROOT
ATOM      1  C   UNL A   1      36.279  21.511  24.958  1.00  0.00     0.202 C 
ENDROOT
BRANCH   1   2
ATOM      2  O   UNL A   1      35.623  22.680  24.546  1.00  0.00    -0.374 OA
BRANCH   2   3
ATOM      3  C   UNL A   1      34.446  22.527  23.765  1.00  0.00     0.202 C 
BRANCH   3   4
ATOM      4  C   UNL A   1      33.432  23.373  24.464  1.00  0.00     0.261 C 
BRANCH   4   5
ATOM      5  O   UNL A   1      33.076  24.490  23.664  1.00  0.00    -0.463 OA
BRANCH   5   6
ATOM      6  C   UNL A   1      31.759  24.845  23.562  1.00  0.00     0.313 C 
ATOM      7  O   UNL A   1      30.885  24.288  22.930  1.00  0.00    -0.252 OA
BRANCH   6   8
ATOM      8  C   UNL A   1      31.571  26.120  24.382  1.00  0.00     0.129 C 
BRANCH   8   9
ATOM      9  C   UNL A   1      30.562  27.000  23.635  1.00  0.00    -0.034 A 
ATOM     10  C   UNL A   1      27.763  29.976  22.215  1.00  0.00     0.044 C 
ATOM     11  C   UNL A   1      28.730  28.928  22.674  1.00  0.00    -0.051 A 
ATOM     12  C   UNL A   1      30.091  29.020  22.362  1.00  0.00     0.004 A 
ATOM     13  C   UNL A   1      28.279  27.832  23.410  1.00  0.00     0.004 A 
ATOM     14  C   UNL A   1      31.003  28.076  22.851  1.00  0.00     0.005 A 
ATOM     15  C   UNL A   1      29.180  26.869  23.864  1.00  0.00     0.005 A 
ENDBRANCH   8   9
BRANCH   8  16
ATOM     16  C   UNL A   1      32.954  26.800  24.629  1.00  0.00     0.023 C 
BRANCH  16  17
ATOM     17  C   UNL A   1      33.045  27.734  25.860  1.00  0.00    -0.010 C 
ATOM     18  C   UNL A   1      33.042  29.237  25.568  1.00  0.00     0.003 C 
ATOM     19  C   UNL A   1      31.793  27.596  26.722  1.00  0.00     0.003 C 
ATOM     20  C   UNL A   1      32.408  29.938  26.766  1.00  0.00     0.000 C 
ATOM     21  C   UNL A   1      31.752  28.844  27.588  1.00  0.00     0.000 C 
ENDBRANCH  16  17
ENDBRANCH   8  16
ENDBRANCH   6   8
ENDBRANCH   5   6
ENDBRANCH   4   5
ENDBRANCH   3   4
ENDBRANCH   2   3
ENDBRANCH   1   2
BRANCH   1  22
ATOM     22  C   UNL A   1      37.779  21.642  25.168  1.00  0.00     0.261 C 
BRANCH  22  23
ATOM     23  O   UNL A   1      38.089  22.509  26.281  1.00  0.00    -0.460 OA
BRANCH  23  24
ATOM     24  C   UNL A   1      39.399  22.851  26.475  1.00  0.00     0.338 C 
ATOM     25  O   UNL A   1      40.321  22.088  26.231  1.00  0.00    -0.246 OA
BRANCH  24  26
ATOM     26  C   UNL A   1      39.576  24.291  26.816  1.00  0.00     0.060 A 
ATOM     27  C   UNL A   1      40.402  25.138  26.061  1.00  0.00     0.016 A 
ATOM     28  C   UNL A   1      39.013  24.770  27.988  1.00  0.00     0.016 A 
ATOM     29  C   UNL A   1      40.806  26.388  26.574  1.00  0.00     0.010 A 
ATOM     30  C   UNL A   1      39.542  25.909  28.558  1.00  0.00     0.010 A 
ATOM     31  C   UNL A   1      40.445  26.738  27.870  1.00  0.00    -0.014 A 
BRANCH  31  32
ATOM     32  C   UNL A   1      40.887  27.904  28.651  1.00  0.00     0.031 A 
ATOM     33  C   UNL A   1      39.900  29.010  28.800  1.00  0.00     0.074 A 
ATOM     34  C   UNL A   1      42.006  27.920  29.426  1.00  0.00     0.049 A 
ATOM     35  N   UNL A   1      40.155  30.117  29.397  1.00  0.00    -0.248 NA
ATOM     36  C   UNL A   1      38.536  28.983  28.274  1.00  0.00     0.031 C 
ATOM     37  C   UNL A   1      42.283  28.777  30.586  1.00  0.00     0.029 A 
ATOM     38  N   UNL A   1      43.198  27.186  29.317  1.00  0.00    -0.354 N 
ATOM     39  C   UNL A   1      38.980  30.800  29.599  1.00  0.00     0.074 A 
ATOM     40  C   UNL A   1      38.008  30.079  28.823  1.00  0.00     0.031 C 
ATOM     41  C   UNL A   1      43.601  28.779  30.841  1.00  0.00     0.029 A 
ATOM     42  C   UNL A   1      44.234  28.007  29.793  1.00  0.00     0.049 A 
ATOM     43  H   UNL A   1      43.290  26.268  28.973  1.00  0.00     0.167 HD
ATOM     44  C   UNL A   1      39.009  31.845  30.475  1.00  0.00     0.037 A 
ATOM     45  C   UNL A   1      45.266  28.366  28.987  1.00  0.00     0.037 A 
ATOM     46  C   UNL A   1      40.406  32.137  30.841  1.00  0.00     0.049 A 
ATOM     47  C   UNL A   1      45.289  29.859  28.843  1.00  0.00     0.074 A 
ATOM     48  C   UNL A   1      41.184  31.929  31.967  1.00  0.00     0.029 A 
ATOM     49  N   UNL A   1      41.298  32.457  29.816  1.00  0.00    -0.354 N 
ATOM     50  N   UNL A   1      44.257  30.610  29.125  1.00  0.00    -0.248 NA
ATOM     51  C   UNL A   1      46.461  30.642  28.491  1.00  0.00     0.031 C 
ATOM     52  C   UNL A   1      42.550  32.130  31.602  1.00  0.00     0.029 A 
ATOM     53  C   UNL A   1      42.603  32.483  30.261  1.00  0.00     0.049 A 
ATOM     54  H   UNL A   1      41.027  32.642  28.887  1.00  0.00     0.167 HD
ATOM     55  C   UNL A   1      44.596  31.931  29.061  1.00  0.00     0.074 A 
ATOM     56  C   UNL A   1      45.990  31.894  28.652  1.00  0.00     0.031 C 
ATOM     57  C   UNL A   1      43.684  32.907  29.363  1.00  0.00     0.037 A 
BRANCH  44  58
ATOM     58  C   UNL A   1      37.817  32.555  31.098  1.00  0.00     0.058 A 
ATOM     59  C   UNL A   1      36.942  33.315  30.287  1.00  0.00     0.135 A 
ATOM     60  C   UNL A   1      37.485  32.583  32.471  1.00  0.00     0.135 A 
ATOM     61  F   UNL A   1      37.118  33.406  28.960  1.00  0.00    -0.206 F 
ATOM     62  C   UNL A   1      35.852  34.036  30.790  1.00  0.00     0.059 A 
ATOM     63  C   UNL A   1      36.400  33.291  32.997  1.00  0.00     0.059 A 
ATOM     64  F   UNL A   1      38.189  31.933  33.397  1.00  0.00    -0.206 F 
ATOM     65  C   UNL A   1      35.587  34.018  32.150  1.00  0.00     0.060 A 
BRANCH  65  66
ATOM     66  S   UNL A   1      34.179  34.940  32.790  1.00  0.00     0.124 S 
ATOM     67  O   UNL A   1      33.251  33.872  33.148  1.00  0.00    -0.237 OA
ATOM     68  O   UNL A   1      34.772  35.669  33.905  1.00  0.00    -0.237 OA
ATOM     69  O   UNL A   1      33.767  35.766  31.657  1.00  0.00    -0.744 OA
ENDBRANCH  65  66
ENDBRANCH  44  58
BRANCH  45  70
ATOM     70  C   UNL A   1      45.635  27.266  28.039  1.00  0.00     0.058 A 
ATOM     71  C   UNL A   1      45.212  27.450  26.701  1.00  0.00     0.135 A 
ATOM     72  C   UNL A   1      46.801  26.507  28.230  1.00  0.00     0.135 A 
ATOM     73  F   UNL A   1      44.094  28.150  26.446  1.00  0.00    -0.206 F 
ATOM     74  C   UNL A   1      46.011  27.096  25.613  1.00  0.00     0.059 A 
ATOM     75  C   UNL A   1      47.615  26.136  27.146  1.00  0.00     0.059 A 
ATOM     76  F   UNL A   1      47.264  26.287  29.469  1.00  0.00    -0.206 F 
ATOM     77  C   UNL A   1      47.249  26.505  25.850  1.00  0.00     0.060 A 
BRANCH  77  78
ATOM     78  S   UNL A   1      48.453  26.467  24.489  1.00  0.00     0.124 S 
ATOM     79  O   UNL A   1      49.700  26.193  25.192  1.00  0.00    -0.237 OA
ATOM     80  O   UNL A   1      47.948  25.382  23.649  1.00  0.00    -0.237 OA
ATOM     81  O   UNL A   1      48.334  27.792  23.895  1.00  0.00    -0.744 OA
ENDBRANCH  77  78
ENDBRANCH  45  70
BRANCH  57  82
ATOM     82  C   UNL A   1      43.712  34.357  28.890  1.00  0.00     0.058 A 
ATOM     83  C   UNL A   1      43.899  35.475  29.718  1.00  0.00     0.135 A 
ATOM     84  C   UNL A   1      43.690  34.663  27.498  1.00  0.00     0.135 A 
ATOM     85  F   UNL A   1      44.028  35.375  31.043  1.00  0.00    -0.206 F 
ATOM     86  C   UNL A   1      44.011  36.775  29.223  1.00  0.00     0.059 A 
ATOM     87  C   UNL A   1      43.874  35.940  26.980  1.00  0.00     0.059 A 
ATOM     88  F   UNL A   1      43.513  33.727  26.556  1.00  0.00    -0.206 F 
ATOM     89  C   UNL A   1      44.009  36.998  27.854  1.00  0.00     0.060 A 
BRANCH  89  90
ATOM     90  S   UNL A   1      44.207  38.675  27.248  1.00  0.00     0.124 S 
ATOM     91  O   UNL A   1      42.989  38.842  26.462  1.00  0.00    -0.237 OA
ATOM     92  O   UNL A   1      44.270  39.443  28.488  1.00  0.00    -0.237 OA
ATOM     93  O   UNL A   1      45.448  38.623  26.484  1.00  0.00    -0.744 OA
ENDBRANCH  89  90
ENDBRANCH  57  82
ENDBRANCH  31  32
ENDBRANCH  24  26
ENDBRANCH  23  24
ENDBRANCH  22  23
ENDBRANCH   1  22
TORSDOF 20
ENDMDL
MODEL 3
REMARK VINA RESULT:     -10.9      1.255      2.577
REMARK SMILES Cc1ccc([C@H](CC2CCCC2)C(=O)OCCOCCOC(=O)c2ccc(-c3c4nc(c(-c5c(F)cc(S(=O)(=O)[O-])cc5F)c5ccc([nH]5)c(-c5c(F)cc(S(=O)(=O)[O-])cc5F)c5nc(c(-c6c(F)cc(S(=O)(=O)[O-])cc6F)c6ccc3[nH]6)C=C5)C=C4)cc2)cc1
REMARK SMILES IDX 19 1 18 2 17 3 16 4 15 5 13 6 14 7 6 8 5 9 1 10 2 11 3 12
REMARK SMILES IDX 91 13 4 14 90 15 7 16 8 17 9 18 12 19 10 20 11 21 20 22
REMARK SMILES IDX 21 23 22 24 23 25 24 26 25 27 89 28 26 29 88 30 27 31 28 32
REMARK SMILES IDX 29 33 82 34 30 35 87 36 81 37 83 38 31 39 86 40 80 41 79 42
REMARK SMILES IDX 32 44 66 45 45 46 65 47 46 48 49 49 64 50 84 51 47 52 48 53
REMARK SMILES IDX 63 55 85 56 50 57 33 58 34 59 43 60 35 61 36 62 42 63 44 64
REMARK SMILES IDX 37 65 38 66 39 67 40 68 41 69 67 70 68 71 77 72 69 73 70 74
REMARK SMILES IDX 76 75 78 76 71 77 72 78 73 79 74 80 75 81 51 82 52 83 61 84
REMARK SMILES IDX 53 85 54 86 60 87 62 88 55 89 56 90 57 91 58 92 59 93
REMARK H PARENT 83 43 49 54
REMARK Flexibility Score: inf
ROOT
ATOM      1  C   UNL A   1      37.263  22.136  24.751  1.00  0.00     0.202 C 
ENDROOT
BRANCH   1   2
ATOM      2  O   UNL A   1      36.554  23.125  25.448  1.00  0.00    -0.374 OA
BRANCH   2   3
ATOM      3  C   UNL A   1      35.162  23.238  25.185  1.00  0.00     0.202 C 
BRANCH   3   4
ATOM      4  C   UNL A   1      34.851  24.670  25.478  1.00  0.00     0.261 C 
BRANCH   4   5
ATOM      5  O   UNL A   1      33.733  25.104  24.719  1.00  0.00    -0.463 OA
BRANCH   5   6
ATOM      6  C   UNL A   1      32.551  25.361  25.359  1.00  0.00     0.313 C 
ATOM      7  O   UNL A   1      31.963  24.653  26.148  1.00  0.00    -0.252 OA
BRANCH   6   8
ATOM      8  C   UNL A   1      32.066  26.727  24.873  1.00  0.00     0.129 C 
BRANCH   8   9
ATOM      9  C   UNL A   1      32.642  27.782  25.825  1.00  0.00    -0.034 A 
ATOM     10  C   UNL A   1      34.182  31.281  27.849  1.00  0.00     0.044 C 
ATOM     11  C   UNL A   1      33.652  30.049  27.180  1.00  0.00    -0.051 A 
ATOM     12  C   UNL A   1      32.293  29.719  27.255  1.00  0.00     0.004 A 
ATOM     13  C   UNL A   1      34.513  29.204  26.481  1.00  0.00     0.004 A 
ATOM     14  C   UNL A   1      31.789  28.606  26.571  1.00  0.00     0.005 A 
ATOM     15  C   UNL A   1      34.019  28.073  25.833  1.00  0.00     0.005 A 
ENDBRANCH   8   9
BRANCH   8  16
ATOM     16  C   UNL A   1      30.508  26.733  24.779  1.00  0.00     0.023 C 
BRANCH  16  17
ATOM     17  C   UNL A   1      29.903  27.418  23.530  1.00  0.00    -0.010 C 
ATOM     18  C   UNL A   1      28.377  27.543  23.502  1.00  0.00     0.003 C 
ATOM     19  C   UNL A   1      30.322  28.885  23.477  1.00  0.00     0.003 C 
ATOM     20  C   UNL A   1      28.031  28.792  22.696  1.00  0.00     0.000 C 
ATOM     21  C   UNL A   1      29.330  29.561  22.545  1.00  0.00     0.000 C 
ENDBRANCH  16  17
ENDBRANCH   8  16
ENDBRANCH   6   8
ENDBRANCH   5   6
ENDBRANCH   4   5
ENDBRANCH   3   4
ENDBRANCH   2   3
ENDBRANCH   1   2
BRANCH   1  22
ATOM     22  C   UNL A   1      38.368  21.448  25.537  1.00  0.00     0.261 C 
BRANCH  22  23
ATOM     23  O   UNL A   1      38.845  22.275  26.622  1.00  0.00    -0.460 OA
BRANCH  23  24
ATOM     24  C   UNL A   1      40.077  22.853  26.484  1.00  0.00     0.338 C 
ATOM     25  O   UNL A   1      41.033  22.261  26.007  1.00  0.00    -0.246 OA
BRANCH  24  26
ATOM     26  C   UNL A   1      40.066  24.313  26.788  1.00  0.00     0.060 A 
ATOM     27  C   UNL A   1      40.756  25.242  25.995  1.00  0.00     0.016 A 
ATOM     28  C   UNL A   1      39.468  24.742  27.961  1.00  0.00     0.016 A 
ATOM     29  C   UNL A   1      40.999  26.547  26.470  1.00  0.00     0.010 A 
ATOM     30  C   UNL A   1      39.850  25.956  28.492  1.00  0.00     0.010 A 
ATOM     31  C   UNL A   1      40.621  26.880  27.765  1.00  0.00    -0.014 A 
BRANCH  31  32
ATOM     32  C   UNL A   1      40.918  28.115  28.509  1.00  0.00     0.031 A 
ATOM     33  C   UNL A   1      39.819  29.117  28.588  1.00  0.00     0.074 A 
ATOM     34  C   UNL A   1      42.006  28.276  29.310  1.00  0.00     0.049 A 
ATOM     35  N   UNL A   1      39.941  30.266  29.145  1.00  0.00    -0.248 NA
ATOM     36  C   UNL A   1      38.481  28.928  28.029  1.00  0.00     0.031 C 
ATOM     37  C   UNL A   1      42.160  29.201  30.440  1.00  0.00     0.029 A 
ATOM     38  N   UNL A   1      43.270  27.666  29.261  1.00  0.00    -0.354 N 
ATOM     39  C   UNL A   1      38.696  30.831  29.290  1.00  0.00     0.074 A 
ATOM     40  C   UNL A   1      37.827  29.984  28.520  1.00  0.00     0.031 C 
ATOM     41  C   UNL A   1      43.464  29.349  30.728  1.00  0.00     0.029 A 
ATOM     42  C   UNL A   1      44.203  28.607  29.728  1.00  0.00     0.049 A 
ATOM     43  H   UNL A   1      43.466  26.750  28.956  1.00  0.00     0.167 HD
ATOM     44  C   UNL A   1      38.593  31.905  30.123  1.00  0.00     0.037 A 
ATOM     45  C   UNL A   1      45.214  29.041  28.934  1.00  0.00     0.037 A 
ATOM     46  C   UNL A   1      39.942  32.355  30.511  1.00  0.00     0.049 A 
ATOM     47  C   UNL A   1      45.088  30.521  28.730  1.00  0.00     0.074 A 
ATOM     48  C   UNL A   1      40.704  32.271  31.664  1.00  0.00     0.029 A 
ATOM     49  N   UNL A   1      40.825  32.726  29.497  1.00  0.00    -0.354 N 
ATOM     50  N   UNL A   1      43.977  31.171  28.955  1.00  0.00    -0.248 NA
ATOM     51  C   UNL A   1      46.183  31.408  28.375  1.00  0.00     0.031 C 
ATOM     52  C   UNL A   1      42.052  32.599  31.325  1.00  0.00     0.029 A 
ATOM     53  C   UNL A   1      42.107  32.905  29.972  1.00  0.00     0.049 A 
ATOM     54  H   UNL A   1      40.563  32.847  28.555  1.00  0.00     0.167 HD
ATOM     55  C   UNL A   1      44.181  32.517  28.846  1.00  0.00     0.074 A 
ATOM     56  C   UNL A   1      45.582  32.609  28.473  1.00  0.00     0.031 C 
ATOM     57  C   UNL A   1      43.164  33.404  29.085  1.00  0.00     0.037 A 
BRANCH  44  58
ATOM     58  C   UNL A   1      37.317  32.511  30.687  1.00  0.00     0.058 A 
ATOM     59  C   UNL A   1      36.939  33.827  30.328  1.00  0.00     0.135 A 
ATOM     60  C   UNL A   1      36.439  31.901  31.610  1.00  0.00     0.135 A 
ATOM     61  F   UNL A   1      37.668  34.556  29.471  1.00  0.00    -0.206 F 
ATOM     62  C   UNL A   1      35.807  34.472  30.841  1.00  0.00     0.059 A 
ATOM     63  C   UNL A   1      35.300  32.522  32.132  1.00  0.00     0.059 A 
ATOM     64  F   UNL A   1      36.624  30.665  32.072  1.00  0.00    -0.206 F 
ATOM     65  C   UNL A   1      34.990  33.811  31.744  1.00  0.00     0.060 A 
BRANCH  65  66
ATOM     66  S   UNL A   1      33.531  34.643  32.393  1.00  0.00     0.124 S 
ATOM     67  O   UNL A   1      32.788  34.952  31.175  1.00  0.00    -0.237 OA
ATOM     68  O   UNL A   1      32.949  33.618  33.251  1.00  0.00    -0.237 OA
ATOM     69  O   UNL A   1      34.081  35.802  33.093  1.00  0.00    -0.744 OA
ENDBRANCH  65  66
ENDBRANCH  44  58
BRANCH  45  70
ATOM     70  C   UNL A   1      45.722  27.949  28.041  1.00  0.00     0.058 A 
ATOM     71  C   UNL A   1      46.444  26.920  28.692  1.00  0.00     0.135 A 
ATOM     72  C   UNL A   1      45.032  27.589  26.873  1.00  0.00     0.135 A 
ATOM     73  F   UNL A   1      47.142  27.197  29.806  1.00  0.00    -0.206 F 
ATOM     74  C   UNL A   1      46.308  25.578  28.335  1.00  0.00     0.059 A 
ATOM     75  C   UNL A   1      44.891  26.244  26.494  1.00  0.00     0.059 A 
ATOM     76  F   UNL A   1      44.326  28.511  26.199  1.00  0.00    -0.206 F 
ATOM     77  C   UNL A   1      45.468  25.242  27.277  1.00  0.00     0.060 A 
BRANCH  77  78
ATOM     78  S   UNL A   1      44.950  23.508  27.113  1.00  0.00     0.124 S 
ATOM     79  O   UNL A   1      43.513  23.637  26.912  1.00  0.00    -0.237 OA
ATOM     80  O   UNL A   1      45.714  23.057  25.951  1.00  0.00    -0.237 OA
ATOM     81  O   UNL A   1      45.365  22.910  28.375  1.00  0.00    -0.744 OA
ENDBRANCH  77  78
ENDBRANCH  45  70
BRANCH  57  82
ATOM     82  C   UNL A   1      43.057  34.830  28.554  1.00  0.00     0.058 A 
ATOM     83  C   UNL A   1      42.958  35.183  27.199  1.00  0.00     0.135 A 
ATOM     84  C   UNL A   1      42.901  35.925  29.453  1.00  0.00     0.135 A 
ATOM     85  F   UNL A   1      42.996  34.282  26.216  1.00  0.00    -0.206 F 
ATOM     86  C   UNL A   1      42.767  36.498  26.771  1.00  0.00     0.059 A 
ATOM     87  C   UNL A   1      42.636  37.229  29.050  1.00  0.00     0.059 A 
ATOM     88  F   UNL A   1      42.973  35.783  30.783  1.00  0.00    -0.206 F 
ATOM     89  C   UNL A   1      42.594  37.513  27.701  1.00  0.00     0.060 A 
BRANCH  89  90
ATOM     90  S   UNL A   1      42.299  39.183  27.119  1.00  0.00     0.124 S 
ATOM     91  O   UNL A   1      43.581  39.503  26.499  1.00  0.00    -0.237 OA
ATOM     92  O   UNL A   1      41.182  38.993  26.198  1.00  0.00    -0.237 OA
ATOM     93  O   UNL A   1      41.984  39.923  28.336  1.00  0.00    -0.744 OA
ENDBRANCH  89  90
ENDBRANCH  57  82
ENDBRANCH  31  32
ENDBRANCH  24  26
ENDBRANCH  23  24
ENDBRANCH  22  23
ENDBRANCH   1  22
TORSDOF 20
ENDMDL
