MODEL 1
REMARK VINA RESULT:     -10.1      0.000      0.000
REMARK SMILES CN(CC(N)=O)C(=O)Cn1cccc1C(=O)OCCOCCOC(=O)c1ccc(-c2c3nc(c(-c4c(F)cc(S(=O)(=O)[O-])cc4F)c4ccc([nH]4)c(-c4c(F)cc(S(=O)(=O)[O-])cc4F)c4nc(c(-c5c(F)cc(S(=O)(=O)[O-])cc5F)c5ccc2[nH]5)C=C4)C=C3)cc1
REMARK SMILES IDX 19 1 18 2 17 3 15 4 16 5 14 6 10 7 11 8 12 9 13 10 9 11 7 12
REMARK SMILES IDX 8 13 2 14 1 15 3 16 4 17 5 18 6 19 20 22 21 23 22 24 23 25
REMARK SMILES IDX 24 26 25 27 26 28 27 29 91 30 28 31 90 32 29 33 30 34 31 35
REMARK SMILES IDX 84 36 32 37 89 38 83 39 85 40 33 41 88 42 82 43 81 44 34 46
REMARK SMILES IDX 68 47 47 48 67 49 48 50 51 51 66 52 86 53 49 54 50 55 65 57
REMARK SMILES IDX 87 58 52 59 35 60 36 61 45 62 37 63 38 64 44 65 46 66 39 67
REMARK SMILES IDX 40 68 41 69 42 70 43 71 69 72 70 73 79 74 71 75 72 76 78 77
REMARK SMILES IDX 80 78 73 79 74 80 75 81 76 82 77 83 53 84 54 85 63 86 55 87
REMARK SMILES IDX 56 88 62 89 64 90 57 91 58 92 59 93 60 94 61 95
REMARK H PARENT 5 20 5 21 85 45 51 56
REMARK Flexibility Score: inf
ROOT
ATOM      1  C   UNL A   1      37.675  22.729  26.132  1.00  0.00     0.202 C 
ENDROOT
BRANCH   1   2
ATOM      2  C   UNL A   1      36.989  23.750  25.225  1.00  0.00     0.261 C 
BRANCH   2   3
ATOM      3  O   UNL A   1      35.671  23.315  24.848  1.00  0.00    -0.459 OA
BRANCH   3   4
ATOM      4  C   UNL A   1      35.410  23.434  23.512  1.00  0.00     0.355 C 
ATOM      5  O   UNL A   1      36.105  23.004  22.627  1.00  0.00    -0.244 OA
BRANCH   4   6
ATOM      6  C   UNL A   1      34.075  23.977  23.305  1.00  0.00     0.128 A 
ATOM      7  N   UNL A   1      32.869  23.355  23.028  1.00  0.00    -0.333 N 
ATOM      8  C   UNL A   1      31.874  24.304  23.124  1.00  0.00     0.087 A 
ATOM      9  C   UNL A   1      32.438  25.550  23.206  1.00  0.00     0.020 A 
ATOM     10  C   UNL A   1      33.818  25.346  23.335  1.00  0.00     0.035 A 
BRANCH   7  11
ATOM     11  C   UNL A   1      32.601  21.923  22.884  1.00  0.00     0.222 C 
BRANCH  11  12
ATOM     12  C   UNL A   1      32.567  21.147  24.198  1.00  0.00     0.242 C 
ATOM     13  O   UNL A   1      31.858  21.580  25.114  1.00  0.00    -0.273 OA
BRANCH  12  14
ATOM     14  N   UNL A   1      33.260  19.945  24.346  1.00  0.00    -0.335 N 
ATOM     15  C   UNL A   1      34.673  20.025  24.709  1.00  0.00     0.147 C 
BRANCH  14  16
ATOM     16  C   UNL A   1      32.736  18.590  24.138  1.00  0.00     0.218 C 
BRANCH  16  17
ATOM     17  C   UNL A   1      32.997  17.605  25.276  1.00  0.00     0.237 C 
ATOM     18  N   UNL A   1      32.663  18.043  26.529  1.00  0.00    -0.368 N 
ATOM     19  O   UNL A   1      33.515  16.505  25.129  1.00  0.00    -0.273 OA
ATOM     20  H   UNL A   1      32.247  18.927  26.648  1.00  0.00     0.159 HD
ATOM     21  H   UNL A   1      32.840  17.474  27.313  1.00  0.00     0.159 HD
ENDBRANCH  16  17
ENDBRANCH  14  16
ENDBRANCH  12  14
ENDBRANCH  11  12
ENDBRANCH   7  11
ENDBRANCH   4   6
ENDBRANCH   3   4
ENDBRANCH   2   3
ENDBRANCH   1   2
BRANCH   1  22
ATOM     22  O   UNL A   1      38.663  21.882  25.540  1.00  0.00    -0.374 OA
BRANCH  22  23
ATOM     23  C   UNL A   1      38.297  20.566  25.134  1.00  0.00     0.202 C 
BRANCH  23  24
ATOM     24  C   UNL A   1      39.258  19.411  25.378  1.00  0.00     0.261 C 
BRANCH  24  25
ATOM     25  O   UNL A   1      40.158  19.653  26.443  1.00  0.00    -0.460 OA
BRANCH  25  26
ATOM     26  C   UNL A   1      41.425  19.322  26.121  1.00  0.00     0.338 C 
ATOM     27  O   UNL A   1      41.837  18.235  25.747  1.00  0.00    -0.246 OA
BRANCH  26  28
ATOM     28  C   UNL A   1      42.319  20.419  26.462  1.00  0.00     0.060 A 
ATOM     29  C   UNL A   1      42.236  20.875  27.779  1.00  0.00     0.016 A 
ATOM     30  C   UNL A   1      42.858  21.184  25.420  1.00  0.00     0.016 A 
ATOM     31  C   UNL A   1      42.519  22.195  28.020  1.00  0.00     0.010 A 
ATOM     32  C   UNL A   1      43.093  22.516  25.650  1.00  0.00     0.010 A 
ATOM     33  C   UNL A   1      42.881  23.010  26.940  1.00  0.00    -0.014 A 
BRANCH  33  34
ATOM     34  C   UNL A   1      43.232  24.392  27.244  1.00  0.00     0.031 A 
ATOM     35  C   UNL A   1      41.927  25.198  27.429  1.00  0.00     0.074 A 
ATOM     36  C   UNL A   1      44.577  24.661  27.212  1.00  0.00     0.049 A 
ATOM     37  N   UNL A   1      41.685  26.446  27.196  1.00  0.00    -0.248 NA
ATOM     38  C   UNL A   1      40.665  24.495  27.831  1.00  0.00     0.031 C 
ATOM     39  C   UNL A   1      45.661  23.658  27.026  1.00  0.00     0.029 A 
ATOM     40  N   UNL A   1      45.321  25.814  27.318  1.00  0.00    -0.354 N 
ATOM     41  C   UNL A   1      40.372  26.722  27.641  1.00  0.00     0.074 A 
ATOM     42  C   UNL A   1      39.750  25.462  27.888  1.00  0.00     0.031 C 
ATOM     43  C   UNL A   1      46.875  24.253  26.935  1.00  0.00     0.029 A 
ATOM     44  C   UNL A   1      46.721  25.687  27.074  1.00  0.00     0.049 A 
ATOM     45  H   UNL A   1      44.910  26.678  27.549  1.00  0.00     0.167 HD
ATOM     46  C   UNL A   1      39.936  27.986  27.909  1.00  0.00     0.037 A 
ATOM     47  C   UNL A   1      47.657  26.686  26.945  1.00  0.00     0.037 A 
ATOM     48  C   UNL A   1      40.976  28.910  27.602  1.00  0.00     0.049 A 
ATOM     49  C   UNL A   1      46.906  27.904  27.280  1.00  0.00     0.074 A 
ATOM     50  C   UNL A   1      41.487  29.319  26.398  1.00  0.00     0.029 A 
ATOM     51  N   UNL A   1      41.888  29.161  28.601  1.00  0.00    -0.354 N 
ATOM     52  N   UNL A   1      46.507  28.227  28.474  1.00  0.00    -0.248 NA
ATOM     53  C   UNL A   1      46.452  28.760  26.177  1.00  0.00     0.031 C 
ATOM     54  C   UNL A   1      42.875  29.319  26.636  1.00  0.00     0.029 A 
ATOM     55  C   UNL A   1      43.125  29.210  28.010  1.00  0.00     0.049 A 
ATOM     56  H   UNL A   1      41.690  29.280  29.558  1.00  0.00     0.167 HD
ATOM     57  C   UNL A   1      45.491  29.111  28.209  1.00  0.00     0.074 A 
ATOM     58  C   UNL A   1      45.723  29.624  26.875  1.00  0.00     0.031 C 
ATOM     59  C   UNL A   1      44.290  28.963  28.825  1.00  0.00     0.037 A 
BRANCH  46  60
ATOM     60  C   UNL A   1      38.742  28.517  28.644  1.00  0.00     0.058 A 
ATOM     61  C   UNL A   1      38.055  29.614  28.067  1.00  0.00     0.135 A 
ATOM     62  C   UNL A   1      38.474  28.259  29.995  1.00  0.00     0.135 A 
ATOM     63  F   UNL A   1      38.184  29.896  26.759  1.00  0.00    -0.206 F 
ATOM     64  C   UNL A   1      37.289  30.494  28.817  1.00  0.00     0.059 A 
ATOM     65  C   UNL A   1      37.666  29.106  30.760  1.00  0.00     0.059 A 
ATOM     66  F   UNL A   1      39.051  27.230  30.631  1.00  0.00    -0.206 F 
ATOM     67  C   UNL A   1      37.130  30.253  30.174  1.00  0.00     0.060 A 
BRANCH  67  68
ATOM     68  S   UNL A   1      36.246  31.483  31.153  1.00  0.00     0.124 S 
ATOM     69  O   UNL A   1      35.178  31.878  30.242  1.00  0.00    -0.237 OA
ATOM     70  O   UNL A   1      35.829  30.706  32.317  1.00  0.00    -0.237 OA
ATOM     71  O   UNL A   1      37.262  32.496  31.418  1.00  0.00    -0.744 OA
ENDBRANCH  67  68
ENDBRANCH  46  60
BRANCH  47  72
ATOM     72  C   UNL A   1      49.082  26.913  26.457  1.00  0.00     0.058 A 
ATOM     73  C   UNL A   1      49.578  26.686  25.168  1.00  0.00     0.135 A 
ATOM     74  C   UNL A   1      50.018  27.558  27.324  1.00  0.00     0.135 A 
ATOM     75  F   UNL A   1      48.883  25.957  24.284  1.00  0.00    -0.206 F 
ATOM     76  C   UNL A   1      50.814  27.216  24.730  1.00  0.00     0.059 A 
ATOM     77  C   UNL A   1      51.208  28.144  26.904  1.00  0.00     0.059 A 
ATOM     78  F   UNL A   1      49.793  27.686  28.639  1.00  0.00    -0.206 F 
ATOM     79  C   UNL A   1      51.587  28.003  25.587  1.00  0.00     0.060 A 
BRANCH  79  80
ATOM     80  S   UNL A   1      52.999  28.958  24.978  1.00  0.00     0.124 S 
ATOM     81  O   UNL A   1      53.265  29.861  26.090  1.00  0.00    -0.237 OA
ATOM     82  O   UNL A   1      54.000  27.921  24.743  1.00  0.00    -0.237 OA
ATOM     83  O   UNL A   1      52.478  29.589  23.766  1.00  0.00    -0.744 OA
ENDBRANCH  79  80
ENDBRANCH  47  72
BRANCH  59  84
ATOM     84  C   UNL A   1      44.328  28.255  30.168  1.00  0.00     0.058 A 
ATOM     85  C   UNL A   1      44.980  28.868  31.249  1.00  0.00     0.135 A 
ATOM     86  C   UNL A   1      43.807  26.972  30.422  1.00  0.00     0.135 A 
ATOM     87  F   UNL A   1      45.507  30.094  31.101  1.00  0.00    -0.206 F 
ATOM     88  C   UNL A   1      45.094  28.257  32.503  1.00  0.00     0.059 A 
ATOM     89  C   UNL A   1      43.905  26.336  31.665  1.00  0.00     0.059 A 
ATOM     90  F   UNL A   1      43.181  26.292  29.461  1.00  0.00    -0.206 F 
ATOM     91  C   UNL A   1      44.546  26.993  32.707  1.00  0.00     0.060 A 
BRANCH  91  92
ATOM     92  S   UNL A   1      44.648  26.252  34.353  1.00  0.00     0.124 S 
ATOM     93  O   UNL A   1      45.519  25.102  34.129  1.00  0.00    -0.237 OA
ATOM     94  O   UNL A   1      45.227  27.337  35.140  1.00  0.00    -0.237 OA
ATOM     95  O   UNL A   1      43.262  25.923  34.675  1.00  0.00    -0.744 OA
ENDBRANCH  91  92
ENDBRANCH  59  84
ENDBRANCH  33  34
ENDBRANCH  26  28
ENDBRANCH  25  26
ENDBRANCH  24  25
ENDBRANCH  23  24
ENDBRANCH  22  23
ENDBRANCH   1  22
TORSDOF 22
ENDMDL
MODEL 2
REMARK VINA RESULT:      -9.7      1.668      3.447
REMARK SMILES CN(CC(N)=O)C(=O)Cn1cccc1C(=O)OCCOCCOC(=O)c1ccc(-c2c3nc(c(-c4c(F)cc(S(=O)(=O)[O-])cc4F)c4ccc([nH]4)c(-c4c(F)cc(S(=O)(=O)[O-])cc4F)c4nc(c(-c5c(F)cc(S(=O)(=O)[O-])cc5F)c5ccc2[nH]5)C=C4)C=C3)cc1
REMARK SMILES IDX 19 1 18 2 17 3 15 4 16 5 14 6 10 7 11 8 12 9 13 10 9 11 7 12
REMARK SMILES IDX 8 13 2 14 1 15 3 16 4 17 5 18 6 19 20 22 21 23 22 24 23 25
REMARK SMILES IDX 24 26 25 27 26 28 27 29 91 30 28 31 90 32 29 33 30 34 31 35
REMARK SMILES IDX 84 36 32 37 89 38 83 39 85 40 33 41 88 42 82 43 81 44 34 46
REMARK SMILES IDX 68 47 47 48 67 49 48 50 51 51 66 52 86 53 49 54 50 55 65 57
REMARK SMILES IDX 87 58 52 59 35 60 36 61 45 62 37 63 38 64 44 65 46 66 39 67
REMARK SMILES IDX 40 68 41 69 42 70 43 71 69 72 70 73 79 74 71 75 72 76 78 77
REMARK SMILES IDX 80 78 73 79 74 80 75 81 76 82 77 83 53 84 54 85 63 86 55 87
REMARK SMILES IDX 56 88 62 89 64 90 57 91 58 92 59 93 60 94 61 95
REMARK H PARENT 5 20 5 21 85 45 51 56
REMARK Flexibility Score: inf
ROOT
ATOM      1  C   UNL A   1      36.665  21.734  25.657  1.00  0.00     0.202 C 
ENDROOT
BRANCH   1   2
ATOM      2  C   UNL A   1      35.549  21.515  24.637  1.00  0.00     0.261 C 
BRANCH   2   3
ATOM      3  O   UNL A   1      34.569  22.567  24.699  1.00  0.00    -0.459 OA
BRANCH   3   4
ATOM      4  C   UNL A   1      34.381  23.219  23.512  1.00  0.00     0.355 C 
ATOM      5  O   UNL A   1      35.166  23.239  22.598  1.00  0.00    -0.244 OA
BRANCH   4   6
ATOM      6  C   UNL A   1      33.018  23.722  23.425  1.00  0.00     0.128 A 
ATOM      7  N   UNL A   1      32.523  25.015  23.398  1.00  0.00    -0.333 N 
ATOM      8  C   UNL A   1      31.177  24.945  23.107  1.00  0.00     0.087 A 
ATOM      9  C   UNL A   1      30.759  23.644  23.196  1.00  0.00     0.020 A 
ATOM     10  C   UNL A   1      31.914  22.873  23.380  1.00  0.00     0.035 A 
BRANCH   7  11
ATOM     11  C   UNL A   1      33.271  26.273  23.432  1.00  0.00     0.222 C 
BRANCH  11  12
ATOM     12  C   UNL A   1      33.378  26.912  24.815  1.00  0.00     0.242 C 
ATOM     13  O   UNL A   1      34.275  26.521  25.571  1.00  0.00    -0.273 OA
BRANCH  12  14
ATOM     14  N   UNL A   1      32.534  27.956  25.196  1.00  0.00    -0.335 N 
ATOM     15  C   UNL A   1      31.274  27.598  25.843  1.00  0.00     0.147 C 
BRANCH  14  16
ATOM     16  C   UNL A   1      32.752  29.391  24.986  1.00  0.00     0.218 C 
BRANCH  16  17
ATOM     17  C   UNL A   1      32.047  30.314  25.978  1.00  0.00     0.237 C 
ATOM     18  N   UNL A   1      31.105  31.151  25.445  1.00  0.00    -0.368 N 
ATOM     19  O   UNL A   1      32.312  30.371  27.173  1.00  0.00    -0.273 OA
ATOM     20  H   UNL A   1      30.892  31.105  24.485  1.00  0.00     0.159 HD
ATOM     21  H   UNL A   1      30.638  31.799  26.021  1.00  0.00     0.159 HD
ENDBRANCH  16  17
ENDBRANCH  14  16
ENDBRANCH  12  14
ENDBRANCH  11  12
ENDBRANCH   7  11
ENDBRANCH   4   6
ENDBRANCH   3   4
ENDBRANCH   2   3
ENDBRANCH   1   2
BRANCH   1  22
ATOM     22  O   UNL A   1      37.976  21.287  25.304  1.00  0.00    -0.374 OA
BRANCH  22  23
ATOM     23  C   UNL A   1      38.167  19.930  24.914  1.00  0.00     0.202 C 
BRANCH  23  24
ATOM     24  C   UNL A   1      39.230  19.091  25.607  1.00  0.00     0.261 C 
BRANCH  24  25
ATOM     25  O   UNL A   1      40.175  19.869  26.318  1.00  0.00    -0.460 OA
BRANCH  25  26
ATOM     26  C   UNL A   1      41.441  19.471  26.080  1.00  0.00     0.338 C 
ATOM     27  O   UNL A   1      41.822  18.355  25.763  1.00  0.00    -0.246 OA
BRANCH  26  28
ATOM     28  C   UNL A   1      42.365  20.536  26.442  1.00  0.00     0.060 A 
ATOM     29  C   UNL A   1      42.330  20.934  27.780  1.00  0.00     0.016 A 
ATOM     30  C   UNL A   1      42.886  21.338  25.419  1.00  0.00     0.016 A 
ATOM     31  C   UNL A   1      42.644  22.236  28.071  1.00  0.00     0.010 A 
ATOM     32  C   UNL A   1      43.153  22.654  25.701  1.00  0.00     0.010 A 
ATOM     33  C   UNL A   1      42.988  23.093  27.018  1.00  0.00    -0.014 A 
BRANCH  33  34
ATOM     34  C   UNL A   1      43.374  24.453  27.372  1.00  0.00     0.031 A 
ATOM     35  C   UNL A   1      42.089  25.287  27.579  1.00  0.00     0.074 A 
ATOM     36  C   UNL A   1      44.726  24.688  27.356  1.00  0.00     0.049 A 
ATOM     37  N   UNL A   1      41.882  26.548  27.389  1.00  0.00    -0.248 NA
ATOM     38  C   UNL A   1      40.807  24.603  27.950  1.00  0.00     0.031 C 
ATOM     39  C   UNL A   1      45.784  23.664  27.140  1.00  0.00     0.029 A 
ATOM     40  N   UNL A   1      45.499  25.817  27.506  1.00  0.00    -0.354 N 
ATOM     41  C   UNL A   1      40.573  26.843  27.836  1.00  0.00     0.074 A 
ATOM     42  C   UNL A   1      39.918  25.592  28.036  1.00  0.00     0.031 C 
ATOM     43  C   UNL A   1      47.014  24.229  27.075  1.00  0.00     0.029 A 
ATOM     44  C   UNL A   1      46.897  25.661  27.264  1.00  0.00     0.049 A 
ATOM     45  H   UNL A   1      45.109  26.683  27.766  1.00  0.00     0.167 HD
ATOM     46  C   UNL A   1      40.169  28.107  28.147  1.00  0.00     0.037 A 
ATOM     47  C   UNL A   1      47.859  26.640  27.175  1.00  0.00     0.037 A 
ATOM     48  C   UNL A   1      41.234  29.015  27.878  1.00  0.00     0.049 A 
ATOM     49  C   UNL A   1      47.138  27.865  27.549  1.00  0.00     0.074 A 
ATOM     50  C   UNL A   1      41.763  29.452  26.691  1.00  0.00     0.029 A 
ATOM     51  N   UNL A   1      42.147  29.206  28.889  1.00  0.00    -0.354 N 
ATOM     52  N   UNL A   1      46.741  28.156  28.751  1.00  0.00    -0.248 NA
ATOM     53  C   UNL A   1      46.714  28.771  26.475  1.00  0.00     0.031 C 
ATOM     54  C   UNL A   1      43.149  29.406  26.936  1.00  0.00     0.029 A 
ATOM     55  C   UNL A   1      43.389  29.244  28.306  1.00  0.00     0.049 A 
ATOM     56  H   UNL A   1      41.947  29.296  29.849  1.00  0.00     0.167 HD
ATOM     57  C   UNL A   1      45.750  29.074  28.514  1.00  0.00     0.074 A 
ATOM     58  C   UNL A   1      46.003  29.628  27.199  1.00  0.00     0.031 C 
ATOM     59  C   UNL A   1      44.542  28.937  29.118  1.00  0.00     0.037 A 
BRANCH  46  60
ATOM     60  C   UNL A   1      38.985  28.644  28.894  1.00  0.00     0.058 A 
ATOM     61  C   UNL A   1      38.204  29.637  28.253  1.00  0.00     0.135 A 
ATOM     62  C   UNL A   1      38.805  28.509  30.277  1.00  0.00     0.135 A 
ATOM     63  F   UNL A   1      38.248  29.793  26.919  1.00  0.00    -0.206 F 
ATOM     64  C   UNL A   1      37.426  30.546  28.957  1.00  0.00     0.059 A 
ATOM     65  C   UNL A   1      37.987  29.384  31.001  1.00  0.00     0.059 A 
ATOM     66  F   UNL A   1      39.475  27.583  30.976  1.00  0.00    -0.206 F 
ATOM     67  C   UNL A   1      37.354  30.434  30.338  1.00  0.00     0.060 A 
BRANCH  67  68
ATOM     68  S   UNL A   1      36.449  31.707  31.242  1.00  0.00     0.124 S 
ATOM     69  O   UNL A   1      36.216  31.054  32.525  1.00  0.00    -0.237 OA
ATOM     70  O   UNL A   1      37.408  32.809  31.259  1.00  0.00    -0.237 OA
ATOM     71  O   UNL A   1      35.266  31.929  30.417  1.00  0.00    -0.744 OA
ENDBRANCH  67  68
ENDBRANCH  46  60
BRANCH  47  72
ATOM     72  C   UNL A   1      49.292  26.845  26.702  1.00  0.00     0.058 A 
ATOM     73  C   UNL A   1      50.384  27.260  27.472  1.00  0.00     0.135 A 
ATOM     74  C   UNL A   1      49.646  26.452  25.373  1.00  0.00     0.135 A 
ATOM     75  F   UNL A   1      50.203  27.801  28.683  1.00  0.00    -0.206 F 
ATOM     76  C   UNL A   1      51.720  27.118  27.027  1.00  0.00     0.059 A 
ATOM     77  C   UNL A   1      50.949  26.243  24.933  1.00  0.00     0.059 A 
ATOM     78  F   UNL A   1      48.719  26.208  24.436  1.00  0.00    -0.206 F 
ATOM     79  C   UNL A   1      51.991  26.543  25.783  1.00  0.00     0.060 A 
BRANCH  79  80
ATOM     80  S   UNL A   1      53.670  26.052  25.315  1.00  0.00     0.124 S 
ATOM     81  O   UNL A   1      54.126  27.204  24.547  1.00  0.00    -0.237 OA
ATOM     82  O   UNL A   1      54.311  25.854  26.611  1.00  0.00    -0.237 OA
ATOM     83  O   UNL A   1      53.458  24.828  24.545  1.00  0.00    -0.744 OA
ENDBRANCH  79  80
ENDBRANCH  47  72
BRANCH  59  84
ATOM     84  C   UNL A   1      44.553  28.181  30.435  1.00  0.00     0.058 A 
ATOM     85  C   UNL A   1      45.218  28.738  31.540  1.00  0.00     0.135 A 
ATOM     86  C   UNL A   1      43.995  26.906  30.642  1.00  0.00     0.135 A 
ATOM     87  F   UNL A   1      45.779  29.953  31.436  1.00  0.00    -0.206 F 
ATOM     88  C   UNL A   1      45.308  28.081  32.771  1.00  0.00     0.059 A 
ATOM     89  C   UNL A   1      44.069  26.224  31.862  1.00  0.00     0.059 A 
ATOM     90  F   UNL A   1      43.355  26.278  29.655  1.00  0.00    -0.206 F 
ATOM     91  C   UNL A   1      44.725  26.826  32.929  1.00  0.00     0.060 A 
BRANCH  91  92
ATOM     92  S   UNL A   1      44.798  26.025  34.548  1.00  0.00     0.124 S 
ATOM     93  O   UNL A   1      45.025  27.152  35.448  1.00  0.00    -0.237 OA
ATOM     94  O   UNL A   1      43.481  25.401  34.640  1.00  0.00    -0.237 OA
ATOM     95  O   UNL A   1      45.918  25.095  34.428  1.00  0.00    -0.744 OA
ENDBRANCH  91  92
ENDBRANCH  59  84
ENDBRANCH  33  34
ENDBRANCH  26  28
ENDBRANCH  25  26
ENDBRANCH  24  25
ENDBRANCH  23  24
ENDBRANCH  22  23
ENDBRANCH   1  22
TORSDOF 22
ENDMDL
MODEL 3
REMARK VINA RESULT:      -9.5      5.397     11.146
REMARK SMILES CN(CC(N)=O)C(=O)Cn1cccc1C(=O)OCCOCCOC(=O)c1ccc(-c2c3nc(c(-c4c(F)cc(S(=O)(=O)[O-])cc4F)c4ccc([nH]4)c(-c4c(F)cc(S(=O)(=O)[O-])cc4F)c4nc(c(-c5c(F)cc(S(=O)(=O)[O-])cc5F)c5ccc2[nH]5)C=C4)C=C3)cc1
REMARK SMILES IDX 19 1 18 2 17 3 15 4 16 5 14 6 10 7 11 8 12 9 13 10 9 11 7 12
REMARK SMILES IDX 8 13 2 14 1 15 3 16 4 17 5 18 6 19 20 22 21 23 22 24 23 25
REMARK SMILES IDX 24 26 25 27 26 28 27 29 91 30 28 31 90 32 29 33 30 34 31 35
REMARK SMILES IDX 84 36 32 37 89 38 83 39 85 40 33 41 88 42 82 43 81 44 34 46
REMARK SMILES IDX 68 47 47 48 67 49 48 50 51 51 66 52 86 53 49 54 50 55 65 57
REMARK SMILES IDX 87 58 52 59 35 60 36 61 45 62 37 63 38 64 44 65 46 66 39 67
REMARK SMILES IDX 40 68 41 69 42 70 43 71 69 72 70 73 79 74 71 75 72 76 78 77
REMARK SMILES IDX 80 78 73 79 74 80 75 81 76 82 77 83 53 84 54 85 63 86 55 87
REMARK SMILES IDX 56 88 62 89 64 90 57 91 58 92 59 93 60 94 61 95
REMARK H PARENT 5 20 5 21 85 45 51 56
REMARK Flexibility Score: inf
ROOT
ATOM      1  C   UNL A   1      32.365  30.080  27.190  1.00  0.00     0.202 C 
ENDROOT
BRANCH   1   2
ATOM      2  C   UNL A   1      31.701  28.718  27.387  1.00  0.00     0.261 C 
BRANCH   2   3
ATOM      3  O   UNL A   1      32.137  27.775  26.392  1.00  0.00    -0.459 OA
BRANCH   3   4
ATOM      4  C   UNL A   1      33.450  27.912  26.037  1.00  0.00     0.355 C 
ATOM      5  O   UNL A   1      34.373  27.997  26.805  1.00  0.00    -0.244 OA
BRANCH   4   6
ATOM      6  C   UNL A   1      33.602  27.743  24.598  1.00  0.00     0.128 A 
ATOM      7  N   UNL A   1      33.974  26.644  23.843  1.00  0.00    -0.333 N 
ATOM      8  C   UNL A   1      33.770  26.956  22.516  1.00  0.00     0.087 A 
ATOM      9  C   UNL A   1      33.520  28.297  22.396  1.00  0.00     0.020 A 
ATOM     10  C   UNL A   1      33.400  28.790  23.702  1.00  0.00     0.035 A 
BRANCH   7  11
ATOM     11  C   UNL A   1      34.306  25.295  24.308  1.00  0.00     0.222 C 
BRANCH  11  12
ATOM     12  C   UNL A   1      33.483  24.181  23.666  1.00  0.00     0.242 C 
ATOM     13  O   UNL A   1      33.906  23.670  22.622  1.00  0.00    -0.273 OA
BRANCH  12  14
ATOM     14  N   UNL A   1      32.321  23.700  24.270  1.00  0.00    -0.335 N 
ATOM     15  C   UNL A   1      31.838  24.407  25.454  1.00  0.00     0.147 C 
BRANCH  14  16
ATOM     16  C   UNL A   1      31.537  22.527  23.870  1.00  0.00     0.218 C 
BRANCH  16  17
ATOM     17  C   UNL A   1      32.129  21.176  24.268  1.00  0.00     0.237 C 
ATOM     18  N   UNL A   1      32.190  20.928  25.613  1.00  0.00    -0.368 N 
ATOM     19  O   UNL A   1      32.577  20.359  23.473  1.00  0.00    -0.273 OA
ATOM     20  H   UNL A   1      31.830  21.585  26.252  1.00  0.00     0.159 HD
ATOM     21  H   UNL A   1      32.596  20.093  25.942  1.00  0.00     0.159 HD
ENDBRANCH  16  17
ENDBRANCH  14  16
ENDBRANCH  12  14
ENDBRANCH  11  12
ENDBRANCH   7  11
ENDBRANCH   4   6
ENDBRANCH   3   4
ENDBRANCH   2   3
ENDBRANCH   1   2
BRANCH   1  22
ATOM     22  O   UNL A   1      31.698  31.021  26.345  1.00  0.00    -0.374 OA
BRANCH  22  23
ATOM     23  C   UNL A   1      31.632  32.388  26.741  1.00  0.00     0.202 C 
BRANCH  23  24
ATOM     24  C   UNL A   1      32.560  32.899  27.834  1.00  0.00     0.261 C 
BRANCH  24  25
ATOM     25  O   UNL A   1      33.136  34.155  27.531  1.00  0.00    -0.460 OA
BRANCH  25  26
ATOM     26  C   UNL A   1      33.062  35.011  28.571  1.00  0.00     0.338 C 
ATOM     27  O   UNL A   1      32.271  35.928  28.723  1.00  0.00    -0.246 OA
BRANCH  26  28
ATOM     28  C   UNL A   1      34.208  34.816  29.447  1.00  0.00     0.060 A 
ATOM     29  C   UNL A   1      35.455  34.829  28.818  1.00  0.00     0.016 A 
ATOM     30  C   UNL A   1      33.992  34.239  30.704  1.00  0.00     0.016 A 
ATOM     31  C   UNL A   1      36.460  34.079  29.371  1.00  0.00     0.010 A 
ATOM     32  C   UNL A   1      34.981  33.447  31.232  1.00  0.00     0.010 A 
ATOM     33  C   UNL A   1      36.188  33.348  30.534  1.00  0.00    -0.014 A 
BRANCH  33  34
ATOM     34  C   UNL A   1      37.298  32.611  31.126  1.00  0.00     0.031 A 
ATOM     35  C   UNL A   1      37.544  31.340  30.282  1.00  0.00     0.074 A 
ATOM     36  C   UNL A   1      37.787  33.148  32.290  1.00  0.00     0.049 A 
ATOM     37  N   UNL A   1      37.999  30.184  30.641  1.00  0.00    -0.248 NA
ATOM     38  C   UNL A   1      37.123  31.305  28.844  1.00  0.00     0.031 C 
ATOM     39  C   UNL A   1      37.369  34.443  32.893  1.00  0.00     0.029 A 
ATOM     40  N   UNL A   1      38.719  32.733  33.214  1.00  0.00    -0.354 N 
ATOM     41  C   UNL A   1      38.148  29.398  29.475  1.00  0.00     0.074 A 
ATOM     42  C   UNL A   1      37.465  30.086  28.428  1.00  0.00     0.031 C 
ATOM     43  C   UNL A   1      37.959  34.642  34.097  1.00  0.00     0.029 A 
ATOM     44  C   UNL A   1      38.833  33.525  34.395  1.00  0.00     0.049 A 
ATOM     45  H   UNL A   1      39.275  31.934  33.068  1.00  0.00     0.167 HD
ATOM     46  C   UNL A   1      38.951  28.298  29.427  1.00  0.00     0.037 A 
ATOM     47  C   UNL A   1      39.547  33.250  35.538  1.00  0.00     0.037 A 
ATOM     48  C   UNL A   1      39.511  28.075  30.718  1.00  0.00     0.049 A 
ATOM     49  C   UNL A   1      40.292  32.031  35.193  1.00  0.00     0.074 A 
ATOM     50  C   UNL A   1      38.938  27.633  31.881  1.00  0.00     0.029 A 
ATOM     51  N   UNL A   1      40.679  28.744  31.003  1.00  0.00    -0.354 N 
ATOM     52  N   UNL A   1      41.298  31.982  34.373  1.00  0.00    -0.248 NA
ATOM     53  C   UNL A   1      39.789  30.749  35.700  1.00  0.00     0.031 C 
ATOM     54  C   UNL A   1      39.498  28.491  32.847  1.00  0.00     0.029 A 
ATOM     55  C   UNL A   1      40.578  29.192  32.297  1.00  0.00     0.049 A 
ATOM     56  H   UNL A   1      41.440  28.879  30.394  1.00  0.00     0.167 HD
ATOM     57  C   UNL A   1      41.315  30.658  34.015  1.00  0.00     0.074 A 
ATOM     58  C   UNL A   1      40.623  29.935  35.063  1.00  0.00     0.031 C 
ATOM     59  C   UNL A   1      41.390  30.313  32.705  1.00  0.00     0.037 A 
BRANCH  46  60
ATOM     60  C   UNL A   1      39.503  27.487  28.292  1.00  0.00     0.058 A 
ATOM     61  C   UNL A   1      39.542  26.081  28.453  1.00  0.00     0.135 A 
ATOM     62  C   UNL A   1      40.294  28.016  27.263  1.00  0.00     0.135 A 
ATOM     63  F   UNL A   1      38.761  25.469  29.361  1.00  0.00    -0.206 F 
ATOM     64  C   UNL A   1      40.429  25.273  27.757  1.00  0.00     0.059 A 
ATOM     65  C   UNL A   1      41.161  27.214  26.515  1.00  0.00     0.059 A 
ATOM     66  F   UNL A   1      40.310  29.332  27.009  1.00  0.00    -0.206 F 
ATOM     67  C   UNL A   1      41.264  25.856  26.814  1.00  0.00     0.060 A 
BRANCH  67  68
ATOM     68  S   UNL A   1      42.503  24.810  26.022  1.00  0.00     0.124 S 
ATOM     69  O   UNL A   1      42.628  25.436  24.711  1.00  0.00    -0.237 OA
ATOM     70  O   UNL A   1      43.651  24.969  26.910  1.00  0.00    -0.237 OA
ATOM     71  O   UNL A   1      41.887  23.487  26.038  1.00  0.00    -0.744 OA
ENDBRANCH  67  68
ENDBRANCH  46  60
BRANCH  47  72
ATOM     72  C   UNL A   1      39.676  33.705  36.986  1.00  0.00     0.058 A 
ATOM     73  C   UNL A   1      40.674  34.523  37.528  1.00  0.00     0.135 A 
ATOM     74  C   UNL A   1      38.617  33.413  37.901  1.00  0.00     0.135 A 
ATOM     75  F   UNL A   1      41.806  34.763  36.853  1.00  0.00    -0.206 F 
ATOM     76  C   UNL A   1      40.539  35.143  38.793  1.00  0.00     0.059 A 
ATOM     77  C   UNL A   1      38.427  34.057  39.120  1.00  0.00     0.059 A 
ATOM     78  F   UNL A   1      37.675  32.500  37.627  1.00  0.00    -0.206 F 
ATOM     79  C   UNL A   1      39.379  34.957  39.548  1.00  0.00     0.060 A 
BRANCH  79  80
ATOM     80  S   UNL A   1      39.027  35.973  41.005  1.00  0.00     0.124 S 
ATOM     81  O   UNL A   1      38.579  37.224  40.408  1.00  0.00    -0.237 OA
ATOM     82  O   UNL A   1      38.004  35.190  41.692  1.00  0.00    -0.237 OA
ATOM     83  O   UNL A   1      40.316  36.030  41.692  1.00  0.00    -0.744 OA
ENDBRANCH  79  80
ENDBRANCH  47  72
BRANCH  59  84
ATOM     84  C   UNL A   1      42.052  31.336  31.797  1.00  0.00     0.058 A 
ATOM     85  C   UNL A   1      43.409  31.643  31.984  1.00  0.00     0.135 A 
ATOM     86  C   UNL A   1      41.394  32.075  30.795  1.00  0.00     0.135 A 
ATOM     87  F   UNL A   1      44.118  30.987  32.917  1.00  0.00    -0.206 F 
ATOM     88  C   UNL A   1      44.074  32.605  31.217  1.00  0.00     0.059 A 
ATOM     89  C   UNL A   1      42.034  33.043  30.012  1.00  0.00     0.059 A 
ATOM     90  F   UNL A   1      40.100  31.875  30.544  1.00  0.00    -0.206 F 
ATOM     91  C   UNL A   1      43.382  33.298  30.226  1.00  0.00     0.060 A 
BRANCH  91  92
ATOM     92  S   UNL A   1      44.279  34.489  29.204  1.00  0.00     0.124 S 
ATOM     93  O   UNL A   1      44.202  35.710  30.001  1.00  0.00    -0.237 OA
ATOM     94  O   UNL A   1      45.601  33.878  29.113  1.00  0.00    -0.237 OA
ATOM     95  O   UNL A   1      43.521  34.518  27.955  1.00  0.00    -0.744 OA
ENDBRANCH  91  92
ENDBRANCH  59  84
ENDBRANCH  33  34
ENDBRANCH  26  28
ENDBRANCH  25  26
ENDBRANCH  24  25
ENDBRANCH  23  24
ENDBRANCH  22  23
ENDBRANCH   1  22
TORSDOF 22
ENDMDL
