MODEL 1
REMARK VINA RESULT:     -10.7      0.000      0.000
REMARK SMILES CC(C)(C)c1ccc(C(=O)C[C@H](C(=O)OCCOCCOC(=O)c2ccc(-c3c4nc(c(-c5c(F)cc(S(=O)(=O)[O-])cc5F)c5ccc([nH]5)c(-c5c(F)cc(S(=O)(=O)[O-])cc5F)c5nc(c(-c6c(F)cc(S(=O)(=O)[O-])cc6F)c6ccc3[nH]6)C=C5)C=C4)cc2)[NH+]2CCCC2)cc1
REMARK SMILES IDX 17 1 16 2 15 3 13 4 14 5 12 6 11 7 9 8 10 9 8 10 5 11 6 12
REMARK SMILES IDX 96 13 7 14 95 15 2 16 1 17 3 18 4 19 90 20 91 21 94 22 92 24
REMARK SMILES IDX 93 25 18 26 19 27 20 28 21 29 22 30 23 31 24 32 25 33 89 34
REMARK SMILES IDX 26 35 88 36 27 37 28 38 29 39 82 40 30 41 87 42 81 43 83 44
REMARK SMILES IDX 31 45 86 46 80 47 79 48 32 50 66 51 45 52 65 53 46 54 49 55
REMARK SMILES IDX 64 56 84 57 47 58 48 59 63 61 85 62 50 63 33 64 34 65 43 66
REMARK SMILES IDX 35 67 36 68 42 69 44 70 37 71 38 72 39 73 40 74 41 75 67 76
REMARK SMILES IDX 68 77 77 78 69 79 70 80 76 81 78 82 71 83 72 84 73 85 74 86
REMARK SMILES IDX 75 87 51 88 52 89 61 90 53 91 54 92 60 93 62 94 55 95 56 96
REMARK SMILES IDX 57 97 58 98 59 99
REMARK H PARENT 90 23 83 49 49 60
REMARK Flexibility Score: inf
ROOT
ATOM      1  C   UNL A   1      31.869  30.084  26.014  1.00  0.00     0.202 C 
ENDROOT
BRANCH   1   2
ATOM      2  C   UNL A   1      31.644  29.076  24.882  1.00  0.00     0.261 C 
BRANCH   2   3
ATOM      3  O   UNL A   1      31.651  27.674  25.157  1.00  0.00    -0.459 OA
BRANCH   3   4
ATOM      4  C   UNL A   1      32.759  27.034  24.708  1.00  0.00     0.365 C 
ATOM      5  O   UNL A   1      33.711  27.589  24.188  1.00  0.00    -0.245 OA
BRANCH   4   6
ATOM      6  C   UNL A   1      32.640  25.529  24.775  1.00  0.00     0.302 C 
BRANCH   6   7
ATOM      7  C   UNL A   1      34.067  24.931  24.700  1.00  0.00     0.158 C 
BRANCH   7   8
ATOM      8  C   UNL A   1      34.329  23.767  23.741  1.00  0.00     0.169 C 
ATOM      9  O   UNL A   1      34.852  23.955  22.642  1.00  0.00    -0.294 OA
BRANCH   8  10
ATOM     10  C   UNL A   1      33.928  22.372  24.106  1.00  0.00     0.018 A 
ATOM     11  C   UNL A   1      33.560  19.552  24.308  1.00  0.00    -0.043 A 
ATOM     12  C   UNL A   1      34.727  20.181  24.781  1.00  0.00     0.005 A 
ATOM     13  C   UNL A   1      32.544  20.395  23.816  1.00  0.00     0.005 A 
ATOM     14  C   UNL A   1      34.901  21.569  24.706  1.00  0.00     0.012 A 
ATOM     15  C   UNL A   1      32.718  21.793  23.722  1.00  0.00     0.012 A 
BRANCH  11  16
ATOM     16  C   UNL A   1      33.449  18.008  24.286  1.00  0.00    -0.013 C 
ATOM     17  C   UNL A   1      32.915  17.496  22.928  1.00  0.00     0.016 C 
ATOM     18  C   UNL A   1      32.465  17.520  25.371  1.00  0.00     0.016 C 
ATOM     19  C   UNL A   1      34.802  17.307  24.538  1.00  0.00     0.016 C 
ENDBRANCH  11  16
ENDBRANCH   8  10
ENDBRANCH   7   8
ENDBRANCH   6   7
BRANCH   6  20
ATOM     20  N   UNL A   1      31.782  25.046  25.883  1.00  0.00    -0.323 N 
ATOM     21  C   UNL A   1      32.488  24.364  26.965  1.00  0.00     0.263 C 
ATOM     22  C   UNL A   1      30.577  24.285  25.559  1.00  0.00     0.263 C 
ATOM     23  H   UNL A   1      31.454  25.959  26.199  1.00  0.00     0.348 HD
ATOM     24  C   UNL A   1      31.937  22.957  27.079  1.00  0.00     0.067 C 
ATOM     25  C   UNL A   1      30.668  22.934  26.259  1.00  0.00     0.067 C 
ENDBRANCH   6  20
ENDBRANCH   4   6
ENDBRANCH   3   4
ENDBRANCH   2   3
ENDBRANCH   1   2
BRANCH   1  26
ATOM     26  O   UNL A   1      31.270  31.358  26.000  1.00  0.00    -0.374 OA
BRANCH  26  27
ATOM     27  C   UNL A   1      31.618  32.414  26.889  1.00  0.00     0.202 C 
BRANCH  27  28
ATOM     28  C   UNL A   1      32.982  32.491  27.584  1.00  0.00     0.261 C 
BRANCH  28  29
ATOM     29  O   UNL A   1      33.608  33.768  27.567  1.00  0.00    -0.460 OA
BRANCH  29  30
ATOM     30  C   UNL A   1      33.507  34.499  28.699  1.00  0.00     0.338 C 
ATOM     31  O   UNL A   1      32.566  35.177  29.068  1.00  0.00    -0.246 OA
BRANCH  30  32
ATOM     32  C   UNL A   1      34.652  34.084  29.527  1.00  0.00     0.060 A 
ATOM     33  C   UNL A   1      35.937  34.394  29.068  1.00  0.00     0.016 A 
ATOM     34  C   UNL A   1      34.447  33.543  30.803  1.00  0.00     0.016 A 
ATOM     35  C   UNL A   1      37.033  34.089  29.861  1.00  0.00     0.010 A 
ATOM     36  C   UNL A   1      35.544  33.232  31.595  1.00  0.00     0.010 A 
ATOM     37  C   UNL A   1      36.835  33.450  31.094  1.00  0.00    -0.014 A 
BRANCH  37  38
ATOM     38  C   UNL A   1      37.984  32.761  31.703  1.00  0.00     0.031 A 
ATOM     39  C   UNL A   1      38.443  33.257  33.046  1.00  0.00     0.074 A 
ATOM     40  C   UNL A   1      38.525  31.681  31.119  1.00  0.00     0.049 A 
ATOM     41  N   UNL A   1      39.364  32.776  33.835  1.00  0.00    -0.248 NA
ATOM     42  C   UNL A   1      37.766  34.456  33.573  1.00  0.00     0.031 C 
ATOM     43  C   UNL A   1      38.115  31.122  29.830  1.00  0.00     0.029 A 
ATOM     44  N   UNL A   1      39.526  30.853  31.546  1.00  0.00    -0.354 N 
ATOM     45  C   UNL A   1      39.370  33.608  34.948  1.00  0.00     0.074 A 
ATOM     46  C   UNL A   1      38.402  34.652  34.716  1.00  0.00     0.031 C 
ATOM     47  C   UNL A   1      38.854  30.029  29.577  1.00  0.00     0.029 A 
ATOM     48  C   UNL A   1      39.800  29.829  30.672  1.00  0.00     0.049 A 
ATOM     49  H   UNL A   1      40.003  30.977  32.398  1.00  0.00     0.167 HD
ATOM     50  C   UNL A   1      40.109  33.495  36.074  1.00  0.00     0.037 A 
ATOM     51  C   UNL A   1      40.717  28.848  30.761  1.00  0.00     0.037 A 
ATOM     52  C   UNL A   1      41.071  32.446  36.278  1.00  0.00     0.049 A 
ATOM     53  C   UNL A   1      41.567  28.771  32.003  1.00  0.00     0.074 A 
ATOM     54  C   UNL A   1      41.883  32.223  37.373  1.00  0.00     0.029 A 
ATOM     55  N   UNL A   1      41.352  31.447  35.355  1.00  0.00    -0.354 N 
ATOM     56  N   UNL A   1      41.554  29.550  33.062  1.00  0.00    -0.248 NA
ATOM     57  C   UNL A   1      42.542  27.678  32.073  1.00  0.00     0.031 C 
ATOM     58  C   UNL A   1      42.698  31.122  37.087  1.00  0.00     0.029 A 
ATOM     59  C   UNL A   1      42.343  30.617  35.845  1.00  0.00     0.049 A 
ATOM     60  H   UNL A   1      40.911  31.345  34.480  1.00  0.00     0.167 HD
ATOM     61  C   UNL A   1      42.494  29.021  33.938  1.00  0.00     0.074 A 
ATOM     62  C   UNL A   1      43.048  27.849  33.288  1.00  0.00     0.031 C 
ATOM     63  C   UNL A   1      42.868  29.455  35.169  1.00  0.00     0.037 A 
BRANCH  50  64
ATOM     64  C   UNL A   1      39.926  34.542  37.137  1.00  0.00     0.058 A 
ATOM     65  C   UNL A   1      40.592  35.779  37.089  1.00  0.00     0.135 A 
ATOM     66  C   UNL A   1      39.063  34.308  38.219  1.00  0.00     0.135 A 
ATOM     67  F   UNL A   1      41.454  36.045  36.095  1.00  0.00    -0.206 F 
ATOM     68  C   UNL A   1      40.424  36.735  38.086  1.00  0.00     0.059 A 
ATOM     69  C   UNL A   1      38.855  35.262  39.211  1.00  0.00     0.059 A 
ATOM     70  F   UNL A   1      38.413  33.137  38.324  1.00  0.00    -0.206 F 
ATOM     71  C   UNL A   1      39.549  36.469  39.141  1.00  0.00     0.060 A 
BRANCH  71  72
ATOM     72  S   UNL A   1      39.328  37.726  40.417  1.00  0.00     0.124 S 
ATOM     73  O   UNL A   1      38.163  38.448  39.917  1.00  0.00    -0.237 OA
ATOM     74  O   UNL A   1      39.110  36.919  41.613  1.00  0.00    -0.237 OA
ATOM     75  O   UNL A   1      40.585  38.467  40.385  1.00  0.00    -0.744 OA
ENDBRANCH  71  72
ENDBRANCH  50  64
BRANCH  51  76
ATOM     76  C   UNL A   1      40.869  27.867  29.653  1.00  0.00     0.058 A 
ATOM     77  C   UNL A   1      41.906  27.973  28.716  1.00  0.00     0.135 A 
ATOM     78  C   UNL A   1      39.978  26.789  29.520  1.00  0.00     0.135 A 
ATOM     79  F   UNL A   1      42.783  28.986  28.796  1.00  0.00    -0.206 F 
ATOM     80  C   UNL A   1      42.048  27.057  27.676  1.00  0.00     0.059 A 
ATOM     81  C   UNL A   1      40.115  25.846  28.507  1.00  0.00     0.059 A 
ATOM     82  F   UNL A   1      38.977  26.632  30.399  1.00  0.00    -0.206 F 
ATOM     83  C   UNL A   1      41.148  25.994  27.584  1.00  0.00     0.060 A 
BRANCH  83  84
ATOM     84  S   UNL A   1      41.367  24.784  26.261  1.00  0.00     0.124 S 
ATOM     85  O   UNL A   1      40.057  24.144  26.228  1.00  0.00    -0.237 OA
ATOM     86  O   UNL A   1      41.693  25.636  25.121  1.00  0.00    -0.237 OA
ATOM     87  O   UNL A   1      42.466  23.953  26.746  1.00  0.00    -0.744 OA
ENDBRANCH  83  84
ENDBRANCH  51  76
BRANCH  63  88
ATOM     88  C   UNL A   1      43.886  28.631  35.907  1.00  0.00     0.058 A 
ATOM     89  C   UNL A   1      45.261  28.899  35.824  1.00  0.00     0.135 A 
ATOM     90  C   UNL A   1      43.471  27.579  36.740  1.00  0.00     0.135 A 
ATOM     91  F   UNL A   1      45.711  29.894  35.042  1.00  0.00    -0.206 F 
ATOM     92  C   UNL A   1      46.192  28.125  36.507  1.00  0.00     0.059 A 
ATOM     93  C   UNL A   1      44.381  26.815  37.460  1.00  0.00     0.059 A 
ATOM     94  F   UNL A   1      42.165  27.293  36.868  1.00  0.00    -0.206 F 
ATOM     95  C   UNL A   1      45.742  27.084  37.321  1.00  0.00     0.060 A 
BRANCH  95  96
ATOM     96  S   UNL A   1      46.960  26.089  38.205  1.00  0.00     0.124 S 
ATOM     97  O   UNL A   1      46.860  24.814  37.503  1.00  0.00    -0.237 OA
ATOM     98  O   UNL A   1      48.192  26.839  37.986  1.00  0.00    -0.237 OA
ATOM     99  O   UNL A   1      46.467  26.090  39.579  1.00  0.00    -0.744 OA
ENDBRANCH  95  96
ENDBRANCH  63  88
ENDBRANCH  37  38
ENDBRANCH  30  32
ENDBRANCH  29  30
ENDBRANCH  28  29
ENDBRANCH  27  28
ENDBRANCH  26  27
ENDBRANCH   1  26
TORSDOF 22
ENDMDL
MODEL 2
REMARK VINA RESULT:     -10.7      6.139      8.681
REMARK SMILES CC(C)(C)c1ccc(C(=O)C[C@H](C(=O)OCCOCCOC(=O)c2ccc(-c3c4nc(c(-c5c(F)cc(S(=O)(=O)[O-])cc5F)c5ccc([nH]5)c(-c5c(F)cc(S(=O)(=O)[O-])cc5F)c5nc(c(-c6c(F)cc(S(=O)(=O)[O-])cc6F)c6ccc3[nH]6)C=C5)C=C4)cc2)[NH+]2CCCC2)cc1
REMARK SMILES IDX 17 1 16 2 15 3 13 4 14 5 12 6 11 7 9 8 10 9 8 10 5 11 6 12
REMARK SMILES IDX 96 13 7 14 95 15 2 16 1 17 3 18 4 19 90 20 91 21 94 22 92 24
REMARK SMILES IDX 93 25 18 26 19 27 20 28 21 29 22 30 23 31 24 32 25 33 89 34
REMARK SMILES IDX 26 35 88 36 27 37 28 38 29 39 82 40 30 41 87 42 81 43 83 44
REMARK SMILES IDX 31 45 86 46 80 47 79 48 32 50 66 51 45 52 65 53 46 54 49 55
REMARK SMILES IDX 64 56 84 57 47 58 48 59 63 61 85 62 50 63 33 64 34 65 43 66
REMARK SMILES IDX 35 67 36 68 42 69 44 70 37 71 38 72 39 73 40 74 41 75 67 76
REMARK SMILES IDX 68 77 77 78 69 79 70 80 76 81 78 82 71 83 72 84 73 85 74 86
REMARK SMILES IDX 75 87 51 88 52 89 61 90 53 91 54 92 60 93 62 94 55 95 56 96
REMARK SMILES IDX 57 97 58 98 59 99
REMARK H PARENT 90 23 83 49 49 60
REMARK Flexibility Score: inf
ROOT
ATOM      1  C   UNL A   1      33.770  30.715  27.286  1.00  0.00     0.202 C 
ENDROOT
BRANCH   1   2
ATOM      2  C   UNL A   1      32.431  30.238  26.715  1.00  0.00     0.261 C 
BRANCH   2   3
ATOM      3  O   UNL A   1      32.235  30.178  25.300  1.00  0.00    -0.459 OA
BRANCH   3   4
ATOM      4  C   UNL A   1      31.414  29.174  24.905  1.00  0.00     0.365 C 
ATOM      5  O   UNL A   1      31.126  28.208  25.592  1.00  0.00    -0.245 OA
BRANCH   4   6
ATOM      6  C   UNL A   1      30.999  29.286  23.456  1.00  0.00     0.302 C 
BRANCH   6   7
ATOM      7  C   UNL A   1      31.361  27.955  22.749  1.00  0.00     0.158 C 
BRANCH   7   8
ATOM      8  C   UNL A   1      32.826  27.511  22.720  1.00  0.00     0.169 C 
ATOM      9  O   UNL A   1      33.695  28.221  22.213  1.00  0.00    -0.294 OA
BRANCH   8  10
ATOM     10  C   UNL A   1      33.233  26.186  23.285  1.00  0.00     0.018 A 
ATOM     11  C   UNL A   1      34.608  23.859  24.192  1.00  0.00    -0.043 A 
ATOM     12  C   UNL A   1      34.630  25.062  24.922  1.00  0.00     0.005 A 
ATOM     13  C   UNL A   1      33.796  23.834  23.040  1.00  0.00     0.005 A 
ATOM     14  C   UNL A   1      33.936  26.201  24.492  1.00  0.00     0.012 A 
ATOM     15  C   UNL A   1      33.106  24.981  22.592  1.00  0.00     0.012 A 
BRANCH  11  16
ATOM     16  C   UNL A   1      35.486  22.659  24.621  1.00  0.00    -0.013 C 
ATOM     17  C   UNL A   1      34.695  21.331  24.578  1.00  0.00     0.016 C 
ATOM     18  C   UNL A   1      35.984  22.841  26.070  1.00  0.00     0.016 C 
ATOM     19  C   UNL A   1      36.730  22.478  23.723  1.00  0.00     0.016 C 
ENDBRANCH  11  16
ENDBRANCH   8  10
ENDBRANCH   7   8
ENDBRANCH   6   7
BRANCH   6  20
ATOM     20  N   UNL A   1      29.613  29.774  23.267  1.00  0.00    -0.323 N 
ATOM     21  C   UNL A   1      29.168  29.865  21.879  1.00  0.00     0.263 C 
ATOM     22  C   UNL A   1      29.191  30.982  23.974  1.00  0.00     0.263 C 
ATOM     23  H   UNL A   1      29.139  29.002  23.738  1.00  0.00     0.348 HD
ATOM     24  C   UNL A   1      28.791  31.305  21.594  1.00  0.00     0.067 C 
ATOM     25  C   UNL A   1      28.714  31.993  22.938  1.00  0.00     0.067 C 
ENDBRANCH   6  20
ENDBRANCH   4   6
ENDBRANCH   3   4
ENDBRANCH   2   3
ENDBRANCH   1   2
BRANCH   1  26
ATOM     26  O   UNL A   1      33.885  31.931  27.986  1.00  0.00    -0.374 OA
BRANCH  26  27
ATOM     27  C   UNL A   1      35.032  32.317  28.735  1.00  0.00     0.202 C 
BRANCH  27  28
ATOM     28  C   UNL A   1      35.261  31.869  30.183  1.00  0.00     0.261 C 
BRANCH  28  29
ATOM     29  O   UNL A   1      36.614  31.618  30.541  1.00  0.00    -0.460 OA
BRANCH  29  30
ATOM     30  C   UNL A   1      36.927  30.337  30.833  1.00  0.00     0.338 C 
ATOM     31  O   UNL A   1      36.183  29.457  31.226  1.00  0.00    -0.246 OA
BRANCH  30  32
ATOM     32  C   UNL A   1      38.291  30.146  30.311  1.00  0.00     0.060 A 
ATOM     33  C   UNL A   1      38.470  30.173  28.924  1.00  0.00     0.016 A 
ATOM     34  C   UNL A   1      39.385  30.100  31.184  1.00  0.00     0.016 A 
ATOM     35  C   UNL A   1      39.751  30.076  28.403  1.00  0.00     0.010 A 
ATOM     36  C   UNL A   1      40.668  29.997  30.663  1.00  0.00     0.010 A 
ATOM     37  C   UNL A   1      40.840  29.923  29.273  1.00  0.00    -0.014 A 
BRANCH  37  38
ATOM     38  C   UNL A   1      42.097  29.400  28.716  1.00  0.00     0.031 A 
ATOM     39  C   UNL A   1      43.261  30.349  28.648  1.00  0.00     0.074 A 
ATOM     40  C   UNL A   1      42.211  28.107  28.377  1.00  0.00     0.049 A 
ATOM     41  N   UNL A   1      44.494  30.122  28.289  1.00  0.00    -0.248 NA
ATOM     42  C   UNL A   1      42.997  31.744  29.046  1.00  0.00     0.031 C 
ATOM     43  C   UNL A   1      41.135  27.117  28.443  1.00  0.00     0.029 A 
ATOM     44  N   UNL A   1      43.294  27.402  27.928  1.00  0.00    -0.354 N 
ATOM     45  C   UNL A   1      45.150  31.339  28.424  1.00  0.00     0.074 A 
ATOM     46  C   UNL A   1      44.174  32.314  28.847  1.00  0.00     0.031 C 
ATOM     47  C   UNL A   1      41.619  25.924  28.057  1.00  0.00     0.029 A 
ATOM     48  C   UNL A   1      43.028  26.075  27.698  1.00  0.00     0.049 A 
ATOM     49  H   UNL A   1      44.179  27.807  27.784  1.00  0.00     0.167 HD
ATOM     50  C   UNL A   1      46.460  31.611  28.229  1.00  0.00     0.037 A 
ATOM     51  C   UNL A   1      43.841  25.102  27.246  1.00  0.00     0.037 A 
ATOM     52  C   UNL A   1      47.410  30.621  27.803  1.00  0.00     0.049 A 
ATOM     53  C   UNL A   1      45.286  25.440  26.985  1.00  0.00     0.074 A 
ATOM     54  C   UNL A   1      48.763  30.771  27.567  1.00  0.00     0.029 A 
ATOM     55  N   UNL A   1      47.098  29.293  27.540  1.00  0.00    -0.354 N 
ATOM     56  N   UNL A   1      45.905  26.590  27.134  1.00  0.00    -0.248 NA
ATOM     57  C   UNL A   1      46.147  24.350  26.512  1.00  0.00     0.031 C 
ATOM     58  C   UNL A   1      49.258  29.545  27.106  1.00  0.00     0.029 A 
ATOM     59  C   UNL A   1      48.229  28.616  27.123  1.00  0.00     0.049 A 
ATOM     60  H   UNL A   1      46.204  28.893  27.637  1.00  0.00     0.167 HD
ATOM     61  C   UNL A   1      47.235  26.354  26.806  1.00  0.00     0.074 A 
ATOM     62  C   UNL A   1      47.330  24.948  26.462  1.00  0.00     0.031 C 
ATOM     63  C   UNL A   1      48.286  27.213  26.791  1.00  0.00     0.037 A 
BRANCH  50  64
ATOM     64  C   UNL A   1      46.918  33.027  28.442  1.00  0.00     0.058 A 
ATOM     65  C   UNL A   1      47.422  33.472  29.677  1.00  0.00     0.135 A 
ATOM     66  C   UNL A   1      46.860  33.954  27.390  1.00  0.00     0.135 A 
ATOM     67  F   UNL A   1      47.471  32.637  30.727  1.00  0.00    -0.206 F 
ATOM     68  C   UNL A   1      47.831  34.788  29.865  1.00  0.00     0.059 A 
ATOM     69  C   UNL A   1      47.293  35.268  27.546  1.00  0.00     0.059 A 
ATOM     70  F   UNL A   1      46.373  33.589  26.193  1.00  0.00    -0.206 F 
ATOM     71  C   UNL A   1      47.767  35.678  28.791  1.00  0.00     0.060 A 
BRANCH  71  72
ATOM     72  S   UNL A   1      48.318  37.378  29.045  1.00  0.00     0.124 S 
ATOM     73  O   UNL A   1      47.654  38.068  27.944  1.00  0.00    -0.237 OA
ATOM     74  O   UNL A   1      47.806  37.673  30.379  1.00  0.00    -0.237 OA
ATOM     75  O   UNL A   1      49.770  37.284  28.941  1.00  0.00    -0.744 OA
ENDBRANCH  71  72
ENDBRANCH  50  64
BRANCH  51  76
ATOM     76  C   UNL A   1      43.309  23.731  27.023  1.00  0.00     0.058 A 
ATOM     77  C   UNL A   1      42.961  23.278  25.743  1.00  0.00     0.135 A 
ATOM     78  C   UNL A   1      43.155  22.836  28.095  1.00  0.00     0.135 A 
ATOM     79  F   UNL A   1      43.087  24.093  24.685  1.00  0.00    -0.206 F 
ATOM     80  C   UNL A   1      42.460  21.995  25.533  1.00  0.00     0.059 A 
ATOM     81  C   UNL A   1      42.684  21.541  27.907  1.00  0.00     0.059 A 
ATOM     82  F   UNL A   1      43.489  23.213  29.339  1.00  0.00    -0.206 F 
ATOM     83  C   UNL A   1      42.330  21.133  26.623  1.00  0.00     0.060 A 
BRANCH  83  84
ATOM     84  S   UNL A   1      41.726  19.455  26.336  1.00  0.00     0.124 S 
ATOM     85  O   UNL A   1      42.132  18.782  27.564  1.00  0.00    -0.237 OA
ATOM     86  O   UNL A   1      40.293  19.673  26.167  1.00  0.00    -0.237 OA
ATOM     87  O   UNL A   1      42.436  19.047  25.126  1.00  0.00    -0.744 OA
ENDBRANCH  83  84
ENDBRANCH  51  76
BRANCH  63  88
ATOM     88  C   UNL A   1      49.632  26.643  26.439  1.00  0.00     0.058 A 
ATOM     89  C   UNL A   1      50.150  26.709  25.136  1.00  0.00     0.135 A 
ATOM     90  C   UNL A   1      50.431  26.056  27.434  1.00  0.00     0.135 A 
ATOM     91  F   UNL A   1      49.427  27.260  24.147  1.00  0.00    -0.206 F 
ATOM     92  C   UNL A   1      51.393  26.172  24.823  1.00  0.00     0.059 A 
ATOM     93  C   UNL A   1      51.692  25.546  27.152  1.00  0.00     0.059 A 
ATOM     94  F   UNL A   1      49.990  25.985  28.701  1.00  0.00    -0.206 F 
ATOM     95  C   UNL A   1      52.157  25.591  25.838  1.00  0.00     0.060 A 
BRANCH  95  96
ATOM     96  S   UNL A   1      53.770  24.903  25.420  1.00  0.00     0.124 S 
ATOM     97  O   UNL A   1      54.182  25.770  24.321  1.00  0.00    -0.237 OA
ATOM     98  O   UNL A   1      54.510  25.065  26.667  1.00  0.00    -0.237 OA
ATOM     99  O   UNL A   1      53.466  23.524  25.051  1.00  0.00    -0.744 OA
ENDBRANCH  95  96
ENDBRANCH  63  88
ENDBRANCH  37  38
ENDBRANCH  30  32
ENDBRANCH  29  30
ENDBRANCH  28  29
ENDBRANCH  27  28
ENDBRANCH  26  27
ENDBRANCH   1  26
TORSDOF 22
ENDMDL
MODEL 3
REMARK VINA RESULT:     -10.6      6.366      8.550
REMARK SMILES CC(C)(C)c1ccc(C(=O)C[C@H](C(=O)OCCOCCOC(=O)c2ccc(-c3c4nc(c(-c5c(F)cc(S(=O)(=O)[O-])cc5F)c5ccc([nH]5)c(-c5c(F)cc(S(=O)(=O)[O-])cc5F)c5nc(c(-c6c(F)cc(S(=O)(=O)[O-])cc6F)c6ccc3[nH]6)C=C5)C=C4)cc2)[NH+]2CCCC2)cc1
REMARK SMILES IDX 17 1 16 2 15 3 13 4 14 5 12 6 11 7 9 8 10 9 8 10 5 11 6 12
REMARK SMILES IDX 96 13 7 14 95 15 2 16 1 17 3 18 4 19 90 20 91 21 94 22 92 24
REMARK SMILES IDX 93 25 18 26 19 27 20 28 21 29 22 30 23 31 24 32 25 33 89 34
REMARK SMILES IDX 26 35 88 36 27 37 28 38 29 39 82 40 30 41 87 42 81 43 83 44
REMARK SMILES IDX 31 45 86 46 80 47 79 48 32 50 66 51 45 52 65 53 46 54 49 55
REMARK SMILES IDX 64 56 84 57 47 58 48 59 63 61 85 62 50 63 33 64 34 65 43 66
REMARK SMILES IDX 35 67 36 68 42 69 44 70 37 71 38 72 39 73 40 74 41 75 67 76
REMARK SMILES IDX 68 77 77 78 69 79 70 80 76 81 78 82 71 83 72 84 73 85 74 86
REMARK SMILES IDX 75 87 51 88 52 89 61 90 53 91 54 92 60 93 62 94 55 95 56 96
REMARK SMILES IDX 57 97 58 98 59 99
REMARK H PARENT 90 23 83 49 49 60
REMARK Flexibility Score: inf
ROOT
ATOM      1  C   UNL A   1      32.078  30.011  26.653  1.00  0.00     0.202 C 
ENDROOT
BRANCH   1   2
ATOM      2  C   UNL A   1      31.836  28.651  27.317  1.00  0.00     0.261 C 
BRANCH   2   3
ATOM      3  O   UNL A   1      32.644  27.526  26.966  1.00  0.00    -0.459 OA
BRANCH   3   4
ATOM      4  C   UNL A   1      31.932  26.455  26.538  1.00  0.00     0.365 C 
ATOM      5  O   UNL A   1      30.752  26.271  26.780  1.00  0.00    -0.245 OA
BRANCH   4   6
ATOM      6  C   UNL A   1      32.786  25.415  25.849  1.00  0.00     0.302 C 
BRANCH   6   7
ATOM      7  C   UNL A   1      32.432  24.029  26.447  1.00  0.00     0.158 C 
BRANCH   7   8
ATOM      8  C   UNL A   1      33.538  22.981  26.584  1.00  0.00     0.169 C 
ATOM      9  O   UNL A   1      34.421  23.097  27.434  1.00  0.00    -0.294 OA
BRANCH   8  10
ATOM     10  C   UNL A   1      33.589  21.800  25.664  1.00  0.00     0.018 A 
ATOM     11  C   UNL A   1      33.360  19.256  24.398  1.00  0.00    -0.043 A 
ATOM     12  C   UNL A   1      32.273  20.147  24.471  1.00  0.00     0.005 A 
ATOM     13  C   UNL A   1      34.592  19.723  24.899  1.00  0.00     0.005 A 
ATOM     14  C   UNL A   1      32.387  21.408  25.071  1.00  0.00     0.012 A 
ATOM     15  C   UNL A   1      34.713  20.985  25.519  1.00  0.00     0.012 A 
BRANCH  11  16
ATOM     16  C   UNL A   1      33.172  17.823  23.847  1.00  0.00    -0.013 C 
ATOM     17  C   UNL A   1      34.529  17.150  23.536  1.00  0.00     0.016 C 
ATOM     18  C   UNL A   1      32.369  17.849  22.529  1.00  0.00     0.016 C 
ATOM     19  C   UNL A   1      32.420  16.898  24.829  1.00  0.00     0.016 C 
ENDBRANCH  11  16
ENDBRANCH   8  10
ENDBRANCH   7   8
ENDBRANCH   6   7
BRANCH   6  20
ATOM     20  N   UNL A   1      32.773  25.516  24.371  1.00  0.00    -0.323 N 
ATOM     21  C   UNL A   1      31.639  24.872  23.713  1.00  0.00     0.263 C 
ATOM     22  C   UNL A   1      33.991  25.185  23.633  1.00  0.00     0.263 C 
ATOM     23  H   UNL A   1      32.684  26.530  24.311  1.00  0.00     0.348 HD
ATOM     24  C   UNL A   1      32.175  23.812  22.771  1.00  0.00     0.067 C 
ATOM     25  C   UNL A   1      33.659  24.071  22.647  1.00  0.00     0.067 C 
ENDBRANCH   6  20
ENDBRANCH   4   6
ENDBRANCH   3   4
ENDBRANCH   2   3
ENDBRANCH   1   2
BRANCH   1  26
ATOM     26  O   UNL A   1      33.360  30.589  26.599  1.00  0.00    -0.374 OA
BRANCH  26  27
ATOM     27  C   UNL A   1      34.122  30.951  27.746  1.00  0.00     0.202 C 
BRANCH  27  28
ATOM     28  C   UNL A   1      35.133  30.000  28.398  1.00  0.00     0.261 C 
BRANCH  28  29
ATOM     29  O   UNL A   1      36.177  30.626  29.133  1.00  0.00    -0.460 OA
BRANCH  29  30
ATOM     30  C   UNL A   1      36.770  29.874  30.086  1.00  0.00     0.338 C 
ATOM     31  O   UNL A   1      36.238  29.261  30.993  1.00  0.00    -0.246 OA
BRANCH  30  32
ATOM     32  C   UNL A   1      38.165  29.718  29.639  1.00  0.00     0.060 A 
ATOM     33  C   UNL A   1      38.418  29.757  28.263  1.00  0.00     0.016 A 
ATOM     34  C   UNL A   1      39.211  29.693  30.570  1.00  0.00     0.016 A 
ATOM     35  C   UNL A   1      39.728  29.693  27.813  1.00  0.00     0.010 A 
ATOM     36  C   UNL A   1      40.522  29.623  30.119  1.00  0.00     0.010 A 
ATOM     37  C   UNL A   1      40.771  29.561  28.740  1.00  0.00    -0.014 A 
BRANCH  37  38
ATOM     38  C   UNL A   1      42.069  29.070  28.251  1.00  0.00     0.031 A 
ATOM     39  C   UNL A   1      43.198  30.061  28.198  1.00  0.00     0.074 A 
ATOM     40  C   UNL A   1      42.246  27.772  27.959  1.00  0.00     0.049 A 
ATOM     41  N   UNL A   1      44.452  29.871  27.896  1.00  0.00    -0.248 NA
ATOM     42  C   UNL A   1      42.866  31.457  28.540  1.00  0.00     0.031 C 
ATOM     43  C   UNL A   1      41.206  26.743  28.014  1.00  0.00     0.029 A 
ATOM     44  N   UNL A   1      43.371  27.097  27.576  1.00  0.00    -0.354 N 
ATOM     45  C   UNL A   1      45.056  31.117  28.017  1.00  0.00     0.074 A 
ATOM     46  C   UNL A   1      44.028  32.065  28.370  1.00  0.00     0.031 C 
ATOM     47  C   UNL A   1      41.749  25.560  27.686  1.00  0.00     0.029 A 
ATOM     48  C   UNL A   1      43.165  25.753  27.378  1.00  0.00     0.049 A 
ATOM     49  H   UNL A   1      44.246  27.532  27.454  1.00  0.00     0.167 HD
ATOM     50  C   UNL A   1      46.362  31.433  27.866  1.00  0.00     0.037 A 
ATOM     51  C   UNL A   1      44.032  24.799  26.991  1.00  0.00     0.037 A 
ATOM     52  C   UNL A   1      47.365  30.468  27.509  1.00  0.00     0.049 A 
ATOM     53  C   UNL A   1      45.473  25.185  26.777  1.00  0.00     0.074 A 
ATOM     54  C   UNL A   1      48.720  30.663  27.323  1.00  0.00     0.029 A 
ATOM     55  N   UNL A   1      47.114  29.122  27.278  1.00  0.00    -0.354 N 
ATOM     56  N   UNL A   1      46.041  26.362  26.913  1.00  0.00    -0.248 NA
ATOM     57  C   UNL A   1      46.393  24.116  26.374  1.00  0.00     0.031 C 
ATOM     58  C   UNL A   1      49.279  29.444  26.922  1.00  0.00     0.029 A 
ATOM     59  C   UNL A   1      48.286  28.476  26.928  1.00  0.00     0.049 A 
ATOM     60  H   UNL A   1      46.233  28.690  27.352  1.00  0.00     0.167 HD
ATOM     61  C   UNL A   1      47.392  26.169  26.645  1.00  0.00     0.074 A 
ATOM     62  C   UNL A   1      47.554  24.758  26.351  1.00  0.00     0.031 C 
ATOM     63  C   UNL A   1      48.410  27.067  26.644  1.00  0.00     0.037 A 
BRANCH  50  64
ATOM     64  C   UNL A   1      46.757  32.872  28.050  1.00  0.00     0.058 A 
ATOM     65  C   UNL A   1      47.251  33.360  29.273  1.00  0.00     0.135 A 
ATOM     66  C   UNL A   1      46.649  33.777  26.983  1.00  0.00     0.135 A 
ATOM     67  F   UNL A   1      47.346  32.546  30.337  1.00  0.00    -0.206 F 
ATOM     68  C   UNL A   1      47.601  34.696  29.435  1.00  0.00     0.059 A 
ATOM     69  C   UNL A   1      47.023  35.111  27.113  1.00  0.00     0.059 A 
ATOM     70  F   UNL A   1      46.168  33.370  25.797  1.00  0.00    -0.206 F 
ATOM     71  C   UNL A   1      47.488  35.564  28.347  1.00  0.00     0.060 A 
BRANCH  71  72
ATOM     72  S   UNL A   1      47.964  37.291  28.567  1.00  0.00     0.124 S 
ATOM     73  O   UNL A   1      48.915  37.473  27.476  1.00  0.00    -0.237 OA
ATOM     74  O   UNL A   1      46.689  37.985  28.420  1.00  0.00    -0.237 OA
ATOM     75  O   UNL A   1      48.537  37.317  29.909  1.00  0.00    -0.744 OA
ENDBRANCH  71  72
ENDBRANCH  50  64
BRANCH  51  76
ATOM     76  C   UNL A   1      43.562  23.402  26.792  1.00  0.00     0.058 A 
ATOM     77  C   UNL A   1      43.407  22.856  25.510  1.00  0.00     0.135 A 
ATOM     78  C   UNL A   1      43.272  22.577  27.891  1.00  0.00     0.135 A 
ATOM     79  F   UNL A   1      43.668  23.602  24.426  1.00  0.00    -0.206 F 
ATOM     80  C   UNL A   1      42.965  21.549  25.322  1.00  0.00     0.059 A 
ATOM     81  C   UNL A   1      42.857  21.260  27.730  1.00  0.00     0.059 A 
ATOM     82  F   UNL A   1      43.419  23.046  29.141  1.00  0.00    -0.206 F 
ATOM     83  C   UNL A   1      42.696  20.758  26.441  1.00  0.00     0.060 A 
BRANCH  83  84
ATOM     84  S   UNL A   1      42.169  19.049  26.189  1.00  0.00     0.124 S 
ATOM     85  O   UNL A   1      42.434  18.463  27.498  1.00  0.00    -0.237 OA
ATOM     86  O   UNL A   1      40.764  19.214  25.833  1.00  0.00    -0.237 OA
ATOM     87  O   UNL A   1      43.032  18.589  25.104  1.00  0.00    -0.744 OA
ENDBRANCH  83  84
ENDBRANCH  51  76
BRANCH  63  88
ATOM     88  C   UNL A   1      49.789  26.540  26.364  1.00  0.00     0.058 A 
ATOM     89  C   UNL A   1      50.309  26.470  25.062  1.00  0.00     0.135 A 
ATOM     90  C   UNL A   1      50.617  26.133  27.424  1.00  0.00     0.135 A 
ATOM     91  F   UNL A   1      49.559  26.846  24.013  1.00  0.00    -0.206 F 
ATOM     92  C   UNL A   1      51.584  25.974  24.817  1.00  0.00     0.059 A 
ATOM     93  C   UNL A   1      51.908  25.669  27.206  1.00  0.00     0.059 A 
ATOM     94  F   UNL A   1      50.174  26.198  28.691  1.00  0.00    -0.206 F 
ATOM     95  C   UNL A   1      52.376  25.575  25.896  1.00  0.00     0.060 A 
BRANCH  95  96
ATOM     96  S   UNL A   1      54.030  24.937  25.565  1.00  0.00     0.124 S 
ATOM     97  O   UNL A   1      54.516  25.889  24.572  1.00  0.00    -0.237 OA
ATOM     98  O   UNL A   1      54.661  25.012  26.878  1.00  0.00    -0.237 OA
ATOM     99  O   UNL A   1      53.781  23.586  25.071  1.00  0.00    -0.744 OA
ENDBRANCH  95  96
ENDBRANCH  63  88
ENDBRANCH  37  38
ENDBRANCH  30  32
ENDBRANCH  29  30
ENDBRANCH  28  29
ENDBRANCH  27  28
ENDBRANCH  26  27
ENDBRANCH   1  26
TORSDOF 22
ENDMDL
