MODEL 1
REMARK VINA RESULT:      -8.9      0.000      0.000
REMARK SMILES [NH3+][C@@H](Cc1ccc(F)cc1C(F)(F)F)C(=O)OCCOCCOC(=O)c1ccc(-c2c3nc(c(-c4c(F)cc(S(=O)(=O)[O-])cc4F)c4ccc([nH]4)c(-c4c(F)cc(S(=O)(=O)[O-])cc4F)c4nc(c(-c5c(F)cc(S(=O)(=O)[O-])cc5F)c5ccc2[nH]5)C=C4)C=C3)cc1
REMARK SMILES IDX 20 1 19 2 18 3 17 4 15 5 16 6 2 7 1 8 3 12 4 13 5 14 10 15
REMARK SMILES IDX 6 16 9 17 7 18 8 19 11 20 12 21 13 22 14 23 21 24 22 25
REMARK SMILES IDX 23 26 24 27 25 28 26 29 27 30 91 31 28 32 90 33 29 34 30 35
REMARK SMILES IDX 31 36 84 37 32 38 89 39 83 40 85 41 33 42 88 43 82 44 81 45
REMARK SMILES IDX 34 47 68 48 47 49 67 50 48 51 51 52 66 53 86 54 49 55 50 56
REMARK SMILES IDX 65 58 87 59 52 60 35 61 36 62 45 63 37 64 38 65 44 66 46 67
REMARK SMILES IDX 39 68 40 69 41 70 42 71 43 72 69 73 70 74 79 75 71 76 72 77
REMARK SMILES IDX 78 78 80 79 73 80 74 81 75 82 76 83 77 84 53 85 54 86 63 87
REMARK SMILES IDX 55 88 56 89 62 90 64 91 57 92 58 93 59 94 60 95 61 96
REMARK H PARENT 1 9 1 10 1 11 85 46 51 57
REMARK Flexibility Score: inf
ROOT
ATOM      1  O   UNL A   1      43.078  21.023  25.000  1.00  0.00    -0.374 OA
ENDROOT
BRANCH   1   2
ATOM      2  C   UNL A   1      44.345  20.643  25.541  1.00  0.00     0.202 C 
BRANCH   2   3
ATOM      3  C   UNL A   1      45.578  21.064  24.738  1.00  0.00     0.261 C 
BRANCH   3   4
ATOM      4  O   UNL A   1      46.387  21.979  25.497  1.00  0.00    -0.459 OA
BRANCH   4   5
ATOM      5  C   UNL A   1      46.361  23.279  25.084  1.00  0.00     0.365 C 
ATOM      6  O   UNL A   1      46.113  23.654  23.944  1.00  0.00    -0.245 OA
BRANCH   5   7
ATOM      7  C   UNL A   1      46.728  24.241  26.219  1.00  0.00     0.296 C 
BRANCH   7   8
ATOM      8  N   UNL A   1      47.812  25.184  25.855  1.00  0.00    -0.346 N 
ATOM      9  H   UNL A   1      48.715  24.764  26.075  1.00  0.00     0.345 HD
ATOM     10  H   UNL A   1      47.701  26.049  26.383  1.00  0.00     0.345 HD
ATOM     11  H   UNL A   1      47.765  25.387  24.856  1.00  0.00     0.345 HD
ENDBRANCH   7   8
BRANCH   7  12
ATOM     12  C   UNL A   1      45.448  24.856  26.827  1.00  0.00     0.113 C 
BRANCH  12  13
ATOM     13  C   UNL A   1      45.025  24.502  28.247  1.00  0.00    -0.029 A 
ATOM     14  C   UNL A   1      44.189  23.389  28.476  1.00  0.00     0.007 A 
ATOM     15  C   UNL A   1      45.382  25.308  29.363  1.00  0.00     0.062 A 
ATOM     16  C   UNL A   1      43.798  23.015  29.761  1.00  0.00     0.039 A 
ATOM     17  C   UNL A   1      44.983  24.903  30.657  1.00  0.00     0.052 A 
ATOM     18  C   UNL A   1      44.210  23.767  30.843  1.00  0.00     0.123 A 
ATOM     19  F   UNL A   1      43.840  23.411  32.078  1.00  0.00    -0.207 F 
BRANCH  15  20
ATOM     20  C   UNL A   1      46.193  26.590  29.292  1.00  0.00     0.416 C 
ATOM     21  F   UNL A   1      46.087  27.342  30.425  1.00  0.00    -0.166 F 
ATOM     22  F   UNL A   1      47.521  26.353  29.122  1.00  0.00    -0.166 F 
ATOM     23  F   UNL A   1      45.830  27.436  28.287  1.00  0.00    -0.166 F 
ENDBRANCH  15  20
ENDBRANCH  12  13
ENDBRANCH   7  12
ENDBRANCH   5   7
ENDBRANCH   4   5
ENDBRANCH   3   4
ENDBRANCH   2   3
ENDBRANCH   1   2
BRANCH   1  24
ATOM     24  C   UNL A   1      42.272  21.912  25.771  1.00  0.00     0.202 C 
BRANCH  24  25
ATOM     25  C   UNL A   1      42.443  23.414  25.506  1.00  0.00     0.261 C 
BRANCH  25  26
ATOM     26  O   UNL A   1      41.519  24.243  26.234  1.00  0.00    -0.460 OA
BRANCH  26  27
ATOM     27  C   UNL A   1      41.711  25.575  26.066  1.00  0.00     0.338 C 
ATOM     28  O   UNL A   1      41.718  26.191  25.004  1.00  0.00    -0.246 OA
BRANCH  27  29
ATOM     29  C   UNL A   1      41.772  26.264  27.366  1.00  0.00     0.060 A 
ATOM     30  C   UNL A   1      40.853  25.876  28.349  1.00  0.00     0.016 A 
ATOM     31  C   UNL A   1      42.636  27.338  27.588  1.00  0.00     0.016 A 
ATOM     32  C   UNL A   1      40.765  26.590  29.544  1.00  0.00     0.010 A 
ATOM     33  C   UNL A   1      42.539  28.060  28.784  1.00  0.00     0.010 A 
ATOM     34  C   UNL A   1      41.581  27.709  29.752  1.00  0.00    -0.014 A 
BRANCH  34  35
ATOM     35  C   UNL A   1      41.339  28.585  30.925  1.00  0.00     0.031 A 
ATOM     36  C   UNL A   1      40.225  29.596  30.869  1.00  0.00     0.074 A 
ATOM     37  C   UNL A   1      42.081  28.459  32.040  1.00  0.00     0.049 A 
ATOM     38  N   UNL A   1      39.872  30.488  31.758  1.00  0.00    -0.248 NA
ATOM     39  C   UNL A   1      39.401  29.604  29.650  1.00  0.00     0.031 C 
ATOM     40  C   UNL A   1      43.156  27.486  32.231  1.00  0.00     0.029 A 
ATOM     41  N   UNL A   1      42.044  29.157  33.221  1.00  0.00    -0.354 N 
ATOM     42  C   UNL A   1      38.790  31.164  31.208  1.00  0.00     0.074 A 
ATOM     43  C   UNL A   1      38.559  30.598  29.897  1.00  0.00     0.031 C 
ATOM     44  C   UNL A   1      43.682  27.653  33.456  1.00  0.00     0.029 A 
ATOM     45  C   UNL A   1      43.005  28.764  34.123  1.00  0.00     0.049 A 
ATOM     46  H   UNL A   1      41.392  29.870  33.406  1.00  0.00     0.167 HD
ATOM     47  C   UNL A   1      38.052  32.161  31.751  1.00  0.00     0.037 A 
ATOM     48  C   UNL A   1      43.318  29.261  35.337  1.00  0.00     0.037 A 
ATOM     49  C   UNL A   1      38.281  32.716  33.059  1.00  0.00     0.049 A 
ATOM     50  C   UNL A   1      42.531  30.418  35.891  1.00  0.00     0.074 A 
ATOM     51  C   UNL A   1      37.575  33.719  33.702  1.00  0.00     0.029 A 
ATOM     52  N   UNL A   1      39.291  32.322  33.924  1.00  0.00    -0.354 N 
ATOM     53  N   UNL A   1      41.508  31.046  35.362  1.00  0.00    -0.248 NA
ATOM     54  C   UNL A   1      42.941  30.941  37.203  1.00  0.00     0.031 C 
ATOM     55  C   UNL A   1      38.185  33.961  34.936  1.00  0.00     0.029 A 
ATOM     56  C   UNL A   1      39.243  33.078  35.083  1.00  0.00     0.049 A 
ATOM     57  H   UNL A   1      39.945  31.609  33.740  1.00  0.00     0.167 HD
ATOM     58  C   UNL A   1      41.144  32.025  36.280  1.00  0.00     0.074 A 
ATOM     59  C   UNL A   1      42.048  31.901  37.404  1.00  0.00     0.031 C 
ATOM     60  C   UNL A   1      40.149  32.944  36.196  1.00  0.00     0.037 A 
BRANCH  47  61
ATOM     61  C   UNL A   1      36.931  32.734  30.931  1.00  0.00     0.058 A 
ATOM     62  C   UNL A   1      35.616  32.272  31.102  1.00  0.00     0.135 A 
ATOM     63  C   UNL A   1      37.166  33.690  29.931  1.00  0.00     0.135 A 
ATOM     64  F   UNL A   1      35.336  31.364  32.051  1.00  0.00    -0.206 F 
ATOM     65  C   UNL A   1      34.576  32.727  30.299  1.00  0.00     0.059 A 
ATOM     66  C   UNL A   1      36.136  34.176  29.130  1.00  0.00     0.059 A 
ATOM     67  F   UNL A   1      38.401  34.181  29.743  1.00  0.00    -0.206 F 
ATOM     68  C   UNL A   1      34.846  33.675  29.313  1.00  0.00     0.060 A 
BRANCH  68  69
ATOM     69  S   UNL A   1      33.479  34.275  28.297  1.00  0.00     0.124 S 
ATOM     70  O   UNL A   1      32.593  34.857  29.299  1.00  0.00    -0.237 OA
ATOM     71  O   UNL A   1      34.149  35.223  27.411  1.00  0.00    -0.237 OA
ATOM     72  O   UNL A   1      32.985  33.065  27.646  1.00  0.00    -0.744 OA
ENDBRANCH  68  69
ENDBRANCH  47  61
BRANCH  48  73
ATOM     73  C   UNL A   1      44.444  28.665  36.103  1.00  0.00     0.058 A 
ATOM     74  C   UNL A   1      45.758  29.135  35.944  1.00  0.00     0.135 A 
ATOM     75  C   UNL A   1      44.235  27.595  36.985  1.00  0.00     0.135 A 
ATOM     76  F   UNL A   1      46.010  30.159  35.112  1.00  0.00    -0.206 F 
ATOM     77  C   UNL A   1      46.828  28.543  36.603  1.00  0.00     0.059 A 
ATOM     78  C   UNL A   1      45.288  27.000  37.675  1.00  0.00     0.059 A 
ATOM     79  F   UNL A   1      42.995  27.126  37.186  1.00  0.00    -0.206 F 
ATOM     80  C   UNL A   1      46.584  27.470  37.461  1.00  0.00     0.060 A 
BRANCH  80  81
ATOM     81  S   UNL A   1      47.991  26.697  38.287  1.00  0.00     0.124 S 
ATOM     82  O   UNL A   1      48.309  27.689  39.309  1.00  0.00    -0.237 OA
ATOM     83  O   UNL A   1      47.415  25.447  38.771  1.00  0.00    -0.237 OA
ATOM     84  O   UNL A   1      48.975  26.558  37.218  1.00  0.00    -0.744 OA
ENDBRANCH  80  81
ENDBRANCH  48  73
BRANCH  60  85
ATOM     85  C   UNL A   1      39.964  33.889  37.351  1.00  0.00     0.058 A 
ATOM     86  C   UNL A   1      39.121  33.550  38.421  1.00  0.00     0.135 A 
ATOM     87  C   UNL A   1      40.539  35.169  37.348  1.00  0.00     0.135 A 
ATOM     88  F   UNL A   1      38.543  32.340  38.469  1.00  0.00    -0.206 F 
ATOM     89  C   UNL A   1      38.832  34.457  39.435  1.00  0.00     0.059 A 
ATOM     90  C   UNL A   1      40.283  36.085  38.364  1.00  0.00     0.059 A 
ATOM     91  F   UNL A   1      41.361  35.536  36.352  1.00  0.00    -0.206 F 
ATOM     92  C   UNL A   1      39.411  35.726  39.393  1.00  0.00     0.060 A 
BRANCH  92  93
ATOM     93  S   UNL A   1      39.016  36.897  40.709  1.00  0.00     0.124 S 
ATOM     94  O   UNL A   1      38.340  37.959  39.972  1.00  0.00    -0.237 OA
ATOM     95  O   UNL A   1      38.169  36.098  41.590  1.00  0.00    -0.237 OA
ATOM     96  O   UNL A   1      40.323  37.247  41.257  1.00  0.00    -0.744 OA
ENDBRANCH  92  93
ENDBRANCH  60  85
ENDBRANCH  34  35
ENDBRANCH  27  29
ENDBRANCH  26  27
ENDBRANCH  25  26
ENDBRANCH  24  25
ENDBRANCH   1  24
TORSDOF 21
ENDMDL
MODEL 2
REMARK VINA RESULT:      -8.8      4.416     10.385
REMARK SMILES [NH3+][C@@H](Cc1ccc(F)cc1C(F)(F)F)C(=O)OCCOCCOC(=O)c1ccc(-c2c3nc(c(-c4c(F)cc(S(=O)(=O)[O-])cc4F)c4ccc([nH]4)c(-c4c(F)cc(S(=O)(=O)[O-])cc4F)c4nc(c(-c5c(F)cc(S(=O)(=O)[O-])cc5F)c5ccc2[nH]5)C=C4)C=C3)cc1
REMARK SMILES IDX 20 1 19 2 18 3 17 4 15 5 16 6 2 7 1 8 3 12 4 13 5 14 10 15
REMARK SMILES IDX 6 16 9 17 7 18 8 19 11 20 12 21 13 22 14 23 21 24 22 25
REMARK SMILES IDX 23 26 24 27 25 28 26 29 27 30 91 31 28 32 90 33 29 34 30 35
REMARK SMILES IDX 31 36 84 37 32 38 89 39 83 40 85 41 33 42 88 43 82 44 81 45
REMARK SMILES IDX 34 47 68 48 47 49 67 50 48 51 51 52 66 53 86 54 49 55 50 56
REMARK SMILES IDX 65 58 87 59 52 60 35 61 36 62 45 63 37 64 38 65 44 66 46 67
REMARK SMILES IDX 39 68 40 69 41 70 42 71 43 72 69 73 70 74 79 75 71 76 72 77
REMARK SMILES IDX 78 78 80 79 73 80 74 81 75 82 76 83 77 84 53 85 54 86 63 87
REMARK SMILES IDX 55 88 56 89 62 90 64 91 57 92 58 93 59 94 60 95 61 96
REMARK H PARENT 1 9 1 10 1 11 85 46 51 57
REMARK Flexibility Score: inf
ROOT
ATOM      1  O   UNL A   1      38.016  21.512  25.755  1.00  0.00    -0.374 OA
ENDROOT
BRANCH   1   2
ATOM      2  C   UNL A   1      36.612  21.692  25.562  1.00  0.00     0.202 C 
BRANCH   2   3
ATOM      3  C   UNL A   1      35.839  20.480  25.038  1.00  0.00     0.261 C 
BRANCH   3   4
ATOM      4  O   UNL A   1      34.612  20.895  24.415  1.00  0.00    -0.459 OA
BRANCH   4   5
ATOM      5  C   UNL A   1      33.469  20.373  24.946  1.00  0.00     0.365 C 
ATOM      6  O   UNL A   1      33.342  19.227  25.363  1.00  0.00    -0.245 OA
BRANCH   5   7
ATOM      7  C   UNL A   1      32.320  21.387  24.926  1.00  0.00     0.296 C 
BRANCH   7   8
ATOM      8  N   UNL A   1      31.878  21.792  26.281  1.00  0.00    -0.346 N 
ATOM      9  H   UNL A   1      32.145  22.763  26.449  1.00  0.00     0.345 HD
ATOM     10  H   UNL A   1      32.321  21.193  26.976  1.00  0.00     0.345 HD
ATOM     11  H   UNL A   1      30.865  21.701  26.350  1.00  0.00     0.345 HD
ENDBRANCH   7   8
BRANCH   7  12
ATOM     12  C   UNL A   1      32.635  22.524  23.930  1.00  0.00     0.113 C 
BRANCH  12  13
ATOM     13  C   UNL A   1      32.011  23.901  24.114  1.00  0.00    -0.029 A 
ATOM     14  C   UNL A   1      30.748  24.182  23.553  1.00  0.00     0.007 A 
ATOM     15  C   UNL A   1      32.697  24.959  24.774  1.00  0.00     0.062 A 
ATOM     16  C   UNL A   1      30.129  25.421  23.718  1.00  0.00     0.039 A 
ATOM     17  C   UNL A   1      32.045  26.202  24.937  1.00  0.00     0.052 A 
ATOM     18  C   UNL A   1      30.777  26.417  24.421  1.00  0.00     0.123 A 
ATOM     19  F   UNL A   1      30.186  27.606  24.584  1.00  0.00    -0.207 F 
BRANCH  15  20
ATOM     20  C   UNL A   1      34.098  24.864  25.352  1.00  0.00     0.416 C 
ATOM     21  F   UNL A   1      34.550  26.059  25.829  1.00  0.00    -0.166 F 
ATOM     22  F   UNL A   1      34.169  23.993  26.394  1.00  0.00    -0.166 F 
ATOM     23  F   UNL A   1      35.054  24.469  24.464  1.00  0.00    -0.166 F 
ENDBRANCH  15  20
ENDBRANCH  12  13
ENDBRANCH   7  12
ENDBRANCH   5   7
ENDBRANCH   4   5
ENDBRANCH   3   4
ENDBRANCH   2   3
ENDBRANCH   1   2
BRANCH   1  24
ATOM     24  C   UNL A   1      38.763  22.623  26.247  1.00  0.00     0.202 C 
BRANCH  24  25
ATOM     25  C   UNL A   1      40.224  22.362  26.639  1.00  0.00     0.261 C 
BRANCH  25  26
ATOM     26  O   UNL A   1      40.746  23.299  27.599  1.00  0.00    -0.460 OA
BRANCH  26  27
ATOM     27  C   UNL A   1      41.239  24.439  27.055  1.00  0.00     0.338 C 
ATOM     28  O   UNL A   1      41.803  24.554  25.971  1.00  0.00    -0.246 OA
BRANCH  27  29
ATOM     29  C   UNL A   1      40.885  25.608  27.878  1.00  0.00     0.060 A 
ATOM     30  C   UNL A   1      41.838  26.626  28.001  1.00  0.00     0.016 A 
ATOM     31  C   UNL A   1      39.692  25.662  28.600  1.00  0.00     0.016 A 
ATOM     32  C   UNL A   1      41.620  27.685  28.882  1.00  0.00     0.010 A 
ATOM     33  C   UNL A   1      39.479  26.721  29.492  1.00  0.00     0.010 A 
ATOM     34  C   UNL A   1      40.457  27.719  29.661  1.00  0.00    -0.014 A 
BRANCH  34  35
ATOM     35  C   UNL A   1      40.327  28.726  30.742  1.00  0.00     0.031 A 
ATOM     36  C   UNL A   1      41.229  28.635  31.944  1.00  0.00     0.074 A 
ATOM     37  C   UNL A   1      39.438  29.730  30.640  1.00  0.00     0.049 A 
ATOM     38  N   UNL A   1      41.253  29.379  33.018  1.00  0.00    -0.248 NA
ATOM     39  C   UNL A   1      42.238  27.563  31.932  1.00  0.00     0.031 C 
ATOM     40  C   UNL A   1      38.542  29.951  29.505  1.00  0.00     0.029 A 
ATOM     41  N   UNL A   1      39.140  30.752  31.508  1.00  0.00    -0.354 N 
ATOM     42  C   UNL A   1      42.272  28.867  33.812  1.00  0.00     0.074 A 
ATOM     43  C   UNL A   1      42.828  27.732  33.107  1.00  0.00     0.031 C 
ATOM     44  C   UNL A   1      37.790  31.037  29.749  1.00  0.00     0.029 A 
ATOM     45  C   UNL A   1      38.125  31.569  31.069  1.00  0.00     0.049 A 
ATOM     46  H   UNL A   1      39.609  30.887  32.363  1.00  0.00     0.167 HD
ATOM     47  C   UNL A   1      42.710  29.308  35.015  1.00  0.00     0.037 A 
ATOM     48  C   UNL A   1      37.520  32.612  31.674  1.00  0.00     0.037 A 
ATOM     49  C   UNL A   1      42.159  30.443  35.709  1.00  0.00     0.049 A 
ATOM     50  C   UNL A   1      37.974  33.040  33.044  1.00  0.00     0.074 A 
ATOM     51  C   UNL A   1      42.547  30.976  36.926  1.00  0.00     0.029 A 
ATOM     52  N   UNL A   1      41.103  31.218  35.252  1.00  0.00    -0.354 N 
ATOM     53  N   UNL A   1      38.941  32.549  33.782  1.00  0.00    -0.248 NA
ATOM     54  C   UNL A   1      37.253  34.159  33.668  1.00  0.00     0.031 C 
ATOM     55  C   UNL A   1      41.697  32.045  37.226  1.00  0.00     0.029 A 
ATOM     56  C   UNL A   1      40.810  32.208  36.174  1.00  0.00     0.049 A 
ATOM     57  H   UNL A   1      40.633  31.083  34.398  1.00  0.00     0.167 HD
ATOM     58  C   UNL A   1      38.955  33.306  34.948  1.00  0.00     0.074 A 
ATOM     59  C   UNL A   1      37.908  34.297  34.815  1.00  0.00     0.031 C 
ATOM     60  C   UNL A   1      39.764  33.189  36.030  1.00  0.00     0.037 A 
BRANCH  47  61
ATOM     61  C   UNL A   1      43.833  28.558  35.674  1.00  0.00     0.058 A 
ATOM     62  C   UNL A   1      45.168  28.865  35.370  1.00  0.00     0.135 A 
ATOM     63  C   UNL A   1      43.588  27.494  36.555  1.00  0.00     0.135 A 
ATOM     64  F   UNL A   1      45.457  29.880  34.540  1.00  0.00    -0.206 F 
ATOM     65  C   UNL A   1      46.222  28.131  35.904  1.00  0.00     0.059 A 
ATOM     66  C   UNL A   1      44.628  26.760  37.119  1.00  0.00     0.059 A 
ATOM     67  F   UNL A   1      42.329  27.175  36.897  1.00  0.00    -0.206 F 
ATOM     68  C   UNL A   1      45.942  27.078  36.773  1.00  0.00     0.060 A 
BRANCH  68  69
ATOM     69  S   UNL A   1      47.323  26.153  37.478  1.00  0.00     0.124 S 
ATOM     70  O   UNL A   1      47.769  27.044  38.543  1.00  0.00    -0.237 OA
ATOM     71  O   UNL A   1      46.676  24.917  37.911  1.00  0.00    -0.237 OA
ATOM     72  O   UNL A   1      48.242  26.006  36.353  1.00  0.00    -0.744 OA
ENDBRANCH  68  69
ENDBRANCH  47  61
BRANCH  48  73
ATOM     73  C   UNL A   1      36.406  33.313  30.983  1.00  0.00     0.058 A 
ATOM     74  C   UNL A   1      36.645  34.125  29.863  1.00  0.00     0.135 A 
ATOM     75  C   UNL A   1      35.087  33.211  31.447  1.00  0.00     0.135 A 
ATOM     76  F   UNL A   1      37.891  34.254  29.378  1.00  0.00    -0.206 F 
ATOM     77  C   UNL A   1      35.623  34.838  29.249  1.00  0.00     0.059 A 
ATOM     78  C   UNL A   1      34.041  33.897  30.835  1.00  0.00     0.059 A 
ATOM     79  F   UNL A   1      34.807  32.430  32.502  1.00  0.00    -0.206 F 
ATOM     80  C   UNL A   1      34.324  34.724  29.748  1.00  0.00     0.060 A 
BRANCH  80  81
ATOM     81  S   UNL A   1      33.015  35.680  28.954  1.00  0.00     0.124 S 
ATOM     82  O   UNL A   1      32.240  36.126  30.107  1.00  0.00    -0.237 OA
ATOM     83  O   UNL A   1      33.770  36.714  28.256  1.00  0.00    -0.237 OA
ATOM     84  O   UNL A   1      32.356  34.701  28.095  1.00  0.00    -0.744 OA
ENDBRANCH  80  81
ENDBRANCH  48  73
BRANCH  60  85
ATOM     85  C   UNL A   1      39.569  34.158  37.163  1.00  0.00     0.058 A 
ATOM     86  C   UNL A   1      40.167  35.428  37.125  1.00  0.00     0.135 A 
ATOM     87  C   UNL A   1      38.879  33.792  38.329  1.00  0.00     0.135 A 
ATOM     88  F   UNL A   1      40.842  35.826  36.035  1.00  0.00    -0.206 F 
ATOM     89  C   UNL A   1      40.109  36.291  38.214  1.00  0.00     0.059 A 
ATOM     90  C   UNL A   1      38.789  34.648  39.422  1.00  0.00     0.059 A 
ATOM     91  F   UNL A   1      38.282  32.592  38.409  1.00  0.00    -0.206 F 
ATOM     92  C   UNL A   1      39.426  35.889  39.362  1.00  0.00     0.060 A 
BRANCH  92  93
ATOM     93  S   UNL A   1      39.372  37.016  40.772  1.00  0.00     0.124 S 
ATOM     94  O   UNL A   1      38.639  38.150  40.220  1.00  0.00    -0.237 OA
ATOM     95  O   UNL A   1      38.659  36.226  41.772  1.00  0.00    -0.237 OA
ATOM     96  O   UNL A   1      40.781  37.261  41.065  1.00  0.00    -0.744 OA
ENDBRANCH  92  93
ENDBRANCH  60  85
ENDBRANCH  34  35
ENDBRANCH  27  29
ENDBRANCH  26  27
ENDBRANCH  25  26
ENDBRANCH  24  25
ENDBRANCH   1  24
TORSDOF 21
ENDMDL
MODEL 3
REMARK VINA RESULT:      -8.8      6.934     13.283
REMARK SMILES [NH3+][C@@H](Cc1ccc(F)cc1C(F)(F)F)C(=O)OCCOCCOC(=O)c1ccc(-c2c3nc(c(-c4c(F)cc(S(=O)(=O)[O-])cc4F)c4ccc([nH]4)c(-c4c(F)cc(S(=O)(=O)[O-])cc4F)c4nc(c(-c5c(F)cc(S(=O)(=O)[O-])cc5F)c5ccc2[nH]5)C=C4)C=C3)cc1
REMARK SMILES IDX 20 1 19 2 18 3 17 4 15 5 16 6 2 7 1 8 3 12 4 13 5 14 10 15
REMARK SMILES IDX 6 16 9 17 7 18 8 19 11 20 12 21 13 22 14 23 21 24 22 25
REMARK SMILES IDX 23 26 24 27 25 28 26 29 27 30 91 31 28 32 90 33 29 34 30 35
REMARK SMILES IDX 31 36 84 37 32 38 89 39 83 40 85 41 33 42 88 43 82 44 81 45
REMARK SMILES IDX 34 47 68 48 47 49 67 50 48 51 51 52 66 53 86 54 49 55 50 56
REMARK SMILES IDX 65 58 87 59 52 60 35 61 36 62 45 63 37 64 38 65 44 66 46 67
REMARK SMILES IDX 39 68 40 69 41 70 42 71 43 72 69 73 70 74 79 75 71 76 72 77
REMARK SMILES IDX 78 78 80 79 73 80 74 81 75 82 76 83 77 84 53 85 54 86 63 87
REMARK SMILES IDX 55 88 56 89 62 90 64 91 57 92 58 93 59 94 60 95 61 96
REMARK H PARENT 1 9 1 10 1 11 85 46 51 57
REMARK Flexibility Score: inf
ROOT
ATOM      1  O   UNL A   1      33.336  29.744  25.845  1.00  0.00    -0.374 OA
ENDROOT
BRANCH   1   2
ATOM      2  C   UNL A   1      33.132  28.385  25.456  1.00  0.00     0.202 C 
BRANCH   2   3
ATOM      3  C   UNL A   1      31.699  27.994  25.089  1.00  0.00     0.261 C 
BRANCH   3   4
ATOM      4  O   UNL A   1      31.169  27.061  26.046  1.00  0.00    -0.459 OA
BRANCH   4   5
ATOM      5  C   UNL A   1      30.393  26.062  25.536  1.00  0.00     0.365 C 
ATOM      6  O   UNL A   1      29.342  26.225  24.926  1.00  0.00    -0.245 OA
BRANCH   5   7
ATOM      7  C   UNL A   1      30.969  24.678  25.854  1.00  0.00     0.296 C 
BRANCH   7   8
ATOM      8  N   UNL A   1      30.067  23.850  26.688  1.00  0.00    -0.346 N 
ATOM      9  H   UNL A   1      29.096  24.072  26.463  1.00  0.00     0.345 HD
ATOM     10  H   UNL A   1      30.240  24.045  27.673  1.00  0.00     0.345 HD
ATOM     11  H   UNL A   1      30.241  22.862  26.501  1.00  0.00     0.345 HD
ENDBRANCH   7   8
BRANCH   7  12
ATOM     12  C   UNL A   1      31.519  24.026  24.567  1.00  0.00     0.113 C 
BRANCH  12  13
ATOM     13  C   UNL A   1      32.506  22.868  24.655  1.00  0.00    -0.029 A 
ATOM     14  C   UNL A   1      32.032  21.540  24.679  1.00  0.00     0.007 A 
ATOM     15  C   UNL A   1      33.906  23.078  24.793  1.00  0.00     0.062 A 
ATOM     16  C   UNL A   1      32.900  20.450  24.733  1.00  0.00     0.039 A 
ATOM     17  C   UNL A   1      34.767  21.958  24.836  1.00  0.00     0.052 A 
ATOM     18  C   UNL A   1      34.262  20.667  24.797  1.00  0.00     0.123 A 
ATOM     19  F   UNL A   1      35.099  19.625  24.846  1.00  0.00    -0.207 F 
BRANCH  15  20
ATOM     20  C   UNL A   1      34.581  24.436  24.883  1.00  0.00     0.416 C 
ATOM     21  F   UNL A   1      34.346  25.212  23.787  1.00  0.00    -0.166 F 
ATOM     22  F   UNL A   1      34.150  25.157  25.952  1.00  0.00    -0.166 F 
ATOM     23  F   UNL A   1      35.939  24.389  24.982  1.00  0.00    -0.166 F 
ENDBRANCH  15  20
ENDBRANCH  12  13
ENDBRANCH   7  12
ENDBRANCH   5   7
ENDBRANCH   4   5
ENDBRANCH   3   4
ENDBRANCH   2   3
ENDBRANCH   1   2
BRANCH   1  24
ATOM     24  C   UNL A   1      33.185  30.064  27.227  1.00  0.00     0.202 C 
BRANCH  24  25
ATOM     25  C   UNL A   1      34.372  30.752  27.916  1.00  0.00     0.261 C 
BRANCH  25  26
ATOM     26  O   UNL A   1      35.591  29.986  27.879  1.00  0.00    -0.460 OA
BRANCH  26  27
ATOM     27  C   UNL A   1      36.222  29.883  29.075  1.00  0.00     0.338 C 
ATOM     28  O   UNL A   1      35.697  29.757  30.177  1.00  0.00    -0.246 OA
BRANCH  27  29
ATOM     29  C   UNL A   1      37.680  29.792  28.892  1.00  0.00     0.060 A 
ATOM     30  C   UNL A   1      38.164  29.697  27.581  1.00  0.00     0.016 A 
ATOM     31  C   UNL A   1      38.551  29.694  29.978  1.00  0.00     0.016 A 
ATOM     32  C   UNL A   1      39.518  29.461  27.351  1.00  0.00     0.010 A 
ATOM     33  C   UNL A   1      39.910  29.446  29.746  1.00  0.00     0.010 A 
ATOM     34  C   UNL A   1      40.393  29.295  28.432  1.00  0.00    -0.014 A 
BRANCH  34  35
ATOM     35  C   UNL A   1      41.783  28.837  28.189  1.00  0.00     0.031 A 
ATOM     36  C   UNL A   1      42.909  29.833  28.260  1.00  0.00     0.074 A 
ATOM     37  C   UNL A   1      42.043  27.540  27.940  1.00  0.00     0.049 A 
ATOM     38  N   UNL A   1      44.185  29.656  28.037  1.00  0.00    -0.248 NA
ATOM     39  C   UNL A   1      42.548  31.211  28.631  1.00  0.00     0.031 C 
ATOM     40  C   UNL A   1      41.043  26.474  27.892  1.00  0.00     0.029 A 
ATOM     41  N   UNL A   1      43.230  26.902  27.678  1.00  0.00    -0.354 N 
ATOM     42  C   UNL A   1      44.780  30.896  28.236  1.00  0.00     0.074 A 
ATOM     43  C   UNL A   1      43.722  31.824  28.574  1.00  0.00     0.031 C 
ATOM     44  C   UNL A   1      41.658  25.313  27.611  1.00  0.00     0.029 A 
ATOM     45  C   UNL A   1      43.088  25.557  27.425  1.00  0.00     0.049 A 
ATOM     46  H   UNL A   1      44.100  27.362  27.672  1.00  0.00     0.167 HD
ATOM     47  C   UNL A   1      46.090  31.228  28.153  1.00  0.00     0.037 A 
ATOM     48  C   UNL A   1      44.003  24.636  27.063  1.00  0.00     0.037 A 
ATOM     49  C   UNL A   1      47.139  30.300  27.824  1.00  0.00     0.049 A 
ATOM     50  C   UNL A   1      45.444  25.043  26.904  1.00  0.00     0.074 A 
ATOM     51  C   UNL A   1      48.500  30.540  27.731  1.00  0.00     0.029 A 
ATOM     52  N   UNL A   1      46.950  28.957  27.532  1.00  0.00    -0.354 N 
ATOM     53  N   UNL A   1      45.993  26.218  27.099  1.00  0.00    -0.248 NA
ATOM     54  C   UNL A   1      46.389  24.003  26.471  1.00  0.00     0.031 C 
ATOM     55  C   UNL A   1      49.127  29.354  27.339  1.00  0.00     0.029 A 
ATOM     56  C   UNL A   1      48.164  28.363  27.233  1.00  0.00     0.049 A 
ATOM     57  H   UNL A   1      46.080  28.496  27.537  1.00  0.00     0.167 HD
ATOM     58  C   UNL A   1      47.347  26.057  26.828  1.00  0.00     0.074 A 
ATOM     59  C   UNL A   1      47.538  24.667  26.466  1.00  0.00     0.031 C 
ATOM     60  C   UNL A   1      48.342  26.978  26.875  1.00  0.00     0.037 A 
BRANCH  47  61
ATOM     61  C   UNL A   1      46.471  32.660  28.407  1.00  0.00     0.058 A 
ATOM     62  C   UNL A   1      46.572  33.568  27.341  1.00  0.00     0.135 A 
ATOM     63  C   UNL A   1      46.799  33.116  29.692  1.00  0.00     0.135 A 
ATOM     64  F   UNL A   1      46.260  33.184  26.093  1.00  0.00    -0.206 F 
ATOM     65  C   UNL A   1      47.002  34.876  27.539  1.00  0.00     0.059 A 
ATOM     66  C   UNL A   1      47.211  34.427  29.917  1.00  0.00     0.059 A 
ATOM     67  F   UNL A   1      46.696  32.294  30.748  1.00  0.00    -0.206 F 
ATOM     68  C   UNL A   1      47.323  35.295  28.830  1.00  0.00     0.060 A 
BRANCH  68  69
ATOM     69  S   UNL A   1      47.855  37.003  29.073  1.00  0.00     0.124 S 
ATOM     70  O   UNL A   1      48.823  37.173  27.996  1.00  0.00    -0.237 OA
ATOM     71  O   UNL A   1      46.601  37.738  28.926  1.00  0.00    -0.237 OA
ATOM     72  O   UNL A   1      48.409  36.996  30.424  1.00  0.00    -0.744 OA
ENDBRANCH  68  69
ENDBRANCH  47  61
BRANCH  48  73
ATOM     73  C   UNL A   1      43.572  23.235  26.812  1.00  0.00     0.058 A 
ATOM     74  C   UNL A   1      43.221  22.385  27.873  1.00  0.00     0.135 A 
ATOM     75  C   UNL A   1      43.531  22.710  25.512  1.00  0.00     0.135 A 
ATOM     76  F   UNL A   1      43.242  22.840  29.136  1.00  0.00    -0.206 F 
ATOM     77  C   UNL A   1      42.881  21.055  27.657  1.00  0.00     0.059 A 
ATOM     78  C   UNL A   1      43.171  21.388  25.269  1.00  0.00     0.059 A 
ATOM     79  F   UNL A   1      43.837  23.492  24.466  1.00  0.00    -0.206 F 
ATOM     80  C   UNL A   1      42.867  20.563  26.352  1.00  0.00     0.060 A 
BRANCH  80  81
ATOM     81  S   UNL A   1      42.449  18.825  26.096  1.00  0.00     0.124 S 
ATOM     82  O   UNL A   1      42.697  18.268  27.421  1.00  0.00    -0.237 OA
ATOM     83  O   UNL A   1      41.049  18.903  25.690  1.00  0.00    -0.237 OA
ATOM     84  O   UNL A   1      43.379  18.404  25.053  1.00  0.00    -0.744 OA
ENDBRANCH  80  81
ENDBRANCH  48  73
BRANCH  60  85
ATOM     85  C   UNL A   1      49.736  26.527  26.541  1.00  0.00     0.058 A 
ATOM     86  C   UNL A   1      50.222  26.628  25.227  1.00  0.00     0.135 A 
ATOM     87  C   UNL A   1      50.552  25.900  27.496  1.00  0.00     0.135 A 
ATOM     88  F   UNL A   1      49.480  27.214  24.275  1.00  0.00    -0.206 F 
ATOM     89  C   UNL A   1      51.458  26.100  24.867  1.00  0.00     0.059 A 
ATOM     90  C   UNL A   1      51.801  25.386  27.163  1.00  0.00     0.059 A 
ATOM     91  F   UNL A   1      50.135  25.789  28.768  1.00  0.00    -0.206 F 
ATOM     92  C   UNL A   1      52.236  25.473  25.840  1.00  0.00     0.060 A 
BRANCH  92  93
ATOM     93  S   UNL A   1      53.831  24.781  25.352  1.00  0.00     0.124 S 
ATOM     94  O   UNL A   1      53.484  23.392  25.078  1.00  0.00    -0.237 OA
ATOM     95  O   UNL A   1      54.176  25.591  24.187  1.00  0.00    -0.237 OA
ATOM     96  O   UNL A   1      54.669  24.999  26.528  1.00  0.00    -0.744 OA
ENDBRANCH  92  93
ENDBRANCH  60  85
ENDBRANCH  34  35
ENDBRANCH  27  29
ENDBRANCH  26  27
ENDBRANCH  25  26
ENDBRANCH  24  25
ENDBRANCH   1  24
TORSDOF 21
ENDMDL
