MODEL 1
REMARK VINA RESULT:     -10.5      0.000      0.000
REMARK SMILES CC(C)n1c([C@H](O)CC(=O)OCCOCCOC(=O)c2ccc(-c3c4nc(c(-c5c(F)cc(S(=O)(=O)[O-])cc5F)c5ccc([nH]5)c(-c5c(F)cc(S(=O)(=O)[O-])cc5F)c5nc(c(-c6c(F)cc(S(=O)(=O)[O-])cc6F)c6ccc3[nH]6)C=C5)C=C4)cc2)nc2cc(Cl)ccc21
REMARK SMILES IDX 14 1 13 2 12 3 11 4 9 5 10 6 8 7 6 8 5 9 4 10 93 11 86 12
REMARK SMILES IDX 87 13 92 14 88 15 91 16 89 17 90 18 2 19 1 20 3 21 7 22
REMARK SMILES IDX 15 24 16 25 17 26 18 27 19 28 20 29 21 30 85 31 22 32 84 33
REMARK SMILES IDX 23 34 24 35 25 36 78 37 26 38 83 39 77 40 79 41 27 42 82 43
REMARK SMILES IDX 76 44 75 45 28 47 62 48 41 49 61 50 42 51 45 52 60 53 80 54
REMARK SMILES IDX 43 55 44 56 59 58 81 59 46 60 29 61 30 62 39 63 31 64 32 65
REMARK SMILES IDX 38 66 40 67 33 68 34 69 35 70 36 71 37 72 63 73 64 74 73 75
REMARK SMILES IDX 65 76 66 77 72 78 74 79 67 80 68 81 69 82 70 83 71 84 47 85
REMARK SMILES IDX 48 86 57 87 49 88 50 89 56 90 58 91 51 92 52 93 53 94 54 95
REMARK SMILES IDX 55 96
REMARK H PARENT 7 23 79 46 45 57
REMARK Flexibility Score: inf
ROOT
ATOM      1  O   UNL A   1      41.350  20.118  26.899  1.00  0.00    -0.374 OA
ENDROOT
BRANCH   1   2
ATOM      2  C   UNL A   1      40.596  21.171  26.297  1.00  0.00     0.202 C 
BRANCH   2   3
ATOM      3  C   UNL A   1      39.067  21.070  26.332  1.00  0.00     0.261 C 
BRANCH   3   4
ATOM      4  O   UNL A   1      38.523  21.723  25.183  1.00  0.00    -0.463 OA
BRANCH   4   5
ATOM      5  C   UNL A   1      37.642  22.715  25.445  1.00  0.00     0.308 C 
ATOM      6  O   UNL A   1      37.842  23.681  26.171  1.00  0.00    -0.252 OA
BRANCH   5   7
ATOM      7  C   UNL A   1      36.431  22.618  24.566  1.00  0.00     0.162 C 
BRANCH   7   8
ATOM      8  C   UNL A   1      35.119  22.240  25.227  1.00  0.00     0.191 C 
BRANCH   8   9
ATOM      9  C   UNL A   1      34.121  23.367  25.289  1.00  0.00     0.139 A 
ATOM     10  N   UNL A   1      32.803  23.373  24.850  1.00  0.00    -0.323 N 
ATOM     11  C   UNL A   1      32.281  24.624  25.159  1.00  0.00     0.069 A 
ATOM     12  N   UNL A   1      34.463  24.557  25.755  1.00  0.00    -0.230 NA
ATOM     13  C   UNL A   1      33.347  25.336  25.691  1.00  0.00     0.090 A 
ATOM     14  C   UNL A   1      31.004  25.183  25.024  1.00  0.00     0.030 A 
ATOM     15  C   UNL A   1      33.175  26.669  26.087  1.00  0.00     0.051 A 
ATOM     16  C   UNL A   1      30.839  26.511  25.431  1.00  0.00     0.023 A 
ATOM     17  C   UNL A   1      31.910  27.240  25.948  1.00  0.00     0.043 A 
ATOM     18  Cl  UNL A   1      31.662  28.875  26.433  1.00  0.00    -0.084 Cl
BRANCH  10  19
ATOM     19  C   UNL A   1      31.981  22.316  24.251  1.00  0.00     0.083 C 
ATOM     20  C   UNL A   1      32.272  21.957  22.794  1.00  0.00     0.031 C 
ATOM     21  C   UNL A   1      31.818  21.107  25.187  1.00  0.00     0.031 C 
ENDBRANCH  10  19
ENDBRANCH   8   9
BRANCH   8  22
ATOM     22  O   UNL A   1      35.213  21.696  26.534  1.00  0.00    -0.385 OA
ATOM     23  H   UNL A   1      35.043  22.393  27.187  1.00  0.00     0.211 HD
ENDBRANCH   8  22
ENDBRANCH   7   8
ENDBRANCH   5   7
ENDBRANCH   4   5
ENDBRANCH   3   4
ENDBRANCH   2   3
ENDBRANCH   1   2
BRANCH   1  24
ATOM     24  C   UNL A   1      41.899  19.115  26.041  1.00  0.00     0.202 C 
BRANCH  24  25
ATOM     25  C   UNL A   1      43.382  19.221  25.647  1.00  0.00     0.261 C 
BRANCH  25  26
ATOM     26  O   UNL A   1      43.576  20.246  24.666  1.00  0.00    -0.460 OA
BRANCH  26  27
ATOM     27  C   UNL A   1      44.592  21.108  24.945  1.00  0.00     0.338 C 
ATOM     28  O   UNL A   1      45.663  21.191  24.388  1.00  0.00    -0.246 OA
BRANCH  27  29
ATOM     29  C   UNL A   1      43.955  22.178  25.739  1.00  0.00     0.060 A 
ATOM     30  C   UNL A   1      43.249  23.208  25.110  1.00  0.00     0.016 A 
ATOM     31  C   UNL A   1      44.406  22.302  27.063  1.00  0.00     0.016 A 
ATOM     32  C   UNL A   1      43.062  24.405  25.792  1.00  0.00     0.010 A 
ATOM     33  C   UNL A   1      44.260  23.518  27.719  1.00  0.00     0.010 A 
ATOM     34  C   UNL A   1      43.610  24.575  27.074  1.00  0.00    -0.014 A 
BRANCH  34  35
ATOM     35  C   UNL A   1      43.334  25.827  27.780  1.00  0.00     0.031 A 
ATOM     36  C   UNL A   1      44.399  26.855  27.623  1.00  0.00     0.074 A 
ATOM     37  C   UNL A   1      42.169  26.159  28.372  1.00  0.00     0.049 A 
ATOM     38  N   UNL A   1      45.095  27.453  28.536  1.00  0.00    -0.248 NA
ATOM     39  C   UNL A   1      44.786  27.198  26.244  1.00  0.00     0.031 C 
ATOM     40  C   UNL A   1      40.900  25.440  28.320  1.00  0.00     0.029 A 
ATOM     41  N   UNL A   1      41.851  27.294  29.066  1.00  0.00    -0.354 N 
ATOM     42  C   UNL A   1      45.886  28.373  27.855  1.00  0.00     0.074 A 
ATOM     43  C   UNL A   1      45.760  28.079  26.451  1.00  0.00     0.031 C 
ATOM     44  C   UNL A   1      39.913  26.233  28.794  1.00  0.00     0.029 A 
ATOM     45  C   UNL A   1      40.487  27.485  29.251  1.00  0.00     0.049 A 
ATOM     46  H   UNL A   1      42.531  27.921  29.405  1.00  0.00     0.167 HD
ATOM     47  C   UNL A   1      46.453  29.454  28.453  1.00  0.00     0.037 A 
ATOM     48  C   UNL A   1      39.867  28.623  29.656  1.00  0.00     0.037 A 
ATOM     49  C   UNL A   1      46.516  29.336  29.880  1.00  0.00     0.049 A 
ATOM     50  C   UNL A   1      40.883  29.487  30.309  1.00  0.00     0.074 A 
ATOM     51  C   UNL A   1      47.104  28.440  30.753  1.00  0.00     0.029 A 
ATOM     52  N   UNL A   1      45.630  30.062  30.637  1.00  0.00    -0.354 N 
ATOM     53  N   UNL A   1      41.446  29.237  31.458  1.00  0.00    -0.248 NA
ATOM     54  C   UNL A   1      41.559  30.481  29.489  1.00  0.00     0.031 C 
ATOM     55  C   UNL A   1      46.214  28.357  31.863  1.00  0.00     0.029 A 
ATOM     56  C   UNL A   1      45.145  29.213  31.603  1.00  0.00     0.049 A 
ATOM     57  H   UNL A   1      45.389  31.008  30.512  1.00  0.00     0.167 HD
ATOM     58  C   UNL A   1      42.736  29.731  31.339  1.00  0.00     0.074 A 
ATOM     59  C   UNL A   1      42.711  30.580  30.154  1.00  0.00     0.031 C 
ATOM     60  C   UNL A   1      43.770  29.196  32.053  1.00  0.00     0.037 A 
BRANCH  47  61
ATOM     61  C   UNL A   1      46.694  30.741  27.715  1.00  0.00     0.058 A 
ATOM     62  C   UNL A   1      47.975  31.314  27.669  1.00  0.00     0.135 A 
ATOM     63  C   UNL A   1      45.636  31.543  27.230  1.00  0.00     0.135 A 
ATOM     64  F   UNL A   1      49.037  30.648  28.150  1.00  0.00    -0.206 F 
ATOM     65  C   UNL A   1      48.189  32.603  27.181  1.00  0.00     0.059 A 
ATOM     66  C   UNL A   1      45.833  32.804  26.685  1.00  0.00     0.059 A 
ATOM     67  F   UNL A   1      44.354  31.162  27.345  1.00  0.00    -0.206 F 
ATOM     68  C   UNL A   1      47.110  33.341  26.695  1.00  0.00     0.060 A 
BRANCH  68  69
ATOM     69  S   UNL A   1      47.369  35.034  26.137  1.00  0.00     0.124 S 
ATOM     70  O   UNL A   1      46.018  35.575  26.222  1.00  0.00    -0.237 OA
ATOM     71  O   UNL A   1      48.323  35.539  27.120  1.00  0.00    -0.237 OA
ATOM     72  O   UNL A   1      47.900  34.864  24.789  1.00  0.00    -0.744 OA
ENDBRANCH  68  69
ENDBRANCH  47  61
BRANCH  48  73
ATOM     73  C   UNL A   1      38.533  29.144  29.248  1.00  0.00     0.058 A 
ATOM     74  C   UNL A   1      37.517  29.364  30.198  1.00  0.00     0.135 A 
ATOM     75  C   UNL A   1      38.310  29.693  27.969  1.00  0.00     0.135 A 
ATOM     76  F   UNL A   1      37.649  28.899  31.449  1.00  0.00    -0.206 F 
ATOM     77  C   UNL A   1      36.381  30.128  29.913  1.00  0.00     0.059 A 
ATOM     78  C   UNL A   1      37.176  30.439  27.656  1.00  0.00     0.059 A 
ATOM     79  F   UNL A   1      39.236  29.612  27.003  1.00  0.00    -0.206 F 
ATOM     80  C   UNL A   1      36.230  30.681  28.643  1.00  0.00     0.060 A 
BRANCH  80  81
ATOM     81  S   UNL A   1      34.868  31.824  28.324  1.00  0.00     0.124 S 
ATOM     82  O   UNL A   1      35.518  32.854  27.521  1.00  0.00    -0.237 OA
ATOM     83  O   UNL A   1      33.915  30.973  27.621  1.00  0.00    -0.237 OA
ATOM     84  O   UNL A   1      34.456  32.242  29.661  1.00  0.00    -0.744 OA
ENDBRANCH  80  81
ENDBRANCH  48  73
BRANCH  60  85
ATOM     85  C   UNL A   1      43.441  28.289  33.210  1.00  0.00     0.058 A 
ATOM     86  C   UNL A   1      43.459  26.885  33.137  1.00  0.00     0.135 A 
ATOM     87  C   UNL A   1      43.246  28.862  34.476  1.00  0.00     0.135 A 
ATOM     88  F   UNL A   1      43.744  26.259  31.986  1.00  0.00    -0.206 F 
ATOM     89  C   UNL A   1      43.250  26.088  34.264  1.00  0.00     0.059 A 
ATOM     90  C   UNL A   1      43.067  28.086  35.620  1.00  0.00     0.059 A 
ATOM     91  F   UNL A   1      43.279  30.197  34.624  1.00  0.00    -0.206 F 
ATOM     92  C   UNL A   1      43.061  26.697  35.504  1.00  0.00     0.060 A 
BRANCH  92  93
ATOM     93  S   UNL A   1      42.897  25.659  36.975  1.00  0.00     0.124 S 
ATOM     94  O   UNL A   1      41.504  25.232  36.897  1.00  0.00    -0.237 OA
ATOM     95  O   UNL A   1      43.894  24.617  36.743  1.00  0.00    -0.237 OA
ATOM     96  O   UNL A   1      43.210  26.571  38.073  1.00  0.00    -0.744 OA
ENDBRANCH  92  93
ENDBRANCH  60  85
ENDBRANCH  34  35
ENDBRANCH  27  29
ENDBRANCH  26  27
ENDBRANCH  25  26
ENDBRANCH  24  25
ENDBRANCH   1  24
TORSDOF 21
ENDMDL
MODEL 2
REMARK VINA RESULT:     -10.2      3.539      8.620
REMARK SMILES CC(C)n1c([C@H](O)CC(=O)OCCOCCOC(=O)c2ccc(-c3c4nc(c(-c5c(F)cc(S(=O)(=O)[O-])cc5F)c5ccc([nH]5)c(-c5c(F)cc(S(=O)(=O)[O-])cc5F)c5nc(c(-c6c(F)cc(S(=O)(=O)[O-])cc6F)c6ccc3[nH]6)C=C5)C=C4)cc2)nc2cc(Cl)ccc21
REMARK SMILES IDX 14 1 13 2 12 3 11 4 9 5 10 6 8 7 6 8 5 9 4 10 93 11 86 12
REMARK SMILES IDX 87 13 92 14 88 15 91 16 89 17 90 18 2 19 1 20 3 21 7 22
REMARK SMILES IDX 15 24 16 25 17 26 18 27 19 28 20 29 21 30 85 31 22 32 84 33
REMARK SMILES IDX 23 34 24 35 25 36 78 37 26 38 83 39 77 40 79 41 27 42 82 43
REMARK SMILES IDX 76 44 75 45 28 47 62 48 41 49 61 50 42 51 45 52 60 53 80 54
REMARK SMILES IDX 43 55 44 56 59 58 81 59 46 60 29 61 30 62 39 63 31 64 32 65
REMARK SMILES IDX 38 66 40 67 33 68 34 69 35 70 36 71 37 72 63 73 64 74 73 75
REMARK SMILES IDX 65 76 66 77 72 78 74 79 67 80 68 81 69 82 70 83 71 84 47 85
REMARK SMILES IDX 48 86 57 87 49 88 50 89 56 90 58 91 51 92 52 93 53 94 54 95
REMARK SMILES IDX 55 96
REMARK H PARENT 7 23 79 46 45 57
REMARK Flexibility Score: inf
ROOT
ATOM      1  O   UNL A   1      34.144  23.931  24.540  1.00  0.00    -0.374 OA
ENDROOT
BRANCH   1   2
ATOM      2  C   UNL A   1      34.294  23.315  23.260  1.00  0.00     0.202 C 
BRANCH   2   3
ATOM      3  C   UNL A   1      33.035  23.112  22.409  1.00  0.00     0.261 C 
BRANCH   3   4
ATOM      4  O   UNL A   1      33.130  23.907  21.225  1.00  0.00    -0.463 OA
BRANCH   4   5
ATOM      5  C   UNL A   1      32.896  25.228  21.396  1.00  0.00     0.308 C 
ATOM      6  O   UNL A   1      33.390  26.136  20.738  1.00  0.00    -0.252 OA
BRANCH   5   7
ATOM      7  C   UNL A   1      31.778  25.466  22.365  1.00  0.00     0.162 C 
BRANCH   7   8
ATOM      8  C   UNL A   1      32.025  26.461  23.482  1.00  0.00     0.191 C 
BRANCH   8   9
ATOM      9  C   UNL A   1      31.231  27.735  23.350  1.00  0.00     0.139 A 
ATOM     10  N   UNL A   1      30.979  28.696  24.322  1.00  0.00    -0.323 N 
ATOM     11  C   UNL A   1      30.237  29.701  23.711  1.00  0.00     0.069 A 
ATOM     12  N   UNL A   1      30.614  28.041  22.221  1.00  0.00    -0.230 NA
ATOM     13  C   UNL A   1      30.008  29.245  22.421  1.00  0.00     0.090 A 
ATOM     14  C   UNL A   1      29.758  30.938  24.161  1.00  0.00     0.030 A 
ATOM     15  C   UNL A   1      29.250  30.013  21.527  1.00  0.00     0.051 A 
ATOM     16  C   UNL A   1      29.011  31.703  23.259  1.00  0.00     0.023 A 
ATOM     17  C   UNL A   1      28.759  31.242  21.967  1.00  0.00     0.043 A 
ATOM     18  Cl  UNL A   1      27.830  32.216  20.891  1.00  0.00    -0.084 Cl
BRANCH  10  19
ATOM     19  C   UNL A   1      31.422  28.797  25.716  1.00  0.00     0.083 C 
ATOM     20  C   UNL A   1      31.409  27.509  26.540  1.00  0.00     0.031 C 
ATOM     21  C   UNL A   1      32.704  29.634  25.859  1.00  0.00     0.031 C 
ENDBRANCH  10  19
ENDBRANCH   8   9
BRANCH   8  22
ATOM     22  O   UNL A   1      33.376  26.834  23.699  1.00  0.00    -0.385 OA
ATOM     23  H   UNL A   1      33.881  26.709  22.881  1.00  0.00     0.211 HD
ENDBRANCH   8  22
ENDBRANCH   7   8
ENDBRANCH   5   7
ENDBRANCH   4   5
ENDBRANCH   3   4
ENDBRANCH   2   3
ENDBRANCH   1   2
BRANCH   1  24
ATOM     24  C   UNL A   1      34.410  23.136  25.698  1.00  0.00     0.202 C 
BRANCH  24  25
ATOM     25  C   UNL A   1      35.171  21.812  25.519  1.00  0.00     0.261 C 
BRANCH  25  26
ATOM     26  O   UNL A   1      36.407  21.835  26.242  1.00  0.00    -0.460 OA
BRANCH  26  27
ATOM     27  C   UNL A   1      37.478  21.366  25.543  1.00  0.00     0.338 C 
ATOM     28  O   UNL A   1      37.465  20.653  24.565  1.00  0.00    -0.246 OA
BRANCH  27  29
ATOM     29  C   UNL A   1      38.591  22.250  25.944  1.00  0.00     0.060 A 
ATOM     30  C   UNL A   1      39.741  21.724  26.537  1.00  0.00     0.016 A 
ATOM     31  C   UNL A   1      38.275  23.615  26.043  1.00  0.00     0.016 A 
ATOM     32  C   UNL A   1      40.544  22.561  27.303  1.00  0.00     0.010 A 
ATOM     33  C   UNL A   1      39.053  24.435  26.850  1.00  0.00     0.010 A 
ATOM     34  C   UNL A   1      40.172  23.902  27.500  1.00  0.00    -0.014 A 
BRANCH  34  35
ATOM     35  C   UNL A   1      41.078  24.763  28.259  1.00  0.00     0.031 A 
ATOM     36  C   UNL A   1      40.516  26.106  28.568  1.00  0.00     0.074 A 
ATOM     37  C   UNL A   1      42.243  24.383  28.823  1.00  0.00     0.049 A 
ATOM     38  N   UNL A   1      40.984  27.275  28.266  1.00  0.00    -0.248 NA
ATOM     39  C   UNL A   1      39.207  26.133  29.243  1.00  0.00     0.031 C 
ATOM     40  C   UNL A   1      42.784  23.031  28.938  1.00  0.00     0.029 A 
ATOM     41  N   UNL A   1      43.145  25.136  29.521  1.00  0.00    -0.354 N 
ATOM     42  C   UNL A   1      40.117  28.186  28.862  1.00  0.00     0.074 A 
ATOM     43  C   UNL A   1      38.976  27.440  29.326  1.00  0.00     0.031 C 
ATOM     44  C   UNL A   1      43.816  23.032  29.810  1.00  0.00     0.029 A 
ATOM     45  C   UNL A   1      44.059  24.391  30.258  1.00  0.00     0.049 A 
ATOM     46  H   UNL A   1      43.148  26.120  29.502  1.00  0.00     0.167 HD
ATOM     47  C   UNL A   1      40.457  29.475  29.123  1.00  0.00     0.037 A 
ATOM     48  C   UNL A   1      44.884  24.844  31.237  1.00  0.00     0.037 A 
ATOM     49  C   UNL A   1      41.596  29.918  28.371  1.00  0.00     0.049 A 
ATOM     50  C   UNL A   1      44.999  26.317  31.089  1.00  0.00     0.074 A 
ATOM     51  C   UNL A   1      41.884  30.028  27.025  1.00  0.00     0.029 A 
ATOM     52  N   UNL A   1      42.800  30.038  29.018  1.00  0.00    -0.354 N 
ATOM     53  N   UNL A   1      45.619  26.922  30.115  1.00  0.00    -0.248 NA
ATOM     54  C   UNL A   1      44.090  27.151  31.859  1.00  0.00     0.031 C 
ATOM     55  C   UNL A   1      43.274  29.737  26.912  1.00  0.00     0.029 A 
ATOM     56  C   UNL A   1      43.749  29.478  28.198  1.00  0.00     0.049 A 
ATOM     57  H   UNL A   1      42.955  30.448  29.900  1.00  0.00     0.167 HD
ATOM     58  C   UNL A   1      44.894  28.083  29.896  1.00  0.00     0.074 A 
ATOM     59  C   UNL A   1      44.037  28.223  31.067  1.00  0.00     0.031 C 
ATOM     60  C   UNL A   1      44.860  28.679  28.667  1.00  0.00     0.037 A 
BRANCH  47  61
ATOM     61  C   UNL A   1      39.890  30.231  30.291  1.00  0.00     0.058 A 
ATOM     62  C   UNL A   1      40.083  29.775  31.605  1.00  0.00     0.135 A 
ATOM     63  C   UNL A   1      38.966  31.289  30.130  1.00  0.00     0.135 A 
ATOM     64  F   UNL A   1      40.906  28.743  31.853  1.00  0.00    -0.206 F 
ATOM     65  C   UNL A   1      39.398  30.328  32.687  1.00  0.00     0.059 A 
ATOM     66  C   UNL A   1      38.318  31.894  31.198  1.00  0.00     0.059 A 
ATOM     67  F   UNL A   1      38.594  31.720  28.915  1.00  0.00    -0.206 F 
ATOM     68  C   UNL A   1      38.514  31.384  32.471  1.00  0.00     0.060 A 
BRANCH  68  69
ATOM     69  S   UNL A   1      37.568  32.049  33.852  1.00  0.00     0.124 S 
ATOM     70  O   UNL A   1      38.012  33.437  33.863  1.00  0.00    -0.237 OA
ATOM     71  O   UNL A   1      36.192  31.820  33.421  1.00  0.00    -0.237 OA
ATOM     72  O   UNL A   1      38.006  31.234  34.981  1.00  0.00    -0.744 OA
ENDBRANCH  68  69
ENDBRANCH  47  61
BRANCH  48  73
ATOM     73  C   UNL A   1      45.333  24.136  32.468  1.00  0.00     0.058 A 
ATOM     74  C   UNL A   1      46.530  24.494  33.116  1.00  0.00     0.135 A 
ATOM     75  C   UNL A   1      44.471  23.286  33.191  1.00  0.00     0.135 A 
ATOM     76  F   UNL A   1      47.403  25.319  32.518  1.00  0.00    -0.206 F 
ATOM     77  C   UNL A   1      46.828  24.079  34.419  1.00  0.00     0.059 A 
ATOM     78  C   UNL A   1      44.756  22.843  34.480  1.00  0.00     0.059 A 
ATOM     79  F   UNL A   1      43.271  22.935  32.708  1.00  0.00    -0.206 F 
ATOM     80  C   UNL A   1      45.922  23.270  35.102  1.00  0.00     0.060 A 
BRANCH  80  81
ATOM     81  S   UNL A   1      46.204  22.890  36.845  1.00  0.00     0.124 S 
ATOM     82  O   UNL A   1      47.596  23.287  37.021  1.00  0.00    -0.237 OA
ATOM     83  O   UNL A   1      45.211  23.730  37.504  1.00  0.00    -0.237 OA
ATOM     84  O   UNL A   1      45.950  21.454  36.925  1.00  0.00    -0.744 OA
ENDBRANCH  80  81
ENDBRANCH  48  73
BRANCH  60  85
ATOM     85  C   UNL A   1      45.877  28.251  27.641  1.00  0.00     0.058 A 
ATOM     86  C   UNL A   1      47.143  28.844  27.497  1.00  0.00     0.135 A 
ATOM     87  C   UNL A   1      45.616  27.104  26.876  1.00  0.00     0.135 A 
ATOM     88  F   UNL A   1      47.511  29.879  28.267  1.00  0.00    -0.206 F 
ATOM     89  C   UNL A   1      48.091  28.344  26.603  1.00  0.00     0.059 A 
ATOM     90  C   UNL A   1      46.560  26.567  26.001  1.00  0.00     0.059 A 
ATOM     91  F   UNL A   1      44.448  26.454  27.013  1.00  0.00    -0.206 F 
ATOM     92  C   UNL A   1      47.794  27.200  25.863  1.00  0.00     0.060 A 
BRANCH  92  93
ATOM     93  S   UNL A   1      49.064  26.497  24.787  1.00  0.00     0.124 S 
ATOM     94  O   UNL A   1      49.716  27.690  24.258  1.00  0.00    -0.237 OA
ATOM     95  O   UNL A   1      49.861  25.697  25.713  1.00  0.00    -0.237 OA
ATOM     96  O   UNL A   1      48.296  25.722  23.814  1.00  0.00    -0.744 OA
ENDBRANCH  92  93
ENDBRANCH  60  85
ENDBRANCH  34  35
ENDBRANCH  27  29
ENDBRANCH  26  27
ENDBRANCH  25  26
ENDBRANCH  24  25
ENDBRANCH   1  24
TORSDOF 21
ENDMDL
MODEL 3
REMARK VINA RESULT:     -10.2      2.683      4.323
REMARK SMILES CC(C)n1c([C@H](O)CC(=O)OCCOCCOC(=O)c2ccc(-c3c4nc(c(-c5c(F)cc(S(=O)(=O)[O-])cc5F)c5ccc([nH]5)c(-c5c(F)cc(S(=O)(=O)[O-])cc5F)c5nc(c(-c6c(F)cc(S(=O)(=O)[O-])cc6F)c6ccc3[nH]6)C=C5)C=C4)cc2)nc2cc(Cl)ccc21
REMARK SMILES IDX 14 1 13 2 12 3 11 4 9 5 10 6 8 7 6 8 5 9 4 10 93 11 86 12
REMARK SMILES IDX 87 13 92 14 88 15 91 16 89 17 90 18 2 19 1 20 3 21 7 22
REMARK SMILES IDX 15 24 16 25 17 26 18 27 19 28 20 29 21 30 85 31 22 32 84 33
REMARK SMILES IDX 23 34 24 35 25 36 78 37 26 38 83 39 77 40 79 41 27 42 82 43
REMARK SMILES IDX 76 44 75 45 28 47 62 48 41 49 61 50 42 51 45 52 60 53 80 54
REMARK SMILES IDX 43 55 44 56 59 58 81 59 46 60 29 61 30 62 39 63 31 64 32 65
REMARK SMILES IDX 38 66 40 67 33 68 34 69 35 70 36 71 37 72 63 73 64 74 73 75
REMARK SMILES IDX 65 76 66 77 72 78 74 79 67 80 68 81 69 82 70 83 71 84 47 85
REMARK SMILES IDX 48 86 57 87 49 88 50 89 56 90 58 91 51 92 52 93 53 94 54 95
REMARK SMILES IDX 55 96
REMARK H PARENT 7 23 79 46 45 57
REMARK Flexibility Score: inf
ROOT
ATOM      1  O   UNL A   1      35.240  22.239  23.875  1.00  0.00    -0.374 OA
ENDROOT
BRANCH   1   2
ATOM      2  C   UNL A   1      34.867  23.476  23.267  1.00  0.00     0.202 C 
BRANCH   2   3
ATOM      3  C   UNL A   1      34.563  24.665  24.186  1.00  0.00     0.261 C 
BRANCH   3   4
ATOM      4  O   UNL A   1      33.942  25.704  23.426  1.00  0.00    -0.463 OA
BRANCH   4   5
ATOM      5  C   UNL A   1      32.688  25.437  22.998  1.00  0.00     0.308 C 
ATOM      6  O   UNL A   1      32.354  25.229  21.838  1.00  0.00    -0.252 OA
BRANCH   5   7
ATOM      7  C   UNL A   1      31.753  25.212  24.148  1.00  0.00     0.162 C 
BRANCH   7   8
ATOM      8  C   UNL A   1      30.768  24.065  24.030  1.00  0.00     0.191 C 
BRANCH   8   9
ATOM      9  C   UNL A   1      31.391  22.705  24.207  1.00  0.00     0.139 A 
ATOM     10  N   UNL A   1      31.816  22.100  25.384  1.00  0.00    -0.323 N 
ATOM     11  C   UNL A   1      32.283  20.836  25.040  1.00  0.00     0.069 A 
ATOM     12  N   UNL A   1      31.655  21.934  23.164  1.00  0.00    -0.230 NA
ATOM     13  C   UNL A   1      32.192  20.784  23.657  1.00  0.00     0.090 A 
ATOM     14  C   UNL A   1      32.764  19.760  25.798  1.00  0.00     0.030 A 
ATOM     15  C   UNL A   1      32.617  19.640  22.967  1.00  0.00     0.051 A 
ATOM     16  C   UNL A   1      33.177  18.620  25.102  1.00  0.00     0.023 A 
ATOM     17  C   UNL A   1      33.108  18.566  23.710  1.00  0.00     0.043 A 
ATOM     18  Cl  UNL A   1      33.632  17.142  22.894  1.00  0.00    -0.084 Cl
BRANCH  10  19
ATOM     19  C   UNL A   1      31.758  22.554  26.776  1.00  0.00     0.083 C 
ATOM     20  C   UNL A   1      32.869  23.494  27.244  1.00  0.00     0.031 C 
ATOM     21  C   UNL A   1      30.341  22.986  27.188  1.00  0.00     0.031 C 
ENDBRANCH  10  19
ENDBRANCH   8   9
BRANCH   8  22
ATOM     22  O   UNL A   1      30.003  24.020  22.837  1.00  0.00    -0.385 OA
ATOM     23  H   UNL A   1      29.937  23.102  22.530  1.00  0.00     0.211 HD
ENDBRANCH   8  22
ENDBRANCH   7   8
ENDBRANCH   5   7
ENDBRANCH   4   5
ENDBRANCH   3   4
ENDBRANCH   2   3
ENDBRANCH   1   2
BRANCH   1  24
ATOM     24  C   UNL A   1      36.633  21.977  24.056  1.00  0.00     0.202 C 
BRANCH  24  25
ATOM     25  C   UNL A   1      37.207  22.016  25.481  1.00  0.00     0.261 C 
BRANCH  25  26
ATOM     26  O   UNL A   1      38.296  22.943  25.566  1.00  0.00    -0.460 OA
BRANCH  26  27
ATOM     27  C   UNL A   1      39.242  22.619  26.491  1.00  0.00     0.338 C 
ATOM     28  O   UNL A   1      39.736  21.532  26.691  1.00  0.00    -0.246 OA
BRANCH  27  29
ATOM     29  C   UNL A   1      39.841  23.914  26.870  1.00  0.00     0.060 A 
ATOM     30  C   UNL A   1      41.161  23.984  27.324  1.00  0.00     0.016 A 
ATOM     31  C   UNL A   1      38.930  24.958  27.103  1.00  0.00     0.016 A 
ATOM     32  C   UNL A   1      41.550  25.079  28.087  1.00  0.00     0.010 A 
ATOM     33  C   UNL A   1      39.311  26.024  27.908  1.00  0.00     0.010 A 
ATOM     34  C   UNL A   1      40.612  26.071  28.419  1.00  0.00    -0.014 A 
BRANCH  34  35
ATOM     35  C   UNL A   1      41.080  27.237  29.169  1.00  0.00     0.031 A 
ATOM     36  C   UNL A   1      42.298  27.873  28.597  1.00  0.00     0.074 A 
ATOM     37  C   UNL A   1      40.419  27.848  30.174  1.00  0.00     0.049 A 
ATOM     38  N   UNL A   1      43.446  28.083  29.154  1.00  0.00    -0.248 NA
ATOM     39  C   UNL A   1      42.235  28.254  27.175  1.00  0.00     0.031 C 
ATOM     40  C   UNL A   1      39.057  27.595  30.635  1.00  0.00     0.029 A 
ATOM     41  N   UNL A   1      40.806  28.920  30.929  1.00  0.00    -0.354 N 
ATOM     42  C   UNL A   1      44.195  28.778  28.209  1.00  0.00     0.074 A 
ATOM     43  C   UNL A   1      43.458  28.733  26.972  1.00  0.00     0.031 C 
ATOM     44  C   UNL A   1      38.667  28.595  31.456  1.00  0.00     0.029 A 
ATOM     45  C   UNL A   1      39.772  29.518  31.641  1.00  0.00     0.049 A 
ATOM     46  H   UNL A   1      41.736  29.240  30.967  1.00  0.00     0.167 HD
ATOM     47  C   UNL A   1      45.286  29.523  28.525  1.00  0.00     0.037 A 
ATOM     48  C   UNL A   1      39.793  30.731  32.251  1.00  0.00     0.037 A 
ATOM     49  C   UNL A   1      45.832  29.200  29.812  1.00  0.00     0.049 A 
ATOM     50  C   UNL A   1      41.213  31.120  32.441  1.00  0.00     0.074 A 
ATOM     51  C   UNL A   1      46.347  28.053  30.384  1.00  0.00     0.029 A 
ATOM     52  N   UNL A   1      45.611  30.066  30.853  1.00  0.00    -0.354 N 
ATOM     53  N   UNL A   1      42.037  30.548  33.274  1.00  0.00    -0.248 NA
ATOM     54  C   UNL A   1      41.837  31.940  31.414  1.00  0.00     0.031 C 
ATOM     55  C   UNL A   1      45.969  28.115  31.757  1.00  0.00     0.029 A 
ATOM     56  C   UNL A   1      45.256  29.301  31.938  1.00  0.00     0.049 A 
ATOM     57  H   UNL A   1      45.691  31.047  30.829  1.00  0.00     0.167 HD
ATOM     58  C   UNL A   1      43.274  30.605  32.649  1.00  0.00     0.074 A 
ATOM     59  C   UNL A   1      43.109  31.568  31.566  1.00  0.00     0.031 C 
ATOM     60  C   UNL A   1      44.239  29.671  32.897  1.00  0.00     0.037 A 
BRANCH  47  61
ATOM     61  C   UNL A   1      45.671  30.749  27.745  1.00  0.00     0.058 A 
ATOM     62  C   UNL A   1      46.958  30.879  27.200  1.00  0.00     0.135 A 
ATOM     63  C   UNL A   1      44.860  31.906  27.707  1.00  0.00     0.135 A 
ATOM     64  F   UNL A   1      47.819  29.849  27.232  1.00  0.00    -0.206 F 
ATOM     65  C   UNL A   1      47.413  32.082  26.659  1.00  0.00     0.059 A 
ATOM     66  C   UNL A   1      45.269  33.095  27.121  1.00  0.00     0.059 A 
ATOM     67  F   UNL A   1      43.664  31.948  28.315  1.00  0.00    -0.206 F 
ATOM     68  C   UNL A   1      46.560  33.186  26.629  1.00  0.00     0.060 A 
BRANCH  68  69
ATOM     69  S   UNL A   1      47.168  34.762  26.004  1.00  0.00     0.124 S 
ATOM     70  O   UNL A   1      48.213  34.323  25.087  1.00  0.00    -0.237 OA
ATOM     71  O   UNL A   1      45.973  35.330  25.388  1.00  0.00    -0.237 OA
ATOM     72  O   UNL A   1      47.628  35.445  27.209  1.00  0.00    -0.744 OA
ENDBRANCH  68  69
ENDBRANCH  47  61
BRANCH  48  73
ATOM     73  C   UNL A   1      38.679  31.708  32.404  1.00  0.00     0.058 A 
ATOM     74  C   UNL A   1      38.223  32.466  31.308  1.00  0.00     0.135 A 
ATOM     75  C   UNL A   1      37.858  31.724  33.549  1.00  0.00     0.135 A 
ATOM     76  F   UNL A   1      38.925  32.493  30.165  1.00  0.00    -0.206 F 
ATOM     77  C   UNL A   1      37.004  33.151  31.330  1.00  0.00     0.059 A 
ATOM     78  C   UNL A   1      36.650  32.417  33.601  1.00  0.00     0.059 A 
ATOM     79  F   UNL A   1      38.150  30.985  34.629  1.00  0.00    -0.206 F 
ATOM     80  C   UNL A   1      36.212  33.102  32.476  1.00  0.00     0.060 A 
BRANCH  80  81
ATOM     81  S   UNL A   1      34.554  33.819  32.446  1.00  0.00     0.124 S 
ATOM     82  O   UNL A   1      34.576  34.682  33.622  1.00  0.00    -0.237 OA
ATOM     83  O   UNL A   1      34.540  34.497  31.156  1.00  0.00    -0.237 OA
ATOM     84  O   UNL A   1      33.679  32.654  32.543  1.00  0.00    -0.744 OA
ENDBRANCH  80  81
ENDBRANCH  48  73
BRANCH  60  85
ATOM     85  C   UNL A   1      44.070  28.775  34.095  1.00  0.00     0.058 A 
ATOM     86  C   UNL A   1      44.483  29.116  35.396  1.00  0.00     0.135 A 
ATOM     87  C   UNL A   1      43.330  27.591  33.949  1.00  0.00     0.135 A 
ATOM     88  F   UNL A   1      45.101  30.281  35.638  1.00  0.00    -0.206 F 
ATOM     89  C   UNL A   1      44.209  28.298  36.492  1.00  0.00     0.059 A 
ATOM     90  C   UNL A   1      43.017  26.775  35.035  1.00  0.00     0.059 A 
ATOM     91  F   UNL A   1      42.854  27.240  32.743  1.00  0.00    -0.206 F 
ATOM     92  C   UNL A   1      43.469  27.130  36.304  1.00  0.00     0.060 A 
BRANCH  92  93
ATOM     93  S   UNL A   1      43.028  26.131  37.743  1.00  0.00     0.124 S 
ATOM     94  O   UNL A   1      41.582  26.314  37.814  1.00  0.00    -0.237 OA
ATOM     95  O   UNL A   1      43.479  24.796  37.356  1.00  0.00    -0.237 OA
ATOM     96  O   UNL A   1      43.789  26.742  38.830  1.00  0.00    -0.744 OA
ENDBRANCH  92  93
ENDBRANCH  60  85
ENDBRANCH  34  35
ENDBRANCH  27  29
ENDBRANCH  26  27
ENDBRANCH  25  26
ENDBRANCH  24  25
ENDBRANCH   1  24
TORSDOF 21
ENDMDL
