MODEL 1
REMARK VINA RESULT:     -11.4      0.000      0.000
REMARK SMILES NC(=O)c1ccccc1NC(=O)[C@@H]1CC=CC[C@@H]1C(=O)OCCOCCOC(=O)c1ccc(-c2c3nc(c(-c4c(F)cc(S(=O)(=O)[O-])cc4F)c4ccc([nH]4)c(-c4c(F)cc(S(=O)(=O)[O-])cc4F)c4nc(c(-c5c(F)cc(S(=O)(=O)[O-])cc5F)c5ccc2[nH]5)C=C4)C=C3)cc1
REMARK SMILES IDX 24 1 23 2 22 3 21 4 19 5 20 6 18 7 13 8 14 9 15 10 17 11
REMARK SMILES IDX 16 12 11 13 10 14 12 16 9 17 4 18 5 19 6 20 8 21 7 22 2 23
REMARK SMILES IDX 1 24 3 27 25 28 26 29 27 30 28 31 29 32 30 33 31 34 95 35
REMARK SMILES IDX 32 36 94 37 33 38 34 39 35 40 88 41 36 42 93 43 87 44 89 45
REMARK SMILES IDX 37 46 92 47 86 48 85 49 38 51 72 52 51 53 71 54 52 55 55 56
REMARK SMILES IDX 70 57 90 58 53 59 54 60 69 62 91 63 56 64 39 65 40 66 49 67
REMARK SMILES IDX 41 68 42 69 48 70 50 71 43 72 44 73 45 74 46 75 47 76 73 77
REMARK SMILES IDX 74 78 83 79 75 80 76 81 82 82 84 83 77 84 78 85 79 86 80 87
REMARK SMILES IDX 81 88 57 89 58 90 67 91 59 92 60 93 66 94 68 95 61 96 62 97
REMARK SMILES IDX 63 98 64 99 65 100
REMARK H PARENT 10 15 1 25 1 26 89 50 55 61
REMARK Flexibility Score: inf
ROOT
ATOM      1  O   UNL A   1      38.094  23.398  25.650  1.00  0.00    -0.374 OA
ENDROOT
BRANCH   1   2
ATOM      2  C   UNL A   1      36.751  23.491  25.189  1.00  0.00     0.202 C 
BRANCH   2   3
ATOM      3  C   UNL A   1      35.617  23.167  26.166  1.00  0.00     0.261 C 
BRANCH   3   4
ATOM      4  O   UNL A   1      34.362  22.922  25.524  1.00  0.00    -0.463 OA
BRANCH   4   5
ATOM      5  C   UNL A   1      33.412  23.865  25.761  1.00  0.00     0.310 C 
ATOM      6  O   UNL A   1      33.364  24.546  26.780  1.00  0.00    -0.252 OA
BRANCH   5   7
ATOM      7  C   UNL A   1      32.390  23.997  24.625  1.00  0.00     0.116 C 
ATOM      8  C   UNL A   1      31.082  23.280  25.074  1.00  0.00     0.097 C 
ATOM      9  C   UNL A   1      31.448  21.795  25.301  1.00  0.00     0.041 C 
ATOM     10  C   UNL A   1      32.171  21.204  24.118  1.00  0.00    -0.030 C 
ATOM     11  C   UNL A   1      32.851  23.444  23.265  1.00  0.00     0.043 C 
ATOM     12  C   UNL A   1      32.766  21.949  23.176  1.00  0.00    -0.030 C 
BRANCH   8  13
ATOM     13  C   UNL A   1      30.466  24.099  26.224  1.00  0.00     0.228 C 
ATOM     14  N   UNL A   1      29.916  25.330  26.057  1.00  0.00    -0.325 N 
ATOM     15  H   UNL A   1      29.192  25.536  26.690  1.00  0.00     0.169 HD
ATOM     16  O   UNL A   1      30.448  23.642  27.375  1.00  0.00    -0.274 OA
BRANCH  14  17
ATOM     17  C   UNL A   1      30.190  26.362  25.146  1.00  0.00     0.053 A 
ATOM     18  C   UNL A   1      31.012  27.440  25.522  1.00  0.00     0.063 A 
ATOM     19  C   UNL A   1      31.100  28.569  24.695  1.00  0.00     0.016 A 
ATOM     20  C   UNL A   1      30.458  28.584  23.458  1.00  0.00     0.001 A 
ATOM     21  C   UNL A   1      29.661  26.340  23.851  1.00  0.00     0.027 A 
ATOM     22  C   UNL A   1      29.774  27.454  23.020  1.00  0.00     0.002 A 
BRANCH  18  23
ATOM     23  C   UNL A   1      31.784  27.471  26.790  1.00  0.00     0.250 C 
ATOM     24  N   UNL A   1      33.148  27.538  26.676  1.00  0.00    -0.366 N 
ATOM     25  H   UNL A   1      33.708  27.561  27.485  1.00  0.00     0.159 HD
ATOM     26  H   UNL A   1      33.567  27.562  25.785  1.00  0.00     0.159 HD
ATOM     27  O   UNL A   1      31.240  27.511  27.884  1.00  0.00    -0.269 OA
ENDBRANCH  18  23
ENDBRANCH  14  17
ENDBRANCH   8  13
ENDBRANCH   5   7
ENDBRANCH   4   5
ENDBRANCH   3   4
ENDBRANCH   2   3
ENDBRANCH   1   2
BRANCH   1  28
ATOM     28  C   UNL A   1      38.672  22.106  25.834  1.00  0.00     0.202 C 
BRANCH  28  29
ATOM     29  C   UNL A   1      39.997  21.994  26.599  1.00  0.00     0.261 C 
BRANCH  29  30
ATOM     30  O   UNL A   1      40.206  23.071  27.531  1.00  0.00    -0.460 OA
BRANCH  30  31
ATOM     31  C   UNL A   1      41.083  24.016  27.119  1.00  0.00     0.338 C 
ATOM     32  O   UNL A   1      41.854  23.946  26.166  1.00  0.00    -0.246 OA
BRANCH  31  33
ATOM     33  C   UNL A   1      40.890  25.258  27.879  1.00  0.00     0.060 A 
ATOM     34  C   UNL A   1      41.953  26.168  27.945  1.00  0.00     0.016 A 
ATOM     35  C   UNL A   1      39.724  25.465  28.616  1.00  0.00     0.016 A 
ATOM     36  C   UNL A   1      41.860  27.286  28.773  1.00  0.00     0.010 A 
ATOM     37  C   UNL A   1      39.641  26.578  29.457  1.00  0.00     0.010 A 
ATOM     38  C   UNL A   1      40.718  27.477  29.559  1.00  0.00    -0.014 A 
BRANCH  38  39
ATOM     39  C   UNL A   1      40.686  28.553  30.577  1.00  0.00     0.031 A 
ATOM     40  C   UNL A   1      41.631  28.484  31.742  1.00  0.00     0.074 A 
ATOM     41  C   UNL A   1      39.814  29.570  30.462  1.00  0.00     0.049 A 
ATOM     42  N   UNL A   1      41.701  29.253  32.797  1.00  0.00    -0.248 NA
ATOM     43  C   UNL A   1      42.629  27.403  31.717  1.00  0.00     0.031 C 
ATOM     44  C   UNL A   1      38.886  29.763  29.349  1.00  0.00     0.029 A 
ATOM     45  N   UNL A   1      39.557  30.622  31.304  1.00  0.00    -0.354 N 
ATOM     46  C   UNL A   1      42.742  28.746  33.566  1.00  0.00     0.074 A 
ATOM     47  C   UNL A   1      43.264  27.593  32.866  1.00  0.00     0.031 C 
ATOM     48  C   UNL A   1      38.140  30.854  29.589  1.00  0.00     0.029 A 
ATOM     49  C   UNL A   1      38.511  31.412  30.888  1.00  0.00     0.049 A 
ATOM     50  H   UNL A   1      40.070  30.795  32.126  1.00  0.00     0.167 HD
ATOM     51  C   UNL A   1      43.217  29.205  34.748  1.00  0.00     0.037 A 
ATOM     52  C   UNL A   1      37.900  32.442  31.506  1.00  0.00     0.037 A 
ATOM     53  C   UNL A   1      42.687  30.353  35.438  1.00  0.00     0.049 A 
ATOM     54  C   UNL A   1      38.388  32.881  32.862  1.00  0.00     0.074 A 
ATOM     55  C   UNL A   1      43.113  30.913  36.629  1.00  0.00     0.029 A 
ATOM     56  N   UNL A   1      41.607  31.107  35.003  1.00  0.00    -0.354 N 
ATOM     57  N   UNL A   1      39.385  32.406  33.572  1.00  0.00    -0.248 NA
ATOM     58  C   UNL A   1      37.667  33.988  33.505  1.00  0.00     0.031 C 
ATOM     59  C   UNL A   1      42.258  31.977  36.938  1.00  0.00     0.029 A 
ATOM     60  C   UNL A   1      41.330  32.109  35.917  1.00  0.00     0.049 A 
ATOM     61  H   UNL A   1      41.110  30.952  34.167  1.00  0.00     0.167 HD
ATOM     62  C   UNL A   1      39.421  33.167  34.736  1.00  0.00     0.074 A 
ATOM     63  C   UNL A   1      38.353  34.140  34.631  1.00  0.00     0.031 C 
ATOM     64  C   UNL A   1      40.261  33.070  35.795  1.00  0.00     0.037 A 
BRANCH  51  65
ATOM     65  C   UNL A   1      44.347  28.448  35.386  1.00  0.00     0.058 A 
ATOM     66  C   UNL A   1      44.118  27.381  36.268  1.00  0.00     0.135 A 
ATOM     67  C   UNL A   1      45.680  28.774  35.085  1.00  0.00     0.135 A 
ATOM     68  F   UNL A   1      42.862  27.040  36.604  1.00  0.00    -0.206 F 
ATOM     69  C   UNL A   1      45.169  26.678  36.847  1.00  0.00     0.059 A 
ATOM     70  C   UNL A   1      46.747  28.069  35.634  1.00  0.00     0.059 A 
ATOM     71  F   UNL A   1      45.956  29.787  34.249  1.00  0.00    -0.206 F 
ATOM     72  C   UNL A   1      46.481  27.030  36.524  1.00  0.00     0.060 A 
BRANCH  72  73
ATOM     73  S   UNL A   1      47.835  26.107  37.282  1.00  0.00     0.124 S 
ATOM     74  O   UNL A   1      48.778  26.010  36.172  1.00  0.00    -0.237 OA
ATOM     75  O   UNL A   1      48.236  26.983  38.379  1.00  0.00    -0.237 OA
ATOM     76  O   UNL A   1      47.208  24.852  37.684  1.00  0.00    -0.744 OA
ENDBRANCH  72  73
ENDBRANCH  51  65
BRANCH  52  77
ATOM     77  C   UNL A   1      36.735  33.103  30.863  1.00  0.00     0.058 A 
ATOM     78  C   UNL A   1      35.429  32.874  31.318  1.00  0.00     0.135 A 
ATOM     79  C   UNL A   1      36.907  33.987  29.786  1.00  0.00     0.135 A 
ATOM     80  F   UNL A   1      35.212  32.027  32.335  1.00  0.00    -0.206 F 
ATOM     81  C   UNL A   1      34.332  33.492  30.724  1.00  0.00     0.059 A 
ATOM     82  C   UNL A   1      35.830  34.635  29.191  1.00  0.00     0.059 A 
ATOM     83  F   UNL A   1      38.138  34.247  29.318  1.00  0.00    -0.206 F 
ATOM     84  C   UNL A   1      34.544  34.375  29.663  1.00  0.00     0.060 A 
BRANCH  84  85
ATOM     85  S   UNL A   1      33.122  35.217  28.935  1.00  0.00     0.124 S 
ATOM     86  O   UNL A   1      32.293  35.462  30.109  1.00  0.00    -0.237 OA
ATOM     87  O   UNL A   1      33.738  36.394  28.329  1.00  0.00    -0.237 OA
ATOM     88  O   UNL A   1      32.601  34.236  27.988  1.00  0.00    -0.744 OA
ENDBRANCH  84  85
ENDBRANCH  52  77
BRANCH  64  89
ATOM     89  C   UNL A   1      40.079  34.048  36.921  1.00  0.00     0.058 A 
ATOM     90  C   UNL A   1      40.791  35.256  36.965  1.00  0.00     0.135 A 
ATOM     91  C   UNL A   1      39.123  33.811  37.922  1.00  0.00     0.135 A 
ATOM     92  F   UNL A   1      41.722  35.526  36.035  1.00  0.00    -0.206 F 
ATOM     93  C   UNL A   1      40.567  36.195  37.967  1.00  0.00     0.059 A 
ATOM     94  C   UNL A   1      38.866  34.745  38.921  1.00  0.00     0.059 A 
ATOM     95  F   UNL A   1      38.410  32.675  37.920  1.00  0.00    -0.206 F 
ATOM     96  C   UNL A   1      39.597  35.933  38.938  1.00  0.00     0.060 A 
BRANCH  96  97
ATOM     97  S   UNL A   1      39.275  37.185  40.198  1.00  0.00     0.124 S 
ATOM     98  O   UNL A   1      38.493  38.163  39.449  1.00  0.00    -0.237 OA
ATOM     99  O   UNL A   1      38.543  36.429  41.210  1.00  0.00    -0.237 OA
ATOM    100  O   UNL A   1      40.612  37.620  40.594  1.00  0.00    -0.744 OA
ENDBRANCH  96  97
ENDBRANCH  64  89
ENDBRANCH  38  39
ENDBRANCH  31  33
ENDBRANCH  30  31
ENDBRANCH  29  30
ENDBRANCH  28  29
ENDBRANCH   1  28
TORSDOF 20
ENDMDL
MODEL 2
REMARK VINA RESULT:     -11.3      1.467      2.150
REMARK SMILES NC(=O)c1ccccc1NC(=O)[C@@H]1CC=CC[C@@H]1C(=O)OCCOCCOC(=O)c1ccc(-c2c3nc(c(-c4c(F)cc(S(=O)(=O)[O-])cc4F)c4ccc([nH]4)c(-c4c(F)cc(S(=O)(=O)[O-])cc4F)c4nc(c(-c5c(F)cc(S(=O)(=O)[O-])cc5F)c5ccc2[nH]5)C=C4)C=C3)cc1
REMARK SMILES IDX 24 1 23 2 22 3 21 4 19 5 20 6 18 7 13 8 14 9 15 10 17 11
REMARK SMILES IDX 16 12 11 13 10 14 12 16 9 17 4 18 5 19 6 20 8 21 7 22 2 23
REMARK SMILES IDX 1 24 3 27 25 28 26 29 27 30 28 31 29 32 30 33 31 34 95 35
REMARK SMILES IDX 32 36 94 37 33 38 34 39 35 40 88 41 36 42 93 43 87 44 89 45
REMARK SMILES IDX 37 46 92 47 86 48 85 49 38 51 72 52 51 53 71 54 52 55 55 56
REMARK SMILES IDX 70 57 90 58 53 59 54 60 69 62 91 63 56 64 39 65 40 66 49 67
REMARK SMILES IDX 41 68 42 69 48 70 50 71 43 72 44 73 45 74 46 75 47 76 73 77
REMARK SMILES IDX 74 78 83 79 75 80 76 81 82 82 84 83 77 84 78 85 79 86 80 87
REMARK SMILES IDX 81 88 57 89 58 90 67 91 59 92 60 93 66 94 68 95 61 96 62 97
REMARK SMILES IDX 63 98 64 99 65 100
REMARK H PARENT 10 15 1 25 1 26 89 50 55 61
REMARK Flexibility Score: inf
ROOT
ATOM      1  O   UNL A   1      38.254  22.537  25.674  1.00  0.00    -0.374 OA
ENDROOT
BRANCH   1   2
ATOM      2  C   UNL A   1      37.338  22.183  24.645  1.00  0.00     0.202 C 
BRANCH   2   3
ATOM      3  C   UNL A   1      35.838  22.355  24.909  1.00  0.00     0.261 C 
BRANCH   3   4
ATOM      4  O   UNL A   1      35.024  22.105  23.759  1.00  0.00    -0.463 OA
BRANCH   4   5
ATOM      5  C   UNL A   1      34.570  23.223  23.133  1.00  0.00     0.310 C 
ATOM      6  O   UNL A   1      35.213  24.264  23.041  1.00  0.00    -0.252 OA
BRANCH   5   7
ATOM      7  C   UNL A   1      33.160  23.064  22.550  1.00  0.00     0.116 C 
ATOM      8  C   UNL A   1      32.374  24.377  22.838  1.00  0.00     0.097 C 
ATOM      9  C   UNL A   1      32.307  24.525  24.375  1.00  0.00     0.041 C 
ATOM     10  C   UNL A   1      31.800  23.272  25.042  1.00  0.00    -0.030 C 
ATOM     11  C   UNL A   1      32.371  21.852  23.075  1.00  0.00     0.043 C 
ATOM     12  C   UNL A   1      31.787  22.074  24.440  1.00  0.00    -0.030 C 
BRANCH   8  13
ATOM     13  C   UNL A   1      33.001  25.498  21.988  1.00  0.00     0.228 C 
ATOM     14  N   UNL A   1      33.491  26.652  22.513  1.00  0.00    -0.325 N 
ATOM     15  H   UNL A   1      34.230  27.045  21.997  1.00  0.00     0.169 HD
ATOM     16  O   UNL A   1      33.084  25.377  20.759  1.00  0.00    -0.274 OA
BRANCH  14  17
ATOM     17  C   UNL A   1      33.136  27.384  23.657  1.00  0.00     0.053 A 
ATOM     18  C   UNL A   1      32.109  28.344  23.595  1.00  0.00     0.063 A 
ATOM     19  C   UNL A   1      31.913  29.223  24.668  1.00  0.00     0.016 A 
ATOM     20  C   UNL A   1      32.662  29.084  25.835  1.00  0.00     0.001 A 
ATOM     21  C   UNL A   1      33.787  27.176  24.877  1.00  0.00     0.027 A 
ATOM     22  C   UNL A   1      33.569  28.036  25.954  1.00  0.00     0.002 A 
BRANCH  18  23
ATOM     23  C   UNL A   1      31.221  28.509  22.416  1.00  0.00     0.250 C 
ATOM     24  N   UNL A   1      31.041  29.788  21.958  1.00  0.00    -0.366 N 
ATOM     25  H   UNL A   1      30.462  29.954  21.179  1.00  0.00     0.159 HD
ATOM     26  H   UNL A   1      31.490  30.540  22.408  1.00  0.00     0.159 HD
ATOM     27  O   UNL A   1      30.730  27.555  21.830  1.00  0.00    -0.269 OA
ENDBRANCH  18  23
ENDBRANCH  14  17
ENDBRANCH   8  13
ENDBRANCH   5   7
ENDBRANCH   4   5
ENDBRANCH   3   4
ENDBRANCH   2   3
ENDBRANCH   1   2
BRANCH   1  28
ATOM     28  C   UNL A   1      39.176  21.555  26.146  1.00  0.00     0.202 C 
BRANCH  28  29
ATOM     29  C   UNL A   1      40.475  22.023  26.813  1.00  0.00     0.261 C 
BRANCH  29  30
ATOM     30  O   UNL A   1      40.324  23.254  27.543  1.00  0.00    -0.460 OA
BRANCH  30  31
ATOM     31  C   UNL A   1      41.086  24.278  27.092  1.00  0.00     0.338 C 
ATOM     32  O   UNL A   1      41.790  24.291  26.087  1.00  0.00    -0.246 OA
BRANCH  31  33
ATOM     33  C   UNL A   1      40.840  25.487  27.890  1.00  0.00     0.060 A 
ATOM     34  C   UNL A   1      41.856  26.449  27.968  1.00  0.00     0.016 A 
ATOM     35  C   UNL A   1      39.677  25.612  28.649  1.00  0.00     0.016 A 
ATOM     36  C   UNL A   1      41.720  27.537  28.828  1.00  0.00     0.010 A 
ATOM     37  C   UNL A   1      39.550  26.695  29.524  1.00  0.00     0.010 A 
ATOM     38  C   UNL A   1      40.581  27.646  29.635  1.00  0.00    -0.014 A 
BRANCH  38  39
ATOM     39  C   UNL A   1      40.510  28.690  30.684  1.00  0.00     0.031 A 
ATOM     40  C   UNL A   1      41.401  28.577  31.889  1.00  0.00     0.074 A 
ATOM     41  C   UNL A   1      39.651  29.717  30.563  1.00  0.00     0.049 A 
ATOM     42  N   UNL A   1      41.428  29.313  32.970  1.00  0.00    -0.248 NA
ATOM     43  C   UNL A   1      42.393  27.490  31.875  1.00  0.00     0.031 C 
ATOM     44  C   UNL A   1      38.775  29.952  29.416  1.00  0.00     0.029 A 
ATOM     45  N   UNL A   1      39.362  30.744  31.425  1.00  0.00    -0.354 N 
ATOM     46  C   UNL A   1      42.430  28.774  33.768  1.00  0.00     0.074 A 
ATOM     47  C   UNL A   1      42.976  27.639  33.056  1.00  0.00     0.031 C 
ATOM     48  C   UNL A   1      38.026  31.041  29.656  1.00  0.00     0.029 A 
ATOM     49  C   UNL A   1      38.341  31.555  30.988  1.00  0.00     0.049 A 
ATOM     50  H   UNL A   1      39.839  30.888  32.274  1.00  0.00     0.167 HD
ATOM     51  C   UNL A   1      42.854  29.192  34.984  1.00  0.00     0.037 A 
ATOM     52  C   UNL A   1      37.709  32.569  31.610  1.00  0.00     0.037 A 
ATOM     53  C   UNL A   1      42.300  30.322  35.685  1.00  0.00     0.049 A 
ATOM     54  C   UNL A   1      38.138  32.963  32.999  1.00  0.00     0.074 A 
ATOM     55  C   UNL A   1      42.675  30.842  36.911  1.00  0.00     0.029 A 
ATOM     56  N   UNL A   1      41.245  31.098  35.226  1.00  0.00    -0.354 N 
ATOM     57  N   UNL A   1      39.099  32.458  33.738  1.00  0.00    -0.248 NA
ATOM     58  C   UNL A   1      37.395  34.054  33.644  1.00  0.00     0.031 C 
ATOM     59  C   UNL A   1      41.814  31.902  37.215  1.00  0.00     0.029 A 
ATOM     60  C   UNL A   1      40.934  32.073  36.158  1.00  0.00     0.049 A 
ATOM     61  H   UNL A   1      40.786  30.973  34.364  1.00  0.00     0.167 HD
ATOM     62  C   UNL A   1      39.086  33.182  34.926  1.00  0.00     0.074 A 
ATOM     63  C   UNL A   1      38.031  34.166  34.804  1.00  0.00     0.031 C 
ATOM     64  C   UNL A   1      39.878  33.045  36.018  1.00  0.00     0.037 A 
BRANCH  51  65
ATOM     65  C   UNL A   1      43.949  28.407  35.648  1.00  0.00     0.058 A 
ATOM     66  C   UNL A   1      43.672  27.333  36.508  1.00  0.00     0.135 A 
ATOM     67  C   UNL A   1      45.297  28.713  35.395  1.00  0.00     0.135 A 
ATOM     68  F   UNL A   1      42.401  27.010  36.798  1.00  0.00    -0.206 F 
ATOM     69  C   UNL A   1      44.692  26.604  37.111  1.00  0.00     0.059 A 
ATOM     70  C   UNL A   1      46.332  27.982  35.969  1.00  0.00     0.059 A 
ATOM     71  F   UNL A   1      45.617  29.732  34.582  1.00  0.00    -0.206 F 
ATOM     72  C   UNL A   1      46.020  26.937  36.836  1.00  0.00     0.060 A 
BRANCH  72  73
ATOM     73  S   UNL A   1      47.332  25.980  37.625  1.00  0.00     0.124 S 
ATOM     74  O   UNL A   1      48.074  25.495  36.466  1.00  0.00    -0.237 OA
ATOM     75  O   UNL A   1      48.010  26.987  38.435  1.00  0.00    -0.237 OA
ATOM     76  O   UNL A   1      46.605  24.961  38.376  1.00  0.00    -0.744 OA
ENDBRANCH  72  73
ENDBRANCH  51  65
BRANCH  52  77
ATOM     77  C   UNL A   1      36.578  33.259  30.936  1.00  0.00     0.058 A 
ATOM     78  C   UNL A   1      35.261  33.103  31.387  1.00  0.00     0.135 A 
ATOM     79  C   UNL A   1      36.796  34.098  29.832  1.00  0.00     0.135 A 
ATOM     80  F   UNL A   1      35.000  32.301  32.431  1.00  0.00    -0.206 F 
ATOM     81  C   UNL A   1      34.196  33.748  30.765  1.00  0.00     0.059 A 
ATOM     82  C   UNL A   1      35.753  34.772  29.207  1.00  0.00     0.059 A 
ATOM     83  F   UNL A   1      38.041  34.288  29.365  1.00  0.00    -0.206 F 
ATOM     84  C   UNL A   1      34.453  34.586  29.677  1.00  0.00     0.060 A 
BRANCH  84  85
ATOM     85  S   UNL A   1      33.074  35.465  28.910  1.00  0.00     0.124 S 
ATOM     86  O   UNL A   1      33.768  36.524  28.188  1.00  0.00    -0.237 OA
ATOM     87  O   UNL A   1      32.464  34.423  28.090  1.00  0.00    -0.237 OA
ATOM     88  O   UNL A   1      32.277  35.897  30.054  1.00  0.00    -0.744 OA
ENDBRANCH  84  85
ENDBRANCH  52  77
BRANCH  64  89
ATOM     89  C   UNL A   1      39.651  33.989  37.165  1.00  0.00     0.058 A 
ATOM     90  C   UNL A   1      38.875  33.621  38.275  1.00  0.00     0.135 A 
ATOM     91  C   UNL A   1      40.282  35.244  37.191  1.00  0.00     0.135 A 
ATOM     92  F   UNL A   1      38.244  32.435  38.295  1.00  0.00    -0.206 F 
ATOM     93  C   UNL A   1      38.726  34.467  39.369  1.00  0.00     0.059 A 
ATOM     94  C   UNL A   1      40.166  36.096  38.285  1.00  0.00     0.059 A 
ATOM     95  F   UNL A   1      41.042  35.639  36.158  1.00  0.00    -0.206 F 
ATOM     96  C   UNL A   1      39.382  35.700  39.368  1.00  0.00     0.060 A 
BRANCH  96  97
ATOM     97  S   UNL A   1      39.230  36.761  40.820  1.00  0.00     0.124 S 
ATOM     98  O   UNL A   1      38.684  37.983  40.237  1.00  0.00    -0.237 OA
ATOM     99  O   UNL A   1      38.318  36.001  41.669  1.00  0.00    -0.237 OA
ATOM    100  O   UNL A   1      40.601  36.860  41.314  1.00  0.00    -0.744 OA
ENDBRANCH  96  97
ENDBRANCH  64  89
ENDBRANCH  38  39
ENDBRANCH  31  33
ENDBRANCH  30  31
ENDBRANCH  29  30
ENDBRANCH  28  29
ENDBRANCH   1  28
TORSDOF 20
ENDMDL
MODEL 3
REMARK VINA RESULT:     -10.9      6.394     11.712
REMARK SMILES NC(=O)c1ccccc1NC(=O)[C@@H]1CC=CC[C@@H]1C(=O)OCCOCCOC(=O)c1ccc(-c2c3nc(c(-c4c(F)cc(S(=O)(=O)[O-])cc4F)c4ccc([nH]4)c(-c4c(F)cc(S(=O)(=O)[O-])cc4F)c4nc(c(-c5c(F)cc(S(=O)(=O)[O-])cc5F)c5ccc2[nH]5)C=C4)C=C3)cc1
REMARK SMILES IDX 24 1 23 2 22 3 21 4 19 5 20 6 18 7 13 8 14 9 15 10 17 11
REMARK SMILES IDX 16 12 11 13 10 14 12 16 9 17 4 18 5 19 6 20 8 21 7 22 2 23
REMARK SMILES IDX 1 24 3 27 25 28 26 29 27 30 28 31 29 32 30 33 31 34 95 35
REMARK SMILES IDX 32 36 94 37 33 38 34 39 35 40 88 41 36 42 93 43 87 44 89 45
REMARK SMILES IDX 37 46 92 47 86 48 85 49 38 51 72 52 51 53 71 54 52 55 55 56
REMARK SMILES IDX 70 57 90 58 53 59 54 60 69 62 91 63 56 64 39 65 40 66 49 67
REMARK SMILES IDX 41 68 42 69 48 70 50 71 43 72 44 73 45 74 46 75 47 76 73 77
REMARK SMILES IDX 74 78 83 79 75 80 76 81 82 82 84 83 77 84 78 85 79 86 80 87
REMARK SMILES IDX 81 88 57 89 58 90 67 91 59 92 60 93 66 94 68 95 61 96 62 97
REMARK SMILES IDX 63 98 64 99 65 100
REMARK H PARENT 10 15 1 25 1 26 89 50 55 61
REMARK Flexibility Score: inf
ROOT
ATOM      1  O   UNL A   1      32.440  30.443  27.243  1.00  0.00    -0.374 OA
ENDROOT
BRANCH   1   2
ATOM      2  C   UNL A   1      31.735  29.367  26.635  1.00  0.00     0.202 C 
BRANCH   2   3
ATOM      3  C   UNL A   1      31.899  27.961  27.219  1.00  0.00     0.261 C 
BRANCH   3   4
ATOM      4  O   UNL A   1      32.950  27.207  26.607  1.00  0.00    -0.463 OA
BRANCH   4   5
ATOM      5  C   UNL A   1      32.708  26.841  25.320  1.00  0.00     0.310 C 
ATOM      6  O   UNL A   1      33.511  26.989  24.405  1.00  0.00    -0.252 OA
BRANCH   5   7
ATOM      7  C   UNL A   1      31.319  26.223  25.114  1.00  0.00     0.116 C 
ATOM      8  C   UNL A   1      31.500  24.683  24.969  1.00  0.00     0.097 C 
ATOM      9  C   UNL A   1      32.382  24.456  23.720  1.00  0.00     0.041 C 
ATOM     10  C   UNL A   1      31.854  25.192  22.515  1.00  0.00    -0.030 C 
ATOM     11  C   UNL A   1      30.532  26.775  23.913  1.00  0.00     0.043 C 
ATOM     12  C   UNL A   1      30.985  26.209  22.599  1.00  0.00    -0.030 C 
BRANCH   8  13
ATOM     13  C   UNL A   1      31.953  24.130  26.334  1.00  0.00     0.228 C 
ATOM     14  N   UNL A   1      33.232  23.766  26.608  1.00  0.00    -0.325 N 
ATOM     15  H   UNL A   1      33.486  23.875  27.552  1.00  0.00     0.169 HD
ATOM     16  O   UNL A   1      31.136  24.001  27.256  1.00  0.00    -0.274 OA
BRANCH  14  17
ATOM     17  C   UNL A   1      34.258  23.264  25.793  1.00  0.00     0.053 A 
ATOM     18  C   UNL A   1      34.263  21.909  25.412  1.00  0.00     0.063 A 
ATOM     19  C   UNL A   1      35.395  21.365  24.791  1.00  0.00     0.016 A 
ATOM     20  C   UNL A   1      36.474  22.183  24.459  1.00  0.00     0.001 A 
ATOM     21  C   UNL A   1      35.289  24.093  25.339  1.00  0.00     0.027 A 
ATOM     22  C   UNL A   1      36.403  23.552  24.696  1.00  0.00     0.002 A 
BRANCH  18  23
ATOM     23  C   UNL A   1      33.125  20.989  25.665  1.00  0.00     0.250 C 
ATOM     24  N   UNL A   1      33.275  20.097  26.695  1.00  0.00    -0.366 N 
ATOM     25  H   UNL A   1      32.551  19.465  26.906  1.00  0.00     0.159 HD
ATOM     26  H   UNL A   1      34.106  20.089  27.222  1.00  0.00     0.159 HD
ATOM     27  O   UNL A   1      32.074  21.064  25.044  1.00  0.00    -0.269 OA
ENDBRANCH  18  23
ENDBRANCH  14  17
ENDBRANCH   8  13
ENDBRANCH   5   7
ENDBRANCH   4   5
ENDBRANCH   3   4
ENDBRANCH   2   3
ENDBRANCH   1   2
BRANCH   1  28
ATOM     28  C   UNL A   1      33.807  30.656  26.897  1.00  0.00     0.202 C 
BRANCH  28  29
ATOM     29  C   UNL A   1      34.779  31.126  27.986  1.00  0.00     0.261 C 
BRANCH  29  30
ATOM     30  O   UNL A   1      35.594  30.064  28.515  1.00  0.00    -0.460 OA
BRANCH  30  31
ATOM     31  C   UNL A   1      36.322  30.397  29.606  1.00  0.00     0.338 C 
ATOM     32  O   UNL A   1      35.899  30.656  30.728  1.00  0.00    -0.246 OA
BRANCH  31  33
ATOM     33  C   UNL A   1      37.757  30.253  29.325  1.00  0.00     0.060 A 
ATOM     34  C   UNL A   1      38.146  29.892  28.029  1.00  0.00     0.016 A 
ATOM     35  C   UNL A   1      38.695  30.351  30.353  1.00  0.00     0.016 A 
ATOM     36  C   UNL A   1      39.483  29.603  27.759  1.00  0.00     0.010 A 
ATOM     37  C   UNL A   1      40.032  30.045  30.083  1.00  0.00     0.010 A 
ATOM     38  C   UNL A   1      40.426  29.646  28.793  1.00  0.00    -0.014 A 
BRANCH  38  39
ATOM     39  C   UNL A   1      41.807  29.162  28.562  1.00  0.00     0.031 A 
ATOM     40  C   UNL A   1      42.940  30.149  28.580  1.00  0.00     0.074 A 
ATOM     41  C   UNL A   1      42.040  27.859  28.327  1.00  0.00     0.049 A 
ATOM     42  N   UNL A   1      44.203  29.964  28.298  1.00  0.00    -0.248 NA
ATOM     43  C   UNL A   1      42.604  31.529  28.967  1.00  0.00     0.031 C 
ATOM     44  C   UNL A   1      41.023  26.807  28.334  1.00  0.00     0.029 A 
ATOM     45  N   UNL A   1      43.204  27.202  28.019  1.00  0.00    -0.354 N 
ATOM     46  C   UNL A   1      44.812  31.203  28.463  1.00  0.00     0.074 A 
ATOM     47  C   UNL A   1      43.777  32.136  28.853  1.00  0.00     0.031 C 
ATOM     48  C   UNL A   1      41.605  25.639  28.017  1.00  0.00     0.029 A 
ATOM     49  C   UNL A   1      43.024  25.867  27.748  1.00  0.00     0.049 A 
ATOM     50  H   UNL A   1      44.083  27.644  27.995  1.00  0.00     0.167 HD
ATOM     51  C   UNL A   1      46.117  31.527  28.304  1.00  0.00     0.037 A 
ATOM     52  C   UNL A   1      43.897  24.946  27.296  1.00  0.00     0.037 A 
ATOM     53  C   UNL A   1      47.137  30.590  27.912  1.00  0.00     0.049 A 
ATOM     54  C   UNL A   1      45.326  25.349  27.041  1.00  0.00     0.074 A 
ATOM     55  C   UNL A   1      48.493  30.813  27.746  1.00  0.00     0.029 A 
ATOM     56  N   UNL A   1      46.911  29.254  27.613  1.00  0.00    -0.354 N 
ATOM     57  N   UNL A   1      45.895  26.519  27.217  1.00  0.00    -0.248 NA
ATOM     58  C   UNL A   1      46.229  24.314  26.518  1.00  0.00     0.031 C 
ATOM     59  C   UNL A   1      49.077  29.623  27.299  1.00  0.00     0.029 A 
ATOM     60  C   UNL A   1      48.096  28.647  27.232  1.00  0.00     0.049 A 
ATOM     61  H   UNL A   1      46.037  28.804  27.665  1.00  0.00     0.167 HD
ATOM     62  C   UNL A   1      47.226  26.355  26.844  1.00  0.00     0.074 A 
ATOM     63  C   UNL A   1      47.379  24.972  26.443  1.00  0.00     0.031 C 
ATOM     64  C   UNL A   1      48.229  27.267  26.836  1.00  0.00     0.037 A 
BRANCH  51  65
ATOM     65  C   UNL A   1      46.510  32.961  28.523  1.00  0.00     0.058 A 
ATOM     66  C   UNL A   1      46.936  33.427  29.776  1.00  0.00     0.135 A 
ATOM     67  C   UNL A   1      46.492  33.874  27.456  1.00  0.00     0.135 A 
ATOM     68  F   UNL A   1      46.956  32.600  30.835  1.00  0.00    -0.206 F 
ATOM     69  C   UNL A   1      47.309  34.753  29.970  1.00  0.00     0.059 A 
ATOM     70  C   UNL A   1      46.884  35.199  27.621  1.00  0.00     0.059 A 
ATOM     71  F   UNL A   1      46.090  33.481  26.237  1.00  0.00    -0.206 F 
ATOM     72  C   UNL A   1      47.279  35.633  28.885  1.00  0.00     0.060 A 
BRANCH  72  73
ATOM     73  S   UNL A   1      47.768  37.350  29.151  1.00  0.00     0.124 S 
ATOM     74  O   UNL A   1      47.221  37.606  30.480  1.00  0.00    -0.237 OA
ATOM     75  O   UNL A   1      49.223  37.277  29.069  1.00  0.00    -0.237 OA
ATOM     76  O   UNL A   1      47.117  38.062  28.057  1.00  0.00    -0.744 OA
ENDBRANCH  72  73
ENDBRANCH  51  65
BRANCH  52  77
ATOM     77  C   UNL A   1      43.433  23.561  27.020  1.00  0.00     0.058 A 
ATOM     78  C   UNL A   1      43.231  22.644  28.060  1.00  0.00     0.135 A 
ATOM     79  C   UNL A   1      43.173  23.132  25.709  1.00  0.00     0.135 A 
ATOM     80  F   UNL A   1      43.478  23.002  29.328  1.00  0.00    -0.206 F 
ATOM     81  C   UNL A   1      42.792  21.346  27.811  1.00  0.00     0.059 A 
ATOM     82  C   UNL A   1      42.713  21.848  25.436  1.00  0.00     0.059 A 
ATOM     83  F   UNL A   1      43.344  23.975  24.678  1.00  0.00    -0.206 F 
ATOM     84  C   UNL A   1      42.532  20.959  26.494  1.00  0.00     0.060 A 
BRANCH  84  85
ATOM     85  S   UNL A   1      41.909  19.292  26.185  1.00  0.00     0.124 S 
ATOM     86  O   UNL A   1      42.664  18.914  24.996  1.00  0.00    -0.237 OA
ATOM     87  O   UNL A   1      42.264  18.597  27.418  1.00  0.00    -0.237 OA
ATOM     88  O   UNL A   1      40.478  19.503  25.984  1.00  0.00    -0.744 OA
ENDBRANCH  84  85
ENDBRANCH  52  77
BRANCH  64  89
ATOM     89  C   UNL A   1      49.589  26.801  26.397  1.00  0.00     0.058 A 
ATOM     90  C   UNL A   1      50.412  26.044  27.243  1.00  0.00     0.135 A 
ATOM     91  C   UNL A   1      50.038  27.047  25.089  1.00  0.00     0.135 A 
ATOM     92  F   UNL A   1      50.032  25.789  28.506  1.00  0.00    -0.206 F 
ATOM     93  C   UNL A   1      51.639  25.550  26.810  1.00  0.00     0.059 A 
ATOM     94  C   UNL A   1      51.250  26.544  24.628  1.00  0.00     0.059 A 
ATOM     95  F   UNL A   1      49.283  27.759  24.239  1.00  0.00    -0.206 F 
ATOM     96  C   UNL A   1      52.046  25.800  25.498  1.00  0.00     0.060 A 
BRANCH  96  97
ATOM     97  S   UNL A   1      53.612  25.103  24.931  1.00  0.00     0.124 S 
ATOM     98  O   UNL A   1      53.529  25.323  23.491  1.00  0.00    -0.237 OA
ATOM     99  O   UNL A   1      54.593  25.918  25.641  1.00  0.00    -0.237 OA
ATOM    100  O   UNL A   1      53.538  23.708  25.359  1.00  0.00    -0.744 OA
ENDBRANCH  96  97
ENDBRANCH  64  89
ENDBRANCH  38  39
ENDBRANCH  31  33
ENDBRANCH  30  31
ENDBRANCH  29  30
ENDBRANCH  28  29
ENDBRANCH   1  28
TORSDOF 20
ENDMDL
