MODEL 1
REMARK VINA RESULT:     -10.8      0.000      0.000
REMARK SMILES N#C[C@@H](c1ccccc1)[C@H](CC(=O)OCCOCCOC(=O)c1ccc(-c2c3nc(c(-c4c(F)cc(S(=O)(=O)[O-])cc4F)c4ccc([nH]4)c(-c4c(F)cc(S(=O)(=O)[O-])cc4F)c4nc(c(-c5c(F)cc(S(=O)(=O)[O-])cc5F)c5ccc2[nH]5)C=C4)C=C3)cc1)c1ccccc1
REMARK SMILES IDX 17 1 16 2 15 3 14 4 12 5 13 6 11 7 10 8 3 9 2 10 1 11 4 12
REMARK SMILES IDX 5 13 9 14 6 15 8 16 7 17 89 18 90 19 94 20 91 21 93 22 92 23
REMARK SMILES IDX 18 24 19 25 20 26 21 27 22 28 23 29 24 30 88 31 25 32 87 33
REMARK SMILES IDX 26 34 27 35 28 36 81 37 29 38 86 39 80 40 82 41 30 42 85 43
REMARK SMILES IDX 79 44 78 45 31 47 65 48 44 49 64 50 45 51 48 52 63 53 83 54
REMARK SMILES IDX 46 55 47 56 62 58 84 59 49 60 32 61 33 62 42 63 34 64 35 65
REMARK SMILES IDX 41 66 43 67 36 68 37 69 38 70 39 71 40 72 66 73 67 74 76 75
REMARK SMILES IDX 68 76 69 77 75 78 77 79 70 80 71 81 72 82 73 83 74 84 50 85
REMARK SMILES IDX 51 86 60 87 52 88 53 89 59 90 61 91 54 92 55 93 56 94 57 95
REMARK SMILES IDX 58 96
REMARK H PARENT 82 46 48 57
REMARK Flexibility Score: inf
ROOT
ATOM      1  O   UNL A   1      35.377  23.541  26.118  1.00  0.00    -0.374 OA
ENDROOT
BRANCH   1   2
ATOM      2  C   UNL A   1      34.392  24.370  25.507  1.00  0.00     0.202 C 
BRANCH   2   3
ATOM      3  C   UNL A   1      34.293  24.237  23.994  1.00  0.00     0.261 C 
BRANCH   3   4
ATOM      4  O   UNL A   1      33.072  24.803  23.475  1.00  0.00    -0.463 OA
BRANCH   4   5
ATOM      5  C   UNL A   1      33.211  25.904  22.709  1.00  0.00     0.306 C 
ATOM      6  O   UNL A   1      33.830  25.944  21.649  1.00  0.00    -0.252 OA
BRANCH   5   7
ATOM      7  C   UNL A   1      32.658  27.175  23.314  1.00  0.00     0.132 C 
BRANCH   7   8
ATOM      8  C   UNL A   1      31.248  27.289  23.966  1.00  0.00     0.052 C 
BRANCH   8   9
ATOM      9  C   UNL A   1      31.326  27.237  25.525  1.00  0.00     0.130 C 
BRANCH   9  10
ATOM     10  C   UNL A   1      31.176  25.910  26.250  1.00  0.00     0.071 C 
ATOM     11  N   UNL A   1      31.053  24.809  26.852  1.00  0.00    -0.198 NA
ENDBRANCH   9  10
BRANCH   9  12
ATOM     12  C   UNL A   1      32.249  28.209  26.273  1.00  0.00    -0.030 A 
ATOM     13  C   UNL A   1      31.811  29.477  26.699  1.00  0.00     0.005 A 
ATOM     14  C   UNL A   1      33.615  27.902  26.411  1.00  0.00     0.005 A 
ATOM     15  C   UNL A   1      32.714  30.413  27.211  1.00  0.00     0.000 A 
ATOM     16  C   UNL A   1      34.515  28.840  26.925  1.00  0.00     0.000 A 
ATOM     17  C   UNL A   1      34.065  30.098  27.316  1.00  0.00     0.000 A 
ENDBRANCH   9  12
ENDBRANCH   8   9
BRANCH   8  18
ATOM     18  C   UNL A   1      30.238  28.166  23.241  1.00  0.00    -0.043 A 
ATOM     19  C   UNL A   1      28.857  27.943  23.435  1.00  0.00     0.004 A 
ATOM     20  C   UNL A   1      30.607  29.266  22.464  1.00  0.00     0.004 A 
ATOM     21  C   UNL A   1      27.890  28.726  22.801  1.00  0.00     0.000 A 
ATOM     22  C   UNL A   1      29.636  30.085  21.878  1.00  0.00     0.000 A 
ATOM     23  C   UNL A   1      28.282  29.797  22.014  1.00  0.00     0.000 A 
ENDBRANCH   8  18
ENDBRANCH   7   8
ENDBRANCH   5   7
ENDBRANCH   4   5
ENDBRANCH   3   4
ENDBRANCH   2   3
ENDBRANCH   1   2
BRANCH   1  24
ATOM     24  C   UNL A   1      35.802  22.372  25.417  1.00  0.00     0.202 C 
BRANCH  24  25
ATOM     25  C   UNL A   1      37.296  22.080  25.419  1.00  0.00     0.261 C 
BRANCH  25  26
ATOM     26  O   UNL A   1      38.035  23.269  25.637  1.00  0.00    -0.460 OA
BRANCH  26  27
ATOM     27  C   UNL A   1      39.276  23.062  26.114  1.00  0.00     0.338 C 
ATOM     28  O   UNL A   1      39.881  22.024  26.251  1.00  0.00    -0.246 OA
BRANCH  27  29
ATOM     29  C   UNL A   1      39.567  24.323  26.789  1.00  0.00     0.060 A 
ATOM     30  C   UNL A   1      40.348  25.296  26.166  1.00  0.00     0.016 A 
ATOM     31  C   UNL A   1      38.917  24.555  28.002  1.00  0.00     0.016 A 
ATOM     32  C   UNL A   1      40.572  26.486  26.832  1.00  0.00     0.010 A 
ATOM     33  C   UNL A   1      39.079  25.779  28.628  1.00  0.00     0.010 A 
ATOM     34  C   UNL A   1      39.977  26.705  28.084  1.00  0.00    -0.014 A 
BRANCH  34  35
ATOM     35  C   UNL A   1      40.519  27.789  28.922  1.00  0.00     0.031 A 
ATOM     36  C   UNL A   1      39.635  28.979  29.172  1.00  0.00     0.074 A 
ATOM     37  C   UNL A   1      41.695  27.613  29.547  1.00  0.00     0.049 A 
ATOM     38  N   UNL A   1      39.786  29.953  30.025  1.00  0.00    -0.248 NA
ATOM     39  C   UNL A   1      38.415  29.096  28.348  1.00  0.00     0.031 C 
ATOM     40  C   UNL A   1      42.607  26.485  29.333  1.00  0.00     0.029 A 
ATOM     41  N   UNL A   1      42.296  28.350  30.528  1.00  0.00    -0.354 N 
ATOM     42  C   UNL A   1      38.688  30.786  29.837  1.00  0.00     0.074 A 
ATOM     43  C   UNL A   1      37.921  30.256  28.740  1.00  0.00     0.031 C 
ATOM     44  C   UNL A   1      43.622  26.573  30.208  1.00  0.00     0.029 A 
ATOM     45  C   UNL A   1      43.436  27.767  31.027  1.00  0.00     0.049 A 
ATOM     46  H   UNL A   1      41.947  29.214  30.846  1.00  0.00     0.167 HD
ATOM     47  C   UNL A   1      38.327  31.873  30.554  1.00  0.00     0.037 A 
ATOM     48  C   UNL A   1      44.213  28.149  32.057  1.00  0.00     0.037 A 
ATOM     49  C   UNL A   1      39.091  32.351  31.669  1.00  0.00     0.049 A 
ATOM     50  C   UNL A   1      43.784  29.356  32.849  1.00  0.00     0.074 A 
ATOM     51  C   UNL A   1      38.843  33.434  32.487  1.00  0.00     0.029 A 
ATOM     52  N   UNL A   1      40.260  31.755  32.124  1.00  0.00    -0.354 N 
ATOM     53  N   UNL A   1      42.727  30.120  32.681  1.00  0.00    -0.248 NA
ATOM     54  C   UNL A   1      44.637  29.745  33.978  1.00  0.00     0.031 C 
ATOM     55  C   UNL A   1      39.887  33.518  33.414  1.00  0.00     0.029 A 
ATOM     56  C   UNL A   1      40.756  32.455  33.207  1.00  0.00     0.049 A 
ATOM     57  H   UNL A   1      40.675  30.951  31.733  1.00  0.00     0.167 HD
ATOM     58  C   UNL A   1      42.778  31.070  33.694  1.00  0.00     0.074 A 
ATOM     59  C   UNL A   1      43.957  30.765  34.483  1.00  0.00     0.031 C 
ATOM     60  C   UNL A   1      41.939  32.106  33.953  1.00  0.00     0.037 A 
BRANCH  47  61
ATOM     61  C   UNL A   1      37.077  32.594  30.134  1.00  0.00     0.058 A 
ATOM     62  C   UNL A   1      37.101  33.652  29.210  1.00  0.00     0.135 A 
ATOM     63  C   UNL A   1      35.836  32.243  30.690  1.00  0.00     0.135 A 
ATOM     64  F   UNL A   1      38.264  34.056  28.674  1.00  0.00    -0.206 F 
ATOM     65  C   UNL A   1      35.948  34.356  28.875  1.00  0.00     0.059 A 
ATOM     66  C   UNL A   1      34.666  32.913  30.346  1.00  0.00     0.059 A 
ATOM     67  F   UNL A   1      35.756  31.252  31.591  1.00  0.00    -0.206 F 
ATOM     68  C   UNL A   1      34.734  33.978  29.451  1.00  0.00     0.060 A 
BRANCH  68  69
ATOM     69  S   UNL A   1      33.244  34.895  29.004  1.00  0.00     0.124 S 
ATOM     70  O   UNL A   1      32.551  34.968  30.287  1.00  0.00    -0.237 OA
ATOM     71  O   UNL A   1      33.790  36.154  28.508  1.00  0.00    -0.237 OA
ATOM     72  O   UNL A   1      32.613  34.048  27.998  1.00  0.00    -0.744 OA
ENDBRANCH  68  69
ENDBRANCH  47  61
BRANCH  48  73
ATOM     73  C   UNL A   1      45.432  27.370  32.407  1.00  0.00     0.058 A 
ATOM     74  C   UNL A   1      45.389  26.300  33.312  1.00  0.00     0.135 A 
ATOM     75  C   UNL A   1      46.670  27.673  31.818  1.00  0.00     0.135 A 
ATOM     76  F   UNL A   1      44.231  25.964  33.902  1.00  0.00    -0.206 F 
ATOM     77  C   UNL A   1      46.531  25.573  33.641  1.00  0.00     0.059 A 
ATOM     78  C   UNL A   1      47.820  26.946  32.109  1.00  0.00     0.059 A 
ATOM     79  F   UNL A   1      46.765  28.673  30.928  1.00  0.00    -0.206 F 
ATOM     80  C   UNL A   1      47.743  25.905  33.032  1.00  0.00     0.060 A 
BRANCH  80  81
ATOM     81  S   UNL A   1      49.213  24.933  33.431  1.00  0.00     0.124 S 
ATOM     82  O   UNL A   1      49.895  25.807  34.377  1.00  0.00    -0.237 OA
ATOM     83  O   UNL A   1      48.634  23.715  33.988  1.00  0.00    -0.237 OA
ATOM     84  O   UNL A   1      49.868  24.771  32.136  1.00  0.00    -0.744 OA
ENDBRANCH  80  81
ENDBRANCH  48  73
BRANCH  60  85
ATOM     85  C   UNL A   1      42.267  32.959  35.144  1.00  0.00     0.058 A 
ATOM     86  C   UNL A   1      41.758  32.665  36.417  1.00  0.00     0.135 A 
ATOM     87  C   UNL A   1      43.133  34.055  35.012  1.00  0.00     0.135 A 
ATOM     88  F   UNL A   1      40.927  31.625  36.591  1.00  0.00    -0.206 F 
ATOM     89  C   UNL A   1      42.063  33.458  37.516  1.00  0.00     0.059 A 
ATOM     90  C   UNL A   1      43.478  34.841  36.103  1.00  0.00     0.059 A 
ATOM     91  F   UNL A   1      43.661  34.363  33.817  1.00  0.00    -0.206 F 
ATOM     92  C   UNL A   1      42.921  34.547  37.348  1.00  0.00     0.060 A 
BRANCH  92  93
ATOM     93  S   UNL A   1      43.310  35.569  38.781  1.00  0.00     0.124 S 
ATOM     94  O   UNL A   1      42.238  35.202  39.700  1.00  0.00    -0.237 OA
ATOM     95  O   UNL A   1      44.645  35.102  39.145  1.00  0.00    -0.237 OA
ATOM     96  O   UNL A   1      43.251  36.929  38.255  1.00  0.00    -0.744 OA
ENDBRANCH  92  93
ENDBRANCH  60  85
ENDBRANCH  34  35
ENDBRANCH  27  29
ENDBRANCH  26  27
ENDBRANCH  25  26
ENDBRANCH  24  25
ENDBRANCH   1  24
TORSDOF 22
ENDMDL
MODEL 2
REMARK VINA RESULT:     -10.6      3.779      9.736
REMARK SMILES N#C[C@@H](c1ccccc1)[C@H](CC(=O)OCCOCCOC(=O)c1ccc(-c2c3nc(c(-c4c(F)cc(S(=O)(=O)[O-])cc4F)c4ccc([nH]4)c(-c4c(F)cc(S(=O)(=O)[O-])cc4F)c4nc(c(-c5c(F)cc(S(=O)(=O)[O-])cc5F)c5ccc2[nH]5)C=C4)C=C3)cc1)c1ccccc1
REMARK SMILES IDX 17 1 16 2 15 3 14 4 12 5 13 6 11 7 10 8 3 9 2 10 1 11 4 12
REMARK SMILES IDX 5 13 9 14 6 15 8 16 7 17 89 18 90 19 94 20 91 21 93 22 92 23
REMARK SMILES IDX 18 24 19 25 20 26 21 27 22 28 23 29 24 30 88 31 25 32 87 33
REMARK SMILES IDX 26 34 27 35 28 36 81 37 29 38 86 39 80 40 82 41 30 42 85 43
REMARK SMILES IDX 79 44 78 45 31 47 65 48 44 49 64 50 45 51 48 52 63 53 83 54
REMARK SMILES IDX 46 55 47 56 62 58 84 59 49 60 32 61 33 62 42 63 34 64 35 65
REMARK SMILES IDX 41 66 43 67 36 68 37 69 38 70 39 71 40 72 66 73 67 74 76 75
REMARK SMILES IDX 68 76 69 77 75 78 77 79 70 80 71 81 72 82 73 83 74 84 50 85
REMARK SMILES IDX 51 86 60 87 52 88 53 89 59 90 61 91 54 92 55 93 56 94 57 95
REMARK SMILES IDX 58 96
REMARK H PARENT 82 46 48 57
REMARK Flexibility Score: inf
ROOT
ATOM      1  O   UNL A   1      31.676  28.134  26.183  1.00  0.00    -0.374 OA
ENDROOT
BRANCH   1   2
ATOM      2  C   UNL A   1      31.106  28.198  24.877  1.00  0.00     0.202 C 
BRANCH   2   3
ATOM      3  C   UNL A   1      32.076  27.903  23.742  1.00  0.00     0.261 C 
BRANCH   3   4
ATOM      4  O   UNL A   1      32.122  26.500  23.414  1.00  0.00    -0.463 OA
BRANCH   4   5
ATOM      5  C   UNL A   1      33.339  25.921  23.468  1.00  0.00     0.306 C 
ATOM      6  O   UNL A   1      33.934  25.455  22.501  1.00  0.00    -0.252 OA
BRANCH   5   7
ATOM      7  C   UNL A   1      33.898  25.742  24.862  1.00  0.00     0.132 C 
BRANCH   7   8
ATOM      8  C   UNL A   1      34.113  24.358  25.545  1.00  0.00     0.052 C 
BRANCH   8   9
ATOM      9  C   UNL A   1      32.768  23.584  25.716  1.00  0.00     0.130 C 
BRANCH   9  10
ATOM     10  C   UNL A   1      31.503  24.331  26.107  1.00  0.00     0.071 C 
ATOM     11  N   UNL A   1      30.455  24.951  26.432  1.00  0.00    -0.198 NA
ENDBRANCH   9  10
BRANCH   9  12
ATOM     12  C   UNL A   1      32.474  22.366  24.829  1.00  0.00    -0.030 A 
ATOM     13  C   UNL A   1      32.666  21.047  25.281  1.00  0.00     0.005 A 
ATOM     14  C   UNL A   1      32.148  22.557  23.473  1.00  0.00     0.005 A 
ATOM     15  C   UNL A   1      32.569  19.966  24.402  1.00  0.00     0.000 A 
ATOM     16  C   UNL A   1      32.051  21.472  22.597  1.00  0.00     0.000 A 
ATOM     17  C   UNL A   1      32.271  20.179  23.060  1.00  0.00     0.000 A 
ENDBRANCH   9  12
ENDBRANCH   8   9
BRANCH   8  18
ATOM     18  C   UNL A   1      35.417  23.643  25.227  1.00  0.00    -0.043 A 
ATOM     19  C   UNL A   1      36.458  23.636  26.181  1.00  0.00     0.004 A 
ATOM     20  C   UNL A   1      35.607  22.890  24.066  1.00  0.00     0.004 A 
ATOM     21  C   UNL A   1      37.670  22.985  25.942  1.00  0.00     0.000 A 
ATOM     22  C   UNL A   1      36.799  22.190  23.855  1.00  0.00     0.000 A 
ATOM     23  C   UNL A   1      37.844  22.265  24.771  1.00  0.00     0.000 A 
ENDBRANCH   8  18
ENDBRANCH   7   8
ENDBRANCH   5   7
ENDBRANCH   4   5
ENDBRANCH   3   4
ENDBRANCH   2   3
ENDBRANCH   1   2
BRANCH   1  24
ATOM     24  C   UNL A   1      31.864  29.356  26.897  1.00  0.00     0.202 C 
BRANCH  24  25
ATOM     25  C   UNL A   1      33.169  30.099  26.648  1.00  0.00     0.261 C 
BRANCH  25  26
ATOM     26  O   UNL A   1      34.182  29.627  27.517  1.00  0.00    -0.460 OA
BRANCH  26  27
ATOM     27  C   UNL A   1      34.709  30.577  28.311  1.00  0.00     0.338 C 
ATOM     28  O   UNL A   1      34.317  31.700  28.525  1.00  0.00    -0.246 OA
BRANCH  27  29
ATOM     29  C   UNL A   1      36.064  30.081  28.538  1.00  0.00     0.060 A 
ATOM     30  C   UNL A   1      36.409  29.503  29.759  1.00  0.00     0.016 A 
ATOM     31  C   UNL A   1      36.929  30.085  27.444  1.00  0.00     0.016 A 
ATOM     32  C   UNL A   1      37.695  29.020  29.918  1.00  0.00     0.010 A 
ATOM     33  C   UNL A   1      38.190  29.527  27.583  1.00  0.00     0.010 A 
ATOM     34  C   UNL A   1      38.597  29.079  28.844  1.00  0.00    -0.014 A 
BRANCH  34  35
ATOM     35  C   UNL A   1      40.031  28.914  29.142  1.00  0.00     0.031 A 
ATOM     36  C   UNL A   1      40.677  27.618  28.737  1.00  0.00     0.074 A 
ATOM     37  C   UNL A   1      40.730  29.960  29.612  1.00  0.00     0.049 A 
ATOM     38  N   UNL A   1      41.942  27.306  28.696  1.00  0.00    -0.248 NA
ATOM     39  C   UNL A   1      39.781  26.518  28.328  1.00  0.00     0.031 C 
ATOM     40  C   UNL A   1      40.156  31.240  30.037  1.00  0.00     0.029 A 
ATOM     41  N   UNL A   1      42.079  30.130  29.756  1.00  0.00    -0.354 N 
ATOM     42  C   UNL A   1      41.985  25.986  28.258  1.00  0.00     0.074 A 
ATOM     43  C   UNL A   1      40.628  25.525  28.125  1.00  0.00     0.031 C 
ATOM     44  C   UNL A   1      41.155  32.088  30.334  1.00  0.00     0.029 A 
ATOM     45  C   UNL A   1      42.429  31.405  30.132  1.00  0.00     0.049 A 
ATOM     46  H   UNL A   1      42.734  29.412  29.604  1.00  0.00     0.167 HD
ATOM     47  C   UNL A   1      43.068  25.240  27.947  1.00  0.00     0.037 A 
ATOM     48  C   UNL A   1      43.651  31.955  30.261  1.00  0.00     0.037 A 
ATOM     49  C   UNL A   1      44.407  25.743  28.051  1.00  0.00     0.049 A 
ATOM     50  C   UNL A   1      44.843  31.109  29.897  1.00  0.00     0.074 A 
ATOM     51  C   UNL A   1      45.597  25.103  27.765  1.00  0.00     0.029 A 
ATOM     52  N   UNL A   1      44.726  27.028  28.470  1.00  0.00    -0.354 N 
ATOM     53  N   UNL A   1      44.871  29.870  29.455  1.00  0.00    -0.248 NA
ATOM     54  C   UNL A   1      46.163  31.733  30.029  1.00  0.00     0.031 C 
ATOM     55  C   UNL A   1      46.639  25.990  28.052  1.00  0.00     0.029 A 
ATOM     56  C   UNL A   1      46.097  27.200  28.465  1.00  0.00     0.049 A 
ATOM     57  H   UNL A   1      44.071  27.717  28.731  1.00  0.00     0.167 HD
ATOM     58  C   UNL A   1      46.211  29.572  29.240  1.00  0.00     0.074 A 
ATOM     59  C   UNL A   1      46.956  30.772  29.575  1.00  0.00     0.031 C 
ATOM     60  C   UNL A   1      46.785  28.418  28.812  1.00  0.00     0.037 A 
BRANCH  47  61
ATOM     61  C   UNL A   1      42.828  23.829  27.489  1.00  0.00     0.058 A 
ATOM     62  C   UNL A   1      42.695  23.499  26.129  1.00  0.00     0.135 A 
ATOM     63  C   UNL A   1      42.696  22.793  28.427  1.00  0.00     0.135 A 
ATOM     64  F   UNL A   1      42.775  24.455  25.189  1.00  0.00    -0.206 F 
ATOM     65  C   UNL A   1      42.409  22.200  25.718  1.00  0.00     0.059 A 
ATOM     66  C   UNL A   1      42.441  21.482  28.036  1.00  0.00     0.059 A 
ATOM     67  F   UNL A   1      42.797  23.054  29.739  1.00  0.00    -0.206 F 
ATOM     68  C   UNL A   1      42.283  21.198  26.681  1.00  0.00     0.060 A 
BRANCH  68  69
ATOM     69  S   UNL A   1      41.918  19.516  26.135  1.00  0.00     0.124 S 
ATOM     70  O   UNL A   1      42.764  19.404  24.951  1.00  0.00    -0.237 OA
ATOM     71  O   UNL A   1      42.330  18.719  27.285  1.00  0.00    -0.237 OA
ATOM     72  O   UNL A   1      40.482  19.547  25.878  1.00  0.00    -0.744 OA
ENDBRANCH  68  69
ENDBRANCH  47  61
BRANCH  48  73
ATOM     73  C   UNL A   1      43.795  33.365  30.715  1.00  0.00     0.058 A 
ATOM     74  C   UNL A   1      44.040  33.685  32.058  1.00  0.00     0.135 A 
ATOM     75  C   UNL A   1      43.709  34.425  29.799  1.00  0.00     0.135 A 
ATOM     76  F   UNL A   1      44.135  32.711  32.976  1.00  0.00    -0.206 F 
ATOM     77  C   UNL A   1      44.172  35.006  32.483  1.00  0.00     0.059 A 
ATOM     78  C   UNL A   1      43.864  35.750  30.193  1.00  0.00     0.059 A 
ATOM     79  F   UNL A   1      43.497  34.175  28.498  1.00  0.00    -0.206 F 
ATOM     80  C   UNL A   1      44.083  36.032  31.540  1.00  0.00     0.060 A 
BRANCH  80  81
ATOM     81  S   UNL A   1      44.294  37.740  32.089  1.00  0.00     0.124 S 
ATOM     82  O   UNL A   1      45.699  37.752  32.476  1.00  0.00    -0.237 OA
ATOM     83  O   UNL A   1      43.955  38.494  30.886  1.00  0.00    -0.237 OA
ATOM     84  O   UNL A   1      43.337  37.861  33.185  1.00  0.00    -0.744 OA
ENDBRANCH  80  81
ENDBRANCH  48  73
BRANCH  60  85
ATOM     85  C   UNL A   1      48.279  28.419  28.671  1.00  0.00     0.058 A 
ATOM     86  C   UNL A   1      48.899  28.755  27.459  1.00  0.00     0.135 A 
ATOM     87  C   UNL A   1      49.093  28.118  29.774  1.00  0.00     0.135 A 
ATOM     88  F   UNL A   1      48.160  29.050  26.378  1.00  0.00    -0.206 F 
ATOM     89  C   UNL A   1      50.283  28.752  27.333  1.00  0.00     0.059 A 
ATOM     90  C   UNL A   1      50.479  28.143  29.678  1.00  0.00     0.059 A 
ATOM     91  F   UNL A   1      48.544  27.811  30.959  1.00  0.00    -0.206 F 
ATOM     92  C   UNL A   1      51.063  28.440  28.448  1.00  0.00     0.060 A 
BRANCH  92  93
ATOM     93  S   UNL A   1      52.858  28.440  28.272  1.00  0.00     0.124 S 
ATOM     94  O   UNL A   1      53.095  27.114  27.713  1.00  0.00    -0.237 OA
ATOM     95  O   UNL A   1      53.083  29.561  27.363  1.00  0.00    -0.237 OA
ATOM     96  O   UNL A   1      53.333  28.644  29.637  1.00  0.00    -0.744 OA
ENDBRANCH  92  93
ENDBRANCH  60  85
ENDBRANCH  34  35
ENDBRANCH  27  29
ENDBRANCH  26  27
ENDBRANCH  25  26
ENDBRANCH  24  25
ENDBRANCH   1  24
TORSDOF 22
ENDMDL
MODEL 3
REMARK VINA RESULT:     -10.1      3.933      8.799
REMARK SMILES N#C[C@@H](c1ccccc1)[C@H](CC(=O)OCCOCCOC(=O)c1ccc(-c2c3nc(c(-c4c(F)cc(S(=O)(=O)[O-])cc4F)c4ccc([nH]4)c(-c4c(F)cc(S(=O)(=O)[O-])cc4F)c4nc(c(-c5c(F)cc(S(=O)(=O)[O-])cc5F)c5ccc2[nH]5)C=C4)C=C3)cc1)c1ccccc1
REMARK SMILES IDX 17 1 16 2 15 3 14 4 12 5 13 6 11 7 10 8 3 9 2 10 1 11 4 12
REMARK SMILES IDX 5 13 9 14 6 15 8 16 7 17 89 18 90 19 94 20 91 21 93 22 92 23
REMARK SMILES IDX 18 24 19 25 20 26 21 27 22 28 23 29 24 30 88 31 25 32 87 33
REMARK SMILES IDX 26 34 27 35 28 36 81 37 29 38 86 39 80 40 82 41 30 42 85 43
REMARK SMILES IDX 79 44 78 45 31 47 65 48 44 49 64 50 45 51 48 52 63 53 83 54
REMARK SMILES IDX 46 55 47 56 62 58 84 59 49 60 32 61 33 62 42 63 34 64 35 65
REMARK SMILES IDX 41 66 43 67 36 68 37 69 38 70 39 71 40 72 66 73 67 74 76 75
REMARK SMILES IDX 68 76 69 77 75 78 77 79 70 80 71 81 72 82 73 83 74 84 50 85
REMARK SMILES IDX 51 86 60 87 52 88 53 89 59 90 61 91 54 92 55 93 56 94 57 95
REMARK SMILES IDX 58 96
REMARK H PARENT 82 46 48 57
REMARK Flexibility Score: inf
ROOT
ATOM      1  O   UNL A   1      35.590  23.189  24.920  1.00  0.00    -0.374 OA
ENDROOT
BRANCH   1   2
ATOM      2  C   UNL A   1      34.945  23.327  23.656  1.00  0.00     0.202 C 
BRANCH   2   3
ATOM      3  C   UNL A   1      33.833  24.365  23.617  1.00  0.00     0.261 C 
BRANCH   3   4
ATOM      4  O   UNL A   1      33.858  25.145  22.404  1.00  0.00    -0.463 OA
BRANCH   4   5
ATOM      5  C   UNL A   1      32.797  25.950  22.198  1.00  0.00     0.306 C 
ATOM      6  O   UNL A   1      32.110  25.953  21.180  1.00  0.00    -0.252 OA
BRANCH   5   7
ATOM      7  C   UNL A   1      32.567  26.990  23.272  1.00  0.00     0.132 C 
BRANCH   7   8
ATOM      8  C   UNL A   1      31.219  27.178  24.029  1.00  0.00     0.052 C 
BRANCH   8   9
ATOM      9  C   UNL A   1      31.413  27.126  25.578  1.00  0.00     0.130 C 
BRANCH   9  10
ATOM     10  C   UNL A   1      31.517  25.785  26.287  1.00  0.00     0.071 C 
ATOM     11  N   UNL A   1      31.603  24.674  26.876  1.00  0.00    -0.198 NA
ENDBRANCH   9  10
BRANCH   9  12
ATOM     12  C   UNL A   1      32.229  28.221  26.279  1.00  0.00    -0.030 A 
ATOM     13  C   UNL A   1      31.777  29.551  26.365  1.00  0.00     0.005 A 
ATOM     14  C   UNL A   1      33.534  27.938  26.721  1.00  0.00     0.005 A 
ATOM     15  C   UNL A   1      32.613  30.563  26.842  1.00  0.00     0.000 A 
ATOM     16  C   UNL A   1      34.368  28.953  27.199  1.00  0.00     0.000 A 
ATOM     17  C   UNL A   1      33.910  30.266  27.250  1.00  0.00     0.000 A 
ENDBRANCH   9  12
ENDBRANCH   8   9
BRANCH   8  18
ATOM     18  C   UNL A   1      30.202  28.104  23.378  1.00  0.00    -0.043 A 
ATOM     19  C   UNL A   1      30.651  29.190  22.594  1.00  0.00     0.004 A 
ATOM     20  C   UNL A   1      28.826  27.875  23.427  1.00  0.00     0.004 A 
ATOM     21  C   UNL A   1      29.759  30.062  21.966  1.00  0.00     0.000 A 
ATOM     22  C   UNL A   1      27.937  28.715  22.749  1.00  0.00     0.000 A 
ATOM     23  C   UNL A   1      28.396  29.827  22.050  1.00  0.00     0.000 A 
ENDBRANCH   8  18
ENDBRANCH   7   8
ENDBRANCH   5   7
ENDBRANCH   4   5
ENDBRANCH   3   4
ENDBRANCH   2   3
ENDBRANCH   1   2
BRANCH   1  24
ATOM     24  C   UNL A   1      36.120  21.910  25.270  1.00  0.00     0.202 C 
BRANCH  24  25
ATOM     25  C   UNL A   1      37.636  21.775  25.270  1.00  0.00     0.261 C 
BRANCH  25  26
ATOM     26  O   UNL A   1      38.221  22.737  26.128  1.00  0.00    -0.460 OA
BRANCH  26  27
ATOM     27  C   UNL A   1      39.548  22.588  26.294  1.00  0.00     0.338 C 
ATOM     28  O   UNL A   1      40.221  21.586  26.222  1.00  0.00    -0.246 OA
BRANCH  27  29
ATOM     29  C   UNL A   1      39.923  23.829  26.965  1.00  0.00     0.060 A 
ATOM     30  C   UNL A   1      39.282  25.026  26.648  1.00  0.00     0.016 A 
ATOM     31  C   UNL A   1      40.832  23.727  28.019  1.00  0.00     0.016 A 
ATOM     32  C   UNL A   1      39.649  26.170  27.332  1.00  0.00     0.010 A 
ATOM     33  C   UNL A   1      41.138  24.860  28.754  1.00  0.00     0.010 A 
ATOM     34  C   UNL A   1      40.612  26.093  28.350  1.00  0.00    -0.014 A 
BRANCH  34  35
ATOM     35  C   UNL A   1      41.247  27.347  28.792  1.00  0.00     0.031 A 
ATOM     36  C   UNL A   1      42.703  27.537  28.467  1.00  0.00     0.074 A 
ATOM     37  C   UNL A   1      40.487  28.320  29.319  1.00  0.00     0.049 A 
ATOM     38  N   UNL A   1      43.433  28.613  28.556  1.00  0.00    -0.248 NA
ATOM     39  C   UNL A   1      43.444  26.356  27.981  1.00  0.00     0.031 C 
ATOM     40  C   UNL A   1      39.070  28.191  29.671  1.00  0.00     0.029 A 
ATOM     41  N   UNL A   1      40.785  29.625  29.595  1.00  0.00    -0.354 N 
ATOM     42  C   UNL A   1      44.705  28.235  28.138  1.00  0.00     0.074 A 
ATOM     43  C   UNL A   1      44.676  26.820  27.875  1.00  0.00     0.031 C 
ATOM     44  C   UNL A   1      38.606  29.390  30.058  1.00  0.00     0.029 A 
ATOM     45  C   UNL A   1      39.693  30.361  29.992  1.00  0.00     0.049 A 
ATOM     46  H   UNL A   1      41.691  30.001  29.518  1.00  0.00     0.167 HD
ATOM     47  C   UNL A   1      45.792  29.015  27.945  1.00  0.00     0.037 A 
ATOM     48  C   UNL A   1      39.593  31.680  30.237  1.00  0.00     0.037 A 
ATOM     49  C   UNL A   1      45.777  30.430  28.177  1.00  0.00     0.049 A 
ATOM     50  C   UNL A   1      40.813  32.532  30.003  1.00  0.00     0.074 A 
ATOM     51  C   UNL A   1      46.799  31.344  28.020  1.00  0.00     0.029 A 
ATOM     52  N   UNL A   1      44.663  31.136  28.613  1.00  0.00    -0.354 N 
ATOM     53  N   UNL A   1      42.004  32.168  29.579  1.00  0.00    -0.248 NA
ATOM     54  C   UNL A   1      40.677  33.970  30.260  1.00  0.00     0.031 C 
ATOM     55  C   UNL A   1      46.314  32.599  28.401  1.00  0.00     0.029 A 
ATOM     56  C   UNL A   1      44.974  32.475  28.744  1.00  0.00     0.049 A 
ATOM     57  H   UNL A   1      43.780  30.740  28.801  1.00  0.00     0.167 HD
ATOM     58  C   UNL A   1      42.755  33.335  29.503  1.00  0.00     0.074 A 
ATOM     59  C   UNL A   1      41.872  34.417  29.899  1.00  0.00     0.031 C 
ATOM     60  C   UNL A   1      44.053  33.509  29.146  1.00  0.00     0.037 A 
BRANCH  47  61
ATOM     61  C   UNL A   1      47.052  28.342  27.480  1.00  0.00     0.058 A 
ATOM     62  C   UNL A   1      47.339  28.156  26.116  1.00  0.00     0.135 A 
ATOM     63  C   UNL A   1      47.975  27.845  28.413  1.00  0.00     0.135 A 
ATOM     64  F   UNL A   1      46.475  28.578  25.179  1.00  0.00    -0.206 F 
ATOM     65  C   UNL A   1      48.478  27.476  25.696  1.00  0.00     0.059 A 
ATOM     66  C   UNL A   1      49.136  27.189  28.014  1.00  0.00     0.059 A 
ATOM     67  F   UNL A   1      47.745  27.979  29.728  1.00  0.00    -0.206 F 
ATOM     68  C   UNL A   1      49.371  26.994  26.655  1.00  0.00     0.060 A 
BRANCH  68  69
ATOM     69  S   UNL A   1      50.848  26.118  26.097  1.00  0.00     0.124 S 
ATOM     70  O   UNL A   1      50.684  24.825  26.753  1.00  0.00    -0.237 OA
ATOM     71  O   UNL A   1      50.681  26.119  24.647  1.00  0.00    -0.237 OA
ATOM     72  O   UNL A   1      51.942  26.942  26.601  1.00  0.00    -0.744 OA
ENDBRANCH  68  69
ENDBRANCH  47  61
BRANCH  48  73
ATOM     73  C   UNL A   1      38.301  32.263  30.689  1.00  0.00     0.058 A 
ATOM     74  C   UNL A   1      37.375  32.798  29.782  1.00  0.00     0.135 A 
ATOM     75  C   UNL A   1      37.958  32.276  32.051  1.00  0.00     0.135 A 
ATOM     76  F   UNL A   1      37.650  32.808  28.469  1.00  0.00    -0.206 F 
ATOM     77  C   UNL A   1      36.167  33.346  30.207  1.00  0.00     0.059 A 
ATOM     78  C   UNL A   1      36.746  32.793  32.498  1.00  0.00     0.059 A 
ATOM     79  F   UNL A   1      38.796  31.758  32.961  1.00  0.00    -0.206 F 
ATOM     80  C   UNL A   1      35.861  33.338  31.570  1.00  0.00     0.060 A 
BRANCH  80  81
ATOM     81  S   UNL A   1      34.276  34.013  32.111  1.00  0.00     0.124 S 
ATOM     82  O   UNL A   1      33.654  34.358  30.840  1.00  0.00    -0.237 OA
ATOM     83  O   UNL A   1      33.689  32.883  32.825  1.00  0.00    -0.237 OA
ATOM     84  O   UNL A   1      34.663  35.142  32.952  1.00  0.00    -0.744 OA
ENDBRANCH  80  81
ENDBRANCH  48  73
BRANCH  60  85
ATOM     85  C   UNL A   1      44.574  34.916  29.156  1.00  0.00     0.058 A 
ATOM     86  C   UNL A   1      45.182  35.464  30.294  1.00  0.00     0.135 A 
ATOM     87  C   UNL A   1      44.498  35.706  27.998  1.00  0.00     0.135 A 
ATOM     88  F   UNL A   1      45.277  34.745  31.424  1.00  0.00    -0.206 F 
ATOM     89  C   UNL A   1      45.661  36.768  30.299  1.00  0.00     0.059 A 
ATOM     90  C   UNL A   1      45.001  37.001  27.970  1.00  0.00     0.059 A 
ATOM     91  F   UNL A   1      43.944  35.217  26.878  1.00  0.00    -0.206 F 
ATOM     92  C   UNL A   1      45.562  37.529  29.133  1.00  0.00     0.060 A 
BRANCH  92  93
ATOM     93  S   UNL A   1      46.187  39.221  29.151  1.00  0.00     0.124 S 
ATOM     94  O   UNL A   1      45.357  39.827  30.186  1.00  0.00    -0.237 OA
ATOM     95  O   UNL A   1      47.593  39.030  29.495  1.00  0.00    -0.237 OA
ATOM     96  O   UNL A   1      45.939  39.688  27.790  1.00  0.00    -0.744 OA
ENDBRANCH  92  93
ENDBRANCH  60  85
ENDBRANCH  34  35
ENDBRANCH  27  29
ENDBRANCH  26  27
ENDBRANCH  25  26
ENDBRANCH  24  25
ENDBRANCH   1  24
TORSDOF 22
ENDMDL
