MODEL 1
REMARK VINA RESULT:     -11.2      0.000      0.000
REMARK SMILES Cc1cc(CC(=O)C(=O)OCCOCCOC(=O)c2ccc(-c3c4nc(c(-c5c(F)cc(S(=O)(=O)[O-])cc5F)c5ccc([nH]5)c(-c5c(F)cc(S(=O)(=O)[O-])cc5F)c5nc(c(-c6c(F)cc(S(=O)(=O)[O-])cc6F)c6ccc3[nH]6)C=C5)C=C4)cc2)cc2cn[nH]c12
REMARK SMILES IDX 14 1 13 2 12 3 11 4 10 5 8 6 9 7 6 8 7 9 5 10 4 11 1 12 2 13
REMARK SMILES IDX 3 14 90 15 86 16 89 17 85 18 87 19 88 20 15 22 16 23 17 24
REMARK SMILES IDX 18 25 19 26 20 27 84 28 21 29 83 30 22 31 23 32 24 33 77 34
REMARK SMILES IDX 25 35 82 36 76 37 78 38 26 39 81 40 75 41 74 42 27 44 61 45
REMARK SMILES IDX 40 46 60 47 41 48 44 49 59 50 79 51 42 52 43 53 58 55 80 56
REMARK SMILES IDX 45 57 28 58 29 59 38 60 30 61 31 62 37 63 39 64 32 65 33 66
REMARK SMILES IDX 34 67 35 68 36 69 62 70 63 71 72 72 64 73 65 74 71 75 73 76
REMARK SMILES IDX 66 77 67 78 68 79 69 80 70 81 46 82 47 83 56 84 48 85 49 86
REMARK SMILES IDX 55 87 57 88 50 89 51 90 52 91 53 92 54 93
REMARK H PARENT 89 21 78 43 44 54
REMARK Flexibility Score: inf
ROOT
ATOM      1  C   UNL A   1      42.569  19.339  26.016  1.00  0.00     0.202 C 
ENDROOT
BRANCH   1   2
ATOM      2  O   UNL A   1      41.944  20.614  26.077  1.00  0.00    -0.374 OA
BRANCH   2   3
ATOM      3  C   UNL A   1      41.425  21.113  27.311  1.00  0.00     0.202 C 
BRANCH   3   4
ATOM      4  C   UNL A   1      40.164  21.973  27.265  1.00  0.00     0.261 C 
BRANCH   4   5
ATOM      5  O   UNL A   1      39.474  21.823  26.018  1.00  0.00    -0.457 OA
BRANCH   5   6
ATOM      6  C   UNL A   1      38.461  22.698  25.832  1.00  0.00     0.375 C 
ATOM      7  O   UNL A   1      38.372  23.809  26.307  1.00  0.00    -0.243 OA
BRANCH   6   8
ATOM      8  C   UNL A   1      37.458  22.124  24.812  1.00  0.00     0.244 C 
ATOM      9  O   UNL A   1      37.098  22.811  23.861  1.00  0.00    -0.286 OA
BRANCH   8  10
ATOM     10  C   UNL A   1      36.863  20.755  25.107  1.00  0.00     0.124 C 
BRANCH  10  11
ATOM     11  C   UNL A   1      35.379  20.777  25.380  1.00  0.00    -0.039 A 
ATOM     12  C   UNL A   1      32.184  19.232  23.934  1.00  0.00     0.047 C 
ATOM     13  C   UNL A   1      33.098  20.086  24.760  1.00  0.00    -0.025 A 
ATOM     14  C   UNL A   1      34.498  19.946  24.668  1.00  0.00     0.009 A 
ATOM     15  C   UNL A   1      32.646  21.140  25.572  1.00  0.00     0.068 A 
ATOM     16  C   UNL A   1      33.489  21.951  26.318  1.00  0.00     0.020 A 
ATOM     17  N   UNL A   1      31.388  21.638  25.804  1.00  0.00    -0.278 N 
ATOM     18  C   UNL A   1      34.873  21.738  26.274  1.00  0.00     0.016 A 
ATOM     19  C   UNL A   1      32.635  22.891  26.936  1.00  0.00     0.143 A 
ATOM     20  N   UNL A   1      31.349  22.693  26.638  1.00  0.00    -0.183 NA
ATOM     21  H   UNL A   1      30.580  21.254  25.393  1.00  0.00     0.190 HD
ENDBRANCH  10  11
ENDBRANCH   8  10
ENDBRANCH   6   8
ENDBRANCH   5   6
ENDBRANCH   4   5
ENDBRANCH   3   4
ENDBRANCH   2   3
ENDBRANCH   1   2
BRANCH   1  22
ATOM     22  C   UNL A   1      43.804  19.130  25.147  1.00  0.00     0.261 C 
BRANCH  22  23
ATOM     23  O   UNL A   1      44.202  20.301  24.454  1.00  0.00    -0.460 OA
BRANCH  23  24
ATOM     24  C   UNL A   1      45.354  20.811  24.950  1.00  0.00     0.338 C 
ATOM     25  O   UNL A   1      46.249  20.193  25.495  1.00  0.00    -0.246 OA
BRANCH  24  26
ATOM     26  C   UNL A   1      45.307  22.272  24.896  1.00  0.00     0.060 A 
ATOM     27  C   UNL A   1      46.175  22.915  25.778  1.00  0.00     0.016 A 
ATOM     28  C   UNL A   1      44.180  22.903  24.349  1.00  0.00     0.016 A 
ATOM     29  C   UNL A   1      45.747  24.089  26.342  1.00  0.00     0.010 A 
ATOM     30  C   UNL A   1      43.752  24.076  24.923  1.00  0.00     0.010 A 
ATOM     31  C   UNL A   1      44.491  24.595  25.980  1.00  0.00    -0.014 A 
BRANCH  31  32
ATOM     32  C   UNL A   1      44.059  25.802  26.641  1.00  0.00     0.031 A 
ATOM     33  C   UNL A   1      45.046  26.880  26.456  1.00  0.00     0.074 A 
ATOM     34  C   UNL A   1      42.916  25.923  27.338  1.00  0.00     0.049 A 
ATOM     35  N   UNL A   1      45.963  27.229  27.294  1.00  0.00    -0.248 NA
ATOM     36  C   UNL A   1      45.212  27.438  25.107  1.00  0.00     0.031 C 
ATOM     37  C   UNL A   1      41.773  25.015  27.419  1.00  0.00     0.029 A 
ATOM     38  N   UNL A   1      42.534  26.966  28.121  1.00  0.00    -0.354 N 
ATOM     39  C   UNL A   1      46.663  28.244  26.663  1.00  0.00     0.074 A 
ATOM     40  C   UNL A   1      46.321  28.163  25.268  1.00  0.00     0.031 C 
ATOM     41  C   UNL A   1      40.744  25.645  28.040  1.00  0.00     0.029 A 
ATOM     42  C   UNL A   1      41.206  26.936  28.528  1.00  0.00     0.049 A 
ATOM     43  H   UNL A   1      43.150  27.689  28.378  1.00  0.00     0.167 HD
ATOM     44  C   UNL A   1      47.224  29.242  27.394  1.00  0.00     0.037 A 
ATOM     45  C   UNL A   1      40.555  27.924  29.198  1.00  0.00     0.037 A 
ATOM     46  C   UNL A   1      47.366  28.853  28.778  1.00  0.00     0.049 A 
ATOM     47  C   UNL A   1      41.604  28.722  29.890  1.00  0.00     0.074 A 
ATOM     48  C   UNL A   1      48.050  27.853  29.443  1.00  0.00     0.029 A 
ATOM     49  N   UNL A   1      46.412  29.306  29.660  1.00  0.00    -0.354 N 
ATOM     50  N   UNL A   1      42.342  28.252  30.861  1.00  0.00    -0.248 NA
ATOM     51  C   UNL A   1      42.155  29.872  29.190  1.00  0.00     0.031 C 
ATOM     52  C   UNL A   1      47.189  27.453  30.507  1.00  0.00     0.029 A 
ATOM     53  C   UNL A   1      46.054  28.264  30.476  1.00  0.00     0.049 A 
ATOM     54  H   UNL A   1      46.050  30.221  29.697  1.00  0.00     0.167 HD
ATOM     55  C   UNL A   1      43.612  28.759  30.623  1.00  0.00     0.074 A 
ATOM     56  C   UNL A   1      43.417  29.811  29.625  1.00  0.00     0.031 C 
ATOM     57  C   UNL A   1      44.730  28.095  31.043  1.00  0.00     0.037 A 
BRANCH  44  58
ATOM     58  C   UNL A   1      47.237  30.684  26.947  1.00  0.00     0.058 A 
ATOM     59  C   UNL A   1      48.444  31.406  27.017  1.00  0.00     0.135 A 
ATOM     60  C   UNL A   1      46.076  31.461  26.726  1.00  0.00     0.135 A 
ATOM     61  F   UNL A   1      49.609  30.773  27.234  1.00  0.00    -0.206 F 
ATOM     62  C   UNL A   1      48.485  32.798  26.948  1.00  0.00     0.059 A 
ATOM     63  C   UNL A   1      46.102  32.842  26.597  1.00  0.00     0.059 A 
ATOM     64  F   UNL A   1      44.844  30.942  26.718  1.00  0.00    -0.206 F 
ATOM     65  C   UNL A   1      47.304  33.506  26.751  1.00  0.00     0.060 A 
BRANCH  65  66
ATOM     66  S   UNL A   1      47.338  35.304  26.752  1.00  0.00     0.124 S 
ATOM     67  O   UNL A   1      46.969  35.600  28.131  1.00  0.00    -0.237 OA
ATOM     68  O   UNL A   1      48.724  35.575  26.386  1.00  0.00    -0.237 OA
ATOM     69  O   UNL A   1      46.347  35.659  25.740  1.00  0.00    -0.744 OA
ENDBRANCH  65  66
ENDBRANCH  44  58
BRANCH  45  70
ATOM     70  C   UNL A   1      39.190  28.465  28.934  1.00  0.00     0.058 A 
ATOM     71  C   UNL A   1      38.226  28.534  29.960  1.00  0.00     0.135 A 
ATOM     72  C   UNL A   1      38.898  29.198  27.767  1.00  0.00     0.135 A 
ATOM     73  F   UNL A   1      38.423  27.882  31.115  1.00  0.00    -0.206 F 
ATOM     74  C   UNL A   1      37.077  29.331  29.860  1.00  0.00     0.059 A 
ATOM     75  C   UNL A   1      37.757  29.993  27.642  1.00  0.00     0.059 A 
ATOM     76  F   UNL A   1      39.761  29.237  26.740  1.00  0.00    -0.206 F 
ATOM     77  C   UNL A   1      36.864  30.078  28.703  1.00  0.00     0.060 A 
BRANCH  77  78
ATOM     78  S   UNL A   1      35.477  31.239  28.634  1.00  0.00     0.124 S 
ATOM     79  O   UNL A   1      36.009  32.298  27.782  1.00  0.00    -0.237 OA
ATOM     80  O   UNL A   1      34.420  30.422  28.048  1.00  0.00    -0.237 OA
ATOM     81  O   UNL A   1      35.273  31.609  30.032  1.00  0.00    -0.744 OA
ENDBRANCH  77  78
ENDBRANCH  45  70
BRANCH  57  82
ATOM     82  C   UNL A   1      44.559  26.955  32.017  1.00  0.00     0.058 A 
ATOM     83  C   UNL A   1      44.423  25.604  31.647  1.00  0.00     0.135 A 
ATOM     84  C   UNL A   1      44.724  27.228  33.383  1.00  0.00     0.135 A 
ATOM     85  F   UNL A   1      44.346  25.248  30.357  1.00  0.00    -0.206 F 
ATOM     86  C   UNL A   1      44.438  24.576  32.595  1.00  0.00     0.059 A 
ATOM     87  C   UNL A   1      44.771  26.219  34.341  1.00  0.00     0.059 A 
ATOM     88  F   UNL A   1      44.910  28.492  33.796  1.00  0.00    -0.206 F 
ATOM     89  C   UNL A   1      44.625  24.893  33.940  1.00  0.00     0.060 A 
BRANCH  89  90
ATOM     90  S   UNL A   1      44.755  23.558  35.153  1.00  0.00     0.124 S 
ATOM     91  O   UNL A   1      44.876  24.292  36.408  1.00  0.00    -0.237 OA
ATOM     92  O   UNL A   1      43.501  22.834  34.960  1.00  0.00    -0.237 OA
ATOM     93  O   UNL A   1      45.953  22.832  34.737  1.00  0.00    -0.744 OA
ENDBRANCH  89  90
ENDBRANCH  57  82
ENDBRANCH  31  32
ENDBRANCH  24  26
ENDBRANCH  23  24
ENDBRANCH  22  23
ENDBRANCH   1  22
TORSDOF 19
ENDMDL
MODEL 2
REMARK VINA RESULT:     -11.1      3.875      6.594
REMARK SMILES Cc1cc(CC(=O)C(=O)OCCOCCOC(=O)c2ccc(-c3c4nc(c(-c5c(F)cc(S(=O)(=O)[O-])cc5F)c5ccc([nH]5)c(-c5c(F)cc(S(=O)(=O)[O-])cc5F)c5nc(c(-c6c(F)cc(S(=O)(=O)[O-])cc6F)c6ccc3[nH]6)C=C5)C=C4)cc2)cc2cn[nH]c12
REMARK SMILES IDX 14 1 13 2 12 3 11 4 10 5 8 6 9 7 6 8 7 9 5 10 4 11 1 12 2 13
REMARK SMILES IDX 3 14 90 15 86 16 89 17 85 18 87 19 88 20 15 22 16 23 17 24
REMARK SMILES IDX 18 25 19 26 20 27 84 28 21 29 83 30 22 31 23 32 24 33 77 34
REMARK SMILES IDX 25 35 82 36 76 37 78 38 26 39 81 40 75 41 74 42 27 44 61 45
REMARK SMILES IDX 40 46 60 47 41 48 44 49 59 50 79 51 42 52 43 53 58 55 80 56
REMARK SMILES IDX 45 57 28 58 29 59 38 60 30 61 31 62 37 63 39 64 32 65 33 66
REMARK SMILES IDX 34 67 35 68 36 69 62 70 63 71 72 72 64 73 65 74 71 75 73 76
REMARK SMILES IDX 66 77 67 78 68 79 69 80 70 81 46 82 47 83 56 84 48 85 49 86
REMARK SMILES IDX 55 87 57 88 50 89 51 90 52 91 53 92 54 93
REMARK H PARENT 89 21 78 43 44 54
REMARK Flexibility Score: inf
ROOT
ATOM      1  C   UNL A   1      43.401  18.961  25.454  1.00  0.00     0.202 C 
ENDROOT
BRANCH   1   2
ATOM      2  O   UNL A   1      44.807  18.936  25.664  1.00  0.00    -0.374 OA
BRANCH   2   3
ATOM      3  C   UNL A   1      45.704  19.389  24.649  1.00  0.00     0.202 C 
BRANCH   3   4
ATOM      4  C   UNL A   1      45.508  20.797  24.092  1.00  0.00     0.261 C 
BRANCH   4   5
ATOM      5  O   UNL A   1      46.523  21.691  24.566  1.00  0.00    -0.457 OA
BRANCH   5   6
ATOM      6  C   UNL A   1      46.091  22.594  25.475  1.00  0.00     0.375 C 
ATOM      7  O   UNL A   1      45.772  22.367  26.621  1.00  0.00    -0.243 OA
BRANCH   6   8
ATOM      8  C   UNL A   1      46.172  24.012  24.878  1.00  0.00     0.244 C 
ATOM      9  O   UNL A   1      46.909  24.227  23.920  1.00  0.00    -0.286 OA
BRANCH   8  10
ATOM     10  C   UNL A   1      45.413  25.120  25.593  1.00  0.00     0.124 C 
BRANCH  10  11
ATOM     11  C   UNL A   1      46.247  25.893  26.585  1.00  0.00    -0.039 A 
ATOM     12  C   UNL A   1      49.171  28.371  26.542  1.00  0.00     0.047 C 
ATOM     13  C   UNL A   1      48.123  27.423  27.041  1.00  0.00    -0.025 A 
ATOM     14  C   UNL A   1      47.197  26.835  26.155  1.00  0.00     0.009 A 
ATOM     15  C   UNL A   1      48.063  26.970  28.370  1.00  0.00     0.068 A 
ATOM     16  C   UNL A   1      47.111  26.072  28.834  1.00  0.00     0.020 A 
ATOM     17  N   UNL A   1      48.858  27.225  29.459  1.00  0.00    -0.278 N 
ATOM     18  C   UNL A   1      46.149  25.566  27.949  1.00  0.00     0.016 A 
ATOM     19  C   UNL A   1      47.441  25.859  30.190  1.00  0.00     0.143 A 
ATOM     20  N   UNL A   1      48.498  26.575  30.581  1.00  0.00    -0.183 NA
ATOM     21  H   UNL A   1      49.631  27.834  29.421  1.00  0.00     0.190 HD
ENDBRANCH  10  11
ENDBRANCH   8  10
ENDBRANCH   6   8
ENDBRANCH   5   6
ENDBRANCH   4   5
ENDBRANCH   3   4
ENDBRANCH   2   3
ENDBRANCH   1   2
BRANCH   1  22
ATOM     22  C   UNL A   1      42.496  19.736  26.406  1.00  0.00     0.261 C 
BRANCH  22  23
ATOM     23  O   UNL A   1      42.640  21.141  26.290  1.00  0.00    -0.460 OA
BRANCH  23  24
ATOM     24  C   UNL A   1      42.030  21.794  27.308  1.00  0.00     0.338 C 
ATOM     25  O   UNL A   1      41.115  21.379  27.994  1.00  0.00    -0.246 OA
BRANCH  24  26
ATOM     26  C   UNL A   1      42.517  23.172  27.369  1.00  0.00     0.060 A 
ATOM     27  C   UNL A   1      42.991  23.567  28.619  1.00  0.00     0.016 A 
ATOM     28  C   UNL A   1      42.104  24.090  26.392  1.00  0.00     0.016 A 
ATOM     29  C   UNL A   1      42.770  24.865  28.997  1.00  0.00     0.010 A 
ATOM     30  C   UNL A   1      41.877  25.388  26.779  1.00  0.00     0.010 A 
ATOM     31  C   UNL A   1      42.119  25.729  28.105  1.00  0.00    -0.014 A 
BRANCH  31  32
ATOM     32  C   UNL A   1      41.856  27.069  28.568  1.00  0.00     0.031 A 
ATOM     33  C   UNL A   1      43.009  27.948  28.301  1.00  0.00     0.074 A 
ATOM     34  C   UNL A   1      40.720  27.460  29.167  1.00  0.00     0.049 A 
ATOM     35  N   UNL A   1      43.934  28.271  29.140  1.00  0.00    -0.248 NA
ATOM     36  C   UNL A   1      43.317  28.275  26.902  1.00  0.00     0.031 C 
ATOM     37  C   UNL A   1      39.444  26.757  29.298  1.00  0.00     0.029 A 
ATOM     38  N   UNL A   1      40.475  28.651  29.776  1.00  0.00    -0.354 N 
ATOM     39  C   UNL A   1      44.811  29.068  28.423  1.00  0.00     0.074 A 
ATOM     40  C   UNL A   1      44.519  28.839  27.034  1.00  0.00     0.031 C 
ATOM     41  C   UNL A   1      38.503  27.618  29.761  1.00  0.00     0.029 A 
ATOM     42  C   UNL A   1      39.144  28.880  30.099  1.00  0.00     0.049 A 
ATOM     43  H   UNL A   1      41.187  29.302  29.972  1.00  0.00     0.167 HD
ATOM     44  C   UNL A   1      45.493  30.064  29.047  1.00  0.00     0.037 A 
ATOM     45  C   UNL A   1      38.630  30.042  30.586  1.00  0.00     0.037 A 
ATOM     46  C   UNL A   1      45.513  29.861  30.477  1.00  0.00     0.049 A 
ATOM     47  C   UNL A   1      39.762  30.763  31.229  1.00  0.00     0.074 A 
ATOM     48  C   UNL A   1      46.002  28.876  31.313  1.00  0.00     0.029 A 
ATOM     49  N   UNL A   1      44.607  30.574  31.226  1.00  0.00    -0.354 N 
ATOM     50  N   UNL A   1      40.376  30.332  32.299  1.00  0.00    -0.248 NA
ATOM     51  C   UNL A   1      40.518  31.704  30.416  1.00  0.00     0.031 C 
ATOM     52  C   UNL A   1      45.046  28.767  32.364  1.00  0.00     0.029 A 
ATOM     53  C   UNL A   1      44.055  29.727  32.152  1.00  0.00     0.049 A 
ATOM     54  H   UNL A   1      44.394  31.530  31.116  1.00  0.00     0.167 HD
ATOM     55  C   UNL A   1      41.719  30.601  32.075  1.00  0.00     0.074 A 
ATOM     56  C   UNL A   1      41.734  31.516  30.934  1.00  0.00     0.031 C 
ATOM     57  C   UNL A   1      42.699  29.844  32.651  1.00  0.00     0.037 A 
BRANCH  44  58
ATOM     58  C   UNL A   1      45.753  31.408  28.409  1.00  0.00     0.058 A 
ATOM     59  C   UNL A   1      44.659  32.155  27.931  1.00  0.00     0.135 A 
ATOM     60  C   UNL A   1      47.027  31.861  27.996  1.00  0.00     0.135 A 
ATOM     61  F   UNL A   1      43.402  31.811  28.251  1.00  0.00    -0.206 F 
ATOM     62  C   UNL A   1      44.817  33.223  27.049  1.00  0.00     0.059 A 
ATOM     63  C   UNL A   1      47.208  32.956  27.164  1.00  0.00     0.059 A 
ATOM     64  F   UNL A   1      48.160  31.216  28.291  1.00  0.00    -0.206 F 
ATOM     65  C   UNL A   1      46.097  33.607  26.662  1.00  0.00     0.060 A 
BRANCH  65  66
ATOM     66  S   UNL A   1      46.302  34.924  25.455  1.00  0.00     0.124 S 
ATOM     67  O   UNL A   1      47.706  34.772  25.094  1.00  0.00    -0.237 OA
ATOM     68  O   UNL A   1      45.331  34.544  24.434  1.00  0.00    -0.237 OA
ATOM     69  O   UNL A   1      45.968  36.127  26.212  1.00  0.00    -0.744 OA
ENDBRANCH  65  66
ENDBRANCH  44  58
BRANCH  45  70
ATOM     70  C   UNL A   1      37.380  30.739  30.165  1.00  0.00     0.058 A 
ATOM     71  C   UNL A   1      36.434  31.170  31.117  1.00  0.00     0.135 A 
ATOM     72  C   UNL A   1      37.227  31.264  28.866  1.00  0.00     0.135 A 
ATOM     73  F   UNL A   1      36.508  30.737  32.384  1.00  0.00    -0.206 F 
ATOM     74  C   UNL A   1      35.440  32.111  30.816  1.00  0.00     0.059 A 
ATOM     75  C   UNL A   1      36.240  32.197  28.542  1.00  0.00     0.059 A 
ATOM     76  F   UNL A   1      38.092  30.954  27.889  1.00  0.00    -0.206 F 
ATOM     77  C   UNL A   1      35.367  32.639  29.528  1.00  0.00     0.060 A 
BRANCH  77  78
ATOM     78  S   UNL A   1      34.200  33.977  29.177  1.00  0.00     0.124 S 
ATOM     79  O   UNL A   1      33.718  34.317  30.511  1.00  0.00    -0.237 OA
ATOM     80  O   UNL A   1      35.055  34.970  28.536  1.00  0.00    -0.237 OA
ATOM     81  O   UNL A   1      33.215  33.348  28.301  1.00  0.00    -0.744 OA
ENDBRANCH  77  78
ENDBRANCH  45  70
BRANCH  57  82
ATOM     82  C   UNL A   1      42.310  28.894  33.758  1.00  0.00     0.058 A 
ATOM     83  C   UNL A   1      41.961  27.544  33.565  1.00  0.00     0.135 A 
ATOM     84  C   UNL A   1      42.475  29.326  35.083  1.00  0.00     0.135 A 
ATOM     85  F   UNL A   1      41.865  27.028  32.332  1.00  0.00    -0.206 F 
ATOM     86  C   UNL A   1      41.774  26.671  34.641  1.00  0.00     0.059 A 
ATOM     87  C   UNL A   1      42.322  28.467  36.168  1.00  0.00     0.059 A 
ATOM     88  F   UNL A   1      42.857  30.589  35.333  1.00  0.00    -0.206 F 
ATOM     89  C   UNL A   1      41.969  27.139  35.940  1.00  0.00     0.060 A 
BRANCH  89  90
ATOM     90  S   UNL A   1      41.836  25.985  37.325  1.00  0.00     0.124 S 
ATOM     91  O   UNL A   1      42.092  24.701  36.684  1.00  0.00    -0.237 OA
ATOM     92  O   UNL A   1      42.877  26.460  38.233  1.00  0.00    -0.237 OA
ATOM     93  O   UNL A   1      40.469  26.182  37.804  1.00  0.00    -0.744 OA
ENDBRANCH  89  90
ENDBRANCH  57  82
ENDBRANCH  31  32
ENDBRANCH  24  26
ENDBRANCH  23  24
ENDBRANCH  22  23
ENDBRANCH   1  22
TORSDOF 19
ENDMDL
MODEL 3
REMARK VINA RESULT:     -11.1      4.343     11.592
REMARK SMILES Cc1cc(CC(=O)C(=O)OCCOCCOC(=O)c2ccc(-c3c4nc(c(-c5c(F)cc(S(=O)(=O)[O-])cc5F)c5ccc([nH]5)c(-c5c(F)cc(S(=O)(=O)[O-])cc5F)c5nc(c(-c6c(F)cc(S(=O)(=O)[O-])cc6F)c6ccc3[nH]6)C=C5)C=C4)cc2)cc2cn[nH]c12
REMARK SMILES IDX 14 1 13 2 12 3 11 4 10 5 8 6 9 7 6 8 7 9 5 10 4 11 1 12 2 13
REMARK SMILES IDX 3 14 90 15 86 16 89 17 85 18 87 19 88 20 15 22 16 23 17 24
REMARK SMILES IDX 18 25 19 26 20 27 84 28 21 29 83 30 22 31 23 32 24 33 77 34
REMARK SMILES IDX 25 35 82 36 76 37 78 38 26 39 81 40 75 41 74 42 27 44 61 45
REMARK SMILES IDX 40 46 60 47 41 48 44 49 59 50 79 51 42 52 43 53 58 55 80 56
REMARK SMILES IDX 45 57 28 58 29 59 38 60 30 61 31 62 37 63 39 64 32 65 33 66
REMARK SMILES IDX 34 67 35 68 36 69 62 70 63 71 72 72 64 73 65 74 71 75 73 76
REMARK SMILES IDX 66 77 67 78 68 79 69 80 70 81 46 82 47 83 56 84 48 85 49 86
REMARK SMILES IDX 55 87 57 88 50 89 51 90 52 91 53 92 54 93
REMARK H PARENT 89 21 78 43 44 54
REMARK Flexibility Score: inf
ROOT
ATOM      1  C   UNL A   1      34.745  34.587  28.680  1.00  0.00     0.202 C 
ENDROOT
BRANCH   1   2
ATOM      2  O   UNL A   1      33.876  35.691  28.467  1.00  0.00    -0.374 OA
BRANCH   2   3
ATOM      3  C   UNL A   1      32.869  36.022  29.425  1.00  0.00     0.202 C 
BRANCH   3   4
ATOM      4  C   UNL A   1      33.287  36.808  30.665  1.00  0.00     0.261 C 
BRANCH   4   5
ATOM      5  O   UNL A   1      32.731  36.237  31.857  1.00  0.00    -0.457 OA
BRANCH   5   6
ATOM      6  C   UNL A   1      33.595  36.163  32.894  1.00  0.00     0.375 C 
ATOM      7  O   UNL A   1      33.826  37.034  33.704  1.00  0.00    -0.243 OA
BRANCH   6   8
ATOM      8  C   UNL A   1      34.178  34.739  32.984  1.00  0.00     0.244 C 
ATOM      9  O   UNL A   1      33.691  33.840  32.306  1.00  0.00    -0.286 OA
BRANCH   8  10
ATOM     10  C   UNL A   1      35.268  34.491  34.016  1.00  0.00     0.124 C 
BRANCH  10  11
ATOM     11  C   UNL A   1      36.468  33.751  33.475  1.00  0.00    -0.039 A 
ATOM     12  C   UNL A   1      37.917  30.205  33.562  1.00  0.00     0.047 C 
ATOM     13  C   UNL A   1      37.786  31.677  33.316  1.00  0.00    -0.025 A 
ATOM     14  C   UNL A   1      36.595  32.361  33.632  1.00  0.00     0.009 A 
ATOM     15  C   UNL A   1      38.851  32.484  32.879  1.00  0.00     0.068 A 
ATOM     16  C   UNL A   1      38.744  33.853  32.675  1.00  0.00     0.020 A 
ATOM     17  N   UNL A   1      40.162  32.192  32.597  1.00  0.00    -0.278 N 
ATOM     18  C   UNL A   1      37.523  34.495  32.917  1.00  0.00     0.016 A 
ATOM     19  C   UNL A   1      40.039  34.265  32.290  1.00  0.00     0.143 A 
ATOM     20  N   UNL A   1      40.904  33.250  32.224  1.00  0.00    -0.183 NA
ATOM     21  H   UNL A   1      40.529  31.280  32.663  1.00  0.00     0.190 HD
ENDBRANCH  10  11
ENDBRANCH   8  10
ENDBRANCH   6   8
ENDBRANCH   5   6
ENDBRANCH   4   5
ENDBRANCH   3   4
ENDBRANCH   2   3
ENDBRANCH   1   2
BRANCH   1  22
ATOM     22  C   UNL A   1      34.175  33.187  28.879  1.00  0.00     0.261 C 
BRANCH  22  23
ATOM     23  O   UNL A   1      35.014  32.349  29.654  1.00  0.00    -0.460 OA
BRANCH  23  24
ATOM     24  C   UNL A   1      35.712  31.483  28.881  1.00  0.00     0.338 C 
ATOM     25  O   UNL A   1      35.400  31.080  27.776  1.00  0.00    -0.246 OA
BRANCH  24  26
ATOM     26  C   UNL A   1      36.841  30.947  29.641  1.00  0.00     0.060 A 
ATOM     27  C   UNL A   1      38.022  31.680  29.523  1.00  0.00     0.016 A 
ATOM     28  C   UNL A   1      36.821  29.605  30.045  1.00  0.00     0.016 A 
ATOM     29  C   UNL A   1      39.201  30.982  29.522  1.00  0.00     0.010 A 
ATOM     30  C   UNL A   1      38.005  28.908  30.035  1.00  0.00     0.010 A 
ATOM     31  C   UNL A   1      39.162  29.588  29.674  1.00  0.00    -0.014 A 
BRANCH  31  32
ATOM     32  C   UNL A   1      40.423  28.890  29.609  1.00  0.00     0.031 A 
ATOM     33  C   UNL A   1      41.028  28.781  30.948  1.00  0.00     0.074 A 
ATOM     34  C   UNL A   1      40.973  28.412  28.480  1.00  0.00     0.049 A 
ATOM     35  N   UNL A   1      41.939  29.551  31.440  1.00  0.00    -0.248 NA
ATOM     36  C   UNL A   1      40.369  27.914  31.933  1.00  0.00     0.031 C 
ATOM     37  C   UNL A   1      40.390  28.269  27.146  1.00  0.00     0.029 A 
ATOM     38  N   UNL A   1      42.223  27.902  28.323  1.00  0.00    -0.354 N 
ATOM     39  C   UNL A   1      42.149  29.086  32.727  1.00  0.00     0.074 A 
ATOM     40  C   UNL A   1      41.016  28.260  33.048  1.00  0.00     0.031 C 
ATOM     41  C   UNL A   1      41.217  27.519  26.375  1.00  0.00     0.029 A 
ATOM     42  C   UNL A   1      42.445  27.262  27.110  1.00  0.00     0.049 A 
ATOM     43  H   UNL A   1      42.918  27.980  29.016  1.00  0.00     0.167 HD
ATOM     44  C   UNL A   1      43.380  29.184  33.295  1.00  0.00     0.037 A 
ATOM     45  C   UNL A   1      43.560  26.560  26.773  1.00  0.00     0.037 A 
ATOM     46  C   UNL A   1      44.191  30.161  32.608  1.00  0.00     0.049 A 
ATOM     47  C   UNL A   1      44.657  27.073  27.638  1.00  0.00     0.074 A 
ATOM     48  C   UNL A   1      44.089  31.519  32.372  1.00  0.00     0.029 A 
ATOM     49  N   UNL A   1      45.106  29.690  31.695  1.00  0.00    -0.354 N 
ATOM     50  N   UNL A   1      45.132  28.288  27.554  1.00  0.00    -0.248 NA
ATOM     51  C   UNL A   1      44.894  26.399  28.906  1.00  0.00     0.031 C 
ATOM     52  C   UNL A   1      44.596  31.711  31.054  1.00  0.00     0.029 A 
ATOM     53  C   UNL A   1      45.038  30.477  30.574  1.00  0.00     0.049 A 
ATOM     54  H   UNL A   1      45.706  28.920  31.826  1.00  0.00     0.167 HD
ATOM     55  C   UNL A   1      45.343  28.681  28.869  1.00  0.00     0.074 A 
ATOM     56  C   UNL A   1      45.251  27.449  29.650  1.00  0.00     0.031 C 
ATOM     57  C   UNL A   1      45.292  29.998  29.230  1.00  0.00     0.037 A 
BRANCH  44  58
ATOM     58  C   UNL A   1      43.970  28.106  34.173  1.00  0.00     0.058 A 
ATOM     59  C   UNL A   1      44.209  26.834  33.619  1.00  0.00     0.135 A 
ATOM     60  C   UNL A   1      44.043  28.179  35.584  1.00  0.00     0.135 A 
ATOM     61  F   UNL A   1      44.156  26.645  32.291  1.00  0.00    -0.206 F 
ATOM     62  C   UNL A   1      44.430  25.707  34.409  1.00  0.00     0.059 A 
ATOM     63  C   UNL A   1      44.317  27.081  36.386  1.00  0.00     0.059 A 
ATOM     64  F   UNL A   1      43.759  29.290  36.271  1.00  0.00    -0.206 F 
ATOM     65  C   UNL A   1      44.469  25.841  35.794  1.00  0.00     0.060 A 
BRANCH  65  66
ATOM     66  S   UNL A   1      44.662  24.378  36.821  1.00  0.00     0.124 S 
ATOM     67  O   UNL A   1      44.104  24.836  38.087  1.00  0.00    -0.237 OA
ATOM     68  O   UNL A   1      43.870  23.395  36.089  1.00  0.00    -0.237 OA
ATOM     69  O   UNL A   1      46.103  24.148  36.809  1.00  0.00    -0.744 OA
ENDBRANCH  65  66
ENDBRANCH  44  58
BRANCH  45  70
ATOM     70  C   UNL A   1      43.637  25.232  26.095  1.00  0.00     0.058 A 
ATOM     71  C   UNL A   1      44.668  24.945  25.177  1.00  0.00     0.135 A 
ATOM     72  C   UNL A   1      42.894  24.125  26.550  1.00  0.00     0.135 A 
ATOM     73  F   UNL A   1      45.440  25.933  24.700  1.00  0.00    -0.206 F 
ATOM     74  C   UNL A   1      44.984  23.637  24.787  1.00  0.00     0.059 A 
ATOM     75  C   UNL A   1      43.186  22.814  26.169  1.00  0.00     0.059 A 
ATOM     76  F   UNL A   1      41.914  24.275  27.454  1.00  0.00    -0.206 F 
ATOM     77  C   UNL A   1      44.250  22.573  25.309  1.00  0.00     0.060 A 
BRANCH  77  78
ATOM     78  S   UNL A   1      44.759  20.874  24.945  1.00  0.00     0.124 S 
ATOM     79  O   UNL A   1      44.610  20.817  23.495  1.00  0.00    -0.237 OA
ATOM     80  O   UNL A   1      46.128  20.849  25.447  1.00  0.00    -0.237 OA
ATOM     81  O   UNL A   1      43.806  20.065  25.700  1.00  0.00    -0.744 OA
ENDBRANCH  77  78
ENDBRANCH  45  70
BRANCH  57  82
ATOM     82  C   UNL A   1      45.290  31.039  28.137  1.00  0.00     0.058 A 
ATOM     83  C   UNL A   1      44.133  31.530  27.505  1.00  0.00     0.135 A 
ATOM     84  C   UNL A   1      46.498  31.693  27.851  1.00  0.00     0.135 A 
ATOM     85  F   UNL A   1      42.926  31.018  27.787  1.00  0.00    -0.206 F 
ATOM     86  C   UNL A   1      44.179  32.612  26.622  1.00  0.00     0.059 A 
ATOM     87  C   UNL A   1      46.563  32.790  26.996  1.00  0.00     0.059 A 
ATOM     88  F   UNL A   1      47.631  31.305  28.460  1.00  0.00    -0.206 F 
ATOM     89  C   UNL A   1      45.399  33.245  26.382  1.00  0.00     0.060 A 
BRANCH  89  90
ATOM     90  S   UNL A   1      45.442  34.711  25.327  1.00  0.00     0.124 S 
ATOM     91  O   UNL A   1      44.438  35.569  25.947  1.00  0.00    -0.237 OA
ATOM     92  O   UNL A   1      46.827  35.156  25.462  1.00  0.00    -0.237 OA
ATOM     93  O   UNL A   1      45.090  34.194  24.006  1.00  0.00    -0.744 OA
ENDBRANCH  89  90
ENDBRANCH  57  82
ENDBRANCH  31  32
ENDBRANCH  24  26
ENDBRANCH  23  24
ENDBRANCH  22  23
ENDBRANCH   1  22
TORSDOF 19
ENDMDL
