MODEL 1
REMARK VINA RESULT:     -10.3      0.000      0.000
REMARK SMILES COC[C@H]1CC[N@@H+](Cc2ccc(C(=O)OCCOCCOC(=O)c3ccc(-c4c5nc(c(-c6c(F)cc(S(=O)(=O)[O-])cc6F)c6ccc([nH]6)c(-c6c(F)cc(S(=O)(=O)[O-])cc6F)c6nc(c(-c7c(F)cc(S(=O)(=O)[O-])cc7F)c7ccc4[nH]7)C=C6)C=C5)cc3)cn2)C1
REMARK SMILES IDX 17 1 16 2 15 3 13 4 14 5 12 6 9 7 10 8 91 9 11 10 90 11 8 12
REMARK SMILES IDX 7 13 4 14 5 15 92 16 6 17 3 19 2 20 1 21 18 22 19 23 20 24
REMARK SMILES IDX 21 25 22 26 23 27 24 28 25 29 89 30 26 31 88 32 27 33 28 34
REMARK SMILES IDX 29 35 82 36 30 37 87 38 81 39 83 40 31 41 86 42 80 43 79 44
REMARK SMILES IDX 32 46 66 47 45 48 65 49 46 50 49 51 64 52 84 53 47 54 48 55
REMARK SMILES IDX 63 57 85 58 50 59 33 60 34 61 43 62 35 63 36 64 42 65 44 66
REMARK SMILES IDX 37 67 38 68 39 69 40 70 41 71 67 72 68 73 77 74 69 75 70 76
REMARK SMILES IDX 76 77 78 78 71 79 72 80 73 81 74 82 75 83 51 84 52 85 61 86
REMARK SMILES IDX 53 87 54 88 60 89 62 90 55 91 56 92 57 93 58 94 59 95
REMARK H PARENT 7 18 83 45 49 56
REMARK Flexibility Score: inf
ROOT
ATOM      1  C   UNL A   1      32.652  29.719  25.047  1.00  0.00     0.202 C 
ENDROOT
BRANCH   1   2
ATOM      2  C   UNL A   1      31.229  29.387  24.591  1.00  0.00     0.261 C 
BRANCH   2   3
ATOM      3  O   UNL A   1      31.073  27.975  24.404  1.00  0.00    -0.460 OA
BRANCH   3   4
ATOM      4  C   UNL A   1      31.348  27.539  23.155  1.00  0.00     0.339 C 
ATOM      5  O   UNL A   1      30.893  27.982  22.107  1.00  0.00    -0.246 OA
BRANCH   4   6
ATOM      6  C   UNL A   1      32.390  26.502  23.187  1.00  0.00     0.078 A 
ATOM      7  C   UNL A   1      34.002  24.289  23.142  1.00  0.00     0.095 A 
ATOM      8  C   UNL A   1      34.096  25.165  24.224  1.00  0.00     0.031 A 
ATOM      9  N   UNL A   1      33.275  24.582  22.032  1.00  0.00    -0.254 NA
ATOM     10  C   UNL A   1      33.269  26.288  24.249  1.00  0.00     0.019 A 
ATOM     11  C   UNL A   1      32.481  25.671  22.083  1.00  0.00     0.127 A 
BRANCH   7  12
ATOM     12  C   UNL A   1      34.473  22.849  23.261  1.00  0.00     0.319 C 
BRANCH  12  13
ATOM     13  N   UNL A   1      34.451  22.269  24.628  1.00  0.00    -0.330 N 
ATOM     14  C   UNL A   1      34.191  19.905  25.122  1.00  0.00     0.076 C 
ATOM     15  C   UNL A   1      35.660  20.213  24.874  1.00  0.00     0.073 C 
ATOM     16  C   UNL A   1      33.449  21.206  24.797  1.00  0.00     0.268 C 
ATOM     17  C   UNL A   1      35.739  21.719  25.079  1.00  0.00     0.263 C 
ATOM     18  H   UNL A   1      34.211  23.078  25.199  1.00  0.00     0.348 HD
BRANCH  14  19
ATOM     19  C   UNL A   1      33.679  18.693  24.342  1.00  0.00     0.169 C 
BRANCH  19  20
ATOM     20  O   UNL A   1      32.468  18.980  23.644  1.00  0.00    -0.384 OA
ATOM     21  C   UNL A   1      32.293  18.188  22.478  1.00  0.00     0.194 C 
ENDBRANCH  19  20
ENDBRANCH  14  19
ENDBRANCH  12  13
ENDBRANCH   7  12
ENDBRANCH   4   6
ENDBRANCH   3   4
ENDBRANCH   2   3
ENDBRANCH   1   2
BRANCH   1  22
ATOM     22  O   UNL A   1      33.048  29.266  26.340  1.00  0.00    -0.374 OA
BRANCH  22  23
ATOM     23  C   UNL A   1      33.263  30.239  27.362  1.00  0.00     0.202 C 
BRANCH  23  24
ATOM     24  C   UNL A   1      34.699  30.699  27.643  1.00  0.00     0.261 C 
BRANCH  24  25
ATOM     25  O   UNL A   1      35.471  29.724  28.363  1.00  0.00    -0.460 OA
BRANCH  25  26
ATOM     26  C   UNL A   1      36.126  30.212  29.444  1.00  0.00     0.338 C 
ATOM     27  O   UNL A   1      35.634  30.566  30.508  1.00  0.00    -0.246 OA
BRANCH  26  28
ATOM     28  C   UNL A   1      37.579  30.094  29.242  1.00  0.00     0.060 A 
ATOM     29  C   UNL A   1      38.049  29.862  27.942  1.00  0.00     0.016 A 
ATOM     30  C   UNL A   1      38.461  30.132  30.322  1.00  0.00     0.016 A 
ATOM     31  C   UNL A   1      39.404  29.623  27.720  1.00  0.00     0.010 A 
ATOM     32  C   UNL A   1      39.817  29.878  30.099  1.00  0.00     0.010 A 
ATOM     33  C   UNL A   1      40.287  29.589  28.804  1.00  0.00    -0.014 A 
BRANCH  33  34
ATOM     34  C   UNL A   1      41.674  29.094  28.635  1.00  0.00     0.031 A 
ATOM     35  C   UNL A   1      42.793  30.099  28.640  1.00  0.00     0.074 A 
ATOM     36  C   UNL A   1      41.924  27.789  28.431  1.00  0.00     0.049 A 
ATOM     37  N   UNL A   1      44.049  29.940  28.319  1.00  0.00    -0.248 NA
ATOM     38  C   UNL A   1      42.445  31.471  29.052  1.00  0.00     0.031 C 
ATOM     39  C   UNL A   1      40.923  26.723  28.452  1.00  0.00     0.029 A 
ATOM     40  N   UNL A   1      43.098  27.144  28.129  1.00  0.00    -0.354 N 
ATOM     41  C   UNL A   1      44.633  31.193  28.451  1.00  0.00     0.074 A 
ATOM     42  C   UNL A   1      43.597  32.105  28.882  1.00  0.00     0.031 C 
ATOM     43  C   UNL A   1      41.519  25.560  28.132  1.00  0.00     0.029 A 
ATOM     44  C   UNL A   1      42.930  25.810  27.839  1.00  0.00     0.049 A 
ATOM     45  H   UNL A   1      43.974  27.592  28.121  1.00  0.00     0.167 HD
ATOM     46  C   UNL A   1      45.919  31.548  28.223  1.00  0.00     0.037 A 
ATOM     47  C   UNL A   1      43.803  24.910  27.344  1.00  0.00     0.037 A 
ATOM     48  C   UNL A   1      46.944  30.624  27.819  1.00  0.00     0.049 A 
ATOM     49  C   UNL A   1      45.222  25.340  27.057  1.00  0.00     0.074 A 
ATOM     50  C   UNL A   1      48.288  30.876  27.606  1.00  0.00     0.029 A 
ATOM     51  N   UNL A   1      46.741  29.278  27.563  1.00  0.00    -0.354 N 
ATOM     52  N   UNL A   1      45.771  26.523  27.212  1.00  0.00    -0.248 NA
ATOM     53  C   UNL A   1      46.139  24.321  26.526  1.00  0.00     0.031 C 
ATOM     54  C   UNL A   1      48.887  29.693  27.169  1.00  0.00     0.029 A 
ATOM     55  C   UNL A   1      47.930  28.690  27.170  1.00  0.00     0.049 A 
ATOM     56  H   UNL A   1      45.879  28.809  27.648  1.00  0.00     0.167 HD
ATOM     57  C   UNL A   1      47.104  26.375  26.839  1.00  0.00     0.074 A 
ATOM     58  C   UNL A   1      47.280  24.994  26.447  1.00  0.00     0.031 C 
ATOM     59  C   UNL A   1      48.094  27.300  26.827  1.00  0.00     0.037 A 
BRANCH  46  60
ATOM     60  C   UNL A   1      46.299  32.993  28.374  1.00  0.00     0.058 A 
ATOM     61  C   UNL A   1      46.830  33.500  29.568  1.00  0.00     0.135 A 
ATOM     62  C   UNL A   1      46.217  33.859  27.270  1.00  0.00     0.135 A 
ATOM     63  F   UNL A   1      46.910  32.721  30.658  1.00  0.00    -0.206 F 
ATOM     64  C   UNL A   1      47.272  34.816  29.663  1.00  0.00     0.059 A 
ATOM     65  C   UNL A   1      46.675  35.170  27.335  1.00  0.00     0.059 A 
ATOM     66  F   UNL A   1      45.708  33.424  26.106  1.00  0.00    -0.206 F 
ATOM     67  C   UNL A   1      47.199  35.640  28.537  1.00  0.00     0.060 A 
BRANCH  67  68
ATOM     68  S   UNL A   1      47.832  37.327  28.661  1.00  0.00     0.124 S 
ATOM     69  O   UNL A   1      47.675  37.593  30.087  1.00  0.00    -0.237 OA
ATOM     70  O   UNL A   1      49.206  37.178  28.191  1.00  0.00    -0.237 OA
ATOM     71  O   UNL A   1      46.951  38.088  27.781  1.00  0.00    -0.744 OA
ENDBRANCH  67  68
ENDBRANCH  46  60
BRANCH  47  72
ATOM     72  C   UNL A   1      43.361  23.522  27.037  1.00  0.00     0.058 A 
ATOM     73  C   UNL A   1      43.247  22.554  28.045  1.00  0.00     0.135 A 
ATOM     74  C   UNL A   1      43.080  23.126  25.719  1.00  0.00     0.135 A 
ATOM     75  F   UNL A   1      43.512  22.878  29.320  1.00  0.00    -0.206 F 
ATOM     76  C   UNL A   1      42.906  21.235  27.756  1.00  0.00     0.059 A 
ATOM     77  C   UNL A   1      42.709  21.822  25.408  1.00  0.00     0.059 A 
ATOM     78  F   UNL A   1      43.160  24.015  24.717  1.00  0.00    -0.206 F 
ATOM     79  C   UNL A   1      42.644  20.879  26.432  1.00  0.00     0.060 A 
BRANCH  79  80
ATOM     80  S   UNL A   1      42.197  19.168  26.065  1.00  0.00     0.124 S 
ATOM     81  O   UNL A   1      40.768  19.290  25.802  1.00  0.00    -0.237 OA
ATOM     82  O   UNL A   1      43.038  18.873  24.908  1.00  0.00    -0.237 OA
ATOM     83  O   UNL A   1      42.557  18.458  27.288  1.00  0.00    -0.744 OA
ENDBRANCH  79  80
ENDBRANCH  47  72
BRANCH  59  84
ATOM     84  C   UNL A   1      49.480  26.852  26.456  1.00  0.00     0.058 A 
ATOM     85  C   UNL A   1      50.292  26.136  27.347  1.00  0.00     0.135 A 
ATOM     86  C   UNL A   1      49.949  27.039  25.144  1.00  0.00     0.135 A 
ATOM     87  F   UNL A   1      49.895  25.937  28.614  1.00  0.00    -0.206 F 
ATOM     88  C   UNL A   1      51.522  25.620  26.951  1.00  0.00     0.059 A 
ATOM     89  C   UNL A   1      51.161  26.509  24.719  1.00  0.00     0.059 A 
ATOM     90  F   UNL A   1      49.203  27.710  24.251  1.00  0.00    -0.206 F 
ATOM     91  C   UNL A   1      51.941  25.801  25.631  1.00  0.00     0.060 A 
BRANCH  91  92
ATOM     92  S   UNL A   1      53.497  25.050  25.106  1.00  0.00     0.124 S 
ATOM     93  O   UNL A   1      53.535  25.408  23.691  1.00  0.00    -0.237 OA
ATOM     94  O   UNL A   1      54.472  25.724  25.957  1.00  0.00    -0.237 OA
ATOM     95  O   UNL A   1      53.303  23.630  25.387  1.00  0.00    -0.744 OA
ENDBRANCH  91  92
ENDBRANCH  59  84
ENDBRANCH  33  34
ENDBRANCH  26  28
ENDBRANCH  25  26
ENDBRANCH  24  25
ENDBRANCH  23  24
ENDBRANCH  22  23
ENDBRANCH   1  22
TORSDOF 21
ENDMDL
MODEL 2
REMARK VINA RESULT:      -9.9      6.715     11.937
REMARK SMILES COC[C@H]1CC[N@@H+](Cc2ccc(C(=O)OCCOCCOC(=O)c3ccc(-c4c5nc(c(-c6c(F)cc(S(=O)(=O)[O-])cc6F)c6ccc([nH]6)c(-c6c(F)cc(S(=O)(=O)[O-])cc6F)c6nc(c(-c7c(F)cc(S(=O)(=O)[O-])cc7F)c7ccc4[nH]7)C=C6)C=C5)cc3)cn2)C1
REMARK SMILES IDX 17 1 16 2 15 3 13 4 14 5 12 6 9 7 10 8 91 9 11 10 90 11 8 12
REMARK SMILES IDX 7 13 4 14 5 15 92 16 6 17 3 19 2 20 1 21 18 22 19 23 20 24
REMARK SMILES IDX 21 25 22 26 23 27 24 28 25 29 89 30 26 31 88 32 27 33 28 34
REMARK SMILES IDX 29 35 82 36 30 37 87 38 81 39 83 40 31 41 86 42 80 43 79 44
REMARK SMILES IDX 32 46 66 47 45 48 65 49 46 50 49 51 64 52 84 53 47 54 48 55
REMARK SMILES IDX 63 57 85 58 50 59 33 60 34 61 43 62 35 63 36 64 42 65 44 66
REMARK SMILES IDX 37 67 38 68 39 69 40 70 41 71 67 72 68 73 77 74 69 75 70 76
REMARK SMILES IDX 76 77 78 78 71 79 72 80 73 81 74 82 75 83 51 84 52 85 61 86
REMARK SMILES IDX 53 87 54 88 60 89 62 90 55 91 56 92 57 93 58 94 59 95
REMARK H PARENT 7 18 83 45 49 56
REMARK Flexibility Score: inf
ROOT
ATOM      1  C   UNL A   1      40.805  21.384  27.548  1.00  0.00     0.202 C 
ENDROOT
BRANCH   1   2
ATOM      2  C   UNL A   1      40.192  21.380  26.146  1.00  0.00     0.261 C 
BRANCH   2   3
ATOM      3  O   UNL A   1      38.916  22.031  26.148  1.00  0.00    -0.460 OA
BRANCH   3   4
ATOM      4  C   UNL A   1      38.012  21.499  25.297  1.00  0.00     0.339 C 
ATOM      5  O   UNL A   1      37.947  20.332  24.931  1.00  0.00    -0.246 OA
BRANCH   4   6
ATOM      6  C   UNL A   1      36.996  22.498  24.931  1.00  0.00     0.078 A 
ATOM      7  C   UNL A   1      34.867  24.185  24.585  1.00  0.00     0.095 A 
ATOM      8  C   UNL A   1      35.398  23.538  23.468  1.00  0.00     0.031 A 
ATOM      9  N   UNL A   1      35.473  24.149  25.800  1.00  0.00    -0.254 NA
ATOM     10  C   UNL A   1      36.478  22.673  23.648  1.00  0.00     0.019 A 
ATOM     11  C   UNL A   1      36.512  23.303  25.949  1.00  0.00     0.127 A 
BRANCH   7  12
ATOM     12  C   UNL A   1      33.448  24.726  24.570  1.00  0.00     0.319 C 
BRANCH  12  13
ATOM     13  N   UNL A   1      33.054  25.550  25.741  1.00  0.00    -0.330 N 
ATOM     14  C   UNL A   1      31.923  27.695  25.605  1.00  0.00     0.076 C 
ATOM     15  C   UNL A   1      30.893  26.575  25.576  1.00  0.00     0.073 C 
ATOM     16  C   UNL A   1      33.282  26.990  25.548  1.00  0.00     0.268 C 
ATOM     17  C   UNL A   1      31.651  25.390  26.156  1.00  0.00     0.263 C 
ATOM     18  H   UNL A   1      33.665  25.187  26.472  1.00  0.00     0.348 HD
BRANCH  14  19
ATOM     19  C   UNL A   1      31.724  28.739  24.505  1.00  0.00     0.169 C 
BRANCH  19  20
ATOM     20  O   UNL A   1      30.388  28.739  24.004  1.00  0.00    -0.384 OA
ATOM     21  C   UNL A   1      30.315  28.509  22.604  1.00  0.00     0.194 C 
ENDBRANCH  19  20
ENDBRANCH  14  19
ENDBRANCH  12  13
ENDBRANCH   7  12
ENDBRANCH   4   6
ENDBRANCH   3   4
ENDBRANCH   2   3
ENDBRANCH   1   2
BRANCH   1  22
ATOM     22  O   UNL A   1      41.496  22.563  27.958  1.00  0.00    -0.374 OA
BRANCH  22  23
ATOM     23  C   UNL A   1      42.904  22.635  27.734  1.00  0.00     0.202 C 
BRANCH  23  24
ATOM     24  C   UNL A   1      43.409  23.365  26.483  1.00  0.00     0.261 C 
BRANCH  24  25
ATOM     25  O   UNL A   1      43.720  24.746  26.725  1.00  0.00    -0.460 OA
BRANCH  25  26
ATOM     26  C   UNL A   1      42.832  25.623  26.199  1.00  0.00     0.338 C 
ATOM     27  O   UNL A   1      42.412  25.649  25.048  1.00  0.00    -0.246 OA
BRANCH  26  28
ATOM     28  C   UNL A   1      42.274  26.470  27.265  1.00  0.00     0.060 A 
ATOM     29  C   UNL A   1      42.920  27.679  27.555  1.00  0.00     0.016 A 
ATOM     30  C   UNL A   1      41.180  26.048  28.021  1.00  0.00     0.016 A 
ATOM     31  C   UNL A   1      42.501  28.455  28.635  1.00  0.00     0.010 A 
ATOM     32  C   UNL A   1      40.771  26.819  29.111  1.00  0.00     0.010 A 
ATOM     33  C   UNL A   1      41.451  28.007  29.443  1.00  0.00    -0.014 A 
BRANCH  33  34
ATOM     34  C   UNL A   1      41.149  28.674  30.731  1.00  0.00     0.031 A 
ATOM     35  C   UNL A   1      40.031  29.680  30.766  1.00  0.00     0.074 A 
ATOM     36  C   UNL A   1      41.886  28.427  31.828  1.00  0.00     0.049 A 
ATOM     37  N   UNL A   1      39.711  30.526  31.708  1.00  0.00    -0.248 NA
ATOM     38  C   UNL A   1      39.168  29.748  29.574  1.00  0.00     0.031 C 
ATOM     39  C   UNL A   1      42.962  27.441  31.920  1.00  0.00     0.029 A 
ATOM     40  N   UNL A   1      41.862  29.017  33.068  1.00  0.00    -0.354 N 
ATOM     41  C   UNL A   1      38.636  31.253  31.210  1.00  0.00     0.074 A 
ATOM     42  C   UNL A   1      38.356  30.749  29.883  1.00  0.00     0.031 C 
ATOM     43  C   UNL A   1      43.525  27.524  33.139  1.00  0.00     0.029 A 
ATOM     44  C   UNL A   1      42.881  28.599  33.892  1.00  0.00     0.049 A 
ATOM     45  H   UNL A   1      41.183  29.676  33.340  1.00  0.00     0.167 HD
ATOM     46  C   UNL A   1      37.952  32.256  31.809  1.00  0.00     0.037 A 
ATOM     47  C   UNL A   1      43.277  29.066  35.093  1.00  0.00     0.037 A 
ATOM     48  C   UNL A   1      38.225  32.728  33.139  1.00  0.00     0.049 A 
ATOM     49  C   UNL A   1      42.524  30.215  35.722  1.00  0.00     0.074 A 
ATOM     50  C   UNL A   1      37.560  33.708  33.853  1.00  0.00     0.029 A 
ATOM     51  N   UNL A   1      39.245  32.259  33.952  1.00  0.00    -0.354 N 
ATOM     52  N   UNL A   1      41.491  30.876  35.254  1.00  0.00    -0.248 NA
ATOM     53  C   UNL A   1      42.989  30.684  37.036  1.00  0.00     0.031 C 
ATOM     54  C   UNL A   1      38.211  33.871  35.077  1.00  0.00     0.029 A 
ATOM     55  C   UNL A   1      39.243  32.948  35.151  1.00  0.00     0.049 A 
ATOM     56  H   UNL A   1      39.876  31.544  33.712  1.00  0.00     0.167 HD
ATOM     57  C   UNL A   1      41.159  31.807  36.235  1.00  0.00     0.074 A 
ATOM     58  C   UNL A   1      42.101  31.628  37.319  1.00  0.00     0.031 C 
ATOM     59  C   UNL A   1      40.162  32.724  36.238  1.00  0.00     0.037 A 
BRANCH  46  60
ATOM     60  C   UNL A   1      36.860  32.936  31.034  1.00  0.00     0.058 A 
ATOM     61  C   UNL A   1      37.135  33.856  30.013  1.00  0.00     0.135 A 
ATOM     62  C   UNL A   1      35.518  32.585  31.258  1.00  0.00     0.135 A 
ATOM     63  F   UNL A   1      38.399  34.242  29.772  1.00  0.00    -0.206 F 
ATOM     64  C   UNL A   1      36.119  34.403  29.236  1.00  0.00     0.059 A 
ATOM     65  C   UNL A   1      34.488  33.100  30.479  1.00  0.00     0.059 A 
ATOM     66  F   UNL A   1      35.201  31.714  32.230  1.00  0.00    -0.206 F 
ATOM     67  C   UNL A   1      34.799  34.010  29.471  1.00  0.00     0.060 A 
BRANCH  67  68
ATOM     68  S   UNL A   1      33.498  34.683  28.414  1.00  0.00     0.124 S 
ATOM     69  O   UNL A   1      32.622  35.312  29.397  1.00  0.00    -0.237 OA
ATOM     70  O   UNL A   1      34.241  35.595  27.550  1.00  0.00    -0.237 OA
ATOM     71  O   UNL A   1      32.951  33.503  27.752  1.00  0.00    -0.744 OA
ENDBRANCH  67  68
ENDBRANCH  46  60
BRANCH  47  72
ATOM     72  C   UNL A   1      44.472  28.490  35.768  1.00  0.00     0.058 A 
ATOM     73  C   UNL A   1      45.766  28.947  35.473  1.00  0.00     0.135 A 
ATOM     74  C   UNL A   1      44.348  27.443  36.695  1.00  0.00     0.135 A 
ATOM     75  F   UNL A   1      45.940  29.940  34.588  1.00  0.00    -0.206 F 
ATOM     76  C   UNL A   1      46.893  28.364  36.043  1.00  0.00     0.059 A 
ATOM     77  C   UNL A   1      45.457  26.863  37.301  1.00  0.00     0.059 A 
ATOM     78  F   UNL A   1      43.133  26.976  37.025  1.00  0.00    -0.206 F 
ATOM     79  C   UNL A   1      46.728  27.318  36.953  1.00  0.00     0.060 A 
BRANCH  79  80
ATOM     80  S   UNL A   1      48.195  26.570  37.694  1.00  0.00     0.124 S 
ATOM     81  O   UNL A   1      48.832  25.963  36.531  1.00  0.00    -0.237 OA
ATOM     82  O   UNL A   1      48.876  27.728  38.264  1.00  0.00    -0.237 OA
ATOM     83  O   UNL A   1      47.639  25.637  38.669  1.00  0.00    -0.744 OA
ENDBRANCH  79  80
ENDBRANCH  47  72
BRANCH  59  84
ATOM     84  C   UNL A   1      39.970  33.559  37.473  1.00  0.00     0.058 A 
ATOM     85  C   UNL A   1      40.670  34.757  37.675  1.00  0.00     0.135 A 
ATOM     86  C   UNL A   1      38.978  33.212  38.406  1.00  0.00     0.135 A 
ATOM     87  F   UNL A   1      41.633  35.131  36.818  1.00  0.00    -0.206 F 
ATOM     88  C   UNL A   1      40.393  35.584  38.760  1.00  0.00     0.059 A 
ATOM     89  C   UNL A   1      38.666  34.036  39.481  1.00  0.00     0.059 A 
ATOM     90  F   UNL A   1      38.273  32.079  38.251  1.00  0.00    -0.206 F 
ATOM     91  C   UNL A   1      39.380  35.220  39.650  1.00  0.00     0.060 A 
BRANCH  91  92
ATOM     92  S   UNL A   1      38.971  36.344  41.002  1.00  0.00     0.124 S 
ATOM     93  O   UNL A   1      37.878  35.632  41.658  1.00  0.00    -0.237 OA
ATOM     94  O   UNL A   1      40.224  36.406  41.747  1.00  0.00    -0.237 OA
ATOM     95  O   UNL A   1      38.593  37.578  40.318  1.00  0.00    -0.744 OA
ENDBRANCH  91  92
ENDBRANCH  59  84
ENDBRANCH  33  34
ENDBRANCH  26  28
ENDBRANCH  25  26
ENDBRANCH  24  25
ENDBRANCH  23  24
ENDBRANCH  22  23
ENDBRANCH   1  22
TORSDOF 21
ENDMDL
MODEL 3
REMARK VINA RESULT:      -9.8      2.139      8.895
REMARK SMILES COC[C@H]1CC[N@@H+](Cc2ccc(C(=O)OCCOCCOC(=O)c3ccc(-c4c5nc(c(-c6c(F)cc(S(=O)(=O)[O-])cc6F)c6ccc([nH]6)c(-c6c(F)cc(S(=O)(=O)[O-])cc6F)c6nc(c(-c7c(F)cc(S(=O)(=O)[O-])cc7F)c7ccc4[nH]7)C=C6)C=C5)cc3)cn2)C1
REMARK SMILES IDX 17 1 16 2 15 3 13 4 14 5 12 6 9 7 10 8 91 9 11 10 90 11 8 12
REMARK SMILES IDX 7 13 4 14 5 15 92 16 6 17 3 19 2 20 1 21 18 22 19 23 20 24
REMARK SMILES IDX 21 25 22 26 23 27 24 28 25 29 89 30 26 31 88 32 27 33 28 34
REMARK SMILES IDX 29 35 82 36 30 37 87 38 81 39 83 40 31 41 86 42 80 43 79 44
REMARK SMILES IDX 32 46 66 47 45 48 65 49 46 50 49 51 64 52 84 53 47 54 48 55
REMARK SMILES IDX 63 57 85 58 50 59 33 60 34 61 43 62 35 63 36 64 42 65 44 66
REMARK SMILES IDX 37 67 38 68 39 69 40 70 41 71 67 72 68 73 77 74 69 75 70 76
REMARK SMILES IDX 76 77 78 78 71 79 72 80 73 81 74 82 75 83 51 84 52 85 61 86
REMARK SMILES IDX 53 87 54 88 60 89 62 90 55 91 56 92 57 93 58 94 59 95
REMARK H PARENT 7 18 83 45 49 56
REMARK Flexibility Score: inf
ROOT
ATOM      1  C   UNL A   1      34.714  32.733  28.357  1.00  0.00     0.202 C 
ENDROOT
BRANCH   1   2
ATOM      2  C   UNL A   1      33.694  31.691  27.897  1.00  0.00     0.261 C 
BRANCH   2   3
ATOM      3  O   UNL A   1      34.305  30.733  27.023  1.00  0.00    -0.460 OA
BRANCH   3   4
ATOM      4  C   UNL A   1      34.564  29.537  27.594  1.00  0.00     0.339 C 
ATOM      5  O   UNL A   1      35.339  29.316  28.517  1.00  0.00    -0.246 OA
BRANCH   4   6
ATOM      6  C   UNL A   1      33.687  28.496  27.035  1.00  0.00     0.078 A 
ATOM      7  C   UNL A   1      32.022  26.413  26.415  1.00  0.00     0.095 A 
ATOM      8  C   UNL A   1      33.166  26.611  25.640  1.00  0.00     0.031 A 
ATOM      9  N   UNL A   1      31.612  27.313  27.347  1.00  0.00    -0.254 NA
ATOM     10  C   UNL A   1      34.016  27.669  25.961  1.00  0.00     0.019 A 
ATOM     11  C   UNL A   1      32.454  28.324  27.642  1.00  0.00     0.127 A 
BRANCH   7  12
ATOM     12  C   UNL A   1      31.334  25.059  26.457  1.00  0.00     0.319 C 
BRANCH  12  13
ATOM     13  N   UNL A   1      30.333  24.804  25.391  1.00  0.00    -0.330 N 
ATOM     14  C   UNL A   1      30.014  26.201  23.430  1.00  0.00     0.076 C 
ATOM     15  C   UNL A   1      31.114  25.186  23.157  1.00  0.00     0.073 C 
ATOM     16  C   UNL A   1      29.664  26.023  24.911  1.00  0.00     0.268 C 
ATOM     17  C   UNL A   1      30.864  24.112  24.206  1.00  0.00     0.263 C 
ATOM     18  H   UNL A   1      29.667  24.195  25.866  1.00  0.00     0.348 HD
BRANCH  14  19
ATOM     19  C   UNL A   1      30.397  27.634  23.057  1.00  0.00     0.169 C 
BRANCH  19  20
ATOM     20  O   UNL A   1      30.393  28.500  24.190  1.00  0.00    -0.384 OA
ATOM     21  C   UNL A   1      31.333  29.562  24.087  1.00  0.00     0.194 C 
ENDBRANCH  19  20
ENDBRANCH  14  19
ENDBRANCH  12  13
ENDBRANCH   7  12
ENDBRANCH   4   6
ENDBRANCH   3   4
ENDBRANCH   2   3
ENDBRANCH   1   2
BRANCH   1  22
ATOM     22  O   UNL A   1      34.540  33.290  29.659  1.00  0.00    -0.374 OA
BRANCH  22  23
ATOM     23  C   UNL A   1      35.666  33.896  30.293  1.00  0.00     0.202 C 
BRANCH  23  24
ATOM     24  C   UNL A   1      36.252  33.224  31.541  1.00  0.00     0.261 C 
BRANCH  24  25
ATOM     25  O   UNL A   1      37.550  32.652  31.316  1.00  0.00    -0.460 OA
BRANCH  25  26
ATOM     26  C   UNL A   1      37.679  31.368  31.730  1.00  0.00     0.338 C 
ATOM     27  O   UNL A   1      36.936  30.760  32.491  1.00  0.00    -0.246 OA
BRANCH  26  28
ATOM     28  C   UNL A   1      38.764  30.709  30.987  1.00  0.00     0.060 A 
ATOM     29  C   UNL A   1      39.863  30.226  31.711  1.00  0.00     0.016 A 
ATOM     30  C   UNL A   1      38.741  30.636  29.593  1.00  0.00     0.016 A 
ATOM     31  C   UNL A   1      40.967  29.704  31.041  1.00  0.00     0.010 A 
ATOM     32  C   UNL A   1      39.856  30.126  28.923  1.00  0.00     0.010 A 
ATOM     33  C   UNL A   1      40.986  29.691  29.642  1.00  0.00    -0.014 A 
BRANCH  33  34
ATOM     34  C   UNL A   1      42.233  29.380  28.904  1.00  0.00     0.031 A 
ATOM     35  C   UNL A   1      42.415  27.985  28.372  1.00  0.00     0.074 A 
ATOM     36  C   UNL A   1      43.199  30.303  28.757  1.00  0.00     0.049 A 
ATOM     37  N   UNL A   1      43.484  27.423  27.875  1.00  0.00    -0.248 NA
ATOM     38  C   UNL A   1      41.236  27.102  28.418  1.00  0.00     0.031 C 
ATOM     39  C   UNL A   1      43.111  31.696  29.192  1.00  0.00     0.029 A 
ATOM     40  N   UNL A   1      44.463  30.193  28.231  1.00  0.00    -0.354 N 
ATOM     41  C   UNL A   1      43.121  26.114  27.585  1.00  0.00     0.074 A 
ATOM     42  C   UNL A   1      41.732  25.962  27.960  1.00  0.00     0.031 C 
ATOM     43  C   UNL A   1      44.288  32.301  28.954  1.00  0.00     0.029 A 
ATOM     44  C   UNL A   1      45.224  31.327  28.395  1.00  0.00     0.049 A 
ATOM     45  H   UNL A   1      44.792  29.381  27.782  1.00  0.00     0.167 HD
ATOM     46  C   UNL A   1      43.885  25.127  27.061  1.00  0.00     0.037 A 
ATOM     47  C   UNL A   1      46.536  31.535  28.168  1.00  0.00     0.037 A 
ATOM     48  C   UNL A   1      45.257  25.301  26.669  1.00  0.00     0.049 A 
ATOM     49  C   UNL A   1      47.378  30.406  27.622  1.00  0.00     0.074 A 
ATOM     50  C   UNL A   1      46.104  24.376  26.085  1.00  0.00     0.029 A 
ATOM     51  N   UNL A   1      45.983  26.471  26.823  1.00  0.00    -0.354 N 
ATOM     52  N   UNL A   1      47.017  29.179  27.325  1.00  0.00    -0.248 NA
ATOM     53  C   UNL A   1      48.802  30.684  27.383  1.00  0.00     0.031 C 
ATOM     54  C   UNL A   1      47.359  24.971  25.936  1.00  0.00     0.029 A 
ATOM     55  C   UNL A   1      47.276  26.284  26.369  1.00  0.00     0.049 A 
ATOM     56  H   UNL A   1      45.631  27.309  27.200  1.00  0.00     0.167 HD
ATOM     57  C   UNL A   1      48.158  28.557  26.826  1.00  0.00     0.074 A 
ATOM     58  C   UNL A   1      49.221  29.537  26.863  1.00  0.00     0.031 C 
ATOM     59  C   UNL A   1      48.309  27.289  26.373  1.00  0.00     0.037 A 
BRANCH  46  60
ATOM     60  C   UNL A   1      43.277  23.763  26.899  1.00  0.00     0.058 A 
ATOM     61  C   UNL A   1      42.921  23.253  25.643  1.00  0.00     0.135 A 
ATOM     62  C   UNL A   1      43.142  22.919  28.014  1.00  0.00     0.135 A 
ATOM     63  F   UNL A   1      43.011  24.025  24.548  1.00  0.00    -0.206 F 
ATOM     64  C   UNL A   1      42.454  21.951  25.496  1.00  0.00     0.059 A 
ATOM     65  C   UNL A   1      42.701  21.607  27.887  1.00  0.00     0.059 A 
ATOM     66  F   UNL A   1      43.462  23.363  29.240  1.00  0.00    -0.206 F 
ATOM     67  C   UNL A   1      42.358  21.132  26.623  1.00  0.00     0.060 A 
BRANCH  67  68
ATOM     68  S   UNL A   1      41.807  19.426  26.406  1.00  0.00     0.124 S 
ATOM     69  O   UNL A   1      40.359  19.593  26.346  1.00  0.00    -0.237 OA
ATOM     70  O   UNL A   1      42.454  19.048  25.154  1.00  0.00    -0.237 OA
ATOM     71  O   UNL A   1      42.311  18.750  27.598  1.00  0.00    -0.744 OA
ENDBRANCH  67  68
ENDBRANCH  46  60
BRANCH  47  72
ATOM     72  C   UNL A   1      47.159  32.846  28.498  1.00  0.00     0.058 A 
ATOM     73  C   UNL A   1      47.652  33.115  29.784  1.00  0.00     0.135 A 
ATOM     74  C   UNL A   1      47.237  33.873  27.543  1.00  0.00     0.135 A 
ATOM     75  F   UNL A   1      47.593  32.171  30.735  1.00  0.00    -0.206 F 
ATOM     76  C   UNL A   1      48.167  34.363  30.122  1.00  0.00     0.059 A 
ATOM     77  C   UNL A   1      47.775  35.119  27.848  1.00  0.00     0.059 A 
ATOM     78  F   UNL A   1      46.793  33.666  26.294  1.00  0.00    -0.206 F 
ATOM     79  C   UNL A   1      48.219  35.361  29.146  1.00  0.00     0.060 A 
BRANCH  79  80
ATOM     80  S   UNL A   1      48.894  36.976  29.590  1.00  0.00     0.124 S 
ATOM     81  O   UNL A   1      49.936  37.143  28.583  1.00  0.00    -0.237 OA
ATOM     82  O   UNL A   1      47.728  37.843  29.455  1.00  0.00    -0.237 OA
ATOM     83  O   UNL A   1      49.363  36.778  30.958  1.00  0.00    -0.744 OA
ENDBRANCH  79  80
ENDBRANCH  47  72
BRANCH  59  84
ATOM     84  C   UNL A   1      49.643  26.893  25.804  1.00  0.00     0.058 A 
ATOM     85  C   UNL A   1      49.999  27.180  24.478  1.00  0.00     0.135 A 
ATOM     86  C   UNL A   1      50.621  26.327  26.639  1.00  0.00     0.135 A 
ATOM     87  F   UNL A   1      49.099  27.713  23.636  1.00  0.00    -0.206 F 
ATOM     88  C   UNL A   1      51.279  26.920  23.999  1.00  0.00     0.059 A 
ATOM     89  C   UNL A   1      51.914  26.085  26.190  1.00  0.00     0.059 A 
ATOM     90  F   UNL A   1      50.332  26.043  27.920  1.00  0.00    -0.206 F 
ATOM     91  C   UNL A   1      52.233  26.385  24.868  1.00  0.00     0.060 A 
BRANCH  91  92
ATOM     92  S   UNL A   1      53.915  26.135  24.259  1.00  0.00     0.124 S 
ATOM     93  O   UNL A   1      53.707  26.124  22.814  1.00  0.00    -0.237 OA
ATOM     94  O   UNL A   1      54.615  27.301  24.790  1.00  0.00    -0.237 OA
ATOM     95  O   UNL A   1      54.304  24.856  24.846  1.00  0.00    -0.744 OA
ENDBRANCH  91  92
ENDBRANCH  59  84
ENDBRANCH  33  34
ENDBRANCH  26  28
ENDBRANCH  25  26
ENDBRANCH  24  25
ENDBRANCH  23  24
ENDBRANCH  22  23
ENDBRANCH   1  22
TORSDOF 21
ENDMDL
