MODEL 1
REMARK VINA RESULT:     -11.7      0.000      0.000
REMARK SMILES Cc1ccc(-c2cncc(C#N)c2)cc1C(=O)OCCOCCOC(=O)c1ccc(-c2c3nc(c(-c4c(F)cc(S(=O)(=O)[O-])cc4F)c4ccc([nH]4)c(-c4c(F)cc(S(=O)(=O)[O-])cc4F)c4nc(c(-c5c(F)cc(S(=O)(=O)[O-])cc5F)c5ccc2[nH]5)C=C4)C=C3)cc1
REMARK SMILES IDX 22 1 21 2 20 3 19 4 18 5 16 6 17 7 15 8 1 9 2 10 3 11 4 12
REMARK SMILES IDX 14 13 5 14 6 15 7 16 13 17 8 18 10 19 9 20 11 21 12 22 23 23
REMARK SMILES IDX 24 24 25 25 26 26 27 27 28 28 92 29 29 30 91 31 30 32 31 33
REMARK SMILES IDX 32 34 85 35 33 36 90 37 84 38 86 39 34 40 89 41 83 42 82 43
REMARK SMILES IDX 35 45 69 46 48 47 68 48 49 49 52 50 67 51 87 52 50 53 51 54
REMARK SMILES IDX 66 56 88 57 53 58 36 59 37 60 46 61 38 62 39 63 45 64 47 65
REMARK SMILES IDX 40 66 41 67 42 68 43 69 44 70 70 71 71 72 80 73 72 74 73 75
REMARK SMILES IDX 79 76 81 77 74 78 75 79 76 80 77 81 78 82 54 83 55 84 64 85
REMARK SMILES IDX 56 86 57 87 63 88 65 89 58 90 59 91 60 92 61 93 62 94
REMARK H PARENT 86 44 52 55
REMARK Flexibility Score: inf
ROOT
ATOM      1  C   UNL A   1      36.334  21.473  24.774  1.00  0.00     0.202 C 
ENDROOT
BRANCH   1   2
ATOM      2  O   UNL A   1      36.071  22.840  24.643  1.00  0.00    -0.374 OA
BRANCH   2   3
ATOM      3  C   UNL A   1      35.764  23.285  23.330  1.00  0.00     0.202 C 
BRANCH   3   4
ATOM      4  C   UNL A   1      34.824  24.401  23.561  1.00  0.00     0.261 C 
BRANCH   4   5
ATOM      5  O   UNL A   1      33.669  24.265  22.718  1.00  0.00    -0.460 OA
BRANCH   5   6
ATOM      6  C   UNL A   1      32.413  24.154  23.170  1.00  0.00     0.338 C 
ATOM      7  O   UNL A   1      31.398  24.679  22.751  1.00  0.00    -0.246 OA
BRANCH   6   8
ATOM      8  C   UNL A   1      32.444  23.117  24.227  1.00  0.00     0.063 A 
ATOM      9  C   UNL A   1      32.398  24.677  26.345  1.00  0.00     0.045 C 
ATOM     10  C   UNL A   1      32.497  23.353  25.621  1.00  0.00    -0.037 A 
ATOM     11  C   UNL A   1      32.666  22.241  26.460  1.00  0.00     0.005 A 
ATOM     12  C   UNL A   1      32.815  20.953  25.947  1.00  0.00     0.009 A 
ATOM     13  C   UNL A   1      32.567  21.806  23.722  1.00  0.00     0.024 A 
ATOM     14  C   UNL A   1      32.781  20.719  24.569  1.00  0.00    -0.016 A 
BRANCH  14  15
ATOM     15  C   UNL A   1      33.026  19.388  24.027  1.00  0.00     0.001 A 
ATOM     16  C   UNL A   1      32.401  18.946  22.863  1.00  0.00     0.119 A 
ATOM     17  C   UNL A   1      33.881  18.484  24.678  1.00  0.00     0.031 A 
ATOM     18  N   UNL A   1      32.543  17.702  22.345  1.00  0.00    -0.263 NA
ATOM     19  C   UNL A   1      34.056  17.200  24.164  1.00  0.00     0.071 A 
ATOM     20  C   UNL A   1      33.371  16.862  23.007  1.00  0.00     0.130 A 
BRANCH  19  21
ATOM     21  C   UNL A   1      34.886  16.239  24.826  1.00  0.00     0.101 C 
ATOM     22  N   UNL A   1      35.529  15.443  25.360  1.00  0.00    -0.192 NA
ENDBRANCH  19  21
ENDBRANCH  14  15
ENDBRANCH   6   8
ENDBRANCH   5   6
ENDBRANCH   4   5
ENDBRANCH   3   4
ENDBRANCH   2   3
ENDBRANCH   1   2
BRANCH   1  23
ATOM     23  C   UNL A   1      37.735  21.223  25.331  1.00  0.00     0.261 C 
BRANCH  23  24
ATOM     24  O   UNL A   1      38.520  22.447  25.381  1.00  0.00    -0.460 OA
BRANCH  24  25
ATOM     25  C   UNL A   1      39.325  22.688  26.468  1.00  0.00     0.338 C 
ATOM     26  O   UNL A   1      39.956  21.815  27.041  1.00  0.00    -0.246 OA
BRANCH  25  27
ATOM     27  C   UNL A   1      39.483  24.153  26.734  1.00  0.00     0.060 A 
ATOM     28  C   UNL A   1      40.299  24.992  25.944  1.00  0.00     0.016 A 
ATOM     29  C   UNL A   1      38.932  24.651  27.905  1.00  0.00     0.016 A 
ATOM     30  C   UNL A   1      40.707  26.255  26.420  1.00  0.00     0.010 A 
ATOM     31  C   UNL A   1      39.433  25.822  28.425  1.00  0.00     0.010 A 
ATOM     32  C   UNL A   1      40.344  26.625  27.710  1.00  0.00    -0.014 A 
BRANCH  32  33
ATOM     33  C   UNL A   1      40.824  27.772  28.496  1.00  0.00     0.031 A 
ATOM     34  C   UNL A   1      39.871  28.902  28.584  1.00  0.00     0.074 A 
ATOM     35  C   UNL A   1      41.855  27.645  29.379  1.00  0.00     0.049 A 
ATOM     36  N   UNL A   1      40.087  29.966  29.259  1.00  0.00    -0.248 NA
ATOM     37  C   UNL A   1      38.573  28.946  27.898  1.00  0.00     0.031 C 
ATOM     38  C   UNL A   1      42.078  28.327  30.661  1.00  0.00     0.029 A 
ATOM     39  N   UNL A   1      42.951  26.779  29.339  1.00  0.00    -0.354 N 
ATOM     40  C   UNL A   1      38.898  30.643  29.388  1.00  0.00     0.074 A 
ATOM     41  C   UNL A   1      38.022  30.046  28.420  1.00  0.00     0.031 C 
ATOM     42  C   UNL A   1      43.331  28.085  31.106  1.00  0.00     0.029 A 
ATOM     43  C   UNL A   1      44.012  27.310  30.080  1.00  0.00     0.049 A 
ATOM     44  H   UNL A   1      42.974  25.920  28.858  1.00  0.00     0.167 HD
ATOM     45  C   UNL A   1      38.808  31.545  30.403  1.00  0.00     0.037 A 
ATOM     46  C   UNL A   1      45.190  27.557  29.451  1.00  0.00     0.037 A 
ATOM     47  C   UNL A   1      40.139  31.711  31.012  1.00  0.00     0.049 A 
ATOM     48  C   UNL A   1      45.267  29.055  29.378  1.00  0.00     0.074 A 
ATOM     49  C   UNL A   1      40.713  31.273  32.191  1.00  0.00     0.029 A 
ATOM     50  N   UNL A   1      41.196  32.093  30.184  1.00  0.00    -0.354 N 
ATOM     51  N   UNL A   1      44.197  29.812  29.352  1.00  0.00    -0.248 NA
ATOM     52  C   UNL A   1      46.494  29.812  29.596  1.00  0.00     0.031 C 
ATOM     53  C   UNL A   1      42.136  31.296  32.008  1.00  0.00     0.029 A 
ATOM     54  C   UNL A   1      42.422  31.754  30.726  1.00  0.00     0.049 A 
ATOM     55  H   UNL A   1      41.082  32.547  29.318  1.00  0.00     0.167 HD
ATOM     56  C   UNL A   1      44.543  31.072  29.724  1.00  0.00     0.074 A 
ATOM     57  C   UNL A   1      45.997  31.045  29.800  1.00  0.00     0.031 C 
ATOM     58  C   UNL A   1      43.653  32.066  30.000  1.00  0.00     0.037 A 
BRANCH  45  59
ATOM     59  C   UNL A   1      37.543  32.173  30.956  1.00  0.00     0.058 A 
ATOM     60  C   UNL A   1      37.430  33.580  30.992  1.00  0.00     0.135 A 
ATOM     61  C   UNL A   1      36.444  31.488  31.527  1.00  0.00     0.135 A 
ATOM     62  F   UNL A   1      38.403  34.366  30.508  1.00  0.00    -0.206 F 
ATOM     63  C   UNL A   1      36.329  34.248  31.535  1.00  0.00     0.059 A 
ATOM     64  C   UNL A   1      35.314  32.135  32.044  1.00  0.00     0.059 A 
ATOM     65  F   UNL A   1      36.418  30.159  31.660  1.00  0.00    -0.206 F 
ATOM     66  C   UNL A   1      35.268  33.519  32.052  1.00  0.00     0.060 A 
BRANCH  66  67
ATOM     67  S   UNL A   1      33.848  34.401  32.725  1.00  0.00     0.124 S 
ATOM     68  O   UNL A   1      34.483  35.353  33.630  1.00  0.00    -0.237 OA
ATOM     69  O   UNL A   1      33.242  34.970  31.525  1.00  0.00    -0.237 OA
ATOM     70  O   UNL A   1      33.068  33.350  33.375  1.00  0.00    -0.744 OA
ENDBRANCH  66  67
ENDBRANCH  45  59
BRANCH  46  71
ATOM     71  C   UNL A   1      45.505  26.477  28.446  1.00  0.00     0.058 A 
ATOM     72  C   UNL A   1      45.730  25.177  28.970  1.00  0.00     0.135 A 
ATOM     73  C   UNL A   1      45.061  26.535  27.113  1.00  0.00     0.135 A 
ATOM     74  F   UNL A   1      46.122  25.033  30.249  1.00  0.00    -0.206 F 
ATOM     75  C   UNL A   1      45.396  24.011  28.273  1.00  0.00     0.059 A 
ATOM     76  C   UNL A   1      44.695  25.374  26.405  1.00  0.00     0.059 A 
ATOM     77  F   UNL A   1      44.808  27.721  26.541  1.00  0.00    -0.206 F 
ATOM     78  C   UNL A   1      44.819  24.119  27.010  1.00  0.00     0.060 A 
BRANCH  78  79
ATOM     79  S   UNL A   1      43.943  22.667  26.331  1.00  0.00     0.124 S 
ATOM     80  O   UNL A   1      43.155  22.220  27.471  1.00  0.00    -0.237 OA
ATOM     81  O   UNL A   1      43.177  23.242  25.223  1.00  0.00    -0.237 OA
ATOM     82  O   UNL A   1      45.032  21.792  25.919  1.00  0.00    -0.744 OA
ENDBRANCH  78  79
ENDBRANCH  46  71
BRANCH  58  83
ATOM     83  C   UNL A   1      43.956  33.473  29.579  1.00  0.00     0.058 A 
ATOM     84  C   UNL A   1      44.314  34.477  30.500  1.00  0.00     0.135 A 
ATOM     85  C   UNL A   1      44.063  33.823  28.216  1.00  0.00     0.135 A 
ATOM     86  F   UNL A   1      44.431  34.233  31.814  1.00  0.00    -0.206 F 
ATOM     87  C   UNL A   1      44.597  35.772  30.108  1.00  0.00     0.059 A 
ATOM     88  C   UNL A   1      44.441  35.088  27.799  1.00  0.00     0.059 A 
ATOM     89  F   UNL A   1      43.818  32.945  27.233  1.00  0.00    -0.206 F 
ATOM     90  C   UNL A   1      44.643  36.071  28.754  1.00  0.00     0.060 A 
BRANCH  90  91
ATOM     91  S   UNL A   1      44.951  37.764  28.263  1.00  0.00     0.124 S 
ATOM     92  O   UNL A   1      44.676  37.693  26.831  1.00  0.00    -0.237 OA
ATOM     93  O   UNL A   1      43.977  38.506  29.057  1.00  0.00    -0.237 OA
ATOM     94  O   UNL A   1      46.347  37.975  28.631  1.00  0.00    -0.744 OA
ENDBRANCH  90  91
ENDBRANCH  58  83
ENDBRANCH  32  33
ENDBRANCH  25  27
ENDBRANCH  24  25
ENDBRANCH  23  24
ENDBRANCH   1  23
TORSDOF 19
ENDMDL
MODEL 2
REMARK VINA RESULT:     -11.6      2.459      4.453
REMARK SMILES Cc1ccc(-c2cncc(C#N)c2)cc1C(=O)OCCOCCOC(=O)c1ccc(-c2c3nc(c(-c4c(F)cc(S(=O)(=O)[O-])cc4F)c4ccc([nH]4)c(-c4c(F)cc(S(=O)(=O)[O-])cc4F)c4nc(c(-c5c(F)cc(S(=O)(=O)[O-])cc5F)c5ccc2[nH]5)C=C4)C=C3)cc1
REMARK SMILES IDX 22 1 21 2 20 3 19 4 18 5 16 6 17 7 15 8 1 9 2 10 3 11 4 12
REMARK SMILES IDX 14 13 5 14 6 15 7 16 13 17 8 18 10 19 9 20 11 21 12 22 23 23
REMARK SMILES IDX 24 24 25 25 26 26 27 27 28 28 92 29 29 30 91 31 30 32 31 33
REMARK SMILES IDX 32 34 85 35 33 36 90 37 84 38 86 39 34 40 89 41 83 42 82 43
REMARK SMILES IDX 35 45 69 46 48 47 68 48 49 49 52 50 67 51 87 52 50 53 51 54
REMARK SMILES IDX 66 56 88 57 53 58 36 59 37 60 46 61 38 62 39 63 45 64 47 65
REMARK SMILES IDX 40 66 41 67 42 68 43 69 44 70 70 71 71 72 80 73 72 74 73 75
REMARK SMILES IDX 79 76 81 77 74 78 75 79 76 80 77 81 78 82 54 83 55 84 64 85
REMARK SMILES IDX 56 86 57 87 63 88 65 89 58 90 59 91 60 92 61 93 62 94
REMARK H PARENT 86 44 52 55
REMARK Flexibility Score: inf
ROOT
ATOM      1  C   UNL A   1      36.284  20.672  25.131  1.00  0.00     0.202 C 
ENDROOT
BRANCH   1   2
ATOM      2  O   UNL A   1      35.508  21.541  24.357  1.00  0.00    -0.374 OA
BRANCH   2   3
ATOM      3  C   UNL A   1      34.180  21.753  24.813  1.00  0.00     0.202 C 
BRANCH   3   4
ATOM      4  C   UNL A   1      34.369  22.494  26.077  1.00  0.00     0.261 C 
BRANCH   4   5
ATOM      5  O   UNL A   1      33.391  23.539  26.196  1.00  0.00    -0.460 OA
BRANCH   5   6
ATOM      6  C   UNL A   1      32.390  23.739  25.328  1.00  0.00     0.338 C 
ATOM      7  O   UNL A   1      31.339  23.137  25.219  1.00  0.00    -0.246 OA
BRANCH   6   8
ATOM      8  C   UNL A   1      32.731  24.972  24.582  1.00  0.00     0.063 A 
ATOM      9  C   UNL A   1      33.095  23.929  22.193  1.00  0.00     0.045 C 
ATOM     10  C   UNL A   1      33.098  25.043  23.217  1.00  0.00    -0.037 A 
ATOM     11  C   UNL A   1      33.525  26.285  22.724  1.00  0.00     0.005 A 
ATOM     12  C   UNL A   1      33.624  27.404  23.550  1.00  0.00     0.009 A 
ATOM     13  C   UNL A   1      32.808  26.119  25.400  1.00  0.00     0.024 A 
ATOM     14  C   UNL A   1      33.280  27.333  24.903  1.00  0.00    -0.016 A 
BRANCH  14  15
ATOM     15  C   UNL A   1      33.468  28.478  25.788  1.00  0.00     0.001 A 
ATOM     16  C   UNL A   1      34.502  28.518  26.720  1.00  0.00     0.119 A 
ATOM     17  C   UNL A   1      32.592  29.573  25.754  1.00  0.00     0.031 A 
ATOM     18  N   UNL A   1      34.691  29.525  27.607  1.00  0.00    -0.263 NA
ATOM     19  C   UNL A   1      32.766  30.629  26.647  1.00  0.00     0.071 A 
ATOM     20  C   UNL A   1      33.819  30.558  27.544  1.00  0.00     0.130 A 
BRANCH  19  21
ATOM     21  C   UNL A   1      31.864  31.742  26.670  1.00  0.00     0.101 C 
ATOM     22  N   UNL A   1      31.161  32.656  26.705  1.00  0.00    -0.192 NA
ENDBRANCH  19  21
ENDBRANCH  14  15
ENDBRANCH   6   8
ENDBRANCH   5   6
ENDBRANCH   4   5
ENDBRANCH   3   4
ENDBRANCH   2   3
ENDBRANCH   1   2
BRANCH   1  23
ATOM     23  C   UNL A   1      37.770  21.018  25.039  1.00  0.00     0.261 C 
BRANCH  23  24
ATOM     24  O   UNL A   1      38.041  22.364  25.519  1.00  0.00    -0.460 OA
BRANCH  24  25
ATOM     25  C   UNL A   1      39.099  22.579  26.367  1.00  0.00     0.338 C 
ATOM     26  O   UNL A   1      39.845  21.690  26.744  1.00  0.00    -0.246 OA
BRANCH  25  27
ATOM     27  C   UNL A   1      39.337  24.037  26.610  1.00  0.00     0.060 A 
ATOM     28  C   UNL A   1      40.137  24.834  25.763  1.00  0.00     0.016 A 
ATOM     29  C   UNL A   1      38.882  24.566  27.809  1.00  0.00     0.016 A 
ATOM     30  C   UNL A   1      40.628  26.081  26.202  1.00  0.00     0.010 A 
ATOM     31  C   UNL A   1      39.465  25.717  28.286  1.00  0.00     0.010 A 
ATOM     32  C   UNL A   1      40.363  26.475  27.509  1.00  0.00    -0.014 A 
BRANCH  32  33
ATOM     33  C   UNL A   1      40.941  27.604  28.253  1.00  0.00     0.031 A 
ATOM     34  C   UNL A   1      40.016  28.743  28.461  1.00  0.00     0.074 A 
ATOM     35  C   UNL A   1      42.061  27.453  29.015  1.00  0.00     0.049 A 
ATOM     36  N   UNL A   1      40.318  29.794  29.124  1.00  0.00    -0.248 NA
ATOM     37  C   UNL A   1      38.652  28.811  27.923  1.00  0.00     0.031 C 
ATOM     38  C   UNL A   1      42.432  28.113  30.274  1.00  0.00     0.029 A 
ATOM     39  N   UNL A   1      43.135  26.577  28.842  1.00  0.00    -0.354 N 
ATOM     40  C   UNL A   1      39.159  30.482  29.392  1.00  0.00     0.074 A 
ATOM     41  C   UNL A   1      38.175  29.908  28.518  1.00  0.00     0.031 C 
ATOM     42  C   UNL A   1      43.723  27.852  30.574  1.00  0.00     0.029 A 
ATOM     43  C   UNL A   1      44.278  27.086  29.469  1.00  0.00     0.049 A 
ATOM     44  H   UNL A   1      43.094  25.725  28.349  1.00  0.00     0.167 HD
ATOM     45  C   UNL A   1      39.192  31.369  30.424  1.00  0.00     0.037 A 
ATOM     46  C   UNL A   1      45.382  27.330  28.717  1.00  0.00     0.037 A 
ATOM     47  C   UNL A   1      40.584  31.512  30.885  1.00  0.00     0.049 A 
ATOM     48  C   UNL A   1      45.468  28.828  28.658  1.00  0.00     0.074 A 
ATOM     49  C   UNL A   1      41.279  31.050  31.986  1.00  0.00     0.029 A 
ATOM     50  N   UNL A   1      41.548  31.895  29.950  1.00  0.00    -0.354 N 
ATOM     51  N   UNL A   1      44.411  29.597  28.760  1.00  0.00    -0.248 NA
ATOM     52  C   UNL A   1      46.721  29.569  28.750  1.00  0.00     0.031 C 
ATOM     53  C   UNL A   1      42.673  31.061  31.648  1.00  0.00     0.029 A 
ATOM     54  C   UNL A   1      42.822  31.535  30.349  1.00  0.00     0.049 A 
ATOM     55  H   UNL A   1      41.345  32.364  29.108  1.00  0.00     0.167 HD
ATOM     56  C   UNL A   1      44.812  30.847  29.110  1.00  0.00     0.074 A 
ATOM     57  C   UNL A   1      46.264  30.803  29.024  1.00  0.00     0.031 C 
ATOM     58  C   UNL A   1      43.969  31.846  29.496  1.00  0.00     0.037 A 
BRANCH  45  59
ATOM     59  C   UNL A   1      38.003  32.001  31.121  1.00  0.00     0.058 A 
ATOM     60  C   UNL A   1      37.402  33.148  30.557  1.00  0.00     0.135 A 
ATOM     61  C   UNL A   1      37.443  31.603  32.358  1.00  0.00     0.135 A 
ATOM     62  F   UNL A   1      37.839  33.660  29.397  1.00  0.00    -0.206 F 
ATOM     63  C   UNL A   1      36.342  33.833  31.157  1.00  0.00     0.059 A 
ATOM     64  C   UNL A   1      36.356  32.251  32.959  1.00  0.00     0.059 A 
ATOM     65  F   UNL A   1      37.941  30.593  33.078  1.00  0.00    -0.206 F 
ATOM     66  C   UNL A   1      35.815  33.373  32.355  1.00  0.00     0.060 A 
BRANCH  66  67
ATOM     67  S   UNL A   1      34.432  34.256  33.098  1.00  0.00     0.124 S 
ATOM     68  O   UNL A   1      34.104  35.232  32.064  1.00  0.00    -0.237 OA
ATOM     69  O   UNL A   1      33.457  33.189  33.297  1.00  0.00    -0.237 OA
ATOM     70  O   UNL A   1      34.999  34.814  34.323  1.00  0.00    -0.744 OA
ENDBRANCH  66  67
ENDBRANCH  45  59
BRANCH  46  71
ATOM     71  C   UNL A   1      45.571  26.262  27.669  1.00  0.00     0.058 A 
ATOM     72  C   UNL A   1      45.985  24.988  28.137  1.00  0.00     0.135 A 
ATOM     73  C   UNL A   1      44.874  26.272  26.448  1.00  0.00     0.135 A 
ATOM     74  F   UNL A   1      46.628  24.888  29.314  1.00  0.00    -0.206 F 
ATOM     75  C   UNL A   1      45.606  23.792  27.517  1.00  0.00     0.059 A 
ATOM     76  C   UNL A   1      44.460  25.081  25.823  1.00  0.00     0.059 A 
ATOM     77  F   UNL A   1      44.431  27.431  25.938  1.00  0.00    -0.206 F 
ATOM     78  C   UNL A   1      44.788  23.845  26.390  1.00  0.00     0.060 A 
BRANCH  78  79
ATOM     79  S   UNL A   1      43.902  22.327  25.892  1.00  0.00     0.124 S 
ATOM     80  O   UNL A   1      44.996  21.406  25.619  1.00  0.00    -0.237 OA
ATOM     81  O   UNL A   1      43.101  22.019  27.078  1.00  0.00    -0.237 OA
ATOM     82  O   UNL A   1      43.127  22.765  24.739  1.00  0.00    -0.744 OA
ENDBRANCH  78  79
ENDBRANCH  46  71
BRANCH  58  83
ATOM     83  C   UNL A   1      44.241  33.256  29.064  1.00  0.00     0.058 A 
ATOM     84  C   UNL A   1      44.199  33.652  27.713  1.00  0.00     0.135 A 
ATOM     85  C   UNL A   1      44.387  34.296  30.006  1.00  0.00     0.135 A 
ATOM     86  F   UNL A   1      43.889  32.799  26.726  1.00  0.00    -0.206 F 
ATOM     87  C   UNL A   1      44.445  34.954  27.317  1.00  0.00     0.059 A 
ATOM     88  C   UNL A   1      44.536  35.622  29.635  1.00  0.00     0.059 A 
ATOM     89  F   UNL A   1      44.376  34.069  31.327  1.00  0.00    -0.206 F 
ATOM     90  C   UNL A   1      44.628  35.929  28.286  1.00  0.00     0.060 A 
BRANCH  90  91
ATOM     91  S   UNL A   1      45.006  37.597  27.760  1.00  0.00     0.124 S 
ATOM     92  O   UNL A   1      46.217  37.374  26.976  1.00  0.00    -0.237 OA
ATOM     93  O   UNL A   1      43.818  37.965  26.997  1.00  0.00    -0.237 OA
ATOM     94  O   UNL A   1      45.188  38.315  29.017  1.00  0.00    -0.744 OA
ENDBRANCH  90  91
ENDBRANCH  58  83
ENDBRANCH  32  33
ENDBRANCH  25  27
ENDBRANCH  24  25
ENDBRANCH  23  24
ENDBRANCH   1  23
TORSDOF 19
ENDMDL
MODEL 3
REMARK VINA RESULT:     -11.4      6.592      9.441
REMARK SMILES Cc1ccc(-c2cncc(C#N)c2)cc1C(=O)OCCOCCOC(=O)c1ccc(-c2c3nc(c(-c4c(F)cc(S(=O)(=O)[O-])cc4F)c4ccc([nH]4)c(-c4c(F)cc(S(=O)(=O)[O-])cc4F)c4nc(c(-c5c(F)cc(S(=O)(=O)[O-])cc5F)c5ccc2[nH]5)C=C4)C=C3)cc1
REMARK SMILES IDX 22 1 21 2 20 3 19 4 18 5 16 6 17 7 15 8 1 9 2 10 3 11 4 12
REMARK SMILES IDX 14 13 5 14 6 15 7 16 13 17 8 18 10 19 9 20 11 21 12 22 23 23
REMARK SMILES IDX 24 24 25 25 26 26 27 27 28 28 92 29 29 30 91 31 30 32 31 33
REMARK SMILES IDX 32 34 85 35 33 36 90 37 84 38 86 39 34 40 89 41 83 42 82 43
REMARK SMILES IDX 35 45 69 46 48 47 68 48 49 49 52 50 67 51 87 52 50 53 51 54
REMARK SMILES IDX 66 56 88 57 53 58 36 59 37 60 46 61 38 62 39 63 45 64 47 65
REMARK SMILES IDX 40 66 41 67 42 68 43 69 44 70 70 71 71 72 80 73 72 74 73 75
REMARK SMILES IDX 79 76 81 77 74 78 75 79 76 80 77 81 78 82 54 83 55 84 64 85
REMARK SMILES IDX 56 86 57 87 63 88 65 89 58 90 59 91 60 92 61 93 62 94
REMARK H PARENT 86 44 52 55
REMARK Flexibility Score: inf
ROOT
ATOM      1  C   UNL A   1      47.489  25.219  24.923  1.00  0.00     0.202 C 
ENDROOT
BRANCH   1   2
ATOM      2  O   UNL A   1      46.515  26.135  24.516  1.00  0.00    -0.374 OA
BRANCH   2   3
ATOM      3  C   UNL A   1      45.244  26.000  25.134  1.00  0.00     0.202 C 
BRANCH   3   4
ATOM      4  C   UNL A   1      44.956  27.364  25.623  1.00  0.00     0.261 C 
BRANCH   4   5
ATOM      5  O   UNL A   1      43.679  27.401  26.278  1.00  0.00    -0.460 OA
BRANCH   5   6
ATOM      6  C   UNL A   1      42.512  27.594  25.649  1.00  0.00     0.338 C 
ATOM      7  O   UNL A   1      42.287  28.203  24.620  1.00  0.00    -0.246 OA
BRANCH   6   8
ATOM      8  C   UNL A   1      41.511  26.779  26.375  1.00  0.00     0.063 A 
ATOM      9  C   UNL A   1      40.165  28.713  27.548  1.00  0.00     0.045 C 
ATOM     10  C   UNL A   1      40.518  27.271  27.255  1.00  0.00    -0.037 A 
ATOM     11  C   UNL A   1      39.754  26.330  27.961  1.00  0.00     0.005 A 
ATOM     12  C   UNL A   1      39.982  24.960  27.836  1.00  0.00     0.009 A 
ATOM     13  C   UNL A   1      41.713  25.390  26.235  1.00  0.00     0.024 A 
ATOM     14  C   UNL A   1      40.975  24.472  26.981  1.00  0.00    -0.016 A 
BRANCH  14  15
ATOM     15  C   UNL A   1      41.275  23.046  26.916  1.00  0.00     0.001 A 
ATOM     16  C   UNL A   1      40.524  22.108  27.622  1.00  0.00     0.119 A 
ATOM     17  C   UNL A   1      42.356  22.565  26.162  1.00  0.00     0.031 A 
ATOM     18  N   UNL A   1      40.791  20.779  27.647  1.00  0.00    -0.263 NA
ATOM     19  C   UNL A   1      42.650  21.202  26.160  1.00  0.00     0.071 A 
ATOM     20  C   UNL A   1      41.846  20.360  26.911  1.00  0.00     0.130 A 
BRANCH  19  21
ATOM     21  C   UNL A   1      43.773  20.683  25.437  1.00  0.00     0.101 C 
ATOM     22  N   UNL A   1      44.656  20.247  24.835  1.00  0.00    -0.192 NA
ENDBRANCH  19  21
ENDBRANCH  14  15
ENDBRANCH   6   8
ENDBRANCH   5   6
ENDBRANCH   4   5
ENDBRANCH   3   4
ENDBRANCH   2   3
ENDBRANCH   1   2
BRANCH   1  23
ATOM     23  C   UNL A   1      47.910  25.458  26.372  1.00  0.00     0.261 C 
BRANCH  23  24
ATOM     24  O   UNL A   1      47.674  24.287  27.202  1.00  0.00    -0.460 OA
BRANCH  24  25
ATOM     25  C   UNL A   1      46.393  23.984  27.594  1.00  0.00     0.338 C 
ATOM     26  O   UNL A   1      45.743  23.071  27.111  1.00  0.00    -0.246 OA
BRANCH  25  27
ATOM     27  C   UNL A   1      45.973  24.772  28.796  1.00  0.00     0.060 A 
ATOM     28  C   UNL A   1      46.891  25.458  29.621  1.00  0.00     0.016 A 
ATOM     29  C   UNL A   1      44.648  24.672  29.193  1.00  0.00     0.016 A 
ATOM     30  C   UNL A   1      46.520  25.876  30.916  1.00  0.00     0.010 A 
ATOM     31  C   UNL A   1      44.326  24.962  30.499  1.00  0.00     0.010 A 
ATOM     32  C   UNL A   1      45.256  25.539  31.385  1.00  0.00    -0.014 A 
BRANCH  32  33
ATOM     33  C   UNL A   1      44.731  25.665  32.753  1.00  0.00     0.031 A 
ATOM     34  C   UNL A   1      44.111  26.976  33.056  1.00  0.00     0.074 A 
ATOM     35  C   UNL A   1      44.476  24.568  33.520  1.00  0.00     0.049 A 
ATOM     36  N   UNL A   1      43.558  27.262  34.173  1.00  0.00    -0.248 NA
ATOM     37  C   UNL A   1      44.069  28.108  32.122  1.00  0.00     0.031 C 
ATOM     38  C   UNL A   1      43.425  24.350  34.523  1.00  0.00     0.029 A 
ATOM     39  N   UNL A   1      45.106  23.320  33.514  1.00  0.00    -0.354 N 
ATOM     40  C   UNL A   1      42.818  28.408  34.006  1.00  0.00     0.074 A 
ATOM     41  C   UNL A   1      43.271  28.967  32.764  1.00  0.00     0.031 C 
ATOM     42  C   UNL A   1      43.668  23.216  35.215  1.00  0.00     0.029 A 
ATOM     43  C   UNL A   1      44.945  22.694  34.754  1.00  0.00     0.049 A 
ATOM     44  H   UNL A   1      45.594  22.939  32.748  1.00  0.00     0.167 HD
ATOM     45  C   UNL A   1      41.830  28.643  34.913  1.00  0.00     0.037 A 
ATOM     46  C   UNL A   1      46.052  22.365  35.470  1.00  0.00     0.037 A 
ATOM     47  C   UNL A   1      41.941  27.658  36.003  1.00  0.00     0.049 A 
ATOM     48  C   UNL A   1      46.052  23.330  36.621  1.00  0.00     0.074 A 
ATOM     49  C   UNL A   1      41.227  26.525  36.346  1.00  0.00     0.029 A 
ATOM     50  N   UNL A   1      43.153  27.576  36.692  1.00  0.00    -0.354 N 
ATOM     51  N   UNL A   1      45.500  24.516  36.542  1.00  0.00    -0.248 NA
ATOM     52  C   UNL A   1      46.412  22.959  37.985  1.00  0.00     0.031 C 
ATOM     53  C   UNL A   1      42.081  25.713  37.164  1.00  0.00     0.029 A 
ATOM     54  C   UNL A   1      43.304  26.355  37.322  1.00  0.00     0.049 A 
ATOM     55  H   UNL A   1      43.820  28.301  36.725  1.00  0.00     0.167 HD
ATOM     56  C   UNL A   1      45.260  24.971  37.800  1.00  0.00     0.074 A 
ATOM     57  C   UNL A   1      45.908  24.000  38.670  1.00  0.00     0.031 C 
ATOM     58  C   UNL A   1      44.517  26.075  38.091  1.00  0.00     0.037 A 
BRANCH  45  59
ATOM     59  C   UNL A   1      40.688  29.631  34.781  1.00  0.00     0.058 A 
ATOM     60  C   UNL A   1      39.773  29.491  33.715  1.00  0.00     0.135 A 
ATOM     61  C   UNL A   1      40.460  30.767  35.593  1.00  0.00     0.135 A 
ATOM     62  F   UNL A   1      39.874  28.475  32.844  1.00  0.00    -0.206 F 
ATOM     63  C   UNL A   1      38.726  30.385  33.478  1.00  0.00     0.059 A 
ATOM     64  C   UNL A   1      39.396  31.657  35.398  1.00  0.00     0.059 A 
ATOM     65  F   UNL A   1      41.278  31.109  36.594  1.00  0.00    -0.206 F 
ATOM     66  C   UNL A   1      38.535  31.463  34.330  1.00  0.00     0.060 A 
BRANCH  66  67
ATOM     67  S   UNL A   1      37.164  32.590  34.021  1.00  0.00     0.124 S 
ATOM     68  O   UNL A   1      36.721  32.908  35.375  1.00  0.00    -0.237 OA
ATOM     69  O   UNL A   1      37.816  33.675  33.294  1.00  0.00    -0.237 OA
ATOM     70  O   UNL A   1      36.231  31.788  33.234  1.00  0.00    -0.744 OA
ENDBRANCH  66  67
ENDBRANCH  45  59
BRANCH  46  71
ATOM     71  C   UNL A   1      47.153  21.867  34.566  1.00  0.00     0.058 A 
ATOM     72  C   UNL A   1      48.258  22.737  34.383  1.00  0.00     0.135 A 
ATOM     73  C   UNL A   1      47.410  20.498  34.375  1.00  0.00     0.135 A 
ATOM     74  F   UNL A   1      48.105  24.059  34.579  1.00  0.00    -0.206 F 
ATOM     75  C   UNL A   1      49.562  22.274  34.172  1.00  0.00     0.059 A 
ATOM     76  C   UNL A   1      48.717  20.010  34.190  1.00  0.00     0.059 A 
ATOM     77  F   UNL A   1      46.426  19.601  34.544  1.00  0.00    -0.206 F 
ATOM     78  C   UNL A   1      49.794  20.900  34.138  1.00  0.00     0.060 A 
BRANCH  78  79
ATOM     79  S   UNL A   1      51.506  20.307  34.366  1.00  0.00     0.124 S 
ATOM     80  O   UNL A   1      51.301  18.947  34.845  1.00  0.00    -0.237 OA
ATOM     81  O   UNL A   1      52.068  20.421  33.019  1.00  0.00    -0.237 OA
ATOM     82  O   UNL A   1      52.054  21.253  35.329  1.00  0.00    -0.744 OA
ENDBRANCH  78  79
ENDBRANCH  46  71
BRANCH  58  83
ATOM     83  C   UNL A   1      44.937  26.979  39.212  1.00  0.00     0.058 A 
ATOM     84  C   UNL A   1      44.695  26.666  40.564  1.00  0.00     0.135 A 
ATOM     85  C   UNL A   1      45.747  28.110  38.977  1.00  0.00     0.135 A 
ATOM     86  F   UNL A   1      44.095  25.527  40.939  1.00  0.00    -0.206 F 
ATOM     87  C   UNL A   1      45.087  27.499  41.596  1.00  0.00     0.059 A 
ATOM     88  C   UNL A   1      46.234  28.903  40.003  1.00  0.00     0.059 A 
ATOM     89  F   UNL A   1      46.111  28.483  37.742  1.00  0.00    -0.206 F 
ATOM     90  C   UNL A   1      45.843  28.624  41.303  1.00  0.00     0.060 A 
BRANCH  90  91
ATOM     91  S   UNL A   1      46.292  29.725  42.641  1.00  0.00     0.124 S 
ATOM     92  O   UNL A   1      45.181  29.508  43.563  1.00  0.00    -0.237 OA
ATOM     93  O   UNL A   1      47.582  29.193  43.069  1.00  0.00    -0.237 OA
ATOM     94  O   UNL A   1      46.338  31.035  42.000  1.00  0.00    -0.744 OA
ENDBRANCH  90  91
ENDBRANCH  58  83
ENDBRANCH  32  33
ENDBRANCH  25  27
ENDBRANCH  24  25
ENDBRANCH  23  24
ENDBRANCH   1  23
TORSDOF 19
ENDMDL
