MODEL 1
REMARK VINA RESULT:     -10.6      0.000      0.000
REMARK SMILES CC(C)(CNC(=O)[C@H]1CCC[C@H](C(=O)OCCOCCOC(=O)c2ccc(-c3c4nc(c(-c5c(F)cc(S(=O)(=O)[O-])cc5F)c5ccc([nH]5)c(-c5c(F)cc(S(=O)(=O)[O-])cc5F)c5nc(c(-c6c(F)cc(S(=O)(=O)[O-])cc6F)c6ccc3[nH]6)C=C5)C=C4)cc2)C1)S(C)(=O)=O
REMARK SMILES IDX 17 1 16 2 15 3 13 4 14 5 12 6 8 7 9 8 90 9 10 10 11 11 6 12
REMARK SMILES IDX 5 13 7 15 4 16 2 17 1 18 3 19 91 20 92 21 93 22 94 23 18 24
REMARK SMILES IDX 19 25 20 26 21 27 22 28 23 29 24 30 25 31 89 32 26 33 88 34
REMARK SMILES IDX 27 35 28 36 29 37 82 38 30 39 87 40 81 41 83 42 31 43 86 44
REMARK SMILES IDX 80 45 79 46 32 48 66 49 45 50 65 51 46 52 49 53 64 54 84 55
REMARK SMILES IDX 47 56 48 57 63 59 85 60 50 61 33 62 34 63 43 64 35 65 36 66
REMARK SMILES IDX 42 67 44 68 37 69 38 70 39 71 40 72 41 73 67 74 68 75 77 76
REMARK SMILES IDX 69 77 70 78 76 79 78 80 71 81 72 82 73 83 74 84 75 85 51 86
REMARK SMILES IDX 52 87 61 88 53 89 54 90 60 91 62 92 55 93 56 94 57 95 58 96
REMARK SMILES IDX 59 97
REMARK H PARENT 5 14 83 47 49 58
REMARK Flexibility Score: inf
ROOT
ATOM      1  C   UNL A   1      37.911  22.027  25.641  1.00  0.00     0.202 C 
ENDROOT
BRANCH   1   2
ATOM      2  C   UNL A   1      36.955  21.452  24.595  1.00  0.00     0.261 C 
BRANCH   2   3
ATOM      3  O   UNL A   1      35.947  20.581  25.149  1.00  0.00    -0.463 OA
BRANCH   3   4
ATOM      4  C   UNL A   1      34.875  21.247  25.633  1.00  0.00     0.309 C 
ATOM      5  O   UNL A   1      34.685  21.464  26.830  1.00  0.00    -0.252 OA
BRANCH   4   6
ATOM      6  C   UNL A   1      33.922  21.814  24.598  1.00  0.00     0.100 C 
ATOM      7  C   UNL A   1      32.520  23.865  24.183  1.00  0.00     0.079 C 
ATOM      8  C   UNL A   1      31.579  22.999  23.314  1.00  0.00     0.013 C 
ATOM      9  C   UNL A   1      33.147  22.969  25.236  1.00  0.00     0.028 C 
ATOM     10  C   UNL A   1      32.280  21.778  22.706  1.00  0.00     0.002 C 
ATOM     11  C   UNL A   1      33.018  20.922  23.755  1.00  0.00     0.015 C 
BRANCH   7  12
ATOM     12  C   UNL A   1      33.366  24.818  23.302  1.00  0.00     0.223 C 
ATOM     13  N   UNL A   1      33.762  26.091  23.558  1.00  0.00    -0.354 N 
ATOM     14  H   UNL A   1      34.305  26.464  22.826  1.00  0.00     0.163 HD
ATOM     15  O   UNL A   1      33.738  24.410  22.189  1.00  0.00    -0.275 OA
BRANCH  13  16
ATOM     16  C   UNL A   1      33.584  27.043  24.644  1.00  0.00     0.138 C 
BRANCH  16  17
ATOM     17  C   UNL A   1      32.398  28.046  24.546  1.00  0.00     0.084 C 
ATOM     18  C   UNL A   1      32.412  28.766  23.189  1.00  0.00     0.030 C 
ATOM     19  C   UNL A   1      31.067  27.236  24.646  1.00  0.00     0.030 C 
BRANCH  17  20
ATOM     20  S   UNL A   1      32.351  29.334  25.868  1.00  0.00     0.154 S 
ATOM     21  C   UNL A   1      31.754  28.599  27.368  1.00  0.00     0.158 C 
ATOM     22  O   UNL A   1      33.721  29.732  26.140  1.00  0.00    -0.229 OA
ATOM     23  O   UNL A   1      31.386  30.356  25.528  1.00  0.00    -0.229 OA
ENDBRANCH  17  20
ENDBRANCH  16  17
ENDBRANCH  13  16
ENDBRANCH   7  12
ENDBRANCH   4   6
ENDBRANCH   3   4
ENDBRANCH   2   3
ENDBRANCH   1   2
BRANCH   1  24
ATOM     24  O   UNL A   1      39.180  21.409  25.834  1.00  0.00    -0.374 OA
BRANCH  24  25
ATOM     25  C   UNL A   1      40.038  21.963  26.827  1.00  0.00     0.202 C 
BRANCH  25  26
ATOM     26  C   UNL A   1      40.973  23.121  26.453  1.00  0.00     0.261 C 
BRANCH  26  27
ATOM     27  O   UNL A   1      40.289  24.381  26.354  1.00  0.00    -0.460 OA
BRANCH  27  28
ATOM     28  C   UNL A   1      41.105  25.451  26.199  1.00  0.00     0.338 C 
ATOM     29  O   UNL A   1      41.564  25.888  25.154  1.00  0.00    -0.246 OA
BRANCH  28  30
ATOM     30  C   UNL A   1      41.171  26.202  27.466  1.00  0.00     0.060 A 
ATOM     31  C   UNL A   1      40.138  25.984  28.387  1.00  0.00     0.016 A 
ATOM     32  C   UNL A   1      42.189  27.116  27.738  1.00  0.00     0.016 A 
ATOM     33  C   UNL A   1      40.097  26.703  29.571  1.00  0.00     0.010 A 
ATOM     34  C   UNL A   1      42.130  27.865  28.917  1.00  0.00     0.010 A 
ATOM     35  C   UNL A   1      41.063  27.684  29.817  1.00  0.00    -0.014 A 
BRANCH  35  36
ATOM     36  C   UNL A   1      40.810  28.637  30.920  1.00  0.00     0.031 A 
ATOM     37  C   UNL A   1      41.691  28.566  32.137  1.00  0.00     0.074 A 
ATOM     38  C   UNL A   1      39.898  29.614  30.779  1.00  0.00     0.049 A 
ATOM     39  N   UNL A   1      41.689  29.320  33.205  1.00  0.00    -0.248 NA
ATOM     40  C   UNL A   1      42.716  27.508  32.150  1.00  0.00     0.031 C 
ATOM     41  C   UNL A   1      39.036  29.801  29.612  1.00  0.00     0.029 A 
ATOM     42  N   UNL A   1      39.555  30.640  31.620  1.00  0.00    -0.354 N 
ATOM     43  C   UNL A   1      42.718  28.838  34.007  1.00  0.00     0.074 A 
ATOM     44  C   UNL A   1      43.291  27.698  33.328  1.00  0.00     0.031 C 
ATOM     45  C   UNL A   1      38.253  30.874  29.817  1.00  0.00     0.029 A 
ATOM     46  C   UNL A   1      38.540  31.430  31.137  1.00  0.00     0.049 A 
ATOM     47  H   UNL A   1      39.994  30.796  32.487  1.00  0.00     0.167 HD
ATOM     48  C   UNL A   1      43.155  29.320  35.194  1.00  0.00     0.037 A 
ATOM     49  C   UNL A   1      37.903  32.468  31.712  1.00  0.00     0.037 A 
ATOM     50  C   UNL A   1      42.570  30.453  35.860  1.00  0.00     0.049 A 
ATOM     51  C   UNL A   1      38.355  32.932  33.074  1.00  0.00     0.074 A 
ATOM     52  C   UNL A   1      42.916  31.011  37.077  1.00  0.00     0.029 A 
ATOM     53  N   UNL A   1      41.514  31.205  35.362  1.00  0.00    -0.354 N 
ATOM     54  N   UNL A   1      39.327  32.467  33.825  1.00  0.00    -0.248 NA
ATOM     55  C   UNL A   1      37.634  34.069  33.662  1.00  0.00     0.031 C 
ATOM     56  C   UNL A   1      42.040  32.069  37.337  1.00  0.00     0.029 A 
ATOM     57  C   UNL A   1      41.186  32.211  36.255  1.00  0.00     0.049 A 
ATOM     58  H   UNL A   1      41.065  31.045  34.500  1.00  0.00     0.167 HD
ATOM     59  C   UNL A   1      39.349  33.271  34.960  1.00  0.00     0.074 A 
ATOM     60  C   UNL A   1      38.311  34.265  34.784  1.00  0.00     0.031 C 
ATOM     61  C   UNL A   1      40.152  33.194  36.052  1.00  0.00     0.037 A 
BRANCH  48  62
ATOM     62  C   UNL A   1      44.313  28.619  35.850  1.00  0.00     0.058 A 
ATOM     63  C   UNL A   1      44.120  27.539  36.727  1.00  0.00     0.135 A 
ATOM     64  C   UNL A   1      45.634  28.996  35.560  1.00  0.00     0.135 A 
ATOM     65  F   UNL A   1      42.878  27.152  37.060  1.00  0.00    -0.206 F 
ATOM     66  C   UNL A   1      45.194  26.865  37.300  1.00  0.00     0.059 A 
ATOM     67  C   UNL A   1      46.724  28.318  36.099  1.00  0.00     0.059 A 
ATOM     68  F   UNL A   1      45.878  30.028  34.736  1.00  0.00    -0.206 F 
ATOM     69  C   UNL A   1      46.493  27.257  36.973  1.00  0.00     0.060 A 
BRANCH  69  70
ATOM     70  S   UNL A   1      47.874  26.346  37.695  1.00  0.00     0.124 S 
ATOM     71  O   UNL A   1      47.687  25.021  37.114  1.00  0.00    -0.237 OA
ATOM     72  O   UNL A   1      49.027  27.096  37.207  1.00  0.00    -0.237 OA
ATOM     73  O   UNL A   1      47.632  26.440  39.132  1.00  0.00    -0.744 OA
ENDBRANCH  69  70
ENDBRANCH  48  62
BRANCH  49  74
ATOM     74  C   UNL A   1      36.750  33.114  31.027  1.00  0.00     0.058 A 
ATOM     75  C   UNL A   1      35.425  32.871  31.424  1.00  0.00     0.135 A 
ATOM     76  C   UNL A   1      36.953  33.968  29.930  1.00  0.00     0.135 A 
ATOM     77  F   UNL A   1      35.175  32.059  32.462  1.00  0.00    -0.206 F 
ATOM     78  C   UNL A   1      34.346  33.420  30.736  1.00  0.00     0.059 A 
ATOM     79  C   UNL A   1      35.892  34.555  29.249  1.00  0.00     0.059 A 
ATOM     80  F   UNL A   1      38.199  34.247  29.516  1.00  0.00    -0.206 F 
ATOM     81  C   UNL A   1      34.591  34.259  29.648  1.00  0.00     0.060 A 
BRANCH  81  82
ATOM     82  S   UNL A   1      33.186  34.975  28.768  1.00  0.00     0.124 S 
ATOM     83  O   UNL A   1      32.274  35.271  29.867  1.00  0.00    -0.237 OA
ATOM     84  O   UNL A   1      33.791  36.129  28.111  1.00  0.00    -0.237 OA
ATOM     85  O   UNL A   1      32.769  33.900  27.872  1.00  0.00    -0.744 OA
ENDBRANCH  81  82
ENDBRANCH  49  74
BRANCH  61  86
ATOM     86  C   UNL A   1      39.960  34.238  37.119  1.00  0.00     0.058 A 
ATOM     87  C   UNL A   1      39.175  33.998  38.258  1.00  0.00     0.135 A 
ATOM     88  C   UNL A   1      40.598  35.485  37.015  1.00  0.00     0.135 A 
ATOM     89  F   UNL A   1      38.541  32.824  38.408  1.00  0.00    -0.206 F 
ATOM     90  C   UNL A   1      38.991  34.974  39.233  1.00  0.00     0.059 A 
ATOM     91  C   UNL A   1      40.458  36.463  37.995  1.00  0.00     0.059 A 
ATOM     92  F   UNL A   1      41.374  35.762  35.955  1.00  0.00    -0.206 F 
ATOM     93  C   UNL A   1      39.636  36.203  39.091  1.00  0.00     0.060 A 
BRANCH  93  94
ATOM     94  S   UNL A   1      39.396  37.457  40.367  1.00  0.00     0.124 S 
ATOM     95  O   UNL A   1      38.619  38.461  39.649  1.00  0.00    -0.237 OA
ATOM     96  O   UNL A   1      38.677  36.717  41.399  1.00  0.00    -0.237 OA
ATOM     97  O   UNL A   1      40.757  37.850  40.719  1.00  0.00    -0.744 OA
ENDBRANCH  93  94
ENDBRANCH  61  86
ENDBRANCH  35  36
ENDBRANCH  28  30
ENDBRANCH  27  28
ENDBRANCH  26  27
ENDBRANCH  25  26
ENDBRANCH  24  25
ENDBRANCH   1  24
TORSDOF 21
ENDMDL
MODEL 2
REMARK VINA RESULT:     -10.4      6.340     12.036
REMARK SMILES CC(C)(CNC(=O)[C@H]1CCC[C@H](C(=O)OCCOCCOC(=O)c2ccc(-c3c4nc(c(-c5c(F)cc(S(=O)(=O)[O-])cc5F)c5ccc([nH]5)c(-c5c(F)cc(S(=O)(=O)[O-])cc5F)c5nc(c(-c6c(F)cc(S(=O)(=O)[O-])cc6F)c6ccc3[nH]6)C=C5)C=C4)cc2)C1)S(C)(=O)=O
REMARK SMILES IDX 17 1 16 2 15 3 13 4 14 5 12 6 8 7 9 8 90 9 10 10 11 11 6 12
REMARK SMILES IDX 5 13 7 15 4 16 2 17 1 18 3 19 91 20 92 21 93 22 94 23 18 24
REMARK SMILES IDX 19 25 20 26 21 27 22 28 23 29 24 30 25 31 89 32 26 33 88 34
REMARK SMILES IDX 27 35 28 36 29 37 82 38 30 39 87 40 81 41 83 42 31 43 86 44
REMARK SMILES IDX 80 45 79 46 32 48 66 49 45 50 65 51 46 52 49 53 64 54 84 55
REMARK SMILES IDX 47 56 48 57 63 59 85 60 50 61 33 62 34 63 43 64 35 65 36 66
REMARK SMILES IDX 42 67 44 68 37 69 38 70 39 71 40 72 41 73 67 74 68 75 77 76
REMARK SMILES IDX 69 77 70 78 76 79 78 80 71 81 72 82 73 83 74 84 75 85 51 86
REMARK SMILES IDX 52 87 61 88 53 89 54 90 60 91 62 92 55 93 56 94 57 95 58 96
REMARK SMILES IDX 59 97
REMARK H PARENT 5 14 83 47 49 58
REMARK Flexibility Score: inf
ROOT
ATOM      1  C   UNL A   1      34.611  30.354  27.734  1.00  0.00     0.202 C 
ENDROOT
BRANCH   1   2
ATOM      2  C   UNL A   1      33.744  29.371  26.944  1.00  0.00     0.261 C 
BRANCH   2   3
ATOM      3  O   UNL A   1      34.332  28.959  25.693  1.00  0.00    -0.463 OA
BRANCH   3   4
ATOM      4  C   UNL A   1      33.414  28.630  24.756  1.00  0.00     0.309 C 
ATOM      5  O   UNL A   1      33.333  29.174  23.655  1.00  0.00    -0.252 OA
BRANCH   4   6
ATOM      6  C   UNL A   1      32.511  27.459  25.094  1.00  0.00     0.100 C 
ATOM      7  C   UNL A   1      32.342  24.976  24.705  1.00  0.00     0.079 C 
ATOM      8  C   UNL A   1      30.809  25.093  24.873  1.00  0.00     0.013 C 
ATOM      9  C   UNL A   1      32.859  26.296  24.161  1.00  0.00     0.028 C 
ATOM     10  C   UNL A   1      30.391  26.289  25.737  1.00  0.00     0.002 C 
ATOM     11  C   UNL A   1      31.005  27.621  25.259  1.00  0.00     0.015 C 
BRANCH   7  12
ATOM     12  C   UNL A   1      32.982  24.284  25.933  1.00  0.00     0.223 C 
ATOM     13  N   UNL A   1      34.287  23.982  26.160  1.00  0.00    -0.354 N 
ATOM     14  H   UNL A   1      34.420  23.549  27.034  1.00  0.00     0.163 HD
ATOM     15  O   UNL A   1      32.234  23.917  26.855  1.00  0.00    -0.275 OA
BRANCH  13  16
ATOM     16  C   UNL A   1      35.537  24.139  25.433  1.00  0.00     0.138 C 
BRANCH  16  17
ATOM     17  C   UNL A   1      36.288  22.850  24.989  1.00  0.00     0.084 C 
ATOM     18  C   UNL A   1      36.513  22.855  23.468  1.00  0.00     0.030 C 
ATOM     19  C   UNL A   1      37.686  22.838  25.682  1.00  0.00     0.030 C 
BRANCH  17  20
ATOM     20  S   UNL A   1      35.449  21.264  25.429  1.00  0.00     0.154 S 
ATOM     21  C   UNL A   1      34.015  21.068  24.405  1.00  0.00     0.158 C 
ATOM     22  O   UNL A   1      36.347  20.180  25.067  1.00  0.00    -0.229 OA
ATOM     23  O   UNL A   1      34.951  21.329  26.785  1.00  0.00    -0.229 OA
ENDBRANCH  17  20
ENDBRANCH  16  17
ENDBRANCH  13  16
ENDBRANCH   7  12
ENDBRANCH   4   6
ENDBRANCH   3   4
ENDBRANCH   2   3
ENDBRANCH   1   2
BRANCH   1  24
ATOM     24  O   UNL A   1      34.318  31.746  27.666  1.00  0.00    -0.374 OA
BRANCH  24  25
ATOM     25  C   UNL A   1      34.815  32.575  28.713  1.00  0.00     0.202 C 
BRANCH  25  26
ATOM     26  C   UNL A   1      34.795  32.058  30.158  1.00  0.00     0.261 C 
BRANCH  26  27
ATOM     27  O   UNL A   1      35.945  31.258  30.479  1.00  0.00    -0.460 OA
BRANCH  27  28
ATOM     28  C   UNL A   1      37.105  31.951  30.562  1.00  0.00     0.338 C 
ATOM     29  O   UNL A   1      37.298  33.006  31.151  1.00  0.00    -0.246 OA
BRANCH  28  30
ATOM     30  C   UNL A   1      38.208  31.122  30.046  1.00  0.00     0.060 A 
ATOM     31  C   UNL A   1      39.253  30.832  30.935  1.00  0.00     0.016 A 
ATOM     32  C   UNL A   1      38.245  30.667  28.728  1.00  0.00     0.016 A 
ATOM     33  C   UNL A   1      40.356  30.114  30.502  1.00  0.00     0.010 A 
ATOM     34  C   UNL A   1      39.372  29.971  28.283  1.00  0.00     0.010 A 
ATOM     35  C   UNL A   1      40.445  29.726  29.160  1.00  0.00    -0.014 A 
BRANCH  35  36
ATOM     36  C   UNL A   1      41.756  29.251  28.668  1.00  0.00     0.031 A 
ATOM     37  C   UNL A   1      42.896  30.231  28.619  1.00  0.00     0.074 A 
ATOM     38  C   UNL A   1      41.947  27.950  28.389  1.00  0.00     0.049 A 
ATOM     39  N   UNL A   1      44.140  30.036  28.269  1.00  0.00    -0.248 NA
ATOM     40  C   UNL A   1      42.596  31.614  29.028  1.00  0.00     0.031 C 
ATOM     41  C   UNL A   1      40.918  26.912  28.462  1.00  0.00     0.029 A 
ATOM     42  N   UNL A   1      43.077  27.278  28.002  1.00  0.00    -0.354 N 
ATOM     43  C   UNL A   1      44.772  31.264  28.429  1.00  0.00     0.074 A 
ATOM     44  C   UNL A   1      43.767  32.209  28.860  1.00  0.00     0.031 C 
ATOM     45  C   UNL A   1      41.465  25.733  28.118  1.00  0.00     0.029 A 
ATOM     46  C   UNL A   1      42.870  25.938  27.776  1.00  0.00     0.049 A 
ATOM     47  H   UNL A   1      43.953  27.714  27.895  1.00  0.00     0.167 HD
ATOM     48  C   UNL A   1      46.079  31.567  28.250  1.00  0.00     0.037 A 
ATOM     49  C   UNL A   1      43.718  24.996  27.321  1.00  0.00     0.037 A 
ATOM     50  C   UNL A   1      47.067  30.616  27.815  1.00  0.00     0.049 A 
ATOM     51  C   UNL A   1      45.150  25.380  27.048  1.00  0.00     0.074 A 
ATOM     52  C   UNL A   1      48.414  30.820  27.576  1.00  0.00     0.029 A 
ATOM     53  N   UNL A   1      46.814  29.276  27.554  1.00  0.00    -0.354 N 
ATOM     54  N   UNL A   1      45.736  26.546  27.200  1.00  0.00    -0.248 NA
ATOM     55  C   UNL A   1      46.041  24.321  26.556  1.00  0.00     0.031 C 
ATOM     56  C   UNL A   1      48.964  29.616  27.126  1.00  0.00     0.029 A 
ATOM     57  C   UNL A   1      47.976  28.645  27.142  1.00  0.00     0.049 A 
ATOM     58  H   UNL A   1      45.936  28.839  27.648  1.00  0.00     0.167 HD
ATOM     59  C   UNL A   1      47.068  26.352  26.847  1.00  0.00     0.074 A 
ATOM     60  C   UNL A   1      47.204  24.953  26.499  1.00  0.00     0.031 C 
ATOM     61  C   UNL A   1      48.086  27.247  26.808  1.00  0.00     0.037 A 
BRANCH  48  62
ATOM     62  C   UNL A   1      46.512  32.983  28.516  1.00  0.00     0.058 A 
ATOM     63  C   UNL A   1      46.486  33.963  27.510  1.00  0.00     0.135 A 
ATOM     64  C   UNL A   1      46.909  33.380  29.803  1.00  0.00     0.135 A 
ATOM     65  F   UNL A   1      46.140  33.634  26.255  1.00  0.00    -0.206 F 
ATOM     66  C   UNL A   1      46.847  35.281  27.768  1.00  0.00     0.059 A 
ATOM     67  C   UNL A   1      47.247  34.700  30.091  1.00  0.00     0.059 A 
ATOM     68  F   UNL A   1      46.962  32.483  30.801  1.00  0.00    -0.206 F 
ATOM     69  C   UNL A   1      47.218  35.642  29.064  1.00  0.00     0.060 A 
BRANCH  69  70
ATOM     70  S   UNL A   1      47.645  37.365  29.389  1.00  0.00     0.124 S 
ATOM     71  O   UNL A   1      48.990  37.445  28.829  1.00  0.00    -0.237 OA
ATOM     72  O   UNL A   1      46.609  38.085  28.654  1.00  0.00    -0.237 OA
ATOM     73  O   UNL A   1      47.564  37.469  30.843  1.00  0.00    -0.744 OA
ENDBRANCH  69  70
ENDBRANCH  48  62
BRANCH  49  74
ATOM     74  C   UNL A   1      43.232  23.614  27.057  1.00  0.00     0.058 A 
ATOM     75  C   UNL A   1      43.035  22.690  28.095  1.00  0.00     0.135 A 
ATOM     76  C   UNL A   1      42.985  23.179  25.744  1.00  0.00     0.135 A 
ATOM     77  F   UNL A   1      43.261  23.052  29.367  1.00  0.00    -0.206 F 
ATOM     78  C   UNL A   1      42.648  21.377  27.839  1.00  0.00     0.059 A 
ATOM     79  C   UNL A   1      42.565  21.883  25.466  1.00  0.00     0.059 A 
ATOM     80  F   UNL A   1      43.143  24.025  24.714  1.00  0.00    -0.206 F 
ATOM     81  C   UNL A   1      42.419  20.983  26.520  1.00  0.00     0.060 A 
BRANCH  81  82
ATOM     82  S   UNL A   1      41.908  19.281  26.197  1.00  0.00     0.124 S 
ATOM     83  O   UNL A   1      42.291  18.621  27.439  1.00  0.00    -0.237 OA
ATOM     84  O   UNL A   1      40.474  19.430  25.968  1.00  0.00    -0.237 OA
ATOM     85  O   UNL A   1      42.688  18.915  25.018  1.00  0.00    -0.744 OA
ENDBRANCH  81  82
ENDBRANCH  49  74
BRANCH  61  86
ATOM     86  C   UNL A   1      49.443  26.729  26.413  1.00  0.00     0.058 A 
ATOM     87  C   UNL A   1      49.927  26.844  25.100  1.00  0.00     0.135 A 
ATOM     88  C   UNL A   1      50.282  26.134  27.370  1.00  0.00     0.135 A 
ATOM     89  F   UNL A   1      49.165  27.402  24.145  1.00  0.00    -0.206 F 
ATOM     90  C   UNL A   1      51.176  26.349  24.740  1.00  0.00     0.059 A 
ATOM     91  C   UNL A   1      51.550  25.664  27.040  1.00  0.00     0.059 A 
ATOM     92  F   UNL A   1      49.876  26.012  28.644  1.00  0.00    -0.206 F 
ATOM     93  C   UNL A   1      51.979  25.759  25.717  1.00  0.00     0.060 A 
BRANCH  93  94
ATOM     94  S   UNL A   1      53.600  25.128  25.238  1.00  0.00     0.124 S 
ATOM     95  O   UNL A   1      53.750  25.691  23.901  1.00  0.00    -0.237 OA
ATOM     96  O   UNL A   1      54.470  25.692  26.265  1.00  0.00    -0.237 OA
ATOM     97  O   UNL A   1      53.433  23.679  25.294  1.00  0.00    -0.744 OA
ENDBRANCH  93  94
ENDBRANCH  61  86
ENDBRANCH  35  36
ENDBRANCH  28  30
ENDBRANCH  27  28
ENDBRANCH  26  27
ENDBRANCH  25  26
ENDBRANCH  24  25
ENDBRANCH   1  24
TORSDOF 21
ENDMDL
MODEL 3
REMARK VINA RESULT:     -10.4      6.108      8.357
REMARK SMILES CC(C)(CNC(=O)[C@H]1CCC[C@H](C(=O)OCCOCCOC(=O)c2ccc(-c3c4nc(c(-c5c(F)cc(S(=O)(=O)[O-])cc5F)c5ccc([nH]5)c(-c5c(F)cc(S(=O)(=O)[O-])cc5F)c5nc(c(-c6c(F)cc(S(=O)(=O)[O-])cc6F)c6ccc3[nH]6)C=C5)C=C4)cc2)C1)S(C)(=O)=O
REMARK SMILES IDX 17 1 16 2 15 3 13 4 14 5 12 6 8 7 9 8 90 9 10 10 11 11 6 12
REMARK SMILES IDX 5 13 7 15 4 16 2 17 1 18 3 19 91 20 92 21 93 22 94 23 18 24
REMARK SMILES IDX 19 25 20 26 21 27 22 28 23 29 24 30 25 31 89 32 26 33 88 34
REMARK SMILES IDX 27 35 28 36 29 37 82 38 30 39 87 40 81 41 83 42 31 43 86 44
REMARK SMILES IDX 80 45 79 46 32 48 66 49 45 50 65 51 46 52 49 53 64 54 84 55
REMARK SMILES IDX 47 56 48 57 63 59 85 60 50 61 33 62 34 63 43 64 35 65 36 66
REMARK SMILES IDX 42 67 44 68 37 69 38 70 39 71 40 72 41 73 67 74 68 75 77 76
REMARK SMILES IDX 69 77 70 78 76 79 78 80 71 81 72 82 73 83 74 84 75 85 51 86
REMARK SMILES IDX 52 87 61 88 53 89 54 90 60 91 62 92 55 93 56 94 57 95 58 96
REMARK SMILES IDX 59 97
REMARK H PARENT 5 14 83 47 49 58
REMARK Flexibility Score: inf
ROOT
ATOM      1  C   UNL A   1      37.252  22.450  24.884  1.00  0.00     0.202 C 
ENDROOT
BRANCH   1   2
ATOM      2  C   UNL A   1      36.625  23.425  23.886  1.00  0.00     0.261 C 
BRANCH   2   3
ATOM      3  O   UNL A   1      35.456  24.101  24.395  1.00  0.00    -0.463 OA
BRANCH   3   4
ATOM      4  C   UNL A   1      34.324  23.783  23.728  1.00  0.00     0.309 C 
ATOM      5  O   UNL A   1      34.262  23.644  22.507  1.00  0.00    -0.252 OA
BRANCH   4   6
ATOM      6  C   UNL A   1      33.104  23.508  24.587  1.00  0.00     0.100 C 
ATOM      7  C   UNL A   1      31.915  24.433  26.606  1.00  0.00     0.079 C 
ATOM      8  C   UNL A   1      31.357  23.016  26.878  1.00  0.00     0.013 C 
ATOM      9  C   UNL A   1      33.250  24.285  25.897  1.00  0.00     0.028 C 
ATOM     10  C   UNL A   1      31.258  22.158  25.612  1.00  0.00     0.002 C 
ATOM     11  C   UNL A   1      32.582  22.095  24.822  1.00  0.00     0.015 C 
BRANCH   7  12
ATOM     12  C   UNL A   1      30.803  25.375  26.081  1.00  0.00     0.223 C 
ATOM     13  N   UNL A   1      30.895  26.384  25.178  1.00  0.00    -0.354 N 
ATOM     14  H   UNL A   1      30.026  26.817  25.017  1.00  0.00     0.163 HD
ATOM     15  O   UNL A   1      29.656  25.238  26.540  1.00  0.00    -0.275 OA
BRANCH  13  16
ATOM     16  C   UNL A   1      31.958  26.985  24.387  1.00  0.00     0.138 C 
BRANCH  16  17
ATOM     17  C   UNL A   1      32.043  28.539  24.343  1.00  0.00     0.084 C 
ATOM     18  C   UNL A   1      33.283  28.988  23.553  1.00  0.00     0.030 C 
ATOM     19  C   UNL A   1      30.780  29.073  23.597  1.00  0.00     0.030 C 
BRANCH  17  20
ATOM     20  S   UNL A   1      32.093  29.368  25.992  1.00  0.00     0.154 S 
ATOM     21  C   UNL A   1      33.783  29.524  26.507  1.00  0.00     0.158 C 
ATOM     22  O   UNL A   1      31.605  30.725  25.814  1.00  0.00    -0.229 OA
ATOM     23  O   UNL A   1      31.462  28.529  26.986  1.00  0.00    -0.229 OA
ENDBRANCH  17  20
ENDBRANCH  16  17
ENDBRANCH  13  16
ENDBRANCH   7  12
ENDBRANCH   4   6
ENDBRANCH   3   4
ENDBRANCH   2   3
ENDBRANCH   1   2
BRANCH   1  24
ATOM     24  O   UNL A   1      37.365  21.075  24.532  1.00  0.00    -0.374 OA
BRANCH  24  25
ATOM     25  C   UNL A   1      38.241  20.265  25.311  1.00  0.00     0.202 C 
BRANCH  25  26
ATOM     26  C   UNL A   1      39.396  20.925  26.077  1.00  0.00     0.261 C 
BRANCH  26  27
ATOM     27  O   UNL A   1      40.168  19.985  26.841  1.00  0.00    -0.460 OA
BRANCH  27  28
ATOM     28  C   UNL A   1      41.423  19.780  26.374  1.00  0.00     0.338 C 
ATOM     29  O   UNL A   1      41.822  18.835  25.708  1.00  0.00    -0.246 OA
BRANCH  28  30
ATOM     30  C   UNL A   1      42.220  21.006  26.562  1.00  0.00     0.060 A 
ATOM     31  C   UNL A   1      42.403  21.447  27.879  1.00  0.00     0.016 A 
ATOM     32  C   UNL A   1      42.744  21.726  25.488  1.00  0.00     0.016 A 
ATOM     33  C   UNL A   1      43.084  22.628  28.130  1.00  0.00     0.010 A 
ATOM     34  C   UNL A   1      43.401  22.934  25.739  1.00  0.00     0.010 A 
ATOM     35  C   UNL A   1      43.539  23.403  27.058  1.00  0.00    -0.014 A 
BRANCH  35  36
ATOM     36  C   UNL A   1      43.970  24.789  27.347  1.00  0.00     0.031 A 
ATOM     37  C   UNL A   1      45.410  25.150  27.111  1.00  0.00     0.074 A 
ATOM     38  C   UNL A   1      43.067  25.723  27.693  1.00  0.00     0.049 A 
ATOM     39  N   UNL A   1      46.007  26.305  27.249  1.00  0.00    -0.248 NA
ATOM     40  C   UNL A   1      46.296  24.067  26.651  1.00  0.00     0.031 C 
ATOM     41  C   UNL A   1      41.637  25.483  27.889  1.00  0.00     0.029 A 
ATOM     42  N   UNL A   1      43.219  27.065  27.926  1.00  0.00    -0.354 N 
ATOM     43  C   UNL A   1      47.330  26.091  26.880  1.00  0.00     0.074 A 
ATOM     44  C   UNL A   1      47.463  24.688  26.559  1.00  0.00     0.031 C 
ATOM     45  C   UNL A   1      41.044  26.641  28.226  1.00  0.00     0.029 A 
ATOM     46  C   UNL A   1      42.054  27.694  28.294  1.00  0.00     0.049 A 
ATOM     47  H   UNL A   1      44.080  27.533  27.839  1.00  0.00     0.167 HD
ATOM     48  C   UNL A   1      48.337  26.992  26.798  1.00  0.00     0.037 A 
ATOM     49  C   UNL A   1      41.840  28.971  28.666  1.00  0.00     0.037 A 
ATOM     50  C   UNL A   1      48.191  28.385  27.127  1.00  0.00     0.049 A 
ATOM     51  C   UNL A   1      42.999  29.936  28.647  1.00  0.00     0.074 A 
ATOM     52  C   UNL A   1      49.149  29.381  27.104  1.00  0.00     0.029 A 
ATOM     53  N   UNL A   1      47.005  28.981  27.537  1.00  0.00    -0.354 N 
ATOM     54  N   UNL A   1      44.247  29.721  28.299  1.00  0.00    -0.248 NA
ATOM     55  C   UNL A   1      42.719  31.318  29.058  1.00  0.00     0.031 C 
ATOM     56  C   UNL A   1      48.556  30.568  27.546  1.00  0.00     0.029 A 
ATOM     57  C   UNL A   1      47.212  30.327  27.786  1.00  0.00     0.049 A 
ATOM     58  H   UNL A   1      46.144  28.513  27.636  1.00  0.00     0.167 HD
ATOM     59  C   UNL A   1      44.893  30.947  28.424  1.00  0.00     0.074 A 
ATOM     60  C   UNL A   1      43.893  31.900  28.855  1.00  0.00     0.031 C 
ATOM     61  C   UNL A   1      46.196  31.258  28.207  1.00  0.00     0.037 A 
BRANCH  48  62
ATOM     62  C   UNL A   1      49.683  26.498  26.345  1.00  0.00     0.058 A 
ATOM     63  C   UNL A   1      50.131  26.683  25.026  1.00  0.00     0.135 A 
ATOM     64  C   UNL A   1      50.559  25.878  27.250  1.00  0.00     0.135 A 
ATOM     65  F   UNL A   1      49.326  27.247  24.112  1.00  0.00    -0.206 F 
ATOM     66  C   UNL A   1      51.394  26.263  24.620  1.00  0.00     0.059 A 
ATOM     67  C   UNL A   1      51.838  25.476  26.873  1.00  0.00     0.059 A 
ATOM     68  F   UNL A   1      50.180  25.666  28.520  1.00  0.00    -0.206 F 
ATOM     69  C   UNL A   1      52.244  25.668  25.553  1.00  0.00     0.060 A 
BRANCH  69  70
ATOM     70  S   UNL A   1      53.893  25.165  25.019  1.00  0.00     0.124 S 
ATOM     71  O   UNL A   1      54.715  25.627  26.132  1.00  0.00    -0.237 OA
ATOM     72  O   UNL A   1      53.749  23.718  24.893  1.00  0.00    -0.237 OA
ATOM     73  O   UNL A   1      54.079  25.884  23.762  1.00  0.00    -0.744 OA
ENDBRANCH  69  70
ENDBRANCH  48  62
BRANCH  49  74
ATOM     74  C   UNL A   1      40.491  29.403  29.125  1.00  0.00     0.058 A 
ATOM     75  C   UNL A   1      39.452  29.665  28.218  1.00  0.00     0.135 A 
ATOM     76  C   UNL A   1      40.225  29.594  30.491  1.00  0.00     0.135 A 
ATOM     77  F   UNL A   1      39.655  29.504  26.901  1.00  0.00    -0.206 F 
ATOM     78  C   UNL A   1      38.214  30.137  28.644  1.00  0.00     0.059 A 
ATOM     79  C   UNL A   1      38.985  30.031  30.943  1.00  0.00     0.059 A 
ATOM     80  F   UNL A   1      41.176  29.344  31.404  1.00  0.00    -0.206 F 
ATOM     81  C   UNL A   1      37.991  30.319  30.010  1.00  0.00     0.060 A 
BRANCH  81  82
ATOM     82  S   UNL A   1      36.379  30.921  30.556  1.00  0.00     0.124 S 
ATOM     83  O   UNL A   1      35.587  30.779  29.340  1.00  0.00    -0.237 OA
ATOM     84  O   UNL A   1      36.057  29.997  31.639  1.00  0.00    -0.237 OA
ATOM     85  O   UNL A   1      36.657  32.292  30.974  1.00  0.00    -0.744 OA
ENDBRANCH  81  82
ENDBRANCH  49  74
BRANCH  61  86
ATOM     86  C   UNL A   1      46.600  32.695  28.396  1.00  0.00     0.058 A 
ATOM     87  C   UNL A   1      47.107  33.169  29.616  1.00  0.00     0.135 A 
ATOM     88  C   UNL A   1      46.505  33.605  27.330  1.00  0.00     0.135 A 
ATOM     89  F   UNL A   1      47.217  32.342  30.669  1.00  0.00    -0.206 F 
ATOM     90  C   UNL A   1      47.464  34.502  29.786  1.00  0.00     0.059 A 
ATOM     91  C   UNL A   1      46.890  34.935  27.467  1.00  0.00     0.059 A 
ATOM     92  F   UNL A   1      46.042  33.203  26.135  1.00  0.00    -0.206 F 
ATOM     93  C   UNL A   1      47.351  35.378  28.706  1.00  0.00     0.060 A 
BRANCH  93  94
ATOM     94  S   UNL A   1      47.825  37.103  28.938  1.00  0.00     0.124 S 
ATOM     95  O   UNL A   1      46.996  37.772  27.941  1.00  0.00    -0.237 OA
ATOM     96  O   UNL A   1      47.460  37.343  30.330  1.00  0.00    -0.237 OA
ATOM     97  O   UNL A   1      49.259  37.103  28.664  1.00  0.00    -0.744 OA
ENDBRANCH  93  94
ENDBRANCH  61  86
ENDBRANCH  35  36
ENDBRANCH  28  30
ENDBRANCH  27  28
ENDBRANCH  26  27
ENDBRANCH  25  26
ENDBRANCH  24  25
ENDBRANCH   1  24
TORSDOF 21
ENDMDL
