MODEL 1
REMARK VINA RESULT:     -10.3      0.000      0.000
REMARK SMILES C[C@@H]1SCCC[C@@]1(CC(=O)OCCOCCOC(=O)c1ccc(-c2c3nc(c(-c4c(F)cc(S(=O)(=O)[O-])cc4F)c4ccc([nH]4)c(-c4c(F)cc(S(=O)(=O)[O-])cc4F)c4nc(c(-c5c(F)cc(S(=O)(=O)[O-])cc5F)c5ccc2[nH]5)C=C4)C=C3)cc1)[NH+]1CCCC1
REMARK SMILES IDX 15 1 14 2 13 3 12 4 11 5 9 6 10 7 8 8 7 9 1 10 2 11 3 12
REMARK SMILES IDX 4 13 6 14 5 15 86 16 87 17 90 18 88 20 89 21 16 22 17 23
REMARK SMILES IDX 18 24 19 25 20 26 21 27 85 28 22 29 84 30 23 31 24 32 25 33
REMARK SMILES IDX 78 34 26 35 83 36 77 37 79 38 27 39 82 40 76 41 75 42 28 44
REMARK SMILES IDX 62 45 41 46 61 47 42 48 45 49 60 50 80 51 43 52 44 53 59 55
REMARK SMILES IDX 81 56 46 57 29 58 30 59 39 60 31 61 32 62 38 63 40 64 33 65
REMARK SMILES IDX 34 66 35 67 36 68 37 69 63 70 64 71 73 72 65 73 66 74 72 75
REMARK SMILES IDX 74 76 67 77 68 78 69 79 70 80 71 81 47 82 48 83 57 84 49 85
REMARK SMILES IDX 50 86 56 87 58 88 51 89 52 90 53 91 54 92 55 93
REMARK H PARENT 86 19 79 43 45 54
REMARK Flexibility Score: inf
ROOT
ATOM      1  C   UNL A   1      38.991  21.928  26.067  1.00  0.00     0.202 C 
ENDROOT
BRANCH   1   2
ATOM      2  O   UNL A   1      37.670  22.360  25.759  1.00  0.00    -0.374 OA
BRANCH   2   3
ATOM      3  C   UNL A   1      37.107  21.785  24.575  1.00  0.00     0.202 C 
BRANCH   3   4
ATOM      4  C   UNL A   1      35.728  21.137  24.752  1.00  0.00     0.261 C 
BRANCH   4   5
ATOM      5  O   UNL A   1      34.652  22.097  24.671  1.00  0.00    -0.463 OA
BRANCH   5   6
ATOM      6  C   UNL A   1      33.472  21.821  25.280  1.00  0.00     0.312 C 
ATOM      7  O   UNL A   1      33.356  21.166  26.309  1.00  0.00    -0.252 OA
BRANCH   6   8
ATOM      8  C   UNL A   1      32.275  22.343  24.496  1.00  0.00     0.192 C 
BRANCH   8   9
ATOM      9  C   UNL A   1      31.971  23.903  24.469  1.00  0.00     0.120 C 
ATOM     10  C   UNL A   1      30.498  23.445  26.642  1.00  0.00     0.026 C 
ATOM     11  C   UNL A   1      31.526  24.355  25.940  1.00  0.00     0.105 C 
ATOM     12  S   UNL A   1      30.817  26.046  26.096  1.00  0.00    -0.152 SA
ATOM     13  C   UNL A   1      29.522  25.942  24.841  1.00  0.00     0.070 C 
ATOM     14  C   UNL A   1      30.740  24.067  23.519  1.00  0.00     0.071 C 
ATOM     15  C   UNL A   1      30.008  25.413  23.501  1.00  0.00     0.017 C 
BRANCH   9  16
ATOM     16  N   UNL A   1      33.169  24.627  23.943  1.00  0.00    -0.329 N 
ATOM     17  C   UNL A   1      33.995  25.519  24.748  1.00  0.00     0.262 C 
ATOM     18  C   UNL A   1      33.117  25.255  22.614  1.00  0.00     0.262 C 
ATOM     19  H   UNL A   1      33.616  23.710  23.942  1.00  0.00     0.348 HD
ATOM     20  C   UNL A   1      33.791  26.929  24.209  1.00  0.00     0.067 C 
ATOM     21  C   UNL A   1      33.325  26.748  22.785  1.00  0.00     0.067 C 
ENDBRANCH   9  16
ENDBRANCH   8   9
ENDBRANCH   6   8
ENDBRANCH   5   6
ENDBRANCH   4   5
ENDBRANCH   3   4
ENDBRANCH   2   3
ENDBRANCH   1   2
BRANCH   1  22
ATOM     22  C   UNL A   1      39.892  22.966  26.742  1.00  0.00     0.261 C 
BRANCH  22  23
ATOM     23  O   UNL A   1      39.347  24.290  26.611  1.00  0.00    -0.460 OA
BRANCH  23  24
ATOM     24  C   UNL A   1      40.263  25.263  26.429  1.00  0.00     0.338 C 
ATOM     25  O   UNL A   1      40.797  25.587  25.375  1.00  0.00    -0.246 OA
BRANCH  24  26
ATOM     26  C   UNL A   1      40.437  26.031  27.675  1.00  0.00     0.060 A 
ATOM     27  C   UNL A   1      39.440  25.901  28.649  1.00  0.00     0.016 A 
ATOM     28  C   UNL A   1      41.507  26.908  27.871  1.00  0.00     0.016 A 
ATOM     29  C   UNL A   1      39.467  26.703  29.786  1.00  0.00     0.010 A 
ATOM     30  C   UNL A   1      41.542  27.703  29.022  1.00  0.00     0.010 A 
ATOM     31  C   UNL A   1      40.495  27.640  29.957  1.00  0.00    -0.014 A 
BRANCH  31  32
ATOM     32  C   UNL A   1      40.369  28.669  31.020  1.00  0.00     0.031 A 
ATOM     33  C   UNL A   1      41.280  28.590  32.217  1.00  0.00     0.074 A 
ATOM     34  C   UNL A   1      39.497  29.686  30.894  1.00  0.00     0.049 A 
ATOM     35  N   UNL A   1      41.339  29.366  33.267  1.00  0.00    -0.248 NA
ATOM     36  C   UNL A   1      42.254  27.485  32.233  1.00  0.00     0.031 C 
ATOM     37  C   UNL A   1      38.592  29.887  29.763  1.00  0.00     0.029 A 
ATOM     38  N   UNL A   1      39.230  30.740  31.730  1.00  0.00    -0.354 N 
ATOM     39  C   UNL A   1      42.346  28.840  34.071  1.00  0.00     0.074 A 
ATOM     40  C   UNL A   1      42.842  27.656  33.407  1.00  0.00     0.031 C 
ATOM     41  C   UNL A   1      37.868  30.999  29.977  1.00  0.00     0.029 A 
ATOM     42  C   UNL A   1      38.233  31.569  31.272  1.00  0.00     0.049 A 
ATOM     43  H   UNL A   1      39.708  30.891  32.577  1.00  0.00     0.167 HD
ATOM     44  C   UNL A   1      42.821  29.310  35.249  1.00  0.00     0.037 A 
ATOM     45  C   UNL A   1      37.668  32.651  31.843  1.00  0.00     0.037 A 
ATOM     46  C   UNL A   1      42.327  30.497  35.897  1.00  0.00     0.049 A 
ATOM     47  C   UNL A   1      38.172  33.121  33.184  1.00  0.00     0.074 A 
ATOM     48  C   UNL A   1      42.753  31.070  37.082  1.00  0.00     0.029 A 
ATOM     49  N   UNL A   1      41.298  31.292  35.416  1.00  0.00    -0.354 N 
ATOM     50  N   UNL A   1      39.137  32.624  33.924  1.00  0.00    -0.248 NA
ATOM     51  C   UNL A   1      37.518  34.301  33.766  1.00  0.00     0.031 C 
ATOM     52  C   UNL A   1      41.944  32.179  37.345  1.00  0.00     0.029 A 
ATOM     53  C   UNL A   1      41.055  32.336  36.293  1.00  0.00     0.049 A 
ATOM     54  H   UNL A   1      40.810  31.137  34.575  1.00  0.00     0.167 HD
ATOM     55  C   UNL A   1      39.225  33.450  35.041  1.00  0.00     0.074 A 
ATOM     56  C   UNL A   1      38.223  34.482  34.874  1.00  0.00     0.031 C 
ATOM     57  C   UNL A   1      40.060  33.363  36.106  1.00  0.00     0.037 A 
BRANCH  44  58
ATOM     58  C   UNL A   1      43.916  28.528  35.924  1.00  0.00     0.058 A 
ATOM     59  C   UNL A   1      45.273  28.838  35.739  1.00  0.00     0.135 A 
ATOM     60  C   UNL A   1      43.600  27.473  36.796  1.00  0.00     0.135 A 
ATOM     61  F   UNL A   1      45.633  29.824  34.902  1.00  0.00    -0.206 F 
ATOM     62  C   UNL A   1      46.277  28.114  36.374  1.00  0.00     0.059 A 
ATOM     63  C   UNL A   1      44.587  26.756  37.465  1.00  0.00     0.059 A 
ATOM     64  F   UNL A   1      42.320  27.130  37.008  1.00  0.00    -0.206 F 
ATOM     65  C   UNL A   1      45.925  27.075  37.237  1.00  0.00     0.060 A 
BRANCH  65  66
ATOM     66  S   UNL A   1      47.240  26.154  38.060  1.00  0.00     0.124 S 
ATOM     67  O   UNL A   1      46.930  24.783  37.662  1.00  0.00    -0.237 OA
ATOM     68  O   UNL A   1      48.443  26.729  37.468  1.00  0.00    -0.237 OA
ATOM     69  O   UNL A   1      47.036  26.456  39.474  1.00  0.00    -0.744 OA
ENDBRANCH  65  66
ENDBRANCH  44  58
BRANCH  45  70
ATOM     70  C   UNL A   1      36.555  33.360  31.156  1.00  0.00     0.058 A 
ATOM     71  C   UNL A   1      35.235  33.270  31.623  1.00  0.00     0.135 A 
ATOM     72  C   UNL A   1      36.791  34.144  30.016  1.00  0.00     0.135 A 
ATOM     73  F   UNL A   1      34.956  32.525  32.703  1.00  0.00    -0.206 F 
ATOM     74  C   UNL A   1      34.187  33.916  30.976  1.00  0.00     0.059 A 
ATOM     75  C   UNL A   1      35.763  34.824  29.368  1.00  0.00     0.059 A 
ATOM     76  F   UNL A   1      38.037  34.275  29.534  1.00  0.00    -0.206 F 
ATOM     77  C   UNL A   1      34.462  34.694  29.850  1.00  0.00     0.060 A 
BRANCH  77  78
ATOM     78  S   UNL A   1      33.101  35.567  29.045  1.00  0.00     0.124 S 
ATOM     79  O   UNL A   1      33.808  36.637  28.350  1.00  0.00    -0.237 OA
ATOM     80  O   UNL A   1      32.527  34.525  28.199  1.00  0.00    -0.237 OA
ATOM     81  O   UNL A   1      32.263  35.986  30.164  1.00  0.00    -0.744 OA
ENDBRANCH  77  78
ENDBRANCH  45  70
BRANCH  57  82
ATOM     82  C   UNL A   1      39.960  34.434  37.158  1.00  0.00     0.058 A 
ATOM     83  C   UNL A   1      39.057  34.343  38.228  1.00  0.00     0.135 A 
ATOM     84  C   UNL A   1      40.827  35.541  37.126  1.00  0.00     0.135 A 
ATOM     85  F   UNL A   1      38.202  33.309  38.304  1.00  0.00    -0.206 F 
ATOM     86  C   UNL A   1      38.996  35.322  39.214  1.00  0.00     0.059 A 
ATOM     87  C   UNL A   1      40.805  36.515  38.118  1.00  0.00     0.059 A 
ATOM     88  F   UNL A   1      41.720  35.671  36.132  1.00  0.00    -0.206 F 
ATOM     89  C   UNL A   1      39.879  36.403  39.153  1.00  0.00     0.060 A 
BRANCH  89  90
ATOM     90  S   UNL A   1      39.812  37.649  40.458  1.00  0.00     0.124 S 
ATOM     91  O   UNL A   1      40.586  38.735  39.869  1.00  0.00    -0.237 OA
ATOM     92  O   UNL A   1      38.377  37.888  40.586  1.00  0.00    -0.237 OA
ATOM     93  O   UNL A   1      40.433  36.980  41.598  1.00  0.00    -0.744 OA
ENDBRANCH  89  90
ENDBRANCH  57  82
ENDBRANCH  31  32
ENDBRANCH  24  26
ENDBRANCH  23  24
ENDBRANCH  22  23
ENDBRANCH   1  22
TORSDOF 19
ENDMDL
MODEL 2
REMARK VINA RESULT:     -10.3      3.660      9.577
REMARK SMILES C[C@@H]1SCCC[C@@]1(CC(=O)OCCOCCOC(=O)c1ccc(-c2c3nc(c(-c4c(F)cc(S(=O)(=O)[O-])cc4F)c4ccc([nH]4)c(-c4c(F)cc(S(=O)(=O)[O-])cc4F)c4nc(c(-c5c(F)cc(S(=O)(=O)[O-])cc5F)c5ccc2[nH]5)C=C4)C=C3)cc1)[NH+]1CCCC1
REMARK SMILES IDX 15 1 14 2 13 3 12 4 11 5 9 6 10 7 8 8 7 9 1 10 2 11 3 12
REMARK SMILES IDX 4 13 6 14 5 15 86 16 87 17 90 18 88 20 89 21 16 22 17 23
REMARK SMILES IDX 18 24 19 25 20 26 21 27 85 28 22 29 84 30 23 31 24 32 25 33
REMARK SMILES IDX 78 34 26 35 83 36 77 37 79 38 27 39 82 40 76 41 75 42 28 44
REMARK SMILES IDX 62 45 41 46 61 47 42 48 45 49 60 50 80 51 43 52 44 53 59 55
REMARK SMILES IDX 81 56 46 57 29 58 30 59 39 60 31 61 32 62 38 63 40 64 33 65
REMARK SMILES IDX 34 66 35 67 36 68 37 69 63 70 64 71 73 72 65 73 66 74 72 75
REMARK SMILES IDX 74 76 67 77 68 78 69 79 70 80 71 81 47 82 48 83 57 84 49 85
REMARK SMILES IDX 50 86 56 87 58 88 51 89 52 90 53 91 54 92 55 93
REMARK H PARENT 86 19 79 43 45 54
REMARK Flexibility Score: inf
ROOT
ATOM      1  C   UNL A   1      31.667  30.066  25.557  1.00  0.00     0.202 C 
ENDROOT
BRANCH   1   2
ATOM      2  O   UNL A   1      31.683  28.702  25.151  1.00  0.00    -0.374 OA
BRANCH   2   3
ATOM      3  C   UNL A   1      31.387  27.759  26.186  1.00  0.00     0.202 C 
BRANCH   3   4
ATOM      4  C   UNL A   1      30.722  26.458  25.718  1.00  0.00     0.261 C 
BRANCH   4   5
ATOM      5  O   UNL A   1      30.634  25.474  26.772  1.00  0.00    -0.463 OA
BRANCH   5   6
ATOM      6  C   UNL A   1      31.055  24.207  26.530  1.00  0.00     0.312 C 
ATOM      7  O   UNL A   1      30.966  23.280  27.326  1.00  0.00    -0.252 OA
BRANCH   6   8
ATOM      8  C   UNL A   1      31.740  24.070  25.177  1.00  0.00     0.192 C 
BRANCH   8   9
ATOM      9  C   UNL A   1      33.094  23.245  25.060  1.00  0.00     0.120 C 
ATOM     10  C   UNL A   1      34.302  25.531  25.704  1.00  0.00     0.026 C 
ATOM     11  C   UNL A   1      34.222  24.004  25.906  1.00  0.00     0.105 C 
ATOM     12  S   UNL A   1      35.952  23.423  25.671  1.00  0.00    -0.152 SA
ATOM     13  C   UNL A   1      36.060  23.535  23.871  1.00  0.00     0.070 C 
ATOM     14  C   UNL A   1      33.492  23.317  23.550  1.00  0.00     0.071 C 
ATOM     15  C   UNL A   1      34.901  22.871  23.144  1.00  0.00     0.017 C 
BRANCH   9  16
ATOM     16  N   UNL A   1      32.849  21.835  25.494  1.00  0.00    -0.329 N 
ATOM     17  C   UNL A   1      33.880  20.968  26.051  1.00  0.00     0.262 C 
ATOM     18  C   UNL A   1      32.016  20.950  24.666  1.00  0.00     0.262 C 
ATOM     19  H   UNL A   1      32.344  22.255  26.276  1.00  0.00     0.348 HD
ATOM     20  C   UNL A   1      34.131  19.859  25.038  1.00  0.00     0.067 C 
ATOM     21  C   UNL A   1      32.870  19.781  24.212  1.00  0.00     0.067 C 
ENDBRANCH   9  16
ENDBRANCH   8   9
ENDBRANCH   6   8
ENDBRANCH   5   6
ENDBRANCH   4   5
ENDBRANCH   3   4
ENDBRANCH   2   3
ENDBRANCH   1   2
BRANCH   1  22
ATOM     22  C   UNL A   1      32.357  30.374  26.888  1.00  0.00     0.261 C 
BRANCH  22  23
ATOM     23  O   UNL A   1      33.786  30.271  26.768  1.00  0.00    -0.460 OA
BRANCH  23  24
ATOM     24  C   UNL A   1      34.482  31.058  27.614  1.00  0.00     0.338 C 
ATOM     25  O   UNL A   1      34.113  32.114  28.114  1.00  0.00    -0.246 OA
BRANCH  24  26
ATOM     26  C   UNL A   1      35.735  30.388  28.011  1.00  0.00     0.060 A 
ATOM     27  C   UNL A   1      35.741  29.728  29.245  1.00  0.00     0.016 A 
ATOM     28  C   UNL A   1      36.896  30.454  27.238  1.00  0.00     0.016 A 
ATOM     29  C   UNL A   1      36.926  29.197  29.746  1.00  0.00     0.010 A 
ATOM     30  C   UNL A   1      38.084  29.906  27.735  1.00  0.00     0.010 A 
ATOM     31  C   UNL A   1      38.113  29.322  29.013  1.00  0.00    -0.014 A 
BRANCH  31  32
ATOM     32  C   UNL A   1      39.407  29.004  29.669  1.00  0.00     0.031 A 
ATOM     33  C   UNL A   1      39.821  29.799  30.880  1.00  0.00     0.074 A 
ATOM     34  C   UNL A   1      40.171  27.989  29.227  1.00  0.00     0.049 A 
ATOM     35  N   UNL A   1      40.907  29.706  31.601  1.00  0.00    -0.248 NA
ATOM     36  C   UNL A   1      38.886  30.841  31.336  1.00  0.00     0.031 C 
ATOM     37  C   UNL A   1      39.854  27.125  28.090  1.00  0.00     0.029 A 
ATOM     38  N   UNL A   1      41.374  27.514  29.684  1.00  0.00    -0.354 N 
ATOM     39  C   UNL A   1      40.791  30.681  32.587  1.00  0.00     0.074 A 
ATOM     40  C   UNL A   1      39.548  31.380  32.347  1.00  0.00     0.031 C 
ATOM     41  C   UNL A   1      40.840  26.225  27.938  1.00  0.00     0.029 A 
ATOM     42  C   UNL A   1      41.872  26.468  28.943  1.00  0.00     0.049 A 
ATOM     43  H   UNL A   1      41.837  27.885  30.470  1.00  0.00     0.167 HD
ATOM     44  C   UNL A   1      41.637  30.958  33.607  1.00  0.00     0.037 A 
ATOM     45  C   UNL A   1      43.037  25.799  29.054  1.00  0.00     0.037 A 
ATOM     46  C   UNL A   1      42.867  30.248  33.845  1.00  0.00     0.049 A 
ATOM     47  C   UNL A   1      43.992  26.165  30.161  1.00  0.00     0.074 A 
ATOM     48  C   UNL A   1      43.787  30.437  34.861  1.00  0.00     0.029 A 
ATOM     49  N   UNL A   1      43.350  29.215  33.055  1.00  0.00    -0.354 N 
ATOM     50  N   UNL A   1      43.861  27.077  31.097  1.00  0.00    -0.248 NA
ATOM     51  C   UNL A   1      45.250  25.409  30.233  1.00  0.00     0.031 C 
ATOM     52  C   UNL A   1      44.853  29.556  34.654  1.00  0.00     0.029 A 
ATOM     53  C   UNL A   1      44.569  28.774  33.546  1.00  0.00     0.049 A 
ATOM     54  H   UNL A   1      42.896  28.850  32.262  1.00  0.00     0.167 HD
ATOM     55  C   UNL A   1      45.003  26.980  31.886  1.00  0.00     0.074 A 
ATOM     56  C   UNL A   1      45.809  25.917  31.323  1.00  0.00     0.031 C 
ATOM     57  C   UNL A   1      45.353  27.705  32.978  1.00  0.00     0.037 A 
BRANCH  44  58
ATOM     58  C   UNL A   1      41.273  32.089  34.531  1.00  0.00     0.058 A 
ATOM     59  C   UNL A   1      40.430  31.902  35.638  1.00  0.00     0.135 A 
ATOM     60  C   UNL A   1      41.804  33.373  34.324  1.00  0.00     0.135 A 
ATOM     61  F   UNL A   1      39.879  30.701  35.874  1.00  0.00    -0.206 F 
ATOM     62  C   UNL A   1      40.106  32.953  36.492  1.00  0.00     0.059 A 
ATOM     63  C   UNL A   1      41.518  34.431  35.183  1.00  0.00     0.059 A 
ATOM     64  F   UNL A   1      42.613  33.611  33.280  1.00  0.00    -0.206 F 
ATOM     65  C   UNL A   1      40.655  34.214  36.257  1.00  0.00     0.060 A 
BRANCH  65  66
ATOM     66  S   UNL A   1      40.233  35.562  37.379  1.00  0.00     0.124 S 
ATOM     67  O   UNL A   1      39.730  36.569  36.449  1.00  0.00    -0.237 OA
ATOM     68  O   UNL A   1      39.235  34.946  38.247  1.00  0.00    -0.237 OA
ATOM     69  O   UNL A   1      41.505  35.883  38.021  1.00  0.00    -0.744 OA
ENDBRANCH  65  66
ENDBRANCH  44  58
BRANCH  45  70
ATOM     70  C   UNL A   1      43.371  24.720  28.084  1.00  0.00     0.058 A 
ATOM     71  C   UNL A   1      42.977  23.393  28.307  1.00  0.00     0.135 A 
ATOM     72  C   UNL A   1      44.095  24.998  26.913  1.00  0.00     0.135 A 
ATOM     73  F   UNL A   1      42.293  23.074  29.415  1.00  0.00    -0.206 F 
ATOM     74  C   UNL A   1      43.301  22.376  27.414  1.00  0.00     0.059 A 
ATOM     75  C   UNL A   1      44.406  24.004  25.991  1.00  0.00     0.059 A 
ATOM     76  F   UNL A   1      44.487  26.254  26.645  1.00  0.00    -0.206 F 
ATOM     77  C   UNL A   1      44.014  22.693  26.256  1.00  0.00     0.060 A 
BRANCH  77  78
ATOM     78  S   UNL A   1      44.389  21.375  25.080  1.00  0.00     0.124 S 
ATOM     79  O   UNL A   1      45.757  21.032  25.449  1.00  0.00    -0.237 OA
ATOM     80  O   UNL A   1      43.371  20.380  25.402  1.00  0.00    -0.237 OA
ATOM     81  O   UNL A   1      44.229  22.027  23.783  1.00  0.00    -0.744 OA
ENDBRANCH  77  78
ENDBRANCH  45  70
BRANCH  57  82
ATOM     82  C   UNL A   1      46.642  27.348  33.667  1.00  0.00     0.058 A 
ATOM     83  C   UNL A   1      46.699  26.379  34.680  1.00  0.00     0.135 A 
ATOM     84  C   UNL A   1      47.850  27.944  33.264  1.00  0.00     0.135 A 
ATOM     85  F   UNL A   1      45.574  25.782  35.108  1.00  0.00    -0.206 F 
ATOM     86  C   UNL A   1      47.901  26.031  35.288  1.00  0.00     0.059 A 
ATOM     87  C   UNL A   1      49.067  27.589  33.835  1.00  0.00     0.059 A 
ATOM     88  F   UNL A   1      47.855  28.868  32.289  1.00  0.00    -0.206 F 
ATOM     89  C   UNL A   1      49.082  26.640  34.854  1.00  0.00     0.060 A 
BRANCH  89  90
ATOM     90  S   UNL A   1      50.639  26.154  35.628  1.00  0.00     0.124 S 
ATOM     91  O   UNL A   1      51.049  27.397  36.270  1.00  0.00    -0.237 OA
ATOM     92  O   UNL A   1      50.219  25.084  36.528  1.00  0.00    -0.237 OA
ATOM     93  O   UNL A   1      51.462  25.729  34.499  1.00  0.00    -0.744 OA
ENDBRANCH  89  90
ENDBRANCH  57  82
ENDBRANCH  31  32
ENDBRANCH  24  26
ENDBRANCH  23  24
ENDBRANCH  22  23
ENDBRANCH   1  22
TORSDOF 19
ENDMDL
MODEL 3
REMARK VINA RESULT:     -10.3      1.153      2.370
REMARK SMILES C[C@@H]1SCCC[C@@]1(CC(=O)OCCOCCOC(=O)c1ccc(-c2c3nc(c(-c4c(F)cc(S(=O)(=O)[O-])cc4F)c4ccc([nH]4)c(-c4c(F)cc(S(=O)(=O)[O-])cc4F)c4nc(c(-c5c(F)cc(S(=O)(=O)[O-])cc5F)c5ccc2[nH]5)C=C4)C=C3)cc1)[NH+]1CCCC1
REMARK SMILES IDX 15 1 14 2 13 3 12 4 11 5 9 6 10 7 8 8 7 9 1 10 2 11 3 12
REMARK SMILES IDX 4 13 6 14 5 15 86 16 87 17 90 18 88 20 89 21 16 22 17 23
REMARK SMILES IDX 18 24 19 25 20 26 21 27 85 28 22 29 84 30 23 31 24 32 25 33
REMARK SMILES IDX 78 34 26 35 83 36 77 37 79 38 27 39 82 40 76 41 75 42 28 44
REMARK SMILES IDX 62 45 41 46 61 47 42 48 45 49 60 50 80 51 43 52 44 53 59 55
REMARK SMILES IDX 81 56 46 57 29 58 30 59 39 60 31 61 32 62 38 63 40 64 33 65
REMARK SMILES IDX 34 66 35 67 36 68 37 69 63 70 64 71 73 72 65 73 66 74 72 75
REMARK SMILES IDX 74 76 67 77 68 78 69 79 70 80 71 81 47 82 48 83 57 84 49 85
REMARK SMILES IDX 50 86 56 87 58 88 51 89 52 90 53 91 54 92 55 93
REMARK H PARENT 86 19 79 43 45 54
REMARK Flexibility Score: inf
ROOT
ATOM      1  C   UNL A   1      39.745  21.835  26.478  1.00  0.00     0.202 C 
ENDROOT
BRANCH   1   2
ATOM      2  O   UNL A   1      38.674  22.743  26.246  1.00  0.00    -0.374 OA
BRANCH   2   3
ATOM      3  C   UNL A   1      37.634  22.247  25.396  1.00  0.00     0.202 C 
BRANCH   3   4
ATOM      4  C   UNL A   1      36.996  23.286  24.465  1.00  0.00     0.261 C 
BRANCH   4   5
ATOM      5  O   UNL A   1      36.145  24.214  25.174  1.00  0.00    -0.463 OA
BRANCH   5   6
ATOM      6  C   UNL A   1      34.808  24.189  24.949  1.00  0.00     0.312 C 
ATOM      7  O   UNL A   1      34.064  23.272  25.273  1.00  0.00    -0.252 OA
BRANCH   6   8
ATOM      8  C   UNL A   1      34.328  25.400  24.160  1.00  0.00     0.192 C 
BRANCH   8   9
ATOM      9  C   UNL A   1      33.095  26.250  24.694  1.00  0.00     0.120 C 
ATOM     10  C   UNL A   1      34.164  28.275  23.330  1.00  0.00     0.026 C 
ATOM     11  C   UNL A   1      32.886  27.503  23.717  1.00  0.00     0.105 C 
ATOM     12  S   UNL A   1      31.725  28.808  24.298  1.00  0.00    -0.152 SA
ATOM     13  C   UNL A   1      32.442  29.141  25.922  1.00  0.00     0.070 C 
ATOM     14  C   UNL A   1      33.540  26.793  26.090  1.00  0.00     0.071 C 
ATOM     15  C   UNL A   1      32.697  27.890  26.749  1.00  0.00     0.017 C 
BRANCH   9  16
ATOM     16  N   UNL A   1      31.899  25.360  24.809  1.00  0.00    -0.329 N 
ATOM     17  C   UNL A   1      30.887  25.222  23.768  1.00  0.00     0.262 C 
ATOM     18  C   UNL A   1      31.150  25.302  26.074  1.00  0.00     0.262 C 
ATOM     19  H   UNL A   1      32.565  24.594  24.695  1.00  0.00     0.348 HD
ATOM     20  C   UNL A   1      29.600  25.830  24.308  1.00  0.00     0.067 C 
ATOM     21  C   UNL A   1      29.734  25.777  25.811  1.00  0.00     0.067 C 
ENDBRANCH   9  16
ENDBRANCH   8   9
ENDBRANCH   6   8
ENDBRANCH   5   6
ENDBRANCH   4   5
ENDBRANCH   3   4
ENDBRANCH   2   3
ENDBRANCH   1   2
BRANCH   1  22
ATOM     22  C   UNL A   1      41.139  22.333  26.087  1.00  0.00     0.261 C 
BRANCH  22  23
ATOM     23  O   UNL A   1      41.649  23.263  27.058  1.00  0.00    -0.460 OA
BRANCH  23  24
ATOM     24  C   UNL A   1      42.028  24.455  26.554  1.00  0.00     0.338 C 
ATOM     25  O   UNL A   1      42.585  24.660  25.482  1.00  0.00    -0.246 OA
BRANCH  24  26
ATOM     26  C   UNL A   1      41.527  25.547  27.409  1.00  0.00     0.060 A 
ATOM     27  C   UNL A   1      42.291  26.718  27.459  1.00  0.00     0.016 A 
ATOM     28  C   UNL A   1      40.381  25.415  28.197  1.00  0.00     0.016 A 
ATOM     29  C   UNL A   1      41.955  27.732  28.352  1.00  0.00     0.010 A 
ATOM     30  C   UNL A   1      40.034  26.441  29.083  1.00  0.00     0.010 A 
ATOM     31  C   UNL A   1      40.850  27.580  29.200  1.00  0.00    -0.014 A 
BRANCH  31  32
ATOM     32  C   UNL A   1      40.664  28.529  30.326  1.00  0.00     0.031 A 
ATOM     33  C   UNL A   1      41.552  28.402  31.536  1.00  0.00     0.074 A 
ATOM     34  C   UNL A   1      39.759  29.521  30.248  1.00  0.00     0.049 A 
ATOM     35  N   UNL A   1      41.560  29.106  32.638  1.00  0.00    -0.248 NA
ATOM     36  C   UNL A   1      42.565  27.333  31.502  1.00  0.00     0.031 C 
ATOM     37  C   UNL A   1      38.872  29.767  29.111  1.00  0.00     0.029 A 
ATOM     38  N   UNL A   1      39.436  30.507  31.146  1.00  0.00    -0.354 N 
ATOM     39  C   UNL A   1      42.567  28.562  33.428  1.00  0.00     0.074 A 
ATOM     40  C   UNL A   1      43.121  27.443  32.699  1.00  0.00     0.031 C 
ATOM     41  C   UNL A   1      38.104  30.837  29.381  1.00  0.00     0.029 A 
ATOM     42  C   UNL A   1      38.420  31.330  30.720  1.00  0.00     0.049 A 
ATOM     43  H   UNL A   1      39.890  30.617  32.012  1.00  0.00     0.167 HD
ATOM     44  C   UNL A   1      43.000  28.968  34.646  1.00  0.00     0.037 A 
ATOM     45  C   UNL A   1      37.804  32.350  31.349  1.00  0.00     0.037 A 
ATOM     46  C   UNL A   1      42.450  30.090  35.360  1.00  0.00     0.049 A 
ATOM     47  C   UNL A   1      38.262  32.746  32.730  1.00  0.00     0.074 A 
ATOM     48  C   UNL A   1      42.828  30.596  36.591  1.00  0.00     0.029 A 
ATOM     49  N   UNL A   1      41.403  30.880  34.909  1.00  0.00    -0.354 N 
ATOM     50  N   UNL A   1      39.227  32.233  33.458  1.00  0.00    -0.248 NA
ATOM     51  C   UNL A   1      37.552  33.861  33.373  1.00  0.00     0.031 C 
ATOM     52  C   UNL A   1      41.974  31.656  36.908  1.00  0.00     0.029 A 
ATOM     53  C   UNL A   1      41.104  31.853  35.848  1.00  0.00     0.049 A 
ATOM     54  H   UNL A   1      40.939  30.765  34.048  1.00  0.00     0.167 HD
ATOM     55  C   UNL A   1      39.261  32.985  34.629  1.00  0.00     0.074 A 
ATOM     56  C   UNL A   1      38.226  33.990  34.508  1.00  0.00     0.031 C 
ATOM     57  C   UNL A   1      40.076  32.855  35.706  1.00  0.00     0.037 A 
BRANCH  44  58
ATOM     58  C   UNL A   1      44.107  28.180  35.293  1.00  0.00     0.058 A 
ATOM     59  C   UNL A   1      45.459  28.523  35.126  1.00  0.00     0.135 A 
ATOM     60  C   UNL A   1      43.809  27.084  36.120  1.00  0.00     0.135 A 
ATOM     61  F   UNL A   1      45.803  29.550  34.332  1.00  0.00    -0.206 F 
ATOM     62  C   UNL A   1      46.475  27.794  35.736  1.00  0.00     0.059 A 
ATOM     63  C   UNL A   1      44.808  26.360  36.764  1.00  0.00     0.059 A 
ATOM     64  F   UNL A   1      42.535  26.708  36.313  1.00  0.00    -0.206 F 
ATOM     65  C   UNL A   1      46.141  26.714  36.554  1.00  0.00     0.060 A 
BRANCH  65  66
ATOM     66  S   UNL A   1      47.471  25.786  37.345  1.00  0.00     0.124 S 
ATOM     67  O   UNL A   1      46.719  24.804  38.122  1.00  0.00    -0.237 OA
ATOM     68  O   UNL A   1      48.207  25.259  36.201  1.00  0.00    -0.237 OA
ATOM     69  O   UNL A   1      48.175  26.798  38.127  1.00  0.00    -0.744 OA
ENDBRANCH  65  66
ENDBRANCH  44  58
BRANCH  45  70
ATOM     70  C   UNL A   1      36.681  33.066  30.684  1.00  0.00     0.058 A 
ATOM     71  C   UNL A   1      36.916  34.033  29.697  1.00  0.00     0.135 A 
ATOM     72  C   UNL A   1      35.346  32.795  31.027  1.00  0.00     0.135 A 
ATOM     73  F   UNL A   1      38.174  34.337  29.341  1.00  0.00    -0.206 F 
ATOM     74  C   UNL A   1      35.872  34.719  29.084  1.00  0.00     0.059 A 
ATOM     75  C   UNL A   1      34.284  33.446  30.407  1.00  0.00     0.059 A 
ATOM     76  F   UNL A   1      35.064  31.869  31.957  1.00  0.00    -0.206 F 
ATOM     77  C   UNL A   1      34.558  34.415  29.444  1.00  0.00     0.060 A 
BRANCH  77  78
ATOM     78  S   UNL A   1      33.208  35.277  28.609  1.00  0.00     0.124 S 
ATOM     79  O   UNL A   1      33.937  36.216  27.764  1.00  0.00    -0.237 OA
ATOM     80  O   UNL A   1      32.531  34.185  27.916  1.00  0.00    -0.237 OA
ATOM     81  O   UNL A   1      32.457  35.870  29.711  1.00  0.00    -0.744 OA
ENDBRANCH  77  78
ENDBRANCH  45  70
BRANCH  57  82
ATOM     82  C   UNL A   1      39.915  33.848  36.824  1.00  0.00     0.058 A 
ATOM     83  C   UNL A   1      40.589  35.079  36.827  1.00  0.00     0.135 A 
ATOM     84  C   UNL A   1      39.025  33.588  37.881  1.00  0.00     0.135 A 
ATOM     85  F   UNL A   1      41.455  35.377  35.845  1.00  0.00    -0.206 F 
ATOM     86  C   UNL A   1      40.408  36.005  37.849  1.00  0.00     0.059 A 
ATOM     87  C   UNL A   1      38.804  34.512  38.896  1.00  0.00     0.059 A 
ATOM     88  F   UNL A   1      38.344  32.431  37.921  1.00  0.00    -0.206 F 
ATOM     89  C   UNL A   1      39.509  35.714  38.878  1.00  0.00     0.060 A 
BRANCH  89  90
ATOM     90  S   UNL A   1      39.258  36.940  40.179  1.00  0.00     0.124 S 
ATOM     91  O   UNL A   1      38.455  36.192  41.139  1.00  0.00    -0.237 OA
ATOM     92  O   UNL A   1      40.626  37.240  40.592  1.00  0.00    -0.237 OA
ATOM     93  O   UNL A   1      38.565  38.028  39.493  1.00  0.00    -0.744 OA
ENDBRANCH  89  90
ENDBRANCH  57  82
ENDBRANCH  31  32
ENDBRANCH  24  26
ENDBRANCH  23  24
ENDBRANCH  22  23
ENDBRANCH   1  22
TORSDOF 19
ENDMDL
