MODEL 1
REMARK VINA RESULT:     -12.1      0.000      0.000
REMARK SMILES O=C(C[N@@H+]1CCC[C@@H]1c1nc2ccccc2s1)Nc1sc2c(c1C(=O)OCCOCCOC(=O)c1ccc(-c3c4nc(c(-c5c(F)cc(S(=O)(=O)[O-])cc5F)c5ccc([nH]5)c(-c5c(F)cc(S(=O)(=O)[O-])cc5F)c5nc(c(-c6c(F)cc(S(=O)(=O)[O-])cc6F)c6ccc3[nH]6)C=C5)C=C4)cc1)CCCC2
REMARK SMILES IDX 28 1 27 2 26 3 24 4 25 5 23 6 19 7 20 8 21 9 22 10 104 11
REMARK SMILES IDX 101 12 103 13 102 14 18 15 1 16 2 17 3 19 4 20 5 21 8 22
REMARK SMILES IDX 6 24 7 25 9 26 10 27 17 28 11 29 16 30 12 31 15 32 13 33
REMARK SMILES IDX 14 34 29 35 30 36 31 37 32 38 33 39 34 40 35 41 36 42 100 43
REMARK SMILES IDX 37 44 99 45 38 46 39 47 40 48 93 49 41 50 98 51 92 52 94 53
REMARK SMILES IDX 42 54 97 55 91 56 90 57 43 59 77 60 56 61 76 62 57 63 60 64
REMARK SMILES IDX 75 65 95 66 58 67 59 68 74 70 96 71 61 72 44 73 45 74 54 75
REMARK SMILES IDX 46 76 47 77 53 78 55 79 48 80 49 81 50 82 51 83 52 84 78 85
REMARK SMILES IDX 79 86 88 87 80 88 81 89 87 90 89 91 82 92 83 93 84 94 85 95
REMARK SMILES IDX 86 96 62 97 63 98 72 99 64 100 65 101 71 102 73 103 66 104
REMARK SMILES IDX 67 105 68 106 69 107 70 108
REMARK H PARENT 18 18 4 23 94 58 60 69
REMARK Flexibility Score: inf
ROOT
ATOM      1  C   UNL A   1      32.994  29.565  27.170  1.00  0.00     0.202 C 
ENDROOT
BRANCH   1   2
ATOM      2  C   UNL A   1      33.099  28.569  26.012  1.00  0.00     0.261 C 
BRANCH   2   3
ATOM      3  O   UNL A   1      32.926  29.227  24.747  1.00  0.00    -0.460 OA
BRANCH   3   4
ATOM      4  C   UNL A   1      32.607  28.402  23.713  1.00  0.00     0.341 C 
ATOM      5  O   UNL A   1      33.429  27.968  22.908  1.00  0.00    -0.246 OA
BRANCH   4   6
ATOM      6  C   UNL A   1      31.200  27.982  23.701  1.00  0.00     0.098 A 
ATOM      7  C   UNL A   1      30.864  26.644  23.883  1.00  0.00     0.110 A 
ATOM      8  S   UNL A   1      29.199  26.360  23.777  1.00  0.00    -0.122 S 
ATOM      9  C   UNL A   1      28.871  28.001  23.501  1.00  0.00     0.011 A 
ATOM     10  C   UNL A   1      30.007  28.791  23.535  1.00  0.00    -0.017 A 
ATOM     11  C   UNL A   1      27.475  28.491  23.262  1.00  0.00     0.047 C 
ATOM     12  C   UNL A   1      29.924  30.283  23.329  1.00  0.00     0.038 C 
ATOM     13  C   UNL A   1      27.510  29.876  22.606  1.00  0.00     0.006 C 
ATOM     14  C   UNL A   1      28.476  30.809  23.346  1.00  0.00     0.005 C 
BRANCH   7  15
ATOM     15  N   UNL A   1      31.754  25.620  24.147  1.00  0.00    -0.312 N 
ATOM     16  O   UNL A   1      32.351  24.785  22.045  1.00  0.00    -0.268 OA
ATOM     17  C   UNL A   1      32.410  24.778  23.271  1.00  0.00     0.280 C 
ATOM     18  H   UNL A   1      31.949  25.469  25.101  1.00  0.00     0.170 HD
BRANCH  17  19
ATOM     19  C   UNL A   1      33.429  23.878  24.007  1.00  0.00     0.364 C 
BRANCH  19  20
ATOM     20  N   UNL A   1      33.224  22.436  23.665  1.00  0.00    -0.319 N 
ATOM     21  C   UNL A   1      31.826  22.042  23.911  1.00  0.00     0.263 C 
ATOM     22  C   UNL A   1      34.011  21.484  24.517  1.00  0.00     0.245 C 
ATOM     23  H   UNL A   1      33.515  22.375  22.690  1.00  0.00     0.349 HD
ATOM     24  C   UNL A   1      31.760  21.821  25.409  1.00  0.00     0.068 C 
ATOM     25  C   UNL A   1      33.116  21.218  25.744  1.00  0.00     0.079 C 
BRANCH  22  26
ATOM     26  C   UNL A   1      35.436  21.872  24.866  1.00  0.00     0.151 A 
ATOM     27  N   UNL A   1      35.809  23.073  25.253  1.00  0.00    -0.235 NA
ATOM     28  S   UNL A   1      36.718  20.719  24.790  1.00  0.00    -0.113 S 
ATOM     29  C   UNL A   1      37.105  23.049  25.724  1.00  0.00     0.082 A 
ATOM     30  C   UNL A   1      37.768  21.832  25.581  1.00  0.00     0.055 A 
ATOM     31  C   UNL A   1      37.769  24.121  26.349  1.00  0.00     0.030 A 
ATOM     32  C   UNL A   1      39.077  21.642  26.052  1.00  0.00     0.021 A 
ATOM     33  C   UNL A   1      39.065  23.940  26.840  1.00  0.00     0.002 A 
ATOM     34  C   UNL A   1      39.708  22.713  26.694  1.00  0.00     0.002 A 
ENDBRANCH  22  26
ENDBRANCH  19  20
ENDBRANCH  17  19
ENDBRANCH   7  15
ENDBRANCH   4   6
ENDBRANCH   3   4
ENDBRANCH   2   3
ENDBRANCH   1   2
BRANCH   1  35
ATOM     35  O   UNL A   1      33.545  30.860  26.924  1.00  0.00    -0.374 OA
BRANCH  35  36
ATOM     36  C   UNL A   1      33.978  31.606  28.067  1.00  0.00     0.202 C 
BRANCH  36  37
ATOM     37  C   UNL A   1      35.452  31.454  28.460  1.00  0.00     0.261 C 
BRANCH  37  38
ATOM     38  O   UNL A   1      35.790  30.078  28.720  1.00  0.00    -0.460 OA
BRANCH  38  39
ATOM     39  C   UNL A   1      36.501  29.868  29.855  1.00  0.00     0.338 C 
ATOM     40  O   UNL A   1      36.058  29.634  30.967  1.00  0.00    -0.246 OA
BRANCH  39  41
ATOM     41  C   UNL A   1      37.939  29.758  29.532  1.00  0.00     0.060 A 
ATOM     42  C   UNL A   1      38.285  29.619  28.182  1.00  0.00     0.016 A 
ATOM     43  C   UNL A   1      38.925  29.737  30.521  1.00  0.00     0.016 A 
ATOM     44  C   UNL A   1      39.613  29.405  27.818  1.00  0.00     0.010 A 
ATOM     45  C   UNL A   1      40.257  29.511  30.155  1.00  0.00     0.010 A 
ATOM     46  C   UNL A   1      40.601  29.309  28.806  1.00  0.00    -0.014 A 
BRANCH  46  47
ATOM     47  C   UNL A   1      41.962  28.853  28.435  1.00  0.00     0.031 A 
ATOM     48  C   UNL A   1      43.082  29.859  28.402  1.00  0.00     0.074 A 
ATOM     49  C   UNL A   1      42.207  27.559  28.162  1.00  0.00     0.049 A 
ATOM     50  N   UNL A   1      44.339  29.691  28.082  1.00  0.00    -0.248 NA
ATOM     51  C   UNL A   1      42.737  31.239  28.783  1.00  0.00     0.031 C 
ATOM     52  C   UNL A   1      41.213  26.487  28.199  1.00  0.00     0.029 A 
ATOM     53  N   UNL A   1      43.370  26.929  27.796  1.00  0.00    -0.354 N 
ATOM     54  C   UNL A   1      44.934  30.939  28.217  1.00  0.00     0.074 A 
ATOM     55  C   UNL A   1      43.895  31.863  28.621  1.00  0.00     0.031 C 
ATOM     56  C   UNL A   1      41.808  25.331  27.855  1.00  0.00     0.029 A 
ATOM     57  C   UNL A   1      43.214  25.587  27.549  1.00  0.00     0.049 A 
ATOM     58  H   UNL A   1      44.233  27.395  27.718  1.00  0.00     0.167 HD
ATOM     59  C   UNL A   1      46.230  31.285  28.029  1.00  0.00     0.037 A 
ATOM     60  C   UNL A   1      44.102  24.673  27.107  1.00  0.00     0.037 A 
ATOM     61  C   UNL A   1      47.261  30.363  27.628  1.00  0.00     0.049 A 
ATOM     62  C   UNL A   1      45.525  25.093  26.845  1.00  0.00     0.074 A 
ATOM     63  C   UNL A   1      48.606  30.612  27.425  1.00  0.00     0.029 A 
ATOM     64  N   UNL A   1      47.059  29.018  27.361  1.00  0.00    -0.354 N 
ATOM     65  N   UNL A   1      46.078  26.273  26.994  1.00  0.00    -0.248 NA
ATOM     66  C   UNL A   1      46.445  24.056  26.355  1.00  0.00     0.031 C 
ATOM     67  C   UNL A   1      49.211  29.426  26.995  1.00  0.00     0.029 A 
ATOM     68  C   UNL A   1      48.251  28.427  26.974  1.00  0.00     0.049 A 
ATOM     69  H   UNL A   1      46.196  28.550  27.435  1.00  0.00     0.167 HD
ATOM     70  C   UNL A   1      47.415  26.115  26.643  1.00  0.00     0.074 A 
ATOM     71  C   UNL A   1      47.589  24.723  26.280  1.00  0.00     0.031 C 
ATOM     72  C   UNL A   1      48.409  27.038  26.623  1.00  0.00     0.037 A 
BRANCH  59  73
ATOM     73  C   UNL A   1      46.601  32.727  28.235  1.00  0.00     0.058 A 
ATOM     74  C   UNL A   1      46.473  33.674  27.206  1.00  0.00     0.135 A 
ATOM     75  C   UNL A   1      47.067  33.171  29.482  1.00  0.00     0.135 A 
ATOM     76  F   UNL A   1      46.050  33.299  25.989  1.00  0.00    -0.206 F 
ATOM     77  C   UNL A   1      46.817  35.008  27.401  1.00  0.00     0.059 A 
ATOM     78  C   UNL A   1      47.394  34.505  29.707  1.00  0.00     0.059 A 
ATOM     79  F   UNL A   1      47.211  32.305  30.497  1.00  0.00    -0.206 F 
ATOM     80  C   UNL A   1      47.279  35.413  28.655  1.00  0.00     0.060 A 
BRANCH  80  81
ATOM     81  S   UNL A   1      47.722  37.147  28.894  1.00  0.00     0.124 S 
ATOM     82  O   UNL A   1      47.040  37.778  27.768  1.00  0.00    -0.237 OA
ATOM     83  O   UNL A   1      47.167  37.435  30.213  1.00  0.00    -0.237 OA
ATOM     84  O   UNL A   1      49.180  37.139  28.819  1.00  0.00    -0.744 OA
ENDBRANCH  80  81
ENDBRANCH  59  73
BRANCH  60  85
ATOM     85  C   UNL A   1      43.668  23.271  26.873  1.00  0.00     0.058 A 
ATOM     86  C   UNL A   1      43.528  22.763  25.573  1.00  0.00     0.135 A 
ATOM     87  C   UNL A   1      43.387  22.411  27.945  1.00  0.00     0.135 A 
ATOM     88  F   UNL A   1      43.775  23.550  24.516  1.00  0.00    -0.206 F 
ATOM     89  C   UNL A   1      43.115  21.455  25.343  1.00  0.00     0.059 A 
ATOM     90  C   UNL A   1      42.994  21.092  27.742  1.00  0.00     0.059 A 
ATOM     91  F   UNL A   1      43.514  22.847  29.209  1.00  0.00    -0.206 F 
ATOM     92  C   UNL A   1      42.852  20.626  26.436  1.00  0.00     0.060 A 
BRANCH  92  93
ATOM     93  S   UNL A   1      42.370  18.912  26.130  1.00  0.00     0.124 S 
ATOM     94  O   UNL A   1      42.640  18.296  27.424  1.00  0.00    -0.237 OA
ATOM     95  O   UNL A   1      40.962  19.049  25.769  1.00  0.00    -0.237 OA
ATOM     96  O   UNL A   1      43.251  18.507  25.039  1.00  0.00    -0.744 OA
ENDBRANCH  92  93
ENDBRANCH  60  85
BRANCH  72  97
ATOM     97  C   UNL A   1      49.782  26.570  26.228  1.00  0.00     0.058 A 
ATOM     98  C   UNL A   1      50.284  26.766  24.933  1.00  0.00     0.135 A 
ATOM     99  C   UNL A   1      50.627  25.968  27.175  1.00  0.00     0.135 A 
ATOM    100  F   UNL A   1      49.515  27.331  23.989  1.00  0.00    -0.206 F 
ATOM    101  C   UNL A   1      51.568  26.362  24.583  1.00  0.00     0.059 A 
ATOM    102  C   UNL A   1      51.924  25.579  26.854  1.00  0.00     0.059 A 
ATOM    103  F   UNL A   1      50.200  25.770  28.433  1.00  0.00    -0.206 F 
ATOM    104  C   UNL A   1      52.383  25.770  25.552  1.00  0.00     0.060 A 
BRANCH 104 105
ATOM    105  S   UNL A   1      54.060  25.282  25.097  1.00  0.00     0.124 S 
ATOM    106  O   UNL A   1      54.827  25.758  26.243  1.00  0.00    -0.237 OA
ATOM    107  O   UNL A   1      53.942  23.832  24.972  1.00  0.00    -0.237 OA
ATOM    108  O   UNL A   1      54.292  25.995  23.844  1.00  0.00    -0.744 OA
ENDBRANCH 104 105
ENDBRANCH  72  97
ENDBRANCH  46  47
ENDBRANCH  39  41
ENDBRANCH  38  39
ENDBRANCH  37  38
ENDBRANCH  36  37
ENDBRANCH  35  36
ENDBRANCH   1  35
TORSDOF 21
ENDMDL
MODEL 2
REMARK VINA RESULT:     -11.7      4.988      6.547
REMARK SMILES O=C(C[N@@H+]1CCC[C@@H]1c1nc2ccccc2s1)Nc1sc2c(c1C(=O)OCCOCCOC(=O)c1ccc(-c3c4nc(c(-c5c(F)cc(S(=O)(=O)[O-])cc5F)c5ccc([nH]5)c(-c5c(F)cc(S(=O)(=O)[O-])cc5F)c5nc(c(-c6c(F)cc(S(=O)(=O)[O-])cc6F)c6ccc3[nH]6)C=C5)C=C4)cc1)CCCC2
REMARK SMILES IDX 28 1 27 2 26 3 24 4 25 5 23 6 19 7 20 8 21 9 22 10 104 11
REMARK SMILES IDX 101 12 103 13 102 14 18 15 1 16 2 17 3 19 4 20 5 21 8 22
REMARK SMILES IDX 6 24 7 25 9 26 10 27 17 28 11 29 16 30 12 31 15 32 13 33
REMARK SMILES IDX 14 34 29 35 30 36 31 37 32 38 33 39 34 40 35 41 36 42 100 43
REMARK SMILES IDX 37 44 99 45 38 46 39 47 40 48 93 49 41 50 98 51 92 52 94 53
REMARK SMILES IDX 42 54 97 55 91 56 90 57 43 59 77 60 56 61 76 62 57 63 60 64
REMARK SMILES IDX 75 65 95 66 58 67 59 68 74 70 96 71 61 72 44 73 45 74 54 75
REMARK SMILES IDX 46 76 47 77 53 78 55 79 48 80 49 81 50 82 51 83 52 84 78 85
REMARK SMILES IDX 79 86 88 87 80 88 81 89 87 90 89 91 82 92 83 93 84 94 85 95
REMARK SMILES IDX 86 96 62 97 63 98 72 99 64 100 65 101 71 102 73 103 66 104
REMARK SMILES IDX 67 105 68 106 69 107 70 108
REMARK H PARENT 18 18 4 23 94 58 60 69
REMARK Flexibility Score: inf
ROOT
ATOM      1  C   UNL A   1      33.129  27.550  26.647  1.00  0.00     0.202 C 
ENDROOT
BRANCH   1   2
ATOM      2  C   UNL A   1      34.093  27.937  25.523  1.00  0.00     0.261 C 
BRANCH   2   3
ATOM      3  O   UNL A   1      33.381  28.455  24.388  1.00  0.00    -0.460 OA
BRANCH   3   4
ATOM      4  C   UNL A   1      32.900  27.509  23.535  1.00  0.00     0.341 C 
ATOM      5  O   UNL A   1      33.610  26.841  22.786  1.00  0.00    -0.246 OA
BRANCH   4   6
ATOM      6  C   UNL A   1      31.456  27.274  23.663  1.00  0.00     0.098 A 
ATOM      7  C   UNL A   1      30.981  26.042  24.103  1.00  0.00     0.110 A 
ATOM      8  S   UNL A   1      29.291  25.956  24.124  1.00  0.00    -0.122 S 
ATOM      9  C   UNL A   1      29.137  27.551  23.566  1.00  0.00     0.011 A 
ATOM     10  C   UNL A   1      30.356  28.185  23.404  1.00  0.00    -0.017 A 
ATOM     11  C   UNL A   1      27.794  28.162  23.304  1.00  0.00     0.047 C 
ATOM     12  C   UNL A   1      30.434  29.615  22.931  1.00  0.00     0.038 C 
ATOM     13  C   UNL A   1      27.946  29.394  22.404  1.00  0.00     0.006 C 
ATOM     14  C   UNL A   1      29.061  30.313  22.916  1.00  0.00     0.005 C 
BRANCH   7  15
ATOM     15  N   UNL A   1      31.762  24.978  24.511  1.00  0.00    -0.312 N 
ATOM     16  O   UNL A   1      31.209  24.655  26.761  1.00  0.00    -0.268 OA
ATOM     17  C   UNL A   1      31.846  24.374  25.750  1.00  0.00     0.280 C 
ATOM     18  H   UNL A   1      32.344  24.593  23.815  1.00  0.00     0.170 HD
BRANCH  17  19
ATOM     19  C   UNL A   1      32.746  23.118  25.707  1.00  0.00     0.364 C 
BRANCH  19  20
ATOM     20  N   UNL A   1      33.026  22.700  24.297  1.00  0.00    -0.319 N 
ATOM     21  C   UNL A   1      31.967  21.802  23.806  1.00  0.00     0.263 C 
ATOM     22  C   UNL A   1      34.277  21.889  24.134  1.00  0.00     0.245 C 
ATOM     23  H   UNL A   1      33.098  23.584  23.793  1.00  0.00     0.349 HD
ATOM     24  C   UNL A   1      32.318  20.454  24.403  1.00  0.00     0.068 C 
ATOM     25  C   UNL A   1      33.838  20.431  24.373  1.00  0.00     0.079 C 
BRANCH  22  26
ATOM     26  C   UNL A   1      35.492  22.308  24.940  1.00  0.00     0.151 A 
ATOM     27  N   UNL A   1      36.470  21.500  25.291  1.00  0.00    -0.235 NA
ATOM     28  S   UNL A   1      35.694  23.939  25.466  1.00  0.00    -0.113 S 
ATOM     29  C   UNL A   1      37.532  22.217  25.801  1.00  0.00     0.082 A 
ATOM     30  C   UNL A   1      37.309  23.585  25.950  1.00  0.00     0.055 A 
ATOM     31  C   UNL A   1      38.792  21.689  26.135  1.00  0.00     0.030 A 
ATOM     32  C   UNL A   1      38.312  24.451  26.416  1.00  0.00     0.021 A 
ATOM     33  C   UNL A   1      39.805  22.543  26.582  1.00  0.00     0.002 A 
ATOM     34  C   UNL A   1      39.565  23.908  26.717  1.00  0.00     0.002 A 
ENDBRANCH  22  26
ENDBRANCH  19  20
ENDBRANCH  17  19
ENDBRANCH   7  15
ENDBRANCH   4   6
ENDBRANCH   3   4
ENDBRANCH   2   3
ENDBRANCH   1   2
BRANCH   1  35
ATOM     35  O   UNL A   1      32.794  28.594  27.562  1.00  0.00    -0.374 OA
BRANCH  35  36
ATOM     36  C   UNL A   1      31.858  29.577  27.108  1.00  0.00     0.202 C 
BRANCH  36  37
ATOM     37  C   UNL A   1      32.393  31.005  26.948  1.00  0.00     0.261 C 
BRANCH  37  38
ATOM     38  O   UNL A   1      33.833  31.029  26.920  1.00  0.00    -0.460 OA
BRANCH  38  39
ATOM     39  C   UNL A   1      34.410  31.836  27.843  1.00  0.00     0.338 C 
ATOM     40  O   UNL A   1      33.903  32.795  28.400  1.00  0.00    -0.246 OA
BRANCH  39  41
ATOM     41  C   UNL A   1      35.714  31.276  28.254  1.00  0.00     0.060 A 
ATOM     42  C   UNL A   1      35.733  29.941  28.679  1.00  0.00     0.016 A 
ATOM     43  C   UNL A   1      36.880  32.043  28.278  1.00  0.00     0.016 A 
ATOM     44  C   UNL A   1      36.908  29.383  29.180  1.00  0.00     0.010 A 
ATOM     45  C   UNL A   1      38.056  31.484  28.790  1.00  0.00     0.010 A 
ATOM     46  C   UNL A   1      38.066  30.164  29.277  1.00  0.00    -0.014 A 
BRANCH  46  47
ATOM     47  C   UNL A   1      39.239  29.642  30.018  1.00  0.00     0.031 A 
ATOM     48  C   UNL A   1      39.521  30.171  31.399  1.00  0.00     0.074 A 
ATOM     49  C   UNL A   1      40.024  28.688  29.485  1.00  0.00     0.049 A 
ATOM     50  N   UNL A   1      40.501  29.879  32.215  1.00  0.00    -0.248 NA
ATOM     51  C   UNL A   1      38.570  31.162  31.931  1.00  0.00     0.031 C 
ATOM     52  C   UNL A   1      39.829  28.071  28.174  1.00  0.00     0.029 A 
ATOM     53  N   UNL A   1      41.147  28.076  29.984  1.00  0.00    -0.354 N 
ATOM     54  C   UNL A   1      40.289  30.650  33.352  1.00  0.00     0.074 A 
ATOM     55  C   UNL A   1      39.103  31.444  33.110  1.00  0.00     0.031 C 
ATOM     56  C   UNL A   1      40.809  27.174  27.966  1.00  0.00     0.029 A 
ATOM     57  C   UNL A   1      41.713  27.175  29.115  1.00  0.00     0.049 A 
ATOM     58  H   UNL A   1      41.511  28.265  30.878  1.00  0.00     0.167 HD
ATOM     59  C   UNL A   1      41.012  30.688  34.496  1.00  0.00     0.037 A 
ATOM     60  C   UNL A   1      42.843  26.448  29.228  1.00  0.00     0.037 A 
ATOM     61  C   UNL A   1      42.191  29.896  34.733  1.00  0.00     0.049 A 
ATOM     62  C   UNL A   1      43.666  26.552  30.485  1.00  0.00     0.074 A 
ATOM     63  C   UNL A   1      42.984  29.852  35.865  1.00  0.00     0.029 A 
ATOM     64  N   UNL A   1      42.748  29.015  33.819  1.00  0.00    -0.354 N 
ATOM     65  N   UNL A   1      43.444  27.273  31.559  1.00  0.00    -0.248 NA
ATOM     66  C   UNL A   1      44.893  25.744  30.547  1.00  0.00     0.031 C 
ATOM     67  C   UNL A   1      44.046  28.974  35.621  1.00  0.00     0.029 A 
ATOM     68  C   UNL A   1      43.889  28.438  34.353  1.00  0.00     0.049 A 
ATOM     69  H   UNL A   1      42.388  28.827  32.923  1.00  0.00     0.167 HD
ATOM     70  C   UNL A   1      44.487  26.984  32.434  1.00  0.00     0.074 A 
ATOM     71  C   UNL A   1      45.337  26.019  31.766  1.00  0.00     0.031 C 
ATOM     72  C   UNL A   1      44.720  27.473  33.677  1.00  0.00     0.037 A 
BRANCH  59  73
ATOM     73  C   UNL A   1      40.559  31.634  35.573  1.00  0.00     0.058 A 
ATOM     74  C   UNL A   1      41.252  32.825  35.846  1.00  0.00     0.135 A 
ATOM     75  C   UNL A   1      39.404  31.360  36.322  1.00  0.00     0.135 A 
ATOM     76  F   UNL A   1      42.372  33.126  35.171  1.00  0.00    -0.206 F 
ATOM     77  C   UNL A   1      40.828  33.699  36.842  1.00  0.00     0.059 A 
ATOM     78  C   UNL A   1      38.949  32.231  37.307  1.00  0.00     0.059 A 
ATOM     79  F   UNL A   1      38.708  30.234  36.103  1.00  0.00    -0.206 F 
ATOM     80  C   UNL A   1      39.676  33.391  37.570  1.00  0.00     0.060 A 
BRANCH  80  81
ATOM     81  S   UNL A   1      39.139  34.534  38.860  1.00  0.00     0.124 S 
ATOM     82  O   UNL A   1      39.072  35.793  38.124  1.00  0.00    -0.237 OA
ATOM     83  O   UNL A   1      37.855  33.969  39.265  1.00  0.00    -0.237 OA
ATOM     84  O   UNL A   1      40.202  34.447  39.856  1.00  0.00    -0.744 OA
ENDBRANCH  80  81
ENDBRANCH  59  73
BRANCH  60  85
ATOM     85  C   UNL A   1      43.271  25.566  28.111  1.00  0.00     0.058 A 
ATOM     86  C   UNL A   1      44.009  26.070  27.030  1.00  0.00     0.135 A 
ATOM     87  C   UNL A   1      42.951  24.199  28.104  1.00  0.00     0.135 A 
ATOM     88  F   UNL A   1      44.329  27.372  26.986  1.00  0.00    -0.206 F 
ATOM     89  C   UNL A   1      44.407  25.254  25.976  1.00  0.00     0.059 A 
ATOM     90  C   UNL A   1      43.358  23.358  27.074  1.00  0.00     0.059 A 
ATOM     91  F   UNL A   1      42.254  23.666  29.120  1.00  0.00    -0.206 F 
ATOM     92  C   UNL A   1      44.078  23.897  26.009  1.00  0.00     0.060 A 
BRANCH  92  93
ATOM     93  S   UNL A   1      44.646  22.833  24.664  1.00  0.00     0.124 S 
ATOM     94  O   UNL A   1      45.637  23.684  24.016  1.00  0.00    -0.237 OA
ATOM     95  O   UNL A   1      45.171  21.678  25.387  1.00  0.00    -0.237 OA
ATOM     96  O   UNL A   1      43.428  22.582  23.900  1.00  0.00    -0.744 OA
ENDBRANCH  92  93
ENDBRANCH  60  85
BRANCH  72  97
ATOM     97  C   UNL A   1      45.922  26.951  34.414  1.00  0.00     0.058 A 
ATOM     98  C   UNL A   1      47.156  27.618  34.379  1.00  0.00     0.135 A 
ATOM     99  C   UNL A   1      45.822  25.798  35.210  1.00  0.00     0.135 A 
ATOM    100  F   UNL A   1      47.306  28.721  33.629  1.00  0.00    -0.206 F 
ATOM    101  C   UNL A   1      48.256  27.149  35.091  1.00  0.00     0.059 A 
ATOM    102  C   UNL A   1      46.902  25.325  35.950  1.00  0.00     0.059 A 
ATOM    103  F   UNL A   1      44.660  25.129  35.288  1.00  0.00    -0.206 F 
ATOM    104  C   UNL A   1      48.118  26.001  35.876  1.00  0.00     0.060 A 
BRANCH 104 105
ATOM    105  S   UNL A   1      49.542  25.421  36.823  1.00  0.00     0.124 S 
ATOM    106  O   UNL A   1      48.905  24.934  38.042  1.00  0.00    -0.237 OA
ATOM    107  O   UNL A   1      50.104  24.396  35.949  1.00  0.00    -0.237 OA
ATOM    108  O   UNL A   1      50.358  26.622  36.976  1.00  0.00    -0.744 OA
ENDBRANCH 104 105
ENDBRANCH  72  97
ENDBRANCH  46  47
ENDBRANCH  39  41
ENDBRANCH  38  39
ENDBRANCH  37  38
ENDBRANCH  36  37
ENDBRANCH  35  36
ENDBRANCH   1  35
TORSDOF 21
ENDMDL
MODEL 3
REMARK VINA RESULT:     -10.9      4.852      8.845
REMARK SMILES O=C(C[N@@H+]1CCC[C@@H]1c1nc2ccccc2s1)Nc1sc2c(c1C(=O)OCCOCCOC(=O)c1ccc(-c3c4nc(c(-c5c(F)cc(S(=O)(=O)[O-])cc5F)c5ccc([nH]5)c(-c5c(F)cc(S(=O)(=O)[O-])cc5F)c5nc(c(-c6c(F)cc(S(=O)(=O)[O-])cc6F)c6ccc3[nH]6)C=C5)C=C4)cc1)CCCC2
REMARK SMILES IDX 28 1 27 2 26 3 24 4 25 5 23 6 19 7 20 8 21 9 22 10 104 11
REMARK SMILES IDX 101 12 103 13 102 14 18 15 1 16 2 17 3 19 4 20 5 21 8 22
REMARK SMILES IDX 6 24 7 25 9 26 10 27 17 28 11 29 16 30 12 31 15 32 13 33
REMARK SMILES IDX 14 34 29 35 30 36 31 37 32 38 33 39 34 40 35 41 36 42 100 43
REMARK SMILES IDX 37 44 99 45 38 46 39 47 40 48 93 49 41 50 98 51 92 52 94 53
REMARK SMILES IDX 42 54 97 55 91 56 90 57 43 59 77 60 56 61 76 62 57 63 60 64
REMARK SMILES IDX 75 65 95 66 58 67 59 68 74 70 96 71 61 72 44 73 45 74 54 75
REMARK SMILES IDX 46 76 47 77 53 78 55 79 48 80 49 81 50 82 51 83 52 84 78 85
REMARK SMILES IDX 79 86 88 87 80 88 81 89 87 90 89 91 82 92 83 93 84 94 85 95
REMARK SMILES IDX 86 96 62 97 63 98 72 99 64 100 65 101 71 102 73 103 66 104
REMARK SMILES IDX 67 105 68 106 69 107 70 108
REMARK H PARENT 18 18 4 23 94 58 60 69
REMARK Flexibility Score: inf
ROOT
ATOM      1  C   UNL A   1      33.001  27.535  26.610  1.00  0.00     0.202 C 
ENDROOT
BRANCH   1   2
ATOM      2  C   UNL A   1      34.070  27.865  25.565  1.00  0.00     0.261 C 
BRANCH   2   3
ATOM      3  O   UNL A   1      33.476  28.391  24.368  1.00  0.00    -0.460 OA
BRANCH   3   4
ATOM      4  C   UNL A   1      33.001  27.452  23.505  1.00  0.00     0.341 C 
ATOM      5  O   UNL A   1      33.715  26.792  22.754  1.00  0.00    -0.246 OA
BRANCH   4   6
ATOM      6  C   UNL A   1      31.557  27.212  23.626  1.00  0.00     0.098 A 
ATOM      7  C   UNL A   1      31.083  25.985  24.081  1.00  0.00     0.110 A 
ATOM      8  S   UNL A   1      29.393  25.892  24.091  1.00  0.00    -0.122 S 
ATOM      9  C   UNL A   1      29.237  27.478  23.507  1.00  0.00     0.011 A 
ATOM     10  C   UNL A   1      30.455  28.115  23.345  1.00  0.00    -0.017 A 
ATOM     11  C   UNL A   1      27.894  28.080  23.226  1.00  0.00     0.047 C 
ATOM     12  C   UNL A   1      30.530  29.538  22.851  1.00  0.00     0.038 C 
ATOM     13  C   UNL A   1      28.048  29.298  22.308  1.00  0.00     0.006 C 
ATOM     14  C   UNL A   1      29.155  30.230  22.815  1.00  0.00     0.005 C 
BRANCH   7  15
ATOM     15  N   UNL A   1      31.865  24.931  24.511  1.00  0.00    -0.312 N 
ATOM     16  O   UNL A   1      31.138  24.494  26.692  1.00  0.00    -0.268 OA
ATOM     17  C   UNL A   1      31.867  24.278  25.728  1.00  0.00     0.280 C 
ATOM     18  H   UNL A   1      32.518  24.596  23.853  1.00  0.00     0.170 HD
BRANCH  17  19
ATOM     19  C   UNL A   1      32.812  23.055  25.711  1.00  0.00     0.364 C 
BRANCH  19  20
ATOM     20  N   UNL A   1      33.104  22.614  24.311  1.00  0.00    -0.319 N 
ATOM     21  C   UNL A   1      32.056  21.699  23.830  1.00  0.00     0.263 C 
ATOM     22  C   UNL A   1      34.363  21.811  24.169  1.00  0.00     0.245 C 
ATOM     23  H   UNL A   1      33.173  23.489  23.791  1.00  0.00     0.349 HD
ATOM     24  C   UNL A   1      32.413  20.365  24.453  1.00  0.00     0.068 C 
ATOM     25  C   UNL A   1      33.934  20.353  24.432  1.00  0.00     0.079 C 
BRANCH  22  26
ATOM     26  C   UNL A   1      35.570  22.253  24.976  1.00  0.00     0.151 A 
ATOM     27  N   UNL A   1      36.570  21.467  25.316  1.00  0.00    -0.235 NA
ATOM     28  S   UNL A   1      35.732  23.884  25.516  1.00  0.00    -0.113 S 
ATOM     29  C   UNL A   1      37.615  22.207  25.828  1.00  0.00     0.082 A 
ATOM     30  C   UNL A   1      37.357  23.567  25.991  1.00  0.00     0.055 A 
ATOM     31  C   UNL A   1      38.889  21.708  26.153  1.00  0.00     0.030 A 
ATOM     32  C   UNL A   1      38.338  24.455  26.461  1.00  0.00     0.021 A 
ATOM     33  C   UNL A   1      39.881  22.584  26.604  1.00  0.00     0.002 A 
ATOM     34  C   UNL A   1      39.607  23.941  26.753  1.00  0.00     0.002 A 
ENDBRANCH  22  26
ENDBRANCH  19  20
ENDBRANCH  17  19
ENDBRANCH   7  15
ENDBRANCH   4   6
ENDBRANCH   3   4
ENDBRANCH   2   3
ENDBRANCH   1   2
BRANCH   1  35
ATOM     35  O   UNL A   1      32.769  28.540  27.598  1.00  0.00    -0.374 OA
BRANCH  35  36
ATOM     36  C   UNL A   1      32.177  29.764  27.148  1.00  0.00     0.202 C 
BRANCH  36  37
ATOM     37  C   UNL A   1      33.091  30.995  27.130  1.00  0.00     0.261 C 
BRANCH  37  38
ATOM     38  O   UNL A   1      34.440  30.657  27.505  1.00  0.00    -0.460 OA
BRANCH  38  39
ATOM     39  C   UNL A   1      34.924  31.336  28.574  1.00  0.00     0.338 C 
ATOM     40  O   UNL A   1      34.324  32.139  29.268  1.00  0.00    -0.246 OA
BRANCH  39  41
ATOM     41  C   UNL A   1      36.263  30.820  28.931  1.00  0.00     0.060 A 
ATOM     42  C   UNL A   1      36.316  29.710  29.785  1.00  0.00     0.016 A 
ATOM     43  C   UNL A   1      37.438  31.431  28.490  1.00  0.00     0.016 A 
ATOM     44  C   UNL A   1      37.545  29.240  30.245  1.00  0.00     0.010 A 
ATOM     45  C   UNL A   1      38.670  30.965  28.961  1.00  0.00     0.010 A 
ATOM     46  C   UNL A   1      38.727  29.890  29.869  1.00  0.00    -0.014 A 
BRANCH  46  47
ATOM     47  C   UNL A   1      40.001  29.535  30.538  1.00  0.00     0.031 A 
ATOM     48  C   UNL A   1      40.824  28.403  29.983  1.00  0.00     0.074 A 
ATOM     49  C   UNL A   1      40.436  30.228  31.606  1.00  0.00     0.049 A 
ATOM     50  N   UNL A   1      41.951  27.905  30.420  1.00  0.00    -0.248 NA
ATOM     51  C   UNL A   1      40.305  27.747  28.771  1.00  0.00     0.031 C 
ATOM     52  C   UNL A   1      39.746  31.366  32.211  1.00  0.00     0.029 A 
ATOM     53  N   UNL A   1      41.563  30.069  32.373  1.00  0.00    -0.354 N 
ATOM     54  C   UNL A   1      42.276  26.877  29.543  1.00  0.00     0.074 A 
ATOM     55  C   UNL A   1      41.212  26.803  28.564  1.00  0.00     0.031 C 
ATOM     56  C   UNL A   1      40.461  31.797  33.266  1.00  0.00     0.029 A 
ATOM     57  C   UNL A   1      41.640  30.948  33.426  1.00  0.00     0.049 A 
ATOM     58  H   UNL A   1      42.250  29.390  32.186  1.00  0.00     0.167 HD
ATOM     59  C   UNL A   1      43.365  26.072  29.548  1.00  0.00     0.037 A 
ATOM     60  C   UNL A   1      42.550  31.045  34.416  1.00  0.00     0.037 A 
ATOM     61  C   UNL A   1      44.422  26.149  30.523  1.00  0.00     0.049 A 
ATOM     62  C   UNL A   1      43.722  30.098  34.437  1.00  0.00     0.074 A 
ATOM     63  C   UNL A   1      45.574  25.388  30.605  1.00  0.00     0.029 A 
ATOM     64  N   UNL A   1      44.451  27.035  31.589  1.00  0.00    -0.354 N 
ATOM     65  N   UNL A   1      44.025  29.142  33.591  1.00  0.00    -0.248 NA
ATOM     66  C   UNL A   1      44.676  30.244  35.546  1.00  0.00     0.031 C 
ATOM     67  C   UNL A   1      46.281  25.786  31.745  1.00  0.00     0.029 A 
ATOM     68  C   UNL A   1      45.591  26.826  32.348  1.00  0.00     0.049 A 
ATOM     69  H   UNL A   1      43.763  27.713  31.779  1.00  0.00     0.167 HD
ATOM     70  C   UNL A   1      45.217  28.591  34.050  1.00  0.00     0.074 A 
ATOM     71  C   UNL A   1      45.583  29.325  35.245  1.00  0.00     0.031 C 
ATOM     72  C   UNL A   1      45.944  27.570  33.531  1.00  0.00     0.037 A 
BRANCH  59  73
ATOM     73  C   UNL A   1      43.457  25.022  28.476  1.00  0.00     0.058 A 
ATOM     74  C   UNL A   1      43.876  25.333  27.173  1.00  0.00     0.135 A 
ATOM     75  C   UNL A   1      43.146  23.683  28.764  1.00  0.00     0.135 A 
ATOM     76  F   UNL A   1      44.167  26.601  26.840  1.00  0.00    -0.206 F 
ATOM     77  C   UNL A   1      43.960  24.358  26.185  1.00  0.00     0.059 A 
ATOM     78  C   UNL A   1      43.246  22.687  27.798  1.00  0.00     0.059 A 
ATOM     79  F   UNL A   1      42.737  23.333  29.993  1.00  0.00    -0.206 F 
ATOM     80  C   UNL A   1      43.640  23.037  26.507  1.00  0.00     0.060 A 
BRANCH  80  81
ATOM     81  S   UNL A   1      43.754  21.781  25.214  1.00  0.00     0.124 S 
ATOM     82  O   UNL A   1      45.112  21.282  25.412  1.00  0.00    -0.237 OA
ATOM     83  O   UNL A   1      42.682  20.859  25.577  1.00  0.00    -0.237 OA
ATOM     84  O   UNL A   1      43.537  22.538  23.985  1.00  0.00    -0.744 OA
ENDBRANCH  80  81
ENDBRANCH  59  73
BRANCH  60  85
ATOM     85  C   UNL A   1      42.383  32.070  35.479  1.00  0.00     0.058 A 
ATOM     86  C   UNL A   1      41.461  31.891  36.521  1.00  0.00     0.135 A 
ATOM     87  C   UNL A   1      43.144  33.249  35.474  1.00  0.00     0.135 A 
ATOM     88  F   UNL A   1      40.703  30.785  36.562  1.00  0.00    -0.206 F 
ATOM     89  C   UNL A   1      41.292  32.848  37.516  1.00  0.00     0.059 A 
ATOM     90  C   UNL A   1      43.009  34.211  36.470  1.00  0.00     0.059 A 
ATOM     91  F   UNL A   1      44.045  33.464  34.503  1.00  0.00    -0.206 F 
ATOM     92  C   UNL A   1      42.073  34.005  37.482  1.00  0.00     0.060 A 
BRANCH  92  93
ATOM     93  S   UNL A   1      41.887  35.218  38.808  1.00  0.00     0.124 S 
ATOM     94  O   UNL A   1      40.951  34.538  39.697  1.00  0.00    -0.237 OA
ATOM     95  O   UNL A   1      43.256  35.348  39.300  1.00  0.00    -0.237 OA
ATOM     96  O   UNL A   1      41.364  36.391  38.116  1.00  0.00    -0.744 OA
ENDBRANCH  92  93
ENDBRANCH  60  85
BRANCH  72  97
ATOM     97  C   UNL A   1      47.225  27.206  34.227  1.00  0.00     0.058 A 
ATOM     98  C   UNL A   1      47.266  26.225  35.230  1.00  0.00     0.135 A 
ATOM     99  C   UNL A   1      48.437  27.806  33.848  1.00  0.00     0.135 A 
ATOM    100  F   UNL A   1      46.135  25.624  35.634  1.00  0.00    -0.206 F 
ATOM    101  C   UNL A   1      48.461  25.866  35.847  1.00  0.00     0.059 A 
ATOM    102  C   UNL A   1      49.646  27.446  34.434  1.00  0.00     0.059 A 
ATOM    103  F   UNL A   1      48.454  28.742  32.885  1.00  0.00    -0.206 F 
ATOM    104  C   UNL A   1      49.647  26.482  35.440  1.00  0.00     0.060 A 
BRANCH 104 105
ATOM    105  S   UNL A   1      51.196  25.985  36.224  1.00  0.00     0.124 S 
ATOM    106  O   UNL A   1      52.077  25.844  35.069  1.00  0.00    -0.237 OA
ATOM    107  O   UNL A   1      51.480  27.115  37.103  1.00  0.00    -0.237 OA
ATOM    108  O   UNL A   1      50.847  24.741  36.904  1.00  0.00    -0.744 OA
ENDBRANCH 104 105
ENDBRANCH  72  97
ENDBRANCH  46  47
ENDBRANCH  39  41
ENDBRANCH  38  39
ENDBRANCH  37  38
ENDBRANCH  36  37
ENDBRANCH  35  36
ENDBRANCH   1  35
TORSDOF 21
ENDMDL
