MODEL 1
REMARK VINA RESULT:     -11.5      0.000      0.000
REMARK SMILES Cn1c(C[NH+](C)C)nnc1[C@@H]1CCC[N@@H+](Cc2ccccc2C(=O)OCCOCCOC(=O)c2ccc(-c3c4nc(c(-c5c(F)cc(S(=O)(=O)[O-])cc5F)c5ccc([nH]5)c(-c5c(F)cc(S(=O)(=O)[O-])cc5F)c5nc(c(-c6c(F)cc(S(=O)(=O)[O-])cc6F)c6ccc3[nH]6)C=C5)C=C4)cc2)C1
REMARK SMILES IDX 27 1 26 2 25 3 23 4 24 5 22 6 17 7 18 8 19 9 21 10 20 11
REMARK SMILES IDX 16 12 15 13 11 14 12 15 100 16 13 17 14 18 10 20 3 21 8 22
REMARK SMILES IDX 2 23 9 24 1 25 4 26 5 27 6 28 7 29 28 31 29 32 30 33 31 34
REMARK SMILES IDX 32 35 33 36 34 37 35 38 99 39 36 40 98 41 37 42 38 43 39 44
REMARK SMILES IDX 92 45 40 46 97 47 91 48 93 49 41 50 96 51 90 52 89 53 42 55
REMARK SMILES IDX 76 56 55 57 75 58 56 59 59 60 74 61 94 62 57 63 58 64 73 66
REMARK SMILES IDX 95 67 60 68 43 69 44 70 53 71 45 72 46 73 52 74 54 75 47 76
REMARK SMILES IDX 48 77 49 78 50 79 51 80 77 81 78 82 87 83 79 84 80 85 86 86
REMARK SMILES IDX 88 87 81 88 82 89 83 90 84 91 85 92 61 93 62 94 71 95 63 96
REMARK SMILES IDX 64 97 70 98 72 99 65 100 66 101 67 102 68 103 69 104
REMARK H PARENT 15 19 5 30 93 54 59 65
REMARK Flexibility Score: inf
ROOT
ATOM      1  C   UNL A   1      38.234  21.522  25.509  1.00  0.00     0.202 C 
ENDROOT
BRANCH   1   2
ATOM      2  C   UNL A   1      36.841  22.114  25.310  1.00  0.00     0.261 C 
BRANCH   2   3
ATOM      3  O   UNL A   1      35.955  21.207  24.611  1.00  0.00    -0.460 OA
BRANCH   3   4
ATOM      4  C   UNL A   1      34.820  20.908  25.294  1.00  0.00     0.338 C 
ATOM      5  O   UNL A   1      34.509  21.343  26.393  1.00  0.00    -0.246 OA
BRANCH   4   6
ATOM      6  C   UNL A   1      33.913  20.011  24.542  1.00  0.00     0.068 A 
ATOM      7  C   UNL A   1      32.848  20.402  23.700  1.00  0.00     0.021 A 
ATOM      8  C   UNL A   1      32.185  19.380  22.978  1.00  0.00     0.010 A 
ATOM      9  C   UNL A   1      32.568  18.040  23.069  1.00  0.00     0.001 A 
ATOM     10  C   UNL A   1      34.292  18.655  24.619  1.00  0.00     0.016 A 
ATOM     11  C   UNL A   1      33.626  17.676  23.890  1.00  0.00     0.001 A 
BRANCH   7  12
ATOM     12  C   UNL A   1      32.350  21.824  23.472  1.00  0.00     0.299 C 
BRANCH  12  13
ATOM     13  N   UNL A   1      32.022  22.660  24.648  1.00  0.00    -0.331 N 
ATOM     14  C   UNL A   1      31.157  25.060  25.159  1.00  0.00     0.113 C 
ATOM     15  C   UNL A   1      30.332  24.472  26.297  1.00  0.00     0.023 C 
ATOM     16  C   UNL A   1      31.864  24.052  24.255  1.00  0.00     0.274 C 
ATOM     17  C   UNL A   1      30.733  23.059  26.707  1.00  0.00     0.062 C 
ATOM     18  C   UNL A   1      30.962  22.146  25.502  1.00  0.00     0.262 C 
ATOM     19  H   UNL A   1      32.826  22.611  25.274  1.00  0.00     0.348 HD
BRANCH  14  20
ATOM     20  C   UNL A   1      32.073  26.205  25.441  1.00  0.00     0.141 A 
ATOM     21  C   UNL A   1      32.923  28.193  25.791  1.00  0.00     0.187 A 
ATOM     22  N   UNL A   1      33.738  27.295  26.311  1.00  0.00    -0.129 NA
ATOM     23  N   UNL A   1      31.837  27.544  25.254  1.00  0.00    -0.313 N 
ATOM     24  N   UNL A   1      33.212  26.059  26.088  1.00  0.00    -0.135 NA
ATOM     25  C   UNL A   1      30.672  28.111  24.633  1.00  0.00     0.153 C 
BRANCH  21  26
ATOM     26  C   UNL A   1      33.214  29.655  25.729  1.00  0.00     0.340 C 
BRANCH  26  27
ATOM     27  N   UNL A   1      32.759  30.469  26.852  1.00  0.00    -0.333 N 
ATOM     28  C   UNL A   1      33.831  31.137  27.554  1.00  0.00     0.332 C 
ATOM     29  C   UNL A   1      31.657  31.377  26.556  1.00  0.00     0.332 C 
ATOM     30  H   UNL A   1      32.368  29.778  27.491  1.00  0.00     0.348 HD
ENDBRANCH  26  27
ENDBRANCH  21  26
ENDBRANCH  14  20
ENDBRANCH  12  13
ENDBRANCH   7  12
ENDBRANCH   4   6
ENDBRANCH   3   4
ENDBRANCH   2   3
ENDBRANCH   1   2
BRANCH   1  31
ATOM     31  O   UNL A   1      39.079  22.207  26.432  1.00  0.00    -0.374 OA
BRANCH  31  32
ATOM     32  C   UNL A   1      40.389  21.689  26.621  1.00  0.00     0.202 C 
BRANCH  32  33
ATOM     33  C   UNL A   1      41.576  22.494  26.062  1.00  0.00     0.261 C 
BRANCH  33  34
ATOM     34  O   UNL A   1      42.019  23.636  26.818  1.00  0.00    -0.460 OA
BRANCH  34  35
ATOM     35  C   UNL A   1      41.826  24.826  26.186  1.00  0.00     0.338 C 
ATOM     36  O   UNL A   1      42.095  25.085  25.025  1.00  0.00    -0.246 OA
BRANCH  35  37
ATOM     37  C   UNL A   1      41.235  25.838  27.087  1.00  0.00     0.060 A 
ATOM     38  C   UNL A   1      41.695  27.157  27.020  1.00  0.00     0.016 A 
ATOM     39  C   UNL A   1      40.418  25.433  28.146  1.00  0.00     0.016 A 
ATOM     40  C   UNL A   1      41.370  28.062  28.041  1.00  0.00     0.010 A 
ATOM     41  C   UNL A   1      40.107  26.337  29.173  1.00  0.00     0.010 A 
ATOM     42  C   UNL A   1      40.609  27.648  29.147  1.00  0.00    -0.014 A 
BRANCH  42  43
ATOM     43  C   UNL A   1      40.454  28.551  30.322  1.00  0.00     0.031 A 
ATOM     44  C   UNL A   1      41.542  28.621  31.360  1.00  0.00     0.074 A 
ATOM     45  C   UNL A   1      39.339  29.279  30.509  1.00  0.00     0.049 A 
ATOM     46  N   UNL A   1      41.612  29.372  32.428  1.00  0.00    -0.248 NA
ATOM     47  C   UNL A   1      42.655  27.672  31.213  1.00  0.00     0.031 C 
ATOM     48  C   UNL A   1      38.139  29.196  29.686  1.00  0.00     0.029 A 
ATOM     49  N   UNL A   1      39.047  30.262  31.431  1.00  0.00    -0.354 N 
ATOM     50  C   UNL A   1      42.709  28.911  33.144  1.00  0.00     0.074 A 
ATOM     51  C   UNL A   1      43.323  27.871  32.342  1.00  0.00     0.031 C 
ATOM     52  C   UNL A   1      37.288  30.161  30.072  1.00  0.00     0.029 A 
ATOM     53  C   UNL A   1      37.905  30.968  31.120  1.00  0.00     0.049 A 
ATOM     54  H   UNL A   1      39.596  30.440  32.228  1.00  0.00     0.167 HD
ATOM     55  C   UNL A   1      43.114  29.271  34.386  1.00  0.00     0.037 A 
ATOM     56  C   UNL A   1      37.476  32.171  31.565  1.00  0.00     0.037 A 
ATOM     57  C   UNL A   1      42.504  30.311  35.175  1.00  0.00     0.049 A 
ATOM     58  C   UNL A   1      38.160  32.787  32.755  1.00  0.00     0.074 A 
ATOM     59  C   UNL A   1      42.817  30.720  36.461  1.00  0.00     0.029 A 
ATOM     60  N   UNL A   1      41.463  31.120  34.747  1.00  0.00    -0.354 N 
ATOM     61  N   UNL A   1      39.192  32.342  33.427  1.00  0.00    -0.248 NA
ATOM     62  C   UNL A   1      37.572  34.023  33.299  1.00  0.00     0.031 C 
ATOM     63  C   UNL A   1      41.951  31.761  36.819  1.00  0.00     0.029 A 
ATOM     64  C   UNL A   1      41.127  32.028  35.739  1.00  0.00     0.049 A 
ATOM     65  H   UNL A   1      41.027  31.059  33.867  1.00  0.00     0.167 HD
ATOM     66  C   UNL A   1      39.316  33.186  34.523  1.00  0.00     0.074 A 
ATOM     67  C   UNL A   1      38.334  34.237  34.363  1.00  0.00     0.031 C 
ATOM     68  C   UNL A   1      40.121  33.049  35.603  1.00  0.00     0.037 A 
BRANCH  55  69
ATOM     69  C   UNL A   1      44.207  28.454  35.013  1.00  0.00     0.058 A 
ATOM     70  C   UNL A   1      43.950  27.279  35.732  1.00  0.00     0.135 A 
ATOM     71  C   UNL A   1      45.544  28.864  34.876  1.00  0.00     0.135 A 
ATOM     72  F   UNL A   1      42.688  26.857  35.910  1.00  0.00    -0.206 F 
ATOM     73  C   UNL A   1      44.981  26.551  36.319  1.00  0.00     0.059 A 
ATOM     74  C   UNL A   1      46.592  28.139  35.433  1.00  0.00     0.059 A 
ATOM     75  F   UNL A   1      45.844  29.985  34.201  1.00  0.00    -0.206 F 
ATOM     76  C   UNL A   1      46.298  26.991  36.167  1.00  0.00     0.060 A 
BRANCH  76  77
ATOM     77  S   UNL A   1      47.628  26.046  36.938  1.00  0.00     0.124 S 
ATOM     78  O   UNL A   1      48.076  25.214  35.824  1.00  0.00    -0.237 OA
ATOM     79  O   UNL A   1      48.555  27.092  37.359  1.00  0.00    -0.237 OA
ATOM     80  O   UNL A   1      46.957  25.335  38.021  1.00  0.00    -0.744 OA
ENDBRANCH  76  77
ENDBRANCH  55  69
BRANCH  56  81
ATOM     81  C   UNL A   1      36.433  32.949  30.834  1.00  0.00     0.058 A 
ATOM     82  C   UNL A   1      35.115  32.979  31.335  1.00  0.00     0.135 A 
ATOM     83  C   UNL A   1      36.697  33.694  29.679  1.00  0.00     0.135 A 
ATOM     84  F   UNL A   1      34.804  32.280  32.438  1.00  0.00    -0.206 F 
ATOM     85  C   UNL A   1      34.106  33.720  30.728  1.00  0.00     0.059 A 
ATOM     86  C   UNL A   1      35.709  34.464  29.066  1.00  0.00     0.059 A 
ATOM     87  F   UNL A   1      37.931  33.712  29.155  1.00  0.00    -0.206 F 
ATOM     88  C   UNL A   1      34.416  34.466  29.594  1.00  0.00     0.060 A 
BRANCH  88  89
ATOM     89  S   UNL A   1      33.150  35.521  28.851  1.00  0.00     0.124 S 
ATOM     90  O   UNL A   1      32.508  36.086  30.031  1.00  0.00    -0.237 OA
ATOM     91  O   UNL A   1      33.935  36.448  28.042  1.00  0.00    -0.237 OA
ATOM     92  O   UNL A   1      32.352  34.567  28.084  1.00  0.00    -0.744 OA
ENDBRANCH  88  89
ENDBRANCH  56  81
BRANCH  68  93
ATOM     93  C   UNL A   1      39.895  33.993  36.746  1.00  0.00     0.058 A 
ATOM     94  C   UNL A   1      40.548  35.237  36.786  1.00  0.00     0.135 A 
ATOM     95  C   UNL A   1      39.003  33.686  37.783  1.00  0.00     0.135 A 
ATOM     96  F   UNL A   1      41.414  35.577  35.818  1.00  0.00    -0.206 F 
ATOM     97  C   UNL A   1      40.342  36.136  37.826  1.00  0.00     0.059 A 
ATOM     98  C   UNL A   1      38.768  34.579  38.826  1.00  0.00     0.059 A 
ATOM     99  F   UNL A   1      38.351  32.514  37.789  1.00  0.00    -0.206 F 
ATOM    100  C   UNL A   1      39.449  35.797  38.844  1.00  0.00     0.060 A 
BRANCH 100 101
ATOM    101  S   UNL A   1      39.170  36.983  40.175  1.00  0.00     0.124 S 
ATOM    102  O   UNL A   1      38.288  36.229  41.061  1.00  0.00    -0.237 OA
ATOM    103  O   UNL A   1      40.521  37.217  40.676  1.00  0.00    -0.237 OA
ATOM    104  O   UNL A   1      38.554  38.118  39.494  1.00  0.00    -0.744 OA
ENDBRANCH 100 101
ENDBRANCH  68  93
ENDBRANCH  42  43
ENDBRANCH  35  37
ENDBRANCH  34  35
ENDBRANCH  33  34
ENDBRANCH  32  33
ENDBRANCH  31  32
ENDBRANCH   1  31
TORSDOF 22
ENDMDL
MODEL 2
REMARK VINA RESULT:     -11.0      2.945      8.881
REMARK SMILES Cn1c(C[NH+](C)C)nnc1[C@@H]1CCC[N@@H+](Cc2ccccc2C(=O)OCCOCCOC(=O)c2ccc(-c3c4nc(c(-c5c(F)cc(S(=O)(=O)[O-])cc5F)c5ccc([nH]5)c(-c5c(F)cc(S(=O)(=O)[O-])cc5F)c5nc(c(-c6c(F)cc(S(=O)(=O)[O-])cc6F)c6ccc3[nH]6)C=C5)C=C4)cc2)C1
REMARK SMILES IDX 27 1 26 2 25 3 23 4 24 5 22 6 17 7 18 8 19 9 21 10 20 11
REMARK SMILES IDX 16 12 15 13 11 14 12 15 100 16 13 17 14 18 10 20 3 21 8 22
REMARK SMILES IDX 2 23 9 24 1 25 4 26 5 27 6 28 7 29 28 31 29 32 30 33 31 34
REMARK SMILES IDX 32 35 33 36 34 37 35 38 99 39 36 40 98 41 37 42 38 43 39 44
REMARK SMILES IDX 92 45 40 46 97 47 91 48 93 49 41 50 96 51 90 52 89 53 42 55
REMARK SMILES IDX 76 56 55 57 75 58 56 59 59 60 74 61 94 62 57 63 58 64 73 66
REMARK SMILES IDX 95 67 60 68 43 69 44 70 53 71 45 72 46 73 52 74 54 75 47 76
REMARK SMILES IDX 48 77 49 78 50 79 51 80 77 81 78 82 87 83 79 84 80 85 86 86
REMARK SMILES IDX 88 87 81 88 82 89 83 90 84 91 85 92 61 93 62 94 71 95 63 96
REMARK SMILES IDX 64 97 70 98 72 99 65 100 66 101 67 102 68 103 69 104
REMARK H PARENT 15 19 5 30 93 54 59 65
REMARK Flexibility Score: inf
ROOT
ATOM      1  C   UNL A   1      33.833  26.525  24.983  1.00  0.00     0.202 C 
ENDROOT
BRANCH   1   2
ATOM      2  C   UNL A   1      34.275  25.218  25.637  1.00  0.00     0.261 C 
BRANCH   2   3
ATOM      3  O   UNL A   1      35.270  24.520  24.848  1.00  0.00    -0.460 OA
BRANCH   3   4
ATOM      4  C   UNL A   1      34.757  23.838  23.792  1.00  0.00     0.338 C 
ATOM      5  O   UNL A   1      34.728  24.225  22.633  1.00  0.00    -0.246 OA
BRANCH   4   6
ATOM      6  C   UNL A   1      34.257  22.494  24.162  1.00  0.00     0.068 A 
ATOM      7  C   UNL A   1      32.945  22.003  23.980  1.00  0.00     0.021 A 
ATOM      8  C   UNL A   1      32.713  20.642  24.292  1.00  0.00     0.010 A 
ATOM      9  C   UNL A   1      33.734  19.801  24.742  1.00  0.00     0.001 A 
ATOM     10  C   UNL A   1      35.278  21.632  24.612  1.00  0.00     0.016 A 
ATOM     11  C   UNL A   1      35.020  20.297  24.902  1.00  0.00     0.001 A 
BRANCH   7  12
ATOM     12  C   UNL A   1      31.748  22.790  23.459  1.00  0.00     0.299 C 
BRANCH  12  13
ATOM     13  N   UNL A   1      31.357  24.036  24.157  1.00  0.00    -0.331 N 
ATOM     14  C   UNL A   1      29.616  25.953  23.905  1.00  0.00     0.113 C 
ATOM     15  C   UNL A   1      29.463  25.952  25.421  1.00  0.00     0.023 C 
ATOM     16  C   UNL A   1      30.475  24.834  23.319  1.00  0.00     0.274 C 
ATOM     17  C   UNL A   1      30.566  25.211  26.170  1.00  0.00     0.062 C 
ATOM     18  C   UNL A   1      30.901  23.864  25.528  1.00  0.00     0.262 C 
ATOM     19  H   UNL A   1      32.213  24.574  24.295  1.00  0.00     0.348 HD
BRANCH  14  20
ATOM     20  C   UNL A   1      29.924  27.236  23.207  1.00  0.00     0.141 A 
ATOM     21  C   UNL A   1      29.850  29.268  22.392  1.00  0.00     0.187 A 
ATOM     22  N   UNL A   1      31.111  28.880  22.428  1.00  0.00    -0.129 NA
ATOM     23  N   UNL A   1      29.065  28.263  22.906  1.00  0.00    -0.313 N 
ATOM     24  N   UNL A   1      31.156  27.614  22.928  1.00  0.00    -0.135 NA
ATOM     25  C   UNL A   1      27.645  28.257  23.116  1.00  0.00     0.153 C 
BRANCH  21  26
ATOM     26  C   UNL A   1      29.384  30.553  21.795  1.00  0.00     0.340 C 
BRANCH  26  27
ATOM     27  N   UNL A   1      28.682  31.478  22.679  1.00  0.00    -0.333 N 
ATOM     28  C   UNL A   1      29.279  31.593  23.990  1.00  0.00     0.332 C 
ATOM     29  C   UNL A   1      28.385  32.785  22.104  1.00  0.00     0.332 C 
ATOM     30  H   UNL A   1      27.774  31.031  22.802  1.00  0.00     0.348 HD
ENDBRANCH  26  27
ENDBRANCH  21  26
ENDBRANCH  14  20
ENDBRANCH  12  13
ENDBRANCH   7  12
ENDBRANCH   4   6
ENDBRANCH   3   4
ENDBRANCH   2   3
ENDBRANCH   1   2
BRANCH   1  31
ATOM     31  O   UNL A   1      33.909  27.691  25.801  1.00  0.00    -0.374 OA
BRANCH  31  32
ATOM     32  C   UNL A   1      32.735  28.484  25.914  1.00  0.00     0.202 C 
BRANCH  32  33
ATOM     33  C   UNL A   1      32.895  29.973  26.268  1.00  0.00     0.261 C 
BRANCH  33  34
ATOM     34  O   UNL A   1      33.199  30.301  27.637  1.00  0.00    -0.460 OA
BRANCH  34  35
ATOM     35  C   UNL A   1      34.033  31.367  27.777  1.00  0.00     0.338 C 
ATOM     36  O   UNL A   1      33.720  32.545  27.746  1.00  0.00    -0.246 OA
BRANCH  35  37
ATOM     37  C   UNL A   1      35.436  30.945  27.972  1.00  0.00     0.060 A 
ATOM     38  C   UNL A   1      35.715  29.591  28.191  1.00  0.00     0.016 A 
ATOM     39  C   UNL A   1      36.429  31.907  28.180  1.00  0.00     0.016 A 
ATOM     40  C   UNL A   1      36.977  29.206  28.662  1.00  0.00     0.010 A 
ATOM     41  C   UNL A   1      37.688  31.518  28.665  1.00  0.00     0.010 A 
ATOM     42  C   UNL A   1      37.961  30.170  28.942  1.00  0.00    -0.014 A 
BRANCH  42  43
ATOM     43  C   UNL A   1      39.215  29.771  29.642  1.00  0.00     0.031 A 
ATOM     44  C   UNL A   1      39.460  30.226  31.055  1.00  0.00     0.074 A 
ATOM     45  C   UNL A   1      40.165  29.045  29.025  1.00  0.00     0.049 A 
ATOM     46  N   UNL A   1      40.466  29.952  31.844  1.00  0.00    -0.248 NA
ATOM     47  C   UNL A   1      38.486  31.169  31.623  1.00  0.00     0.031 C 
ATOM     48  C   UNL A   1      40.147  28.671  27.617  1.00  0.00     0.029 A 
ATOM     49  N   UNL A   1      41.313  28.461  29.514  1.00  0.00    -0.354 N 
ATOM     50  C   UNL A   1      40.313  30.773  32.953  1.00  0.00     0.074 A 
ATOM     51  C   UNL A   1      39.068  31.492  32.770  1.00  0.00     0.031 C 
ATOM     52  C   UNL A   1      41.172  27.834  27.384  1.00  0.00     0.029 A 
ATOM     53  C   UNL A   1      41.877  27.563  28.633  1.00  0.00     0.049 A 
ATOM     54  H   UNL A   1      41.692  28.663  30.400  1.00  0.00     0.167 HD
ATOM     55  C   UNL A   1      41.172  30.961  33.985  1.00  0.00     0.037 A 
ATOM     56  C   UNL A   1      42.779  26.580  28.850  1.00  0.00     0.037 A 
ATOM     57  C   UNL A   1      42.404  30.237  34.165  1.00  0.00     0.049 A 
ATOM     58  C   UNL A   1      43.511  26.545  30.164  1.00  0.00     0.074 A 
ATOM     59  C   UNL A   1      43.361  30.387  35.156  1.00  0.00     0.029 A 
ATOM     60  N   UNL A   1      42.846  29.212  33.343  1.00  0.00    -0.354 N 
ATOM     61  N   UNL A   1      43.362  27.328  31.204  1.00  0.00    -0.248 NA
ATOM     62  C   UNL A   1      44.586  25.550  30.306  1.00  0.00     0.031 C 
ATOM     63  C   UNL A   1      44.392  29.468  34.920  1.00  0.00     0.029 A 
ATOM     64  C   UNL A   1      44.055  28.718  33.806  1.00  0.00     0.049 A 
ATOM     65  H   UNL A   1      42.370  28.883  32.547  1.00  0.00     0.167 HD
ATOM     66  C   UNL A   1      44.384  26.984  32.079  1.00  0.00     0.074 A 
ATOM     67  C   UNL A   1      45.070  25.847  31.505  1.00  0.00     0.031 C 
ATOM     68  C   UNL A   1      44.764  27.613  33.216  1.00  0.00     0.037 A 
BRANCH  55  69
ATOM     69  C   UNL A   1      40.856  32.075  34.942  1.00  0.00     0.058 A 
ATOM     70  C   UNL A   1      40.003  31.904  36.041  1.00  0.00     0.135 A 
ATOM     71  C   UNL A   1      41.435  33.341  34.747  1.00  0.00     0.135 A 
ATOM     72  F   UNL A   1      39.408  30.721  36.258  1.00  0.00    -0.206 F 
ATOM     73  C   UNL A   1      39.713  32.960  36.901  1.00  0.00     0.059 A 
ATOM     74  C   UNL A   1      41.178  34.402  35.607  1.00  0.00     0.059 A 
ATOM     75  F   UNL A   1      42.255  33.558  33.706  1.00  0.00    -0.206 F 
ATOM     76  C   UNL A   1      40.302  34.205  36.673  1.00  0.00     0.060 A 
BRANCH  76  77
ATOM     77  S   UNL A   1      39.915  35.570  37.789  1.00  0.00     0.124 S 
ATOM     78  O   UNL A   1      39.714  36.668  36.846  1.00  0.00    -0.237 OA
ATOM     79  O   UNL A   1      38.715  35.092  38.468  1.00  0.00    -0.237 OA
ATOM     80  O   UNL A   1      41.106  35.673  38.626  1.00  0.00    -0.744 OA
ENDBRANCH  76  77
ENDBRANCH  55  69
BRANCH  56  81
ATOM     81  C   UNL A   1      42.974  25.467  27.874  1.00  0.00     0.058 A 
ATOM     82  C   UNL A   1      44.015  25.553  26.927  1.00  0.00     0.135 A 
ATOM     83  C   UNL A   1      42.192  24.307  27.863  1.00  0.00     0.135 A 
ATOM     84  F   UNL A   1      44.795  26.645  26.889  1.00  0.00    -0.206 F 
ATOM     85  C   UNL A   1      44.279  24.533  26.018  1.00  0.00     0.059 A 
ATOM     86  C   UNL A   1      42.451  23.260  26.978  1.00  0.00     0.059 A 
ATOM     87  F   UNL A   1      41.188  24.161  28.741  1.00  0.00    -0.206 F 
ATOM     88  C   UNL A   1      43.493  23.384  26.057  1.00  0.00     0.060 A 
BRANCH  88  89
ATOM     89  S   UNL A   1      43.884  22.002  24.960  1.00  0.00     0.124 S 
ATOM     90  O   UNL A   1      45.252  21.692  25.353  1.00  0.00    -0.237 OA
ATOM     91  O   UNL A   1      42.873  21.011  25.316  1.00  0.00    -0.237 OA
ATOM     92  O   UNL A   1      43.718  22.593  23.634  1.00  0.00    -0.744 OA
ENDBRANCH  88  89
ENDBRANCH  56  81
BRANCH  68  93
ATOM     93  C   UNL A   1      46.043  27.156  33.853  1.00  0.00     0.058 A 
ATOM     94  C   UNL A   1      46.040  26.111  34.792  1.00  0.00     0.135 A 
ATOM     95  C   UNL A   1      47.277  27.724  33.507  1.00  0.00     0.135 A 
ATOM     96  F   UNL A   1      44.883  25.535  35.159  1.00  0.00    -0.206 F 
ATOM     97  C   UNL A   1      47.213  25.658  35.383  1.00  0.00     0.059 A 
ATOM     98  C   UNL A   1      48.467  27.274  34.074  1.00  0.00     0.059 A 
ATOM     99  F   UNL A   1      47.335  28.722  32.612  1.00  0.00    -0.206 F 
ATOM    100  C   UNL A   1      48.424  26.248  35.018  1.00  0.00     0.060 A 
BRANCH 100 101
ATOM    101  S   UNL A   1      49.944  25.634  35.773  1.00  0.00     0.124 S 
ATOM    102  O   UNL A   1      50.525  24.862  34.680  1.00  0.00    -0.237 OA
ATOM    103  O   UNL A   1      50.644  26.868  36.120  1.00  0.00    -0.237 OA
ATOM    104  O   UNL A   1      49.466  24.852  36.909  1.00  0.00    -0.744 OA
ENDBRANCH 100 101
ENDBRANCH  68  93
ENDBRANCH  42  43
ENDBRANCH  35  37
ENDBRANCH  34  35
ENDBRANCH  33  34
ENDBRANCH  32  33
ENDBRANCH  31  32
ENDBRANCH   1  31
TORSDOF 22
ENDMDL
MODEL 3
REMARK VINA RESULT:      -9.4      2.812      8.867
REMARK SMILES Cn1c(C[NH+](C)C)nnc1[C@@H]1CCC[N@@H+](Cc2ccccc2C(=O)OCCOCCOC(=O)c2ccc(-c3c4nc(c(-c5c(F)cc(S(=O)(=O)[O-])cc5F)c5ccc([nH]5)c(-c5c(F)cc(S(=O)(=O)[O-])cc5F)c5nc(c(-c6c(F)cc(S(=O)(=O)[O-])cc6F)c6ccc3[nH]6)C=C5)C=C4)cc2)C1
REMARK SMILES IDX 27 1 26 2 25 3 23 4 24 5 22 6 17 7 18 8 19 9 21 10 20 11
REMARK SMILES IDX 16 12 15 13 11 14 12 15 100 16 13 17 14 18 10 20 3 21 8 22
REMARK SMILES IDX 2 23 9 24 1 25 4 26 5 27 6 28 7 29 28 31 29 32 30 33 31 34
REMARK SMILES IDX 32 35 33 36 34 37 35 38 99 39 36 40 98 41 37 42 38 43 39 44
REMARK SMILES IDX 92 45 40 46 97 47 91 48 93 49 41 50 96 51 90 52 89 53 42 55
REMARK SMILES IDX 76 56 55 57 75 58 56 59 59 60 74 61 94 62 57 63 58 64 73 66
REMARK SMILES IDX 95 67 60 68 43 69 44 70 53 71 45 72 46 73 52 74 54 75 47 76
REMARK SMILES IDX 48 77 49 78 50 79 51 80 77 81 78 82 87 83 79 84 80 85 86 86
REMARK SMILES IDX 88 87 81 88 82 89 83 90 84 91 85 92 61 93 62 94 71 95 63 96
REMARK SMILES IDX 64 97 70 98 72 99 65 100 66 101 67 102 68 103 69 104
REMARK H PARENT 15 19 5 30 93 54 59 65
REMARK Flexibility Score: inf
ROOT
ATOM      1  C   UNL A   1      33.700  25.923  25.179  1.00  0.00     0.202 C 
ENDROOT
BRANCH   1   2
ATOM      2  C   UNL A   1      34.527  24.762  25.724  1.00  0.00     0.261 C 
BRANCH   2   3
ATOM      3  O   UNL A   1      35.664  24.457  24.880  1.00  0.00    -0.460 OA
BRANCH   3   4
ATOM      4  C   UNL A   1      35.436  23.461  23.986  1.00  0.00     0.338 C 
ATOM      5  O   UNL A   1      34.898  23.585  22.895  1.00  0.00    -0.246 OA
BRANCH   4   6
ATOM      6  C   UNL A   1      35.966  22.152  24.432  1.00  0.00     0.068 A 
ATOM      7  C   UNL A   1      35.213  20.993  24.722  1.00  0.00     0.021 A 
ATOM      8  C   UNL A   1      35.933  19.809  25.015  1.00  0.00     0.010 A 
ATOM      9  C   UNL A   1      37.329  19.768  25.001  1.00  0.00     0.001 A 
ATOM     10  C   UNL A   1      37.375  22.095  24.417  1.00  0.00     0.016 A 
ATOM     11  C   UNL A   1      38.052  20.914  24.700  1.00  0.00     0.001 A 
BRANCH   7  12
ATOM     12  C   UNL A   1      33.693  20.879  24.733  1.00  0.00     0.299 C 
BRANCH  12  13
ATOM     13  N   UNL A   1      32.898  22.023  25.235  1.00  0.00    -0.331 N 
ATOM     14  C   UNL A   1      30.705  23.289  24.637  1.00  0.00     0.113 C 
ATOM     15  C   UNL A   1      30.426  23.418  26.129  1.00  0.00     0.023 C 
ATOM     16  C   UNL A   1      31.900  22.418  24.252  1.00  0.00     0.274 C 
ATOM     17  C   UNL A   1      31.626  23.132  27.026  1.00  0.00     0.062 C 
ATOM     18  C   UNL A   1      32.393  21.883  26.592  1.00  0.00     0.262 C 
ATOM     19  H   UNL A   1      33.545  22.804  25.340  1.00  0.00     0.348 HD
BRANCH  14  20
ATOM     20  C   UNL A   1      30.688  24.516  23.786  1.00  0.00     0.141 A 
ATOM     21  C   UNL A   1      30.437  26.553  23.022  1.00  0.00     0.187 A 
ATOM     22  N   UNL A   1      31.328  25.935  22.272  1.00  0.00    -0.129 NA
ATOM     23  N   UNL A   1      30.026  25.696  24.015  1.00  0.00    -0.313 N 
ATOM     24  N   UNL A   1      31.480  24.667  22.743  1.00  0.00    -0.135 NA
ATOM     25  C   UNL A   1      29.111  25.948  25.093  1.00  0.00     0.153 C 
BRANCH  21  26
ATOM     26  C   UNL A   1      29.914  27.924  22.748  1.00  0.00     0.340 C 
BRANCH  26  27
ATOM     27  N   UNL A   1      30.839  28.878  22.144  1.00  0.00    -0.333 N 
ATOM     28  C   UNL A   1      30.196  30.073  21.648  1.00  0.00     0.332 C 
ATOM     29  C   UNL A   1      32.020  29.189  22.941  1.00  0.00     0.332 C 
ATOM     30  H   UNL A   1      31.194  28.369  21.335  1.00  0.00     0.348 HD
ENDBRANCH  26  27
ENDBRANCH  21  26
ENDBRANCH  14  20
ENDBRANCH  12  13
ENDBRANCH   7  12
ENDBRANCH   4   6
ENDBRANCH   3   4
ENDBRANCH   2   3
ENDBRANCH   1   2
BRANCH   1  31
ATOM     31  O   UNL A   1      34.060  27.222  25.648  1.00  0.00    -0.374 OA
BRANCH  31  32
ATOM     32  C   UNL A   1      33.105  27.916  26.440  1.00  0.00     0.202 C 
BRANCH  32  33
ATOM     33  C   UNL A   1      33.178  29.452  26.486  1.00  0.00     0.261 C 
BRANCH  33  34
ATOM     34  O   UNL A   1      33.518  30.063  27.744  1.00  0.00    -0.460 OA
BRANCH  34  35
ATOM     35  C   UNL A   1      34.380  31.110  27.635  1.00  0.00     0.338 C 
ATOM     36  O   UNL A   1      34.093  32.263  27.360  1.00  0.00    -0.246 OA
BRANCH  35  37
ATOM     37  C   UNL A   1      35.778  30.701  27.885  1.00  0.00     0.060 A 
ATOM     38  C   UNL A   1      36.057  29.353  28.135  1.00  0.00     0.016 A 
ATOM     39  C   UNL A   1      36.757  31.673  28.111  1.00  0.00     0.016 A 
ATOM     40  C   UNL A   1      37.305  28.983  28.654  1.00  0.00     0.010 A 
ATOM     41  C   UNL A   1      38.001  31.300  28.644  1.00  0.00     0.010 A 
ATOM     42  C   UNL A   1      38.272  29.958  28.952  1.00  0.00    -0.014 A 
BRANCH  42  43
ATOM     43  C   UNL A   1      39.504  29.578  29.701  1.00  0.00     0.031 A 
ATOM     44  C   UNL A   1      39.693  30.048  31.117  1.00  0.00     0.074 A 
ATOM     45  C   UNL A   1      40.483  28.856  29.125  1.00  0.00     0.049 A 
ATOM     46  N   UNL A   1      40.673  29.791  31.945  1.00  0.00    -0.248 NA
ATOM     47  C   UNL A   1      38.690  30.986  31.641  1.00  0.00     0.031 C 
ATOM     48  C   UNL A   1      40.520  28.469  27.721  1.00  0.00     0.029 A 
ATOM     49  N   UNL A   1      41.619  28.288  29.661  1.00  0.00    -0.354 N 
ATOM     50  C   UNL A   1      40.471  30.621  33.040  1.00  0.00     0.074 A 
ATOM     51  C   UNL A   1      39.227  31.326  32.805  1.00  0.00     0.031 C 
ATOM     52  C   UNL A   1      41.561  27.641  27.533  1.00  0.00     0.029 A 
ATOM     53  C   UNL A   1      42.223  27.389  28.809  1.00  0.00     0.049 A 
ATOM     54  H   UNL A   1      41.963  28.503  30.558  1.00  0.00     0.167 HD
ATOM     55  C   UNL A   1      41.290  30.827  34.100  1.00  0.00     0.037 A 
ATOM     56  C   UNL A   1      43.126  26.417  29.068  1.00  0.00     0.037 A 
ATOM     57  C   UNL A   1      42.522  30.117  34.332  1.00  0.00     0.049 A 
ATOM     58  C   UNL A   1      43.810  26.401  30.408  1.00  0.00     0.074 A 
ATOM     59  C   UNL A   1      43.441  30.286  35.355  1.00  0.00     0.029 A 
ATOM     60  N   UNL A   1      43.004  29.090  33.536  1.00  0.00    -0.354 N 
ATOM     61  N   UNL A   1      43.616  27.192  31.435  1.00  0.00    -0.248 NA
ATOM     62  C   UNL A   1      44.890  25.419  30.598  1.00  0.00     0.031 C 
ATOM     63  C   UNL A   1      44.489  29.376  35.165  1.00  0.00     0.029 A 
ATOM     64  C   UNL A   1      44.201  28.613  34.047  1.00  0.00     0.049 A 
ATOM     65  H   UNL A   1      42.560  28.749  32.726  1.00  0.00     0.167 HD
ATOM     66  C   UNL A   1      44.609  26.867  32.349  1.00  0.00     0.074 A 
ATOM     67  C   UNL A   1      45.327  25.731  31.810  1.00  0.00     0.031 C 
ATOM     68  C   UNL A   1      44.942  27.510  33.493  1.00  0.00     0.037 A 
BRANCH  55  69
ATOM     69  C   UNL A   1      40.929  31.947  35.034  1.00  0.00     0.058 A 
ATOM     70  C   UNL A   1      41.401  33.255  34.859  1.00  0.00     0.135 A 
ATOM     71  C   UNL A   1      40.083  31.692  36.127  1.00  0.00     0.135 A 
ATOM     72  F   UNL A   1      42.230  33.545  33.843  1.00  0.00    -0.206 F 
ATOM     73  C   UNL A   1      41.066  34.269  35.751  1.00  0.00     0.059 A 
ATOM     74  C   UNL A   1      39.716  32.695  37.016  1.00  0.00     0.059 A 
ATOM     75  F   UNL A   1      39.608  30.455  36.342  1.00  0.00    -0.206 F 
ATOM     76  C   UNL A   1      40.227  33.978  36.829  1.00  0.00     0.060 A 
BRANCH  76  77
ATOM     77  S   UNL A   1      39.804  35.298  37.986  1.00  0.00     0.124 S 
ATOM     78  O   UNL A   1      40.941  35.258  38.900  1.00  0.00    -0.237 OA
ATOM     79  O   UNL A   1      39.731  36.468  37.116  1.00  0.00    -0.237 OA
ATOM     80  O   UNL A   1      38.531  34.860  38.549  1.00  0.00    -0.744 OA
ENDBRANCH  76  77
ENDBRANCH  55  69
BRANCH  56  81
ATOM     81  C   UNL A   1      43.367  25.298  28.110  1.00  0.00     0.058 A 
ATOM     82  C   UNL A   1      42.564  24.141  28.182  1.00  0.00     0.135 A 
ATOM     83  C   UNL A   1      44.337  25.342  27.102  1.00  0.00     0.135 A 
ATOM     84  F   UNL A   1      41.620  24.041  29.131  1.00  0.00    -0.206 F 
ATOM     85  C   UNL A   1      42.706  23.081  27.292  1.00  0.00     0.059 A 
ATOM     86  C   UNL A   1      44.483  24.303  26.183  1.00  0.00     0.059 A 
ATOM     87  F   UNL A   1      45.130  26.416  26.976  1.00  0.00    -0.206 F 
ATOM     88  C   UNL A   1      43.667  23.176  26.289  1.00  0.00     0.060 A 
BRANCH  88  89
ATOM     89  S   UNL A   1      43.798  21.860  25.056  1.00  0.00     0.124 S 
ATOM     90  O   UNL A   1      42.678  21.002  25.423  1.00  0.00    -0.237 OA
ATOM     91  O   UNL A   1      43.666  22.583  23.796  1.00  0.00    -0.237 OA
ATOM     92  O   UNL A   1      45.130  21.316  25.312  1.00  0.00    -0.744 OA
ENDBRANCH  88  89
ENDBRANCH  56  81
BRANCH  68  93
ATOM     93  C   UNL A   1      46.201  27.071  34.180  1.00  0.00     0.058 A 
ATOM     94  C   UNL A   1      46.163  26.085  35.181  1.00  0.00     0.135 A 
ATOM     95  C   UNL A   1      47.450  27.597  33.823  1.00  0.00     0.135 A 
ATOM     96  F   UNL A   1      44.991  25.553  35.560  1.00  0.00    -0.206 F 
ATOM     97  C   UNL A   1      47.318  25.650  35.820  1.00  0.00     0.059 A 
ATOM     98  C   UNL A   1      48.622  27.163  34.438  1.00  0.00     0.059 A 
ATOM     99  F   UNL A   1      47.541  28.537  32.870  1.00  0.00    -0.206 F 
ATOM    100  C   UNL A   1      48.545  26.197  35.441  1.00  0.00     0.060 A 
BRANCH 100 101
ATOM    101  S   UNL A   1      50.041  25.606  36.261  1.00  0.00     0.124 S 
ATOM    102  O   UNL A   1      50.422  26.770  37.054  1.00  0.00    -0.237 OA
ATOM    103  O   UNL A   1      49.552  24.456  37.016  1.00  0.00    -0.237 OA
ATOM    104  O   UNL A   1      50.931  25.285  35.149  1.00  0.00    -0.744 OA
ENDBRANCH 100 101
ENDBRANCH  68  93
ENDBRANCH  42  43
ENDBRANCH  35  37
ENDBRANCH  34  35
ENDBRANCH  33  34
ENDBRANCH  32  33
ENDBRANCH  31  32
ENDBRANCH   1  31
TORSDOF 22
ENDMDL
