MODEL 1
REMARK VINA RESULT:      -9.8      0.000      0.000
REMARK SMILES CCC(CC)(NC(=O)c1c(C)noc1C)C(=O)OCCOCCOC(=O)c1ccc(-c2c3nc(c(-c4c(F)cc(S(=O)(=O)[O-])cc4F)c4ccc([nH]4)c(-c4c(F)cc(S(=O)(=O)[O-])cc4F)c4nc(c(-c5c(F)cc(S(=O)(=O)[O-])cc5F)c5ccc2[nH]5)C=C4)C=C3)cc1
REMARK SMILES IDX 22 1 21 2 20 3 19 4 18 5 16 6 17 7 3 8 2 9 1 10 4 11 5 12
REMARK SMILES IDX 6 13 7 14 8 16 9 17 10 18 14 19 11 20 12 21 13 22 15 23
REMARK SMILES IDX 23 24 24 25 25 26 26 27 27 28 28 29 92 30 29 31 91 32 30 33
REMARK SMILES IDX 31 34 32 35 85 36 33 37 90 38 84 39 86 40 34 41 89 42 83 43
REMARK SMILES IDX 82 44 35 46 69 47 48 48 68 49 49 50 52 51 67 52 87 53 50 54
REMARK SMILES IDX 51 55 66 57 88 58 53 59 36 60 37 61 46 62 38 63 39 64 45 65
REMARK SMILES IDX 47 66 40 67 41 68 42 69 43 70 44 71 70 72 71 73 80 74 72 75
REMARK SMILES IDX 73 76 79 77 81 78 74 79 75 80 76 81 77 82 78 83 54 84 55 85
REMARK SMILES IDX 64 86 56 87 57 88 63 89 65 90 58 91 59 92 60 93 61 94 62 95
REMARK H PARENT 6 15 86 45 52 56
REMARK Flexibility Score: inf
ROOT
ATOM      1  C   UNL A   1      31.915  29.605  26.313  1.00  0.00     0.202 C 
ENDROOT
BRANCH   1   2
ATOM      2  O   UNL A   1      31.374  29.677  24.981  1.00  0.00    -0.374 OA
BRANCH   2   3
ATOM      3  C   UNL A   1      31.816  28.898  23.845  1.00  0.00     0.202 C 
BRANCH   3   4
ATOM      4  C   UNL A   1      30.935  27.967  22.981  1.00  0.00     0.261 C 
BRANCH   4   5
ATOM      5  O   UNL A   1      31.242  26.605  23.196  1.00  0.00    -0.461 OA
BRANCH   5   6
ATOM      6  C   UNL A   1      30.884  26.037  24.364  1.00  0.00     0.331 C 
ATOM      7  O   UNL A   1      29.868  26.306  24.990  1.00  0.00    -0.249 OA
BRANCH   6   8
ATOM      8  C   UNL A   1      31.868  24.897  24.716  1.00  0.00     0.137 C 
BRANCH   8   9
ATOM      9  C   UNL A   1      30.946  23.629  24.920  1.00  0.00     0.037 C 
ATOM     10  C   UNL A   1      30.946  22.969  26.302  1.00  0.00     0.007 C 
ENDBRANCH   8   9
BRANCH   8  11
ATOM     11  C   UNL A   1      32.643  25.249  26.007  1.00  0.00     0.037 C 
ATOM     12  C   UNL A   1      33.695  26.350  25.862  1.00  0.00     0.007 C 
ENDBRANCH   8  11
BRANCH   8  13
ATOM     13  N   UNL A   1      32.843  24.520  23.615  1.00  0.00    -0.336 N 
ATOM     14  C   UNL A   1      33.791  23.547  23.340  1.00  0.00     0.257 C 
ATOM     15  H   UNL A   1      32.785  25.162  22.871  1.00  0.00     0.165 HD
ATOM     16  O   UNL A   1      34.025  23.427  22.134  1.00  0.00    -0.269 OA
BRANCH  14  17
ATOM     17  C   UNL A   1      34.444  22.666  24.315  1.00  0.00     0.105 A 
ATOM     18  C   UNL A   1      35.733  22.608  25.012  1.00  0.00     0.093 A 
ATOM     19  C   UNL A   1      33.970  21.387  24.533  1.00  0.00     0.146 A 
ATOM     20  C   UNL A   1      36.944  23.460  25.131  1.00  0.00     0.071 C 
ATOM     21  N   UNL A   1      35.840  21.475  25.718  1.00  0.00    -0.084 NA
ATOM     22  O   UNL A   1      34.761  20.713  25.392  1.00  0.00    -0.361 OA
ATOM     23  C   UNL A   1      32.870  20.604  23.959  1.00  0.00     0.092 C 
ENDBRANCH  14  17
ENDBRANCH   8  13
ENDBRANCH   6   8
ENDBRANCH   5   6
ENDBRANCH   4   5
ENDBRANCH   3   4
ENDBRANCH   2   3
ENDBRANCH   1   2
BRANCH   1  24
ATOM     24  C   UNL A   1      33.340  30.220  26.625  1.00  0.00     0.261 C 
BRANCH  24  25
ATOM     25  O   UNL A   1      33.759  30.044  28.028  1.00  0.00    -0.460 OA
BRANCH  25  26
ATOM     26  C   UNL A   1      34.730  30.857  28.564  1.00  0.00     0.338 C 
ATOM     27  O   UNL A   1      34.510  31.929  29.101  1.00  0.00    -0.246 OA
BRANCH  26  28
ATOM     28  C   UNL A   1      36.110  30.215  28.554  1.00  0.00     0.060 A 
ATOM     29  C   UNL A   1      36.669  29.726  29.746  1.00  0.00     0.016 A 
ATOM     30  C   UNL A   1      36.920  30.171  27.412  1.00  0.00     0.016 A 
ATOM     31  C   UNL A   1      37.910  29.064  29.778  1.00  0.00     0.010 A 
ATOM     32  C   UNL A   1      38.222  29.601  27.464  1.00  0.00     0.010 A 
ATOM     33  C   UNL A   1      38.731  29.033  28.647  1.00  0.00    -0.014 A 
BRANCH  33  34
ATOM     34  C   UNL A   1      40.171  28.634  28.797  1.00  0.00     0.031 A 
ATOM     35  C   UNL A   1      41.161  29.675  29.277  1.00  0.00     0.074 A 
ATOM     36  C   UNL A   1      40.625  27.383  28.573  1.00  0.00     0.049 A 
ATOM     37  N   UNL A   1      42.463  29.600  29.398  1.00  0.00    -0.248 NA
ATOM     38  C   UNL A   1      40.597  30.968  29.697  1.00  0.00     0.031 C 
ATOM     39  C   UNL A   1      39.800  26.225  28.239  1.00  0.00     0.029 A 
ATOM     40  N   UNL A   1      41.911  26.878  28.593  1.00  0.00    -0.354 N 
ATOM     41  C   UNL A   1      42.871  30.833  29.898  1.00  0.00     0.074 A 
ATOM     42  C   UNL A   1      41.677  31.630  30.077  1.00  0.00     0.031 C 
ATOM     43  C   UNL A   1      40.600  25.157  28.045  1.00  0.00     0.029 A 
ATOM     44  C   UNL A   1      42.000  25.560  28.201  1.00  0.00     0.049 A 
ATOM     45  H   UNL A   1      42.693  27.412  28.863  1.00  0.00     0.167 HD
ATOM     46  C   UNL A   1      44.121  31.283  30.163  1.00  0.00     0.037 A 
ATOM     47  C   UNL A   1      43.079  24.781  27.955  1.00  0.00     0.037 A 
ATOM     48  C   UNL A   1      45.326  30.528  29.949  1.00  0.00     0.049 A 
ATOM     49  C   UNL A   1      44.475  25.340  28.128  1.00  0.00     0.074 A 
ATOM     50  C   UNL A   1      46.638  30.929  30.139  1.00  0.00     0.029 A 
ATOM     51  N   UNL A   1      45.369  29.225  29.483  1.00  0.00    -0.354 N 
ATOM     52  N   UNL A   1      44.845  26.522  28.560  1.00  0.00    -0.248 NA
ATOM     53  C   UNL A   1      45.602  24.463  27.766  1.00  0.00     0.031 C 
ATOM     54  C   UNL A   1      47.477  29.882  29.741  1.00  0.00     0.029 A 
ATOM     55  C   UNL A   1      46.686  28.814  29.352  1.00  0.00     0.049 A 
ATOM     56  H   UNL A   1      44.582  28.673  29.274  1.00  0.00     0.167 HD
ATOM     57  C   UNL A   1      46.238  26.522  28.539  1.00  0.00     0.074 A 
ATOM     58  C   UNL A   1      46.650  25.220  28.060  1.00  0.00     0.031 C 
ATOM     59  C   UNL A   1      47.097  27.514  28.885  1.00  0.00     0.037 A 
BRANCH  46  60
ATOM     60  C   UNL A   1      44.247  32.703  30.637  1.00  0.00     0.058 A 
ATOM     61  C   UNL A   1      44.363  33.025  31.997  1.00  0.00     0.135 A 
ATOM     62  C   UNL A   1      44.237  33.758  29.710  1.00  0.00     0.135 A 
ATOM     63  F   UNL A   1      44.353  32.055  32.925  1.00  0.00    -0.206 F 
ATOM     64  C   UNL A   1      44.434  34.347  32.425  1.00  0.00     0.059 A 
ATOM     65  C   UNL A   1      44.329  35.086  30.113  1.00  0.00     0.059 A 
ATOM     66  F   UNL A   1      44.123  33.503  28.397  1.00  0.00    -0.206 F 
ATOM     67  C   UNL A   1      44.409  35.371  31.475  1.00  0.00     0.060 A 
BRANCH  67  68
ATOM     68  S   UNL A   1      44.475  37.083  32.044  1.00  0.00     0.124 S 
ATOM     69  O   UNL A   1      45.589  37.607  31.260  1.00  0.00    -0.237 OA
ATOM     70  O   UNL A   1      43.154  37.586  31.683  1.00  0.00    -0.237 OA
ATOM     71  O   UNL A   1      44.723  36.955  33.478  1.00  0.00    -0.744 OA
ENDBRANCH  67  68
ENDBRANCH  46  60
BRANCH  47  72
ATOM     72  C   UNL A   1      42.900  23.392  27.436  1.00  0.00     0.058 A 
ATOM     73  C   UNL A   1      42.500  22.337  28.270  1.00  0.00     0.135 A 
ATOM     74  C   UNL A   1      43.172  23.086  26.092  1.00  0.00     0.135 A 
ATOM     75  F   UNL A   1      42.261  22.565  29.571  1.00  0.00    -0.206 F 
ATOM     76  C   UNL A   1      42.374  21.034  27.793  1.00  0.00     0.059 A 
ATOM     77  C   UNL A   1      43.030  21.798  25.586  1.00  0.00     0.059 A 
ATOM     78  F   UNL A   1      43.572  24.053  25.250  1.00  0.00    -0.206 F 
ATOM     79  C   UNL A   1      42.636  20.775  26.447  1.00  0.00     0.060 A 
BRANCH  79  80
ATOM     80  S   UNL A   1      42.408  19.096  25.817  1.00  0.00     0.124 S 
ATOM     81  O   UNL A   1      43.161  19.143  24.569  1.00  0.00    -0.237 OA
ATOM     82  O   UNL A   1      42.987  18.285  26.883  1.00  0.00    -0.237 OA
ATOM     83  O   UNL A   1      40.959  18.986  25.677  1.00  0.00    -0.744 OA
ENDBRANCH  79  80
ENDBRANCH  47  72
BRANCH  59  84
ATOM     84  C   UNL A   1      48.574  27.240  28.798  1.00  0.00     0.058 A 
ATOM     85  C   UNL A   1      49.328  27.598  27.670  1.00  0.00     0.135 A 
ATOM     86  C   UNL A   1      49.262  26.692  29.894  1.00  0.00     0.135 A 
ATOM     87  F   UNL A   1      48.723  28.124  26.592  1.00  0.00    -0.206 F 
ATOM     88  C   UNL A   1      50.707  27.413  27.626  1.00  0.00     0.059 A 
ATOM     89  C   UNL A   1      50.643  26.518  29.881  1.00  0.00     0.059 A 
ATOM     90  F   UNL A   1      48.592  26.343  31.005  1.00  0.00    -0.206 F 
ATOM     91  C   UNL A   1      51.358  26.874  28.739  1.00  0.00     0.060 A 
BRANCH  91  92
ATOM     92  S   UNL A   1      53.154  26.686  28.692  1.00  0.00     0.124 S 
ATOM     93  O   UNL A   1      53.444  26.289  30.065  1.00  0.00    -0.237 OA
ATOM     94  O   UNL A   1      53.337  25.649  27.681  1.00  0.00    -0.237 OA
ATOM     95  O   UNL A   1      53.625  28.014  28.309  1.00  0.00    -0.744 OA
ENDBRANCH  91  92
ENDBRANCH  59  84
ENDBRANCH  33  34
ENDBRANCH  26  28
ENDBRANCH  25  26
ENDBRANCH  24  25
ENDBRANCH   1  24
TORSDOF 21
ENDMDL
MODEL 2
REMARK VINA RESULT:      -9.6      2.791      3.423
REMARK SMILES CCC(CC)(NC(=O)c1c(C)noc1C)C(=O)OCCOCCOC(=O)c1ccc(-c2c3nc(c(-c4c(F)cc(S(=O)(=O)[O-])cc4F)c4ccc([nH]4)c(-c4c(F)cc(S(=O)(=O)[O-])cc4F)c4nc(c(-c5c(F)cc(S(=O)(=O)[O-])cc5F)c5ccc2[nH]5)C=C4)C=C3)cc1
REMARK SMILES IDX 22 1 21 2 20 3 19 4 18 5 16 6 17 7 3 8 2 9 1 10 4 11 5 12
REMARK SMILES IDX 6 13 7 14 8 16 9 17 10 18 14 19 11 20 12 21 13 22 15 23
REMARK SMILES IDX 23 24 24 25 25 26 26 27 27 28 28 29 92 30 29 31 91 32 30 33
REMARK SMILES IDX 31 34 32 35 85 36 33 37 90 38 84 39 86 40 34 41 89 42 83 43
REMARK SMILES IDX 82 44 35 46 69 47 48 48 68 49 49 50 52 51 67 52 87 53 50 54
REMARK SMILES IDX 51 55 66 57 88 58 53 59 36 60 37 61 46 62 38 63 39 64 45 65
REMARK SMILES IDX 47 66 40 67 41 68 42 69 43 70 44 71 70 72 71 73 80 74 72 75
REMARK SMILES IDX 73 76 79 77 81 78 74 79 75 80 76 81 77 82 78 83 54 84 55 85
REMARK SMILES IDX 64 86 56 87 57 88 63 89 65 90 58 91 59 92 60 93 61 94 62 95
REMARK H PARENT 6 15 86 45 52 56
REMARK Flexibility Score: inf
ROOT
ATOM      1  C   UNL A   1      31.513  29.376  25.558  1.00  0.00     0.202 C 
ENDROOT
BRANCH   1   2
ATOM      2  O   UNL A   1      30.909  29.423  24.252  1.00  0.00    -0.374 OA
BRANCH   2   3
ATOM      3  C   UNL A   1      31.415  28.775  23.062  1.00  0.00     0.202 C 
BRANCH   3   4
ATOM      4  C   UNL A   1      30.747  27.601  22.311  1.00  0.00     0.261 C 
BRANCH   4   5
ATOM      5  O   UNL A   1      31.295  26.355  22.690  1.00  0.00    -0.461 OA
BRANCH   5   6
ATOM      6  C   UNL A   1      30.841  25.762  23.811  1.00  0.00     0.331 C 
ATOM      7  O   UNL A   1      29.679  25.781  24.191  1.00  0.00    -0.249 OA
BRANCH   6   8
ATOM      8  C   UNL A   1      31.975  24.936  24.462  1.00  0.00     0.137 C 
BRANCH   8   9
ATOM      9  C   UNL A   1      31.271  23.600  24.929  1.00  0.00     0.037 C 
ATOM     10  C   UNL A   1      31.296  23.272  26.426  1.00  0.00     0.007 C 
ENDBRANCH   8   9
BRANCH   8  11
ATOM     11  C   UNL A   1      32.571  25.711  25.661  1.00  0.00     0.037 C 
ATOM     12  C   UNL A   1      33.822  26.536  25.351  1.00  0.00     0.007 C 
ENDBRANCH   8  11
BRANCH   8  13
ATOM     13  N   UNL A   1      33.085  24.505  23.522  1.00  0.00    -0.336 N 
ATOM     14  C   UNL A   1      33.875  23.394  23.269  1.00  0.00     0.257 C 
ATOM     15  H   UNL A   1      33.315  25.236  22.905  1.00  0.00     0.165 HD
ATOM     16  O   UNL A   1      34.348  23.386  22.129  1.00  0.00    -0.269 OA
BRANCH  14  17
ATOM     17  C   UNL A   1      34.119  22.272  24.182  1.00  0.00     0.105 A 
ATOM     18  C   UNL A   1      33.504  20.971  24.467  1.00  0.00     0.093 A 
ATOM     19  C   UNL A   1      34.922  22.432  25.294  1.00  0.00     0.146 A 
ATOM     20  C   UNL A   1      32.409  20.138  23.907  1.00  0.00     0.071 C 
ATOM     21  N   UNL A   1      34.087  20.393  25.525  1.00  0.00    -0.084 NA
ATOM     22  O   UNL A   1      34.941  21.314  26.048  1.00  0.00    -0.361 OA
ATOM     23  C   UNL A   1      35.657  23.571  25.856  1.00  0.00     0.092 C 
ENDBRANCH  14  17
ENDBRANCH   8  13
ENDBRANCH   6   8
ENDBRANCH   5   6
ENDBRANCH   4   5
ENDBRANCH   3   4
ENDBRANCH   2   3
ENDBRANCH   1   2
BRANCH   1  24
ATOM     24  C   UNL A   1      32.927  30.044  25.803  1.00  0.00     0.261 C 
BRANCH  24  25
ATOM     25  O   UNL A   1      33.432  29.858  27.176  1.00  0.00    -0.460 OA
BRANCH  25  26
ATOM     26  C   UNL A   1      34.248  30.809  27.744  1.00  0.00     0.338 C 
ATOM     27  O   UNL A   1      33.899  31.948  28.003  1.00  0.00    -0.246 OA
BRANCH  26  28
ATOM     28  C   UNL A   1      35.603  30.253  28.159  1.00  0.00     0.060 A 
ATOM     29  C   UNL A   1      35.794  29.761  29.461  1.00  0.00     0.016 A 
ATOM     30  C   UNL A   1      36.729  30.293  27.328  1.00  0.00     0.016 A 
ATOM     31  C   UNL A   1      37.005  29.176  29.873  1.00  0.00     0.010 A 
ATOM     32  C   UNL A   1      37.985  29.802  27.779  1.00  0.00     0.010 A 
ATOM     33  C   UNL A   1      38.137  29.230  29.056  1.00  0.00    -0.014 A 
BRANCH  33  34
ATOM     34  C   UNL A   1      39.483  28.915  29.644  1.00  0.00     0.031 A 
ATOM     35  C   UNL A   1      39.984  29.767  30.792  1.00  0.00     0.074 A 
ATOM     36  C   UNL A   1      40.251  27.881  29.239  1.00  0.00     0.049 A 
ATOM     37  N   UNL A   1      41.143  29.751  31.403  1.00  0.00    -0.248 NA
ATOM     38  C   UNL A   1      39.038  30.755  31.333  1.00  0.00     0.031 C 
ATOM     39  C   UNL A   1      39.873  26.878  28.247  1.00  0.00     0.029 A 
ATOM     40  N   UNL A   1      41.524  27.507  29.620  1.00  0.00    -0.354 N 
ATOM     41  C   UNL A   1      41.066  30.729  32.391  1.00  0.00     0.074 A 
ATOM     42  C   UNL A   1      39.742  31.304  32.310  1.00  0.00     0.031 C 
ATOM     43  C   UNL A   1      40.904  26.029  28.067  1.00  0.00     0.029 A 
ATOM     44  C   UNL A   1      42.034  26.448  28.900  1.00  0.00     0.049 A 
ATOM     45  H   UNL A   1      42.023  27.955  30.340  1.00  0.00     0.167 HD
ATOM     46  C   UNL A   1      42.011  31.138  33.272  1.00  0.00     0.037 A 
ATOM     47  C   UNL A   1      43.274  25.905  28.882  1.00  0.00     0.037 A 
ATOM     48  C   UNL A   1      43.348  30.615  33.340  1.00  0.00     0.049 A 
ATOM     49  C   UNL A   1      44.359  26.461  29.778  1.00  0.00     0.074 A 
ATOM     50  C   UNL A   1      44.386  31.012  34.166  1.00  0.00     0.029 A 
ATOM     51  N   UNL A   1      43.840  29.594  32.542  1.00  0.00    -0.354 N 
ATOM     52  N   UNL A   1      44.283  27.415  30.676  1.00  0.00    -0.248 NA
ATOM     53  C   UNL A   1      45.706  25.876  29.649  1.00  0.00     0.031 C 
ATOM     54  C   UNL A   1      45.521  30.263  33.833  1.00  0.00     0.029 A 
ATOM     55  C   UNL A   1      45.174  29.366  32.837  1.00  0.00     0.049 A 
ATOM     56  H   UNL A   1      43.318  29.105  31.866  1.00  0.00     0.167 HD
ATOM     57  C   UNL A   1      45.558  27.528  31.227  1.00  0.00     0.074 A 
ATOM     58  C   UNL A   1      46.389  26.542  30.571  1.00  0.00     0.031 C 
ATOM     59  C   UNL A   1      45.999  28.376  32.190  1.00  0.00     0.037 A 
BRANCH  46  60
ATOM     60  C   UNL A   1      41.645  32.276  34.182  1.00  0.00     0.058 A 
ATOM     61  C   UNL A   1      41.138  32.062  35.472  1.00  0.00     0.135 A 
ATOM     62  C   UNL A   1      41.796  33.602  33.745  1.00  0.00     0.135 A 
ATOM     63  F   UNL A   1      40.953  30.813  35.927  1.00  0.00    -0.206 F 
ATOM     64  C   UNL A   1      40.762  33.125  36.287  1.00  0.00     0.059 A 
ATOM     65  C   UNL A   1      41.447  34.680  34.552  1.00  0.00     0.059 A 
ATOM     66  F   UNL A   1      42.272  33.859  32.517  1.00  0.00    -0.206 F 
ATOM     67  C   UNL A   1      40.913  34.430  35.815  1.00  0.00     0.060 A 
BRANCH  67  68
ATOM     68  S   UNL A   1      40.397  35.800  36.871  1.00  0.00     0.124 S 
ATOM     69  O   UNL A   1      39.445  35.140  37.759  1.00  0.00    -0.237 OA
ATOM     70  O   UNL A   1      41.654  36.214  37.487  1.00  0.00    -0.237 OA
ATOM     71  O   UNL A   1      39.820  36.755  35.930  1.00  0.00    -0.744 OA
ENDBRANCH  67  68
ENDBRANCH  46  60
BRANCH  47  72
ATOM     72  C   UNL A   1      43.600  24.809  27.922  1.00  0.00     0.058 A 
ATOM     73  C   UNL A   1      43.391  23.459  28.243  1.00  0.00     0.135 A 
ATOM     74  C   UNL A   1      44.172  25.096  26.671  1.00  0.00     0.135 A 
ATOM     75  F   UNL A   1      42.880  23.125  29.438  1.00  0.00    -0.206 F 
ATOM     76  C   UNL A   1      43.735  22.435  27.361  1.00  0.00     0.059 A 
ATOM     77  C   UNL A   1      44.502  24.092  25.764  1.00  0.00     0.059 A 
ATOM     78  F   UNL A   1      44.408  26.369  26.316  1.00  0.00    -0.206 F 
ATOM     79  C   UNL A   1      44.285  22.763  26.121  1.00  0.00     0.060 A 
BRANCH  79  80
ATOM     80  S   UNL A   1      44.669  21.436  24.955  1.00  0.00     0.124 S 
ATOM     81  O   UNL A   1      44.553  22.124  23.675  1.00  0.00    -0.237 OA
ATOM     82  O   UNL A   1      46.020  21.054  25.356  1.00  0.00    -0.237 OA
ATOM     83  O   UNL A   1      43.639  20.440  25.233  1.00  0.00    -0.744 OA
ENDBRANCH  79  80
ENDBRANCH  47  72
BRANCH  59  84
ATOM     84  C   UNL A   1      47.434  28.270  32.632  1.00  0.00     0.058 A 
ATOM     85  C   UNL A   1      48.447  29.045  32.048  1.00  0.00     0.135 A 
ATOM     86  C   UNL A   1      47.785  27.444  33.713  1.00  0.00     0.135 A 
ATOM     87  F   UNL A   1      48.168  29.850  31.010  1.00  0.00    -0.206 F 
ATOM     88  C   UNL A   1      49.759  28.999  32.513  1.00  0.00     0.059 A 
ATOM     89  C   UNL A   1      49.086  27.399  34.208  1.00  0.00     0.059 A 
ATOM     90  F   UNL A   1      46.853  26.690  34.318  1.00  0.00    -0.206 F 
ATOM     91  C   UNL A   1      50.069  28.174  33.596  1.00  0.00     0.060 A 
BRANCH  91  92
ATOM     92  S   UNL A   1      51.763  28.161  34.224  1.00  0.00     0.124 S 
ATOM     93  O   UNL A   1      52.142  29.562  34.078  1.00  0.00    -0.237 OA
ATOM     94  O   UNL A   1      51.588  27.692  35.595  1.00  0.00    -0.237 OA
ATOM     95  O   UNL A   1      52.448  27.228  33.334  1.00  0.00    -0.744 OA
ENDBRANCH  91  92
ENDBRANCH  59  84
ENDBRANCH  33  34
ENDBRANCH  26  28
ENDBRANCH  25  26
ENDBRANCH  24  25
ENDBRANCH   1  24
TORSDOF 21
ENDMDL
MODEL 3
REMARK VINA RESULT:      -9.6      3.360      4.249
REMARK SMILES CCC(CC)(NC(=O)c1c(C)noc1C)C(=O)OCCOCCOC(=O)c1ccc(-c2c3nc(c(-c4c(F)cc(S(=O)(=O)[O-])cc4F)c4ccc([nH]4)c(-c4c(F)cc(S(=O)(=O)[O-])cc4F)c4nc(c(-c5c(F)cc(S(=O)(=O)[O-])cc5F)c5ccc2[nH]5)C=C4)C=C3)cc1
REMARK SMILES IDX 22 1 21 2 20 3 19 4 18 5 16 6 17 7 3 8 2 9 1 10 4 11 5 12
REMARK SMILES IDX 6 13 7 14 8 16 9 17 10 18 14 19 11 20 12 21 13 22 15 23
REMARK SMILES IDX 23 24 24 25 25 26 26 27 27 28 28 29 92 30 29 31 91 32 30 33
REMARK SMILES IDX 31 34 32 35 85 36 33 37 90 38 84 39 86 40 34 41 89 42 83 43
REMARK SMILES IDX 82 44 35 46 69 47 48 48 68 49 49 50 52 51 67 52 87 53 50 54
REMARK SMILES IDX 51 55 66 57 88 58 53 59 36 60 37 61 46 62 38 63 39 64 45 65
REMARK SMILES IDX 47 66 40 67 41 68 42 69 43 70 44 71 70 72 71 73 80 74 72 75
REMARK SMILES IDX 73 76 79 77 81 78 74 79 75 80 76 81 77 82 78 83 54 84 55 85
REMARK SMILES IDX 64 86 56 87 57 88 63 89 65 90 58 91 59 92 60 93 61 94 62 95
REMARK H PARENT 6 15 86 45 52 56
REMARK Flexibility Score: inf
ROOT
ATOM      1  C   UNL A   1      31.796  28.636  27.333  1.00  0.00     0.202 C 
ENDROOT
BRANCH   1   2
ATOM      2  O   UNL A   1      31.255  27.567  26.534  1.00  0.00    -0.374 OA
BRANCH   2   3
ATOM      3  C   UNL A   1      30.895  27.657  25.136  1.00  0.00     0.202 C 
BRANCH   3   4
ATOM      4  C   UNL A   1      30.068  26.620  24.341  1.00  0.00     0.261 C 
BRANCH   4   5
ATOM      5  O   UNL A   1      30.714  25.366  24.282  1.00  0.00    -0.461 OA
BRANCH   5   6
ATOM      6  C   UNL A   1      31.583  25.131  23.279  1.00  0.00     0.331 C 
ATOM      7  O   UNL A   1      31.452  25.534  22.131  1.00  0.00    -0.249 OA
BRANCH   6   8
ATOM      8  C   UNL A   1      32.834  24.406  23.828  1.00  0.00     0.137 C 
BRANCH   8   9
ATOM      9  C   UNL A   1      33.873  25.567  24.100  1.00  0.00     0.037 C 
ATOM     10  C   UNL A   1      34.065  26.020  25.551  1.00  0.00     0.007 C 
ENDBRANCH   8   9
BRANCH   8  11
ATOM     11  C   UNL A   1      33.366  23.403  22.779  1.00  0.00     0.037 C 
ATOM     12  C   UNL A   1      32.445  22.218  22.479  1.00  0.00     0.007 C 
ENDBRANCH   8  11
BRANCH   8  13
ATOM     13  N   UNL A   1      32.644  23.708  25.162  1.00  0.00    -0.336 N 
ATOM     14  C   UNL A   1      33.354  22.894  26.031  1.00  0.00     0.257 C 
ATOM     15  H   UNL A   1      31.743  23.885  25.517  1.00  0.00     0.165 HD
ATOM     16  O   UNL A   1      32.920  22.926  27.187  1.00  0.00    -0.269 OA
BRANCH  14  17
ATOM     17  C   UNL A   1      34.545  22.101  25.707  1.00  0.00     0.105 A 
ATOM     18  C   UNL A   1      35.940  22.366  25.339  1.00  0.00     0.093 A 
ATOM     19  C   UNL A   1      34.429  20.771  25.355  1.00  0.00     0.146 A 
ATOM     20  C   UNL A   1      36.826  23.552  25.215  1.00  0.00     0.071 C 
ATOM     21  N   UNL A   1      36.571  21.228  25.023  1.00  0.00    -0.084 NA
ATOM     22  O   UNL A   1      35.623  20.252  25.006  1.00  0.00    -0.361 OA
ATOM     23  C   UNL A   1      33.287  19.863  25.194  1.00  0.00     0.092 C 
ENDBRANCH  14  17
ENDBRANCH   8  13
ENDBRANCH   6   8
ENDBRANCH   5   6
ENDBRANCH   4   5
ENDBRANCH   3   4
ENDBRANCH   2   3
ENDBRANCH   1   2
BRANCH   1  24
ATOM     24  C   UNL A   1      32.065  30.055  26.686  1.00  0.00     0.261 C 
BRANCH  24  25
ATOM     25  O   UNL A   1      33.498  30.375  26.551  1.00  0.00    -0.460 OA
BRANCH  25  26
ATOM     26  C   UNL A   1      34.089  31.268  27.415  1.00  0.00     0.338 C 
ATOM     27  O   UNL A   1      33.543  32.267  27.850  1.00  0.00    -0.246 OA
BRANCH  26  28
ATOM     28  C   UNL A   1      35.457  30.807  27.896  1.00  0.00     0.060 A 
ATOM     29  C   UNL A   1      35.668  29.461  28.234  1.00  0.00     0.016 A 
ATOM     30  C   UNL A   1      36.521  31.689  28.121  1.00  0.00     0.016 A 
ATOM     31  C   UNL A   1      36.930  28.971  28.619  1.00  0.00     0.010 A 
ATOM     32  C   UNL A   1      37.768  31.215  28.616  1.00  0.00     0.010 A 
ATOM     33  C   UNL A   1      37.991  29.848  28.863  1.00  0.00    -0.014 A 
BRANCH  33  34
ATOM     34  C   UNL A   1      39.203  29.346  29.594  1.00  0.00     0.031 A 
ATOM     35  C   UNL A   1      39.613  30.045  30.874  1.00  0.00     0.074 A 
ATOM     36  C   UNL A   1      39.922  28.274  29.199  1.00  0.00     0.049 A 
ATOM     37  N   UNL A   1      40.666  29.858  31.631  1.00  0.00    -0.248 NA
ATOM     38  C   UNL A   1      38.695  31.081  31.375  1.00  0.00     0.031 C 
ATOM     39  C   UNL A   1      39.598  27.400  28.075  1.00  0.00     0.029 A 
ATOM     40  N   UNL A   1      41.087  27.738  29.710  1.00  0.00    -0.354 N 
ATOM     41  C   UNL A   1      40.540  30.756  32.687  1.00  0.00     0.074 A 
ATOM     42  C   UNL A   1      39.300  31.472  32.486  1.00  0.00     0.031 C 
ATOM     43  C   UNL A   1      40.561  26.464  27.956  1.00  0.00     0.029 A 
ATOM     44  C   UNL A   1      41.594  26.693  28.968  1.00  0.00     0.049 A 
ATOM     45  H   UNL A   1      41.518  28.072  30.530  1.00  0.00     0.167 HD
ATOM     46  C   UNL A   1      41.384  30.990  33.722  1.00  0.00     0.037 A 
ATOM     47  C   UNL A   1      42.768  26.026  29.065  1.00  0.00     0.037 A 
ATOM     48  C   UNL A   1      42.643  30.326  33.918  1.00  0.00     0.049 A 
ATOM     49  C   UNL A   1      43.761  26.391  30.147  1.00  0.00     0.074 A 
ATOM     50  C   UNL A   1      43.585  30.544  34.910  1.00  0.00     0.029 A 
ATOM     51  N   UNL A   1      43.146  29.328  33.101  1.00  0.00    -0.354 N 
ATOM     52  N   UNL A   1      43.647  27.272  31.113  1.00  0.00    -0.248 NA
ATOM     53  C   UNL A   1      45.053  25.680  30.144  1.00  0.00     0.031 C 
ATOM     54  C   UNL A   1      44.681  29.709  34.663  1.00  0.00     0.029 A 
ATOM     55  C   UNL A   1      44.398  28.937  33.549  1.00  0.00     0.049 A 
ATOM     56  H   UNL A   1      42.684  28.952  32.318  1.00  0.00     0.167 HD
ATOM     57  C   UNL A   1      44.835  27.205  31.838  1.00  0.00     0.074 A 
ATOM     58  C   UNL A   1      45.656  26.194  31.208  1.00  0.00     0.031 C 
ATOM     59  C   UNL A   1      45.211  27.922  32.927  1.00  0.00     0.037 A 
BRANCH  46  60
ATOM     60  C   UNL A   1      40.999  32.084  34.678  1.00  0.00     0.058 A 
ATOM     61  C   UNL A   1      41.438  33.405  34.511  1.00  0.00     0.135 A 
ATOM     62  C   UNL A   1      40.187  31.795  35.787  1.00  0.00     0.135 A 
ATOM     63  F   UNL A   1      42.236  33.728  33.481  1.00  0.00    -0.206 F 
ATOM     64  C   UNL A   1      41.110  34.399  35.428  1.00  0.00     0.059 A 
ATOM     65  C   UNL A   1      39.829  32.777  36.705  1.00  0.00     0.059 A 
ATOM     66  F   UNL A   1      39.745  30.544  35.994  1.00  0.00    -0.206 F 
ATOM     67  C   UNL A   1      40.311  34.072  36.526  1.00  0.00     0.060 A 
BRANCH  67  68
ATOM     68  S   UNL A   1      39.915  35.363  37.724  1.00  0.00     0.124 S 
ATOM     69  O   UNL A   1      38.716  34.818  38.354  1.00  0.00    -0.237 OA
ATOM     70  O   UNL A   1      41.110  35.396  38.560  1.00  0.00    -0.237 OA
ATOM     71  O   UNL A   1      39.704  36.545  36.892  1.00  0.00    -0.744 OA
ENDBRANCH  67  68
ENDBRANCH  46  60
BRANCH  47  72
ATOM     72  C   UNL A   1      43.125  24.984  28.058  1.00  0.00     0.058 A 
ATOM     73  C   UNL A   1      42.902  23.619  28.296  1.00  0.00     0.135 A 
ATOM     74  C   UNL A   1      43.741  25.336  26.845  1.00  0.00     0.135 A 
ATOM     75  F   UNL A   1      42.348  23.222  29.452  1.00  0.00    -0.206 F 
ATOM     76  C   UNL A   1      43.273  22.643  27.372  1.00  0.00     0.059 A 
ATOM     77  C   UNL A   1      44.100  24.383  25.897  1.00  0.00     0.059 A 
ATOM     78  F   UNL A   1      43.992  26.626  26.569  1.00  0.00    -0.206 F 
ATOM     79  C   UNL A   1      43.867  23.037  26.172  1.00  0.00     0.060 A 
BRANCH  79  80
ATOM     80  S   UNL A   1      44.288  21.774  24.948  1.00  0.00     0.124 S 
ATOM     81  O   UNL A   1      44.106  22.501  23.698  1.00  0.00    -0.237 OA
ATOM     82  O   UNL A   1      45.665  21.448  25.303  1.00  0.00    -0.237 OA
ATOM     83  O   UNL A   1      43.316  20.717  25.212  1.00  0.00    -0.744 OA
ENDBRANCH  79  80
ENDBRANCH  47  72
BRANCH  59  84
ATOM     84  C   UNL A   1      46.552  27.629  33.545  1.00  0.00     0.058 A 
ATOM     85  C   UNL A   1      46.717  26.631  34.517  1.00  0.00     0.135 A 
ATOM     86  C   UNL A   1      47.703  28.298  33.095  1.00  0.00     0.135 A 
ATOM     87  F   UNL A   1      45.651  25.961  34.986  1.00  0.00    -0.206 F 
ATOM     88  C   UNL A   1      47.972  26.312  35.029  1.00  0.00     0.059 A 
ATOM     89  C   UNL A   1      48.971  27.981  33.577  1.00  0.00     0.059 A 
ATOM     90  F   UNL A   1      47.605  29.254  32.156  1.00  0.00    -0.206 F 
ATOM     91  C   UNL A   1      49.095  26.991  34.550  1.00  0.00     0.060 A 
BRANCH  91  92
ATOM     92  S   UNL A   1      50.724  26.535  35.183  1.00  0.00     0.124 S 
ATOM     93  O   UNL A   1      51.348  25.955  33.998  1.00  0.00    -0.237 OA
ATOM     94  O   UNL A   1      51.265  27.819  35.618  1.00  0.00    -0.237 OA
ATOM     95  O   UNL A   1      50.421  25.595  36.258  1.00  0.00    -0.744 OA
ENDBRANCH  91  92
ENDBRANCH  59  84
ENDBRANCH  33  34
ENDBRANCH  26  28
ENDBRANCH  25  26
ENDBRANCH  24  25
ENDBRANCH   1  24
TORSDOF 21
ENDMDL
