MODEL 1
REMARK VINA RESULT:     -10.3      0.000      0.000
REMARK SMILES CC(C)C[C@H]([NH2+]C[C@@](C)(O)C#Cc1ccccc1)C(=O)OCCOCCOC(=O)c1ccc(-c2c3nc(c(-c4c(F)cc(S(=O)(=O)[O-])cc4F)c4ccc([nH]4)c(-c4c(F)cc(S(=O)(=O)[O-])cc4F)c4nc(c(-c5c(F)cc(S(=O)(=O)[O-])cc5F)c5ccc2[nH]5)C=C4)C=C3)cc1
REMARK SMILES IDX 23 1 22 2 21 3 19 4 20 5 5 6 4 7 2 8 1 9 3 10 6 11 7 14 8 15
REMARK SMILES IDX 9 16 10 17 11 19 12 20 13 21 14 22 18 23 15 24 17 25 16 26
REMARK SMILES IDX 24 27 25 28 26 29 27 30 28 31 29 32 30 33 31 34 95 35 32 36
REMARK SMILES IDX 94 37 33 38 34 39 35 40 88 41 36 42 93 43 87 44 89 45 37 46
REMARK SMILES IDX 92 47 86 48 85 49 38 51 72 52 51 53 71 54 52 55 55 56 70 57
REMARK SMILES IDX 90 58 53 59 54 60 69 62 91 63 56 64 39 65 40 66 49 67 41 68
REMARK SMILES IDX 42 69 48 70 50 71 43 72 44 73 45 74 46 75 47 76 73 77 74 78
REMARK SMILES IDX 83 79 75 80 76 81 82 82 84 83 77 84 78 85 79 86 80 87 81 88
REMARK SMILES IDX 57 89 58 90 67 91 59 92 60 93 66 94 68 95 61 96 62 97 63 98
REMARK SMILES IDX 64 99 65 100
REMARK H PARENT 6 12 6 13 10 18 89 50 55 61
REMARK Flexibility Score: inf
ROOT
ATOM      1  C   UNL A   1      37.440  22.631  26.025  1.00  0.00     0.202 C 
ENDROOT
BRANCH   1   2
ATOM      2  C   UNL A   1      36.765  23.085  24.728  1.00  0.00     0.261 C 
BRANCH   2   3
ATOM      3  O   UNL A   1      36.056  24.333  24.817  1.00  0.00    -0.459 OA
BRANCH   3   4
ATOM      4  C   UNL A   1      34.870  24.377  24.141  1.00  0.00     0.364 C 
ATOM      5  O   UNL A   1      34.731  24.110  22.950  1.00  0.00    -0.245 OA
BRANCH   4   6
ATOM      6  C   UNL A   1      33.704  24.863  25.006  1.00  0.00     0.293 C 
BRANCH   6   7
ATOM      7  C   UNL A   1      33.849  26.353  25.418  1.00  0.00     0.080 C 
BRANCH   7   8
ATOM      8  C   UNL A   1      33.104  27.460  24.618  1.00  0.00    -0.011 C 
ATOM      9  C   UNL A   1      33.924  28.102  23.490  1.00  0.00     0.007 C 
ATOM     10  C   UNL A   1      31.841  26.862  23.982  1.00  0.00     0.007 C 
ENDBRANCH   7   8
ENDBRANCH   6   7
BRANCH   6  11
ATOM     11  N   UNL A   1      33.446  23.926  26.147  1.00  0.00    -0.331 N 
ATOM     12  H   UNL A   1      34.064  24.176  26.920  1.00  0.00     0.347 HD
ATOM     13  H   UNL A   1      33.621  22.980  25.809  1.00  0.00     0.347 HD
BRANCH  11  14
ATOM     14  C   UNL A   1      32.046  23.970  26.630  1.00  0.00     0.310 C 
BRANCH  14  15
ATOM     15  C   UNL A   1      30.956  23.066  25.920  1.00  0.00     0.171 C 
ATOM     16  C   UNL A   1      29.915  22.565  26.923  1.00  0.00     0.063 C 
BRANCH  15  17
ATOM     17  O   UNL A   1      30.293  23.842  24.918  1.00  0.00    -0.372 OA
ATOM     18  H   UNL A   1      30.955  24.279  24.359  1.00  0.00     0.212 HD
ENDBRANCH  15  17
BRANCH  15  19
ATOM     19  C   UNL A   1      31.605  21.871  25.239  1.00  0.00    -0.057 C 
ATOM     20  C   UNL A   1      32.162  20.847  24.654  1.00  0.00    -0.064 C 
BRANCH  20  21
ATOM     21  C   UNL A   1      32.840  19.666  24.200  1.00  0.00     0.025 A 
ATOM     22  C   UNL A   1      32.245  18.871  23.216  1.00  0.00     0.017 A 
ATOM     23  C   UNL A   1      34.064  19.272  24.742  1.00  0.00     0.017 A 
ATOM     24  C   UNL A   1      32.836  17.665  22.829  1.00  0.00     0.001 A 
ATOM     25  C   UNL A   1      34.632  18.044  24.393  1.00  0.00     0.001 A 
ATOM     26  C   UNL A   1      34.015  17.238  23.440  1.00  0.00     0.000 A 
ENDBRANCH  20  21
ENDBRANCH  15  19
ENDBRANCH  14  15
ENDBRANCH  11  14
ENDBRANCH   6  11
ENDBRANCH   4   6
ENDBRANCH   3   4
ENDBRANCH   2   3
ENDBRANCH   1   2
BRANCH   1  27
ATOM     27  O   UNL A   1      38.744  23.126  26.309  1.00  0.00    -0.374 OA
BRANCH  27  28
ATOM     28  C   UNL A   1      39.753  22.183  26.636  1.00  0.00     0.202 C 
BRANCH  28  29
ATOM     29  C   UNL A   1      41.201  22.521  26.294  1.00  0.00     0.261 C 
BRANCH  29  30
ATOM     30  O   UNL A   1      41.819  23.510  27.118  1.00  0.00    -0.460 OA
BRANCH  30  31
ATOM     31  C   UNL A   1      41.943  24.724  26.535  1.00  0.00     0.338 C 
ATOM     32  O   UNL A   1      42.185  24.976  25.363  1.00  0.00    -0.246 OA
BRANCH  31  33
ATOM     33  C   UNL A   1      41.578  25.751  27.517  1.00  0.00     0.060 A 
ATOM     34  C   UNL A   1      40.459  25.592  28.337  1.00  0.00     0.016 A 
ATOM     35  C   UNL A   1      42.418  26.861  27.645  1.00  0.00     0.016 A 
ATOM     36  C   UNL A   1      40.198  26.547  29.319  1.00  0.00     0.010 A 
ATOM     37  C   UNL A   1      42.155  27.812  28.626  1.00  0.00     0.010 A 
ATOM     38  C   UNL A   1      41.058  27.649  29.483  1.00  0.00    -0.014 A 
BRANCH  38  39
ATOM     39  C   UNL A   1      40.887  28.568  30.631  1.00  0.00     0.031 A 
ATOM     40  C   UNL A   1      41.744  28.447  31.853  1.00  0.00     0.074 A 
ATOM     41  C   UNL A   1      39.907  29.489  30.565  1.00  0.00     0.049 A 
ATOM     42  N   UNL A   1      41.743  29.187  32.931  1.00  0.00    -0.248 NA
ATOM     43  C   UNL A   1      42.725  27.351  31.873  1.00  0.00     0.031 C 
ATOM     44  C   UNL A   1      38.988  29.658  29.437  1.00  0.00     0.029 A 
ATOM     45  N   UNL A   1      39.519  30.453  31.458  1.00  0.00    -0.354 N 
ATOM     46  C   UNL A   1      42.733  28.664  33.751  1.00  0.00     0.074 A 
ATOM     47  C   UNL A   1      43.281  27.511  33.067  1.00  0.00     0.031 C 
ATOM     48  C   UNL A   1      38.160  30.681  29.696  1.00  0.00     0.029 A 
ATOM     49  C   UNL A   1      38.470  31.222  31.015  1.00  0.00     0.049 A 
ATOM     50  H   UNL A   1      39.951  30.583  32.334  1.00  0.00     0.167 HD
ATOM     51  C   UNL A   1      43.155  29.121  34.954  1.00  0.00     0.037 A 
ATOM     52  C   UNL A   1      37.834  32.252  31.604  1.00  0.00     0.037 A 
ATOM     53  C   UNL A   1      42.583  30.259  35.630  1.00  0.00     0.049 A 
ATOM     54  C   UNL A   1      38.296  32.713  32.958  1.00  0.00     0.074 A 
ATOM     55  C   UNL A   1      42.958  30.821  36.838  1.00  0.00     0.029 A 
ATOM     56  N   UNL A   1      41.506  31.002  35.164  1.00  0.00    -0.354 N 
ATOM     57  N   UNL A   1      39.281  32.253  33.691  1.00  0.00    -0.248 NA
ATOM     58  C   UNL A   1      37.565  33.834  33.562  1.00  0.00     0.031 C 
ATOM     59  C   UNL A   1      42.082  31.873  37.123  1.00  0.00     0.029 A 
ATOM     60  C   UNL A   1      41.190  31.999  36.071  1.00  0.00     0.049 A 
ATOM     61  H   UNL A   1      41.036  30.841  34.314  1.00  0.00     0.167 HD
ATOM     62  C   UNL A   1      39.300  33.039  34.837  1.00  0.00     0.074 A 
ATOM     63  C   UNL A   1      38.238  34.014  34.691  1.00  0.00     0.031 C 
ATOM     64  C   UNL A   1      40.123  32.959  35.911  1.00  0.00     0.037 A 
BRANCH  51  65
ATOM     65  C   UNL A   1      44.299  28.403  35.614  1.00  0.00     0.058 A 
ATOM     66  C   UNL A   1      44.073  27.338  36.501  1.00  0.00     0.135 A 
ATOM     67  C   UNL A   1      45.630  28.734  35.314  1.00  0.00     0.135 A 
ATOM     68  F   UNL A   1      42.821  26.988  36.835  1.00  0.00    -0.206 F 
ATOM     69  C   UNL A   1      45.127  26.637  37.080  1.00  0.00     0.059 A 
ATOM     70  C   UNL A   1      46.699  28.032  35.864  1.00  0.00     0.059 A 
ATOM     71  F   UNL A   1      45.902  29.744  34.474  1.00  0.00    -0.206 F 
ATOM     72  C   UNL A   1      46.437  26.991  36.753  1.00  0.00     0.060 A 
BRANCH  72  73
ATOM     73  S   UNL A   1      47.788  26.060  37.507  1.00  0.00     0.124 S 
ATOM     74  O   UNL A   1      48.890  27.013  37.402  1.00  0.00    -0.237 OA
ATOM     75  O   UNL A   1      47.285  25.822  38.856  1.00  0.00    -0.237 OA
ATOM     76  O   UNL A   1      47.901  24.876  36.662  1.00  0.00    -0.744 OA
ENDBRANCH  72  73
ENDBRANCH  51  65
BRANCH  52  77
ATOM     77  C   UNL A   1      36.723  32.935  30.892  1.00  0.00     0.058 A 
ATOM     78  C   UNL A   1      35.394  32.756  31.299  1.00  0.00     0.135 A 
ATOM     79  C   UNL A   1      36.969  33.810  29.822  1.00  0.00     0.135 A 
ATOM     80  F   UNL A   1      35.110  31.927  32.315  1.00  0.00    -0.206 F 
ATOM     81  C   UNL A   1      34.344  33.413  30.667  1.00  0.00     0.059 A 
ATOM     82  C   UNL A   1      35.939  34.498  29.189  1.00  0.00     0.059 A 
ATOM     83  F   UNL A   1      38.226  34.028  29.407  1.00  0.00    -0.206 F 
ATOM     84  C   UNL A   1      34.627  34.287  29.616  1.00  0.00     0.060 A 
BRANCH  84  85
ATOM     85  S   UNL A   1      33.260  35.177  28.842  1.00  0.00     0.124 S 
ATOM     86  O   UNL A   1      32.468  35.565  30.004  1.00  0.00    -0.237 OA
ATOM     87  O   UNL A   1      33.953  36.259  28.151  1.00  0.00    -0.237 OA
ATOM     88  O   UNL A   1      32.654  34.173  27.972  1.00  0.00    -0.744 OA
ENDBRANCH  84  85
ENDBRANCH  52  77
BRANCH  64  89
ATOM     89  C   UNL A   1      39.917  33.959  37.016  1.00  0.00     0.058 A 
ATOM     90  C   UNL A   1      40.441  35.258  36.934  1.00  0.00     0.135 A 
ATOM     91  C   UNL A   1      39.132  33.635  38.134  1.00  0.00     0.135 A 
ATOM     92  F   UNL A   1      41.206  35.614  35.890  1.00  0.00    -0.206 F 
ATOM     93  C   UNL A   1      40.204  36.200  37.930  1.00  0.00     0.059 A 
ATOM     94  C   UNL A   1      38.860  34.569  39.129  1.00  0.00     0.059 A 
ATOM     95  F   UNL A   1      38.602  32.408  38.256  1.00  0.00    -0.206 F 
ATOM     96  C   UNL A   1      39.407  35.847  39.021  1.00  0.00     0.060 A 
BRANCH  96  97
ATOM     97  S   UNL A   1      39.068  37.096  40.279  1.00  0.00     0.124 S 
ATOM     98  O   UNL A   1      38.142  36.386  41.156  1.00  0.00    -0.237 OA
ATOM     99  O   UNL A   1      40.395  37.350  40.831  1.00  0.00    -0.237 OA
ATOM    100  O   UNL A   1      38.489  38.199  39.519  1.00  0.00    -0.744 OA
ENDBRANCH  96  97
ENDBRANCH  64  89
ENDBRANCH  38  39
ENDBRANCH  31  33
ENDBRANCH  30  31
ENDBRANCH  29  30
ENDBRANCH  28  29
ENDBRANCH  27  28
ENDBRANCH   1  27
TORSDOF 25
ENDMDL
MODEL 2
REMARK VINA RESULT:     -10.2      1.649      3.448
REMARK SMILES CC(C)C[C@H]([NH2+]C[C@@](C)(O)C#Cc1ccccc1)C(=O)OCCOCCOC(=O)c1ccc(-c2c3nc(c(-c4c(F)cc(S(=O)(=O)[O-])cc4F)c4ccc([nH]4)c(-c4c(F)cc(S(=O)(=O)[O-])cc4F)c4nc(c(-c5c(F)cc(S(=O)(=O)[O-])cc5F)c5ccc2[nH]5)C=C4)C=C3)cc1
REMARK SMILES IDX 23 1 22 2 21 3 19 4 20 5 5 6 4 7 2 8 1 9 3 10 6 11 7 14 8 15
REMARK SMILES IDX 9 16 10 17 11 19 12 20 13 21 14 22 18 23 15 24 17 25 16 26
REMARK SMILES IDX 24 27 25 28 26 29 27 30 28 31 29 32 30 33 31 34 95 35 32 36
REMARK SMILES IDX 94 37 33 38 34 39 35 40 88 41 36 42 93 43 87 44 89 45 37 46
REMARK SMILES IDX 92 47 86 48 85 49 38 51 72 52 51 53 71 54 52 55 55 56 70 57
REMARK SMILES IDX 90 58 53 59 54 60 69 62 91 63 56 64 39 65 40 66 49 67 41 68
REMARK SMILES IDX 42 69 48 70 50 71 43 72 44 73 45 74 46 75 47 76 73 77 74 78
REMARK SMILES IDX 83 79 75 80 76 81 82 82 84 83 77 84 78 85 79 86 80 87 81 88
REMARK SMILES IDX 57 89 58 90 67 91 59 92 60 93 66 94 68 95 61 96 62 97 63 98
REMARK SMILES IDX 64 99 65 100
REMARK H PARENT 6 12 6 13 10 18 89 50 55 61
REMARK Flexibility Score: inf
ROOT
ATOM      1  C   UNL A   1      37.319  22.607  25.702  1.00  0.00     0.202 C 
ENDROOT
BRANCH   1   2
ATOM      2  C   UNL A   1      36.703  23.248  24.456  1.00  0.00     0.261 C 
BRANCH   2   3
ATOM      3  O   UNL A   1      35.588  24.122  24.711  1.00  0.00    -0.459 OA
BRANCH   3   4
ATOM      4  C   UNL A   1      34.626  24.133  23.742  1.00  0.00     0.364 C 
ATOM      5  O   UNL A   1      34.716  23.564  22.657  1.00  0.00    -0.245 OA
BRANCH   4   6
ATOM      6  C   UNL A   1      33.415  24.994  24.109  1.00  0.00     0.293 C 
BRANCH   6   7
ATOM      7  C   UNL A   1      33.709  26.515  23.996  1.00  0.00     0.080 C 
BRANCH   7   8
ATOM      8  C   UNL A   1      33.078  27.348  22.846  1.00  0.00    -0.011 C 
ATOM      9  C   UNL A   1      34.056  28.275  22.110  1.00  0.00     0.007 C 
ATOM     10  C   UNL A   1      32.476  26.397  21.801  1.00  0.00     0.007 C 
ENDBRANCH   7   8
ENDBRANCH   6   7
BRANCH   6  11
ATOM     11  N   UNL A   1      32.824  24.571  25.420  1.00  0.00    -0.331 N 
ATOM     12  H   UNL A   1      33.073  25.264  26.127  1.00  0.00     0.347 HD
ATOM     13  H   UNL A   1      33.201  23.649  25.639  1.00  0.00     0.347 HD
BRANCH  11  14
ATOM     14  C   UNL A   1      31.348  24.448  25.380  1.00  0.00     0.310 C 
BRANCH  14  15
ATOM     15  C   UNL A   1      30.460  25.725  25.680  1.00  0.00     0.171 C 
ATOM     16  C   UNL A   1      29.722  26.192  24.424  1.00  0.00     0.063 C 
BRANCH  15  17
ATOM     17  O   UNL A   1      29.496  25.392  26.682  1.00  0.00    -0.372 OA
ATOM     18  H   UNL A   1      28.622  25.299  26.272  1.00  0.00     0.212 HD
ENDBRANCH  15  17
BRANCH  15  19
ATOM     19  C   UNL A   1      31.314  26.867  26.209  1.00  0.00    -0.057 C 
ATOM     20  C   UNL A   1      32.047  27.845  26.663  1.00  0.00    -0.064 C 
BRANCH  20  21
ATOM     21  C   UNL A   1      32.962  28.904  26.986  1.00  0.00     0.025 A 
ATOM     22  C   UNL A   1      34.296  28.594  27.267  1.00  0.00     0.017 A 
ATOM     23  C   UNL A   1      32.544  30.233  27.060  1.00  0.00     0.017 A 
ATOM     24  C   UNL A   1      35.182  29.593  27.681  1.00  0.00     0.001 A 
ATOM     25  C   UNL A   1      33.413  31.225  27.520  1.00  0.00     0.001 A 
ATOM     26  C   UNL A   1      34.731  30.904  27.836  1.00  0.00     0.000 A 
ENDBRANCH  20  21
ENDBRANCH  15  19
ENDBRANCH  14  15
ENDBRANCH  11  14
ENDBRANCH   6  11
ENDBRANCH   4   6
ENDBRANCH   3   4
ENDBRANCH   2   3
ENDBRANCH   1   2
BRANCH   1  27
ATOM     27  O   UNL A   1      38.586  23.082  26.142  1.00  0.00    -0.374 OA
BRANCH  27  28
ATOM     28  C   UNL A   1      39.547  22.121  26.554  1.00  0.00     0.202 C 
BRANCH  28  29
ATOM     29  C   UNL A   1      41.025  22.442  26.358  1.00  0.00     0.261 C 
BRANCH  29  30
ATOM     30  O   UNL A   1      41.573  23.413  27.249  1.00  0.00    -0.460 OA
BRANCH  30  31
ATOM     31  C   UNL A   1      41.822  24.616  26.680  1.00  0.00     0.338 C 
ATOM     32  O   UNL A   1      42.144  24.849  25.523  1.00  0.00    -0.246 OA
BRANCH  31  33
ATOM     33  C   UNL A   1      41.489  25.666  27.647  1.00  0.00     0.060 A 
ATOM     34  C   UNL A   1      40.353  25.564  28.452  1.00  0.00     0.016 A 
ATOM     35  C   UNL A   1      42.375  26.740  27.778  1.00  0.00     0.016 A 
ATOM     36  C   UNL A   1      40.120  26.539  29.422  1.00  0.00     0.010 A 
ATOM     37  C   UNL A   1      42.140  27.710  28.747  1.00  0.00     0.010 A 
ATOM     38  C   UNL A   1      41.025  27.604  29.588  1.00  0.00    -0.014 A 
BRANCH  38  39
ATOM     39  C   UNL A   1      40.878  28.540  30.726  1.00  0.00     0.031 A 
ATOM     40  C   UNL A   1      41.734  28.413  31.948  1.00  0.00     0.074 A 
ATOM     41  C   UNL A   1      39.921  29.485  30.650  1.00  0.00     0.049 A 
ATOM     42  N   UNL A   1      41.753  29.165  33.017  1.00  0.00    -0.248 NA
ATOM     43  C   UNL A   1      42.688  27.294  31.980  1.00  0.00     0.031 C 
ATOM     44  C   UNL A   1      39.005  29.662  29.522  1.00  0.00     0.029 A 
ATOM     45  N   UNL A   1      39.558  30.468  31.532  1.00  0.00    -0.354 N 
ATOM     46  C   UNL A   1      42.731  28.628  33.842  1.00  0.00     0.074 A 
ATOM     47  C   UNL A   1      43.250  27.454  33.171  1.00  0.00     0.031 C 
ATOM     48  C   UNL A   1      38.202  30.708  29.769  1.00  0.00     0.029 A 
ATOM     49  C   UNL A   1      38.528  31.257  31.081  1.00  0.00     0.049 A 
ATOM     50  H   UNL A   1      39.994  30.598  32.406  1.00  0.00     0.167 HD
ATOM     51  C   UNL A   1      43.165  29.089  35.039  1.00  0.00     0.037 A 
ATOM     52  C   UNL A   1      37.918  32.309  31.659  1.00  0.00     0.037 A 
ATOM     53  C   UNL A   1      42.623  30.249  35.702  1.00  0.00     0.049 A 
ATOM     54  C   UNL A   1      38.393  32.775  33.007  1.00  0.00     0.074 A 
ATOM     55  C   UNL A   1      43.014  30.816  36.903  1.00  0.00     0.029 A 
ATOM     56  N   UNL A   1      41.563  31.012  35.228  1.00  0.00    -0.354 N 
ATOM     57  N   UNL A   1      39.367  32.299  33.744  1.00  0.00    -0.248 NA
ATOM     58  C   UNL A   1      37.690  33.920  33.599  1.00  0.00     0.031 C 
ATOM     59  C   UNL A   1      42.164  31.892  37.176  1.00  0.00     0.029 A 
ATOM     60  C   UNL A   1      41.273  32.028  36.124  1.00  0.00     0.049 A 
ATOM     61  H   UNL A   1      41.089  30.853  34.381  1.00  0.00     0.167 HD
ATOM     62  C   UNL A   1      39.408  33.098  34.880  1.00  0.00     0.074 A 
ATOM     63  C   UNL A   1      38.370  34.097  34.724  1.00  0.00     0.031 C 
ATOM     64  C   UNL A   1      40.231  33.011  35.955  1.00  0.00     0.037 A 
BRANCH  51  65
ATOM     65  C   UNL A   1      44.293  28.351  35.706  1.00  0.00     0.058 A 
ATOM     66  C   UNL A   1      44.051  27.219  36.500  1.00  0.00     0.135 A 
ATOM     67  C   UNL A   1      45.628  28.734  35.503  1.00  0.00     0.135 A 
ATOM     68  F   UNL A   1      42.793  26.816  36.740  1.00  0.00    -0.206 F 
ATOM     69  C   UNL A   1      45.091  26.502  37.083  1.00  0.00     0.059 A 
ATOM     70  C   UNL A   1      46.686  28.018  36.057  1.00  0.00     0.059 A 
ATOM     71  F   UNL A   1      45.916  29.809  34.754  1.00  0.00    -0.206 F 
ATOM     72  C   UNL A   1      46.406  26.909  36.853  1.00  0.00     0.060 A 
BRANCH  72  73
ATOM     73  S   UNL A   1      47.741  25.957  37.609  1.00  0.00     0.124 S 
ATOM     74  O   UNL A   1      48.908  26.758  37.250  1.00  0.00    -0.237 OA
ATOM     75  O   UNL A   1      47.373  25.975  39.022  1.00  0.00    -0.237 OA
ATOM     76  O   UNL A   1      47.648  24.657  36.955  1.00  0.00    -0.744 OA
ENDBRANCH  72  73
ENDBRANCH  51  65
BRANCH  52  77
ATOM     77  C   UNL A   1      36.823  33.011  30.940  1.00  0.00     0.058 A 
ATOM     78  C   UNL A   1      37.104  33.856  29.858  1.00  0.00     0.135 A 
ATOM     79  C   UNL A   1      35.477  32.819  31.291  1.00  0.00     0.135 A 
ATOM     80  F   UNL A   1      38.375  34.072  29.488  1.00  0.00    -0.206 F 
ATOM     81  C   UNL A   1      36.091  34.494  29.151  1.00  0.00     0.059 A 
ATOM     82  C   UNL A   1      34.445  33.427  30.584  1.00  0.00     0.059 A 
ATOM     83  F   UNL A   1      35.157  32.006  32.309  1.00  0.00    -0.206 F 
ATOM     84  C   UNL A   1      34.763  34.269  29.519  1.00  0.00     0.060 A 
BRANCH  84  85
ATOM     85  S   UNL A   1      33.455  35.060  28.556  1.00  0.00     0.124 S 
ATOM     86  O   UNL A   1      32.361  34.107  28.709  1.00  0.00    -0.237 OA
ATOM     87  O   UNL A   1      33.295  36.334  29.249  1.00  0.00    -0.237 OA
ATOM     88  O   UNL A   1      34.031  35.150  27.217  1.00  0.00    -0.744 OA
ENDBRANCH  84  85
ENDBRANCH  52  77
BRANCH  64  89
ATOM     89  C   UNL A   1      40.051  34.028  37.047  1.00  0.00     0.058 A 
ATOM     90  C   UNL A   1      40.748  35.246  37.036  1.00  0.00     0.135 A 
ATOM     91  C   UNL A   1      39.122  33.812  38.079  1.00  0.00     0.135 A 
ATOM     92  F   UNL A   1      41.653  35.497  36.077  1.00  0.00    -0.206 F 
ATOM     93  C   UNL A   1      40.541  36.210  38.017  1.00  0.00     0.059 A 
ATOM     94  C   UNL A   1      38.880  34.773  39.054  1.00  0.00     0.059 A 
ATOM     95  F   UNL A   1      38.424  32.667  38.130  1.00  0.00    -0.206 F 
ATOM     96  C   UNL A   1      39.600  35.967  39.019  1.00  0.00     0.060 A 
BRANCH  96  97
ATOM     97  S   UNL A   1      39.306  37.249  40.255  1.00  0.00     0.124 S 
ATOM     98  O   UNL A   1      40.667  37.678  40.562  1.00  0.00    -0.237 OA
ATOM     99  O   UNL A   1      38.489  38.208  39.520  1.00  0.00    -0.237 OA
ATOM    100  O   UNL A   1      38.617  36.538  41.327  1.00  0.00    -0.744 OA
ENDBRANCH  96  97
ENDBRANCH  64  89
ENDBRANCH  38  39
ENDBRANCH  31  33
ENDBRANCH  30  31
ENDBRANCH  29  30
ENDBRANCH  28  29
ENDBRANCH  27  28
ENDBRANCH   1  27
TORSDOF 25
ENDMDL
MODEL 3
REMARK VINA RESULT:      -9.8      6.512     11.741
REMARK SMILES CC(C)C[C@H]([NH2+]C[C@@](C)(O)C#Cc1ccccc1)C(=O)OCCOCCOC(=O)c1ccc(-c2c3nc(c(-c4c(F)cc(S(=O)(=O)[O-])cc4F)c4ccc([nH]4)c(-c4c(F)cc(S(=O)(=O)[O-])cc4F)c4nc(c(-c5c(F)cc(S(=O)(=O)[O-])cc5F)c5ccc2[nH]5)C=C4)C=C3)cc1
REMARK SMILES IDX 23 1 22 2 21 3 19 4 20 5 5 6 4 7 2 8 1 9 3 10 6 11 7 14 8 15
REMARK SMILES IDX 9 16 10 17 11 19 12 20 13 21 14 22 18 23 15 24 17 25 16 26
REMARK SMILES IDX 24 27 25 28 26 29 27 30 28 31 29 32 30 33 31 34 95 35 32 36
REMARK SMILES IDX 94 37 33 38 34 39 35 40 88 41 36 42 93 43 87 44 89 45 37 46
REMARK SMILES IDX 92 47 86 48 85 49 38 51 72 52 51 53 71 54 52 55 55 56 70 57
REMARK SMILES IDX 90 58 53 59 54 60 69 62 91 63 56 64 39 65 40 66 49 67 41 68
REMARK SMILES IDX 42 69 48 70 50 71 43 72 44 73 45 74 46 75 47 76 73 77 74 78
REMARK SMILES IDX 83 79 75 80 76 81 82 82 84 83 77 84 78 85 79 86 80 87 81 88
REMARK SMILES IDX 57 89 58 90 67 91 59 92 60 93 66 94 68 95 61 96 62 97 63 98
REMARK SMILES IDX 64 99 65 100
REMARK H PARENT 6 12 6 13 10 18 89 50 55 61
REMARK Flexibility Score: inf
ROOT
ATOM      1  C   UNL A   1      32.376  28.929  27.270  1.00  0.00     0.202 C 
ENDROOT
BRANCH   1   2
ATOM      2  C   UNL A   1      31.727  27.987  26.252  1.00  0.00     0.261 C 
BRANCH   2   3
ATOM      3  O   UNL A   1      31.938  26.586  26.501  1.00  0.00    -0.459 OA
BRANCH   3   4
ATOM      4  C   UNL A   1      31.136  25.742  25.787  1.00  0.00     0.364 C 
ATOM      5  O   UNL A   1      29.944  25.931  25.561  1.00  0.00    -0.245 OA
BRANCH   4   6
ATOM      6  C   UNL A   1      31.857  24.470  25.333  1.00  0.00     0.293 C 
BRANCH   6   7
ATOM      7  C   UNL A   1      32.587  23.751  26.499  1.00  0.00     0.080 C 
BRANCH   7   8
ATOM      8  C   UNL A   1      32.659  22.198  26.536  1.00  0.00    -0.011 C 
ATOM      9  C   UNL A   1      31.971  21.493  25.358  1.00  0.00     0.007 C 
ATOM     10  C   UNL A   1      34.130  21.758  26.535  1.00  0.00     0.007 C 
ENDBRANCH   7   8
ENDBRANCH   6   7
BRANCH   6  11
ATOM     11  N   UNL A   1      32.713  24.729  24.130  1.00  0.00    -0.331 N 
ATOM     12  H   UNL A   1      33.388  23.969  24.041  1.00  0.00     0.347 HD
ATOM     13  H   UNL A   1      33.170  25.631  24.271  1.00  0.00     0.347 HD
BRANCH  11  14
ATOM     14  C   UNL A   1      31.936  24.820  22.872  1.00  0.00     0.310 C 
BRANCH  14  15
ATOM     15  C   UNL A   1      32.091  26.107  21.961  1.00  0.00     0.171 C 
ATOM     16  C   UNL A   1      33.497  26.699  22.076  1.00  0.00     0.063 C 
BRANCH  15  17
ATOM     17  O   UNL A   1      31.857  25.740  20.599  1.00  0.00    -0.372 OA
ATOM     18  H   UNL A   1      31.062  26.192  20.275  1.00  0.00     0.212 HD
ENDBRANCH  15  17
BRANCH  15  19
ATOM     19  C   UNL A   1      31.071  27.167  22.346  1.00  0.00    -0.057 C 
ATOM     20  C   UNL A   1      30.197  28.077  22.677  1.00  0.00    -0.064 C 
BRANCH  20  21
ATOM     21  C   UNL A   1      29.366  29.214  22.956  1.00  0.00     0.025 A 
ATOM     22  C   UNL A   1      29.916  30.316  23.618  1.00  0.00     0.017 A 
ATOM     23  C   UNL A   1      28.013  29.233  22.615  1.00  0.00     0.017 A 
ATOM     24  C   UNL A   1      29.105  31.393  23.990  1.00  0.00     0.001 A 
ATOM     25  C   UNL A   1      27.192  30.284  23.028  1.00  0.00     0.001 A 
ATOM     26  C   UNL A   1      27.737  31.362  23.721  1.00  0.00     0.000 A 
ENDBRANCH  20  21
ENDBRANCH  15  19
ENDBRANCH  14  15
ENDBRANCH  11  14
ENDBRANCH   6  11
ENDBRANCH   4   6
ENDBRANCH   3   4
ENDBRANCH   2   3
ENDBRANCH   1   2
BRANCH   1  27
ATOM     27  O   UNL A   1      33.024  30.098  26.781  1.00  0.00    -0.374 OA
BRANCH  27  28
ATOM     28  C   UNL A   1      34.376  30.311  27.157  1.00  0.00     0.202 C 
BRANCH  28  29
ATOM     29  C   UNL A   1      34.672  31.318  28.264  1.00  0.00     0.261 C 
BRANCH  29  30
ATOM     30  O   UNL A   1      36.053  31.592  28.501  1.00  0.00    -0.460 OA
BRANCH  30  31
ATOM     31  C   UNL A   1      36.549  31.028  29.626  1.00  0.00     0.338 C 
ATOM     32  O   UNL A   1      36.006  30.918  30.716  1.00  0.00    -0.246 OA
BRANCH  31  33
ATOM     33  C   UNL A   1      37.833  30.398  29.303  1.00  0.00     0.060 A 
ATOM     34  C   UNL A   1      38.130  30.004  27.996  1.00  0.00     0.016 A 
ATOM     35  C   UNL A   1      38.771  30.259  30.331  1.00  0.00     0.016 A 
ATOM     36  C   UNL A   1      39.396  29.492  27.714  1.00  0.00     0.010 A 
ATOM     37  C   UNL A   1      40.033  29.749  30.046  1.00  0.00     0.010 A 
ATOM     38  C   UNL A   1      40.360  29.383  28.733  1.00  0.00    -0.014 A 
BRANCH  38  39
ATOM     39  C   UNL A   1      41.755  29.008  28.407  1.00  0.00     0.031 A 
ATOM     40  C   UNL A   1      42.119  27.594  28.078  1.00  0.00     0.074 A 
ATOM     41  C   UNL A   1      42.698  29.968  28.457  1.00  0.00     0.049 A 
ATOM     42  N   UNL A   1      43.284  27.104  27.743  1.00  0.00    -0.248 NA
ATOM     43  C   UNL A   1      41.039  26.596  28.138  1.00  0.00     0.031 C 
ATOM     44  C   UNL A   1      42.452  31.368  28.812  1.00  0.00     0.029 A 
ATOM     45  N   UNL A   1      44.045  29.917  28.214  1.00  0.00    -0.354 N 
ATOM     46  C   UNL A   1      43.079  25.747  27.532  1.00  0.00     0.074 A 
ATOM     47  C   UNL A   1      41.686  25.481  27.826  1.00  0.00     0.031 C 
ATOM     48  C   UNL A   1      43.606  32.048  28.738  1.00  0.00     0.029 A 
ATOM     49  C   UNL A   1      44.675  31.130  28.358  1.00  0.00     0.049 A 
ATOM     50  H   UNL A   1      44.517  29.091  27.959  1.00  0.00     0.167 HD
ATOM     51  C   UNL A   1      43.971  24.820  27.112  1.00  0.00     0.037 A 
ATOM     52  C   UNL A   1      45.969  31.465  28.196  1.00  0.00     0.037 A 
ATOM     53  C   UNL A   1      45.360  25.098  26.844  1.00  0.00     0.049 A 
ATOM     54  C   UNL A   1      46.947  30.406  27.769  1.00  0.00     0.074 A 
ATOM     55  C   UNL A   1      46.339  24.235  26.385  1.00  0.00     0.029 A 
ATOM     56  N   UNL A   1      45.971  26.333  27.023  1.00  0.00    -0.354 N 
ATOM     57  N   UNL A   1      46.724  29.141  27.505  1.00  0.00    -0.248 NA
ATOM     58  C   UNL A   1      48.347  30.819  27.614  1.00  0.00     0.031 C 
ATOM     59  C   UNL A   1      47.550  24.933  26.329  1.00  0.00     0.029 A 
ATOM     60  C   UNL A   1      47.317  26.246  26.707  1.00  0.00     0.049 A 
ATOM     61  H   UNL A   1      45.515  27.149  27.329  1.00  0.00     0.167 HD
ATOM     62  C   UNL A   1      47.953  28.609  27.134  1.00  0.00     0.074 A 
ATOM     63  C   UNL A   1      48.911  29.695  27.194  1.00  0.00     0.031 C 
ATOM     64  C   UNL A   1      48.259  27.337  26.778  1.00  0.00     0.037 A 
BRANCH  51  65
ATOM     65  C   UNL A   1      43.475  23.416  26.900  1.00  0.00     0.058 A 
ATOM     66  C   UNL A   1      43.273  22.904  25.608  1.00  0.00     0.135 A 
ATOM     67  C   UNL A   1      43.259  22.554  27.987  1.00  0.00     0.135 A 
ATOM     68  F   UNL A   1      43.451  23.688  24.533  1.00  0.00    -0.206 F 
ATOM     69  C   UNL A   1      42.859  21.592  25.402  1.00  0.00     0.059 A 
ATOM     70  C   UNL A   1      42.866  21.231  27.803  1.00  0.00     0.059 A 
ATOM     71  F   UNL A   1      43.435  22.992  29.242  1.00  0.00    -0.206 F 
ATOM     72  C   UNL A   1      42.660  20.762  26.506  1.00  0.00     0.060 A 
BRANCH  72  73
ATOM     73  S   UNL A   1      42.134  19.060  26.214  1.00  0.00     0.124 S 
ATOM     74  O   UNL A   1      40.720  19.243  25.897  1.00  0.00    -0.237 OA
ATOM     75  O   UNL A   1      42.985  18.660  25.097  1.00  0.00    -0.237 OA
ATOM     76  O   UNL A   1      42.411  18.394  27.482  1.00  0.00    -0.744 OA
ENDBRANCH  72  73
ENDBRANCH  51  65
BRANCH  52  77
ATOM     77  C   UNL A   1      46.395  32.874  28.400  1.00  0.00     0.058 A 
ATOM     78  C   UNL A   1      46.347  33.796  27.346  1.00  0.00     0.135 A 
ATOM     79  C   UNL A   1      46.818  33.336  29.656  1.00  0.00     0.135 A 
ATOM     80  F   UNL A   1      45.953  33.401  26.126  1.00  0.00    -0.206 F 
ATOM     81  C   UNL A   1      46.709  35.126  27.525  1.00  0.00     0.059 A 
ATOM     82  C   UNL A   1      47.162  34.667  29.867  1.00  0.00     0.059 A 
ATOM     83  F   UNL A   1      46.865  32.495  30.701  1.00  0.00    -0.206 F 
ATOM     84  C   UNL A   1      47.110  35.554  28.792  1.00  0.00     0.060 A 
BRANCH  84  85
ATOM     85  S   UNL A   1      47.523  37.297  29.024  1.00  0.00     0.124 S 
ATOM     86  O   UNL A   1      46.201  37.893  29.179  1.00  0.00    -0.237 OA
ATOM     87  O   UNL A   1      48.351  37.257  30.225  1.00  0.00    -0.237 OA
ATOM     88  O   UNL A   1      48.231  37.642  27.795  1.00  0.00    -0.744 OA
ENDBRANCH  84  85
ENDBRANCH  52  77
BRANCH  64  89
ATOM     89  C   UNL A   1      49.689  27.046  26.414  1.00  0.00     0.058 A 
ATOM     90  C   UNL A   1      50.150  27.177  25.096  1.00  0.00     0.135 A 
ATOM     91  C   UNL A   1      50.621  26.698  27.406  1.00  0.00     0.135 A 
ATOM     92  F   UNL A   1      49.298  27.500  24.111  1.00  0.00    -0.206 F 
ATOM     93  C   UNL A   1      51.485  26.962  24.769  1.00  0.00     0.059 A 
ATOM     94  C   UNL A   1      51.965  26.503  27.106  1.00  0.00     0.059 A 
ATOM     95  F   UNL A   1      50.231  26.567  28.683  1.00  0.00    -0.206 F 
ATOM     96  C   UNL A   1      52.386  26.631  25.782  1.00  0.00     0.060 A 
BRANCH  96  97
ATOM     97  S   UNL A   1      54.124  26.403  25.350  1.00  0.00     0.124 S 
ATOM     98  O   UNL A   1      54.033  25.419  24.276  1.00  0.00    -0.237 OA
ATOM     99  O   UNL A   1      54.522  27.748  24.947  1.00  0.00    -0.237 OA
ATOM    100  O   UNL A   1      54.724  25.923  26.591  1.00  0.00    -0.744 OA
ENDBRANCH  96  97
ENDBRANCH  64  89
ENDBRANCH  38  39
ENDBRANCH  31  33
ENDBRANCH  30  31
ENDBRANCH  29  30
ENDBRANCH  28  29
ENDBRANCH  27  28
ENDBRANCH   1  27
TORSDOF 25
ENDMDL
