MODEL 1
REMARK VINA RESULT:     -10.1      0.000      0.000
REMARK SMILES C[C@H](CC(=O)OCCOCCOC(=O)c1ccc(-c2c3nc(c(-c4c(F)cc(S(=O)(=O)[O-])cc4F)c4ccc([nH]4)c(-c4c(F)cc(S(=O)(=O)[O-])cc4F)c4nc(c(-c5c(F)cc(S(=O)(=O)[O-])cc5F)c5ccc2[nH]5)C=C4)C=C3)cc1)NC(=O)Cc1cn2ccsc2n1
REMARK SMILES IDX 8 1 7 2 6 3 4 4 5 5 3 6 2 7 1 8 81 9 82 10 83 12 84 13 85 14
REMARK SMILES IDX 86 15 92 16 87 17 91 18 88 19 90 20 89 21 9 22 10 23 11 24
REMARK SMILES IDX 12 25 13 26 14 27 15 28 16 29 80 30 17 31 79 32 18 33 19 34
REMARK SMILES IDX 20 35 73 36 21 37 78 38 72 39 74 40 22 41 77 42 71 43 70 44
REMARK SMILES IDX 23 46 57 47 36 48 56 49 37 50 40 51 55 52 75 53 38 54 39 55
REMARK SMILES IDX 54 57 76 58 41 59 24 60 25 61 34 62 26 63 27 64 33 65 35 66
REMARK SMILES IDX 28 67 29 68 30 69 31 70 32 71 58 72 59 73 68 74 60 75 61 76
REMARK SMILES IDX 67 77 69 78 62 79 63 80 64 81 65 82 66 83 42 84 43 85 52 86
REMARK SMILES IDX 44 87 45 88 51 89 53 90 46 91 47 92 48 93 49 94 50 95
REMARK H PARENT 81 11 74 45 40 56
REMARK Flexibility Score: inf
ROOT
ATOM      1  C   UNL A   1      34.805  31.454  28.402  1.00  0.00     0.202 C 
ENDROOT
BRANCH   1   2
ATOM      2  C   UNL A   1      33.998  30.810  27.270  1.00  0.00     0.261 C 
BRANCH   2   3
ATOM      3  O   UNL A   1      34.147  29.380  27.177  1.00  0.00    -0.463 OA
BRANCH   3   4
ATOM      4  C   UNL A   1      33.718  28.851  26.002  1.00  0.00     0.307 C 
ATOM      5  O   UNL A   1      33.286  29.503  25.056  1.00  0.00    -0.252 OA
BRANCH   4   6
ATOM      6  C   UNL A   1      33.723  27.351  25.975  1.00  0.00     0.147 C 
BRANCH   6   7
ATOM      7  C   UNL A   1      32.892  26.559  24.957  1.00  0.00     0.090 C 
ATOM      8  C   UNL A   1      31.382  26.675  25.094  1.00  0.00     0.031 C 
BRANCH   7   9
ATOM      9  N   UNL A   1      33.299  26.813  23.578  1.00  0.00    -0.353 N 
ATOM     10  C   UNL A   1      33.325  25.943  22.520  1.00  0.00     0.226 C 
ATOM     11  H   UNL A   1      33.591  27.733  23.382  1.00  0.00     0.163 HD
ATOM     12  O   UNL A   1      33.767  26.350  21.443  1.00  0.00    -0.275 OA
BRANCH  10  13
ATOM     13  C   UNL A   1      32.728  24.549  22.642  1.00  0.00     0.157 C 
BRANCH  13  14
ATOM     14  C   UNL A   1      33.664  23.511  23.176  1.00  0.00     0.070 A 
ATOM     15  C   UNL A   1      33.364  22.270  23.735  1.00  0.00     0.118 A 
ATOM     16  N   UNL A   1      35.020  23.761  23.273  1.00  0.00    -0.223 NA
ATOM     17  N   UNL A   1      34.560  21.796  24.195  1.00  0.00    -0.297 N 
ATOM     18  C   UNL A   1      35.503  22.719  23.879  1.00  0.00     0.193 A 
ATOM     19  C   UNL A   1      35.023  20.708  24.898  1.00  0.00     0.104 A 
ATOM     20  S   UNL A   1      37.069  22.272  24.469  1.00  0.00    -0.105 S 
ATOM     21  C   UNL A   1      36.345  20.799  25.133  1.00  0.00     0.087 A 
ENDBRANCH  13  14
ENDBRANCH  10  13
ENDBRANCH   7   9
ENDBRANCH   6   7
ENDBRANCH   4   6
ENDBRANCH   3   4
ENDBRANCH   2   3
ENDBRANCH   1   2
BRANCH   1  22
ATOM     22  O   UNL A   1      34.239  32.594  29.045  1.00  0.00    -0.374 OA
BRANCH  22  23
ATOM     23  C   UNL A   1      34.897  33.087  30.211  1.00  0.00     0.202 C 
BRANCH  23  24
ATOM     24  C   UNL A   1      35.029  32.107  31.380  1.00  0.00     0.261 C 
BRANCH  24  25
ATOM     25  O   UNL A   1      36.412  31.844  31.688  1.00  0.00    -0.460 OA
BRANCH  25  26
ATOM     26  C   UNL A   1      36.825  30.596  31.358  1.00  0.00     0.338 C 
ATOM     27  O   UNL A   1      36.142  29.588  31.317  1.00  0.00    -0.246 OA
BRANCH  26  28
ATOM     28  C   UNL A   1      38.208  30.629  30.847  1.00  0.00     0.060 A 
ATOM     29  C   UNL A   1      38.364  30.697  29.457  1.00  0.00     0.016 A 
ATOM     30  C   UNL A   1      39.318  30.470  31.678  1.00  0.00     0.016 A 
ATOM     31  C   UNL A   1      39.622  30.520  28.889  1.00  0.00     0.010 A 
ATOM     32  C   UNL A   1      40.585  30.287  31.103  1.00  0.00     0.010 A 
ATOM     33  C   UNL A   1      40.730  30.256  29.704  1.00  0.00    -0.014 A 
BRANCH  33  34
ATOM     34  C   UNL A   1      41.975  29.768  29.054  1.00  0.00     0.031 A 
ATOM     35  C   UNL A   1      43.160  30.695  28.960  1.00  0.00     0.074 A 
ATOM     36  C   UNL A   1      42.090  28.487  28.663  1.00  0.00     0.049 A 
ATOM     37  N   UNL A   1      44.378  30.446  28.552  1.00  0.00    -0.248 NA
ATOM     38  C   UNL A   1      42.944  32.087  29.389  1.00  0.00     0.031 C 
ATOM     39  C   UNL A   1      41.027  27.486  28.729  1.00  0.00     0.029 A 
ATOM     40  N   UNL A   1      43.165  27.804  28.150  1.00  0.00    -0.354 N 
ATOM     41  C   UNL A   1      45.076  31.642  28.684  1.00  0.00     0.074 A 
ATOM     42  C   UNL A   1      44.134  32.627  29.171  1.00  0.00     0.031 C 
ATOM     43  C   UNL A   1      41.507  26.311  28.285  1.00  0.00     0.029 A 
ATOM     44  C   UNL A   1      42.904  26.480  27.891  1.00  0.00     0.049 A 
ATOM     45  H   UNL A   1      44.040  28.224  27.983  1.00  0.00     0.167 HD
ATOM     46  C   UNL A   1      46.384  31.896  28.438  1.00  0.00     0.037 A 
ATOM     47  C   UNL A   1      43.704  25.513  27.397  1.00  0.00     0.037 A 
ATOM     48  C   UNL A   1      47.321  30.917  27.951  1.00  0.00     0.049 A 
ATOM     49  C   UNL A   1      45.145  25.829  27.092  1.00  0.00     0.074 A 
ATOM     50  C   UNL A   1      48.668  31.074  27.678  1.00  0.00     0.029 A 
ATOM     51  N   UNL A   1      47.008  29.597  27.661  1.00  0.00    -0.354 N 
ATOM     52  N   UNL A   1      45.795  26.958  27.247  1.00  0.00    -0.248 NA
ATOM     53  C   UNL A   1      45.965  24.732  26.559  1.00  0.00     0.031 C 
ATOM     54  C   UNL A   1      49.161  29.860  27.186  1.00  0.00     0.029 A 
ATOM     55  C   UNL A   1      48.131  28.933  27.195  1.00  0.00     0.049 A 
ATOM     56  H   UNL A   1      46.118  29.191  27.771  1.00  0.00     0.167 HD
ATOM     57  C   UNL A   1      47.104  26.702  26.850  1.00  0.00     0.074 A 
ATOM     58  C   UNL A   1      47.157  25.307  26.464  1.00  0.00     0.031 C 
ATOM     59  C   UNL A   1      48.167  27.545  26.811  1.00  0.00     0.037 A 
BRANCH  46  60
ATOM     60  C   UNL A   1      46.872  33.299  28.673  1.00  0.00     0.058 A 
ATOM     61  C   UNL A   1      46.840  34.270  27.659  1.00  0.00     0.135 A 
ATOM     62  C   UNL A   1      47.360  33.683  29.932  1.00  0.00     0.135 A 
ATOM     63  F   UNL A   1      46.400  33.952  26.431  1.00  0.00    -0.206 F 
ATOM     64  C   UNL A   1      47.301  35.565  27.878  1.00  0.00     0.059 A 
ATOM     65  C   UNL A   1      47.802  34.979  30.180  1.00  0.00     0.059 A 
ATOM     66  F   UNL A   1      47.414  32.793  30.936  1.00  0.00    -0.206 F 
ATOM     67  C   UNL A   1      47.783  35.909  29.142  1.00  0.00     0.060 A 
BRANCH  67  68
ATOM     68  S   UNL A   1      48.381  37.591  29.412  1.00  0.00     0.124 S 
ATOM     69  O   UNL A   1      49.809  37.438  29.148  1.00  0.00    -0.237 OA
ATOM     70  O   UNL A   1      47.632  38.355  28.419  1.00  0.00    -0.237 OA
ATOM     71  O   UNL A   1      48.025  37.859  30.802  1.00  0.00    -0.744 OA
ENDBRANCH  67  68
ENDBRANCH  46  60
BRANCH  47  72
ATOM     72  C   UNL A   1      43.160  24.149  27.169  1.00  0.00     0.058 A 
ATOM     73  C   UNL A   1      42.755  23.730  25.893  1.00  0.00     0.135 A 
ATOM     74  C   UNL A   1      43.039  23.234  28.226  1.00  0.00     0.135 A 
ATOM     75  F   UNL A   1      42.841  24.572  24.852  1.00  0.00    -0.206 F 
ATOM     76  C   UNL A   1      42.238  22.456  25.675  1.00  0.00     0.059 A 
ATOM     77  C   UNL A   1      42.547  21.949  28.030  1.00  0.00     0.059 A 
ATOM     78  F   UNL A   1      43.420  23.585  29.465  1.00  0.00    -0.206 F 
ATOM     79  C   UNL A   1      42.140  21.573  26.750  1.00  0.00     0.060 A 
BRANCH  79  80
ATOM     80  S   UNL A   1      41.519  19.903  26.449  1.00  0.00     0.124 S 
ATOM     81  O   UNL A   1      40.112  20.160  26.159  1.00  0.00    -0.237 OA
ATOM     82  O   UNL A   1      42.335  19.469  25.319  1.00  0.00    -0.237 OA
ATOM     83  O   UNL A   1      41.789  19.213  27.707  1.00  0.00    -0.744 OA
ENDBRANCH  79  80
ENDBRANCH  47  72
BRANCH  59  84
ATOM     84  C   UNL A   1      49.481  26.970  26.359  1.00  0.00     0.058 A 
ATOM     85  C   UNL A   1      49.932  27.110  25.036  1.00  0.00     0.135 A 
ATOM     86  C   UNL A   1      50.310  26.287  27.263  1.00  0.00     0.135 A 
ATOM     87  F   UNL A   1      49.178  27.753  24.130  1.00  0.00    -0.206 F 
ATOM     88  C   UNL A   1      51.138  26.557  24.617  1.00  0.00     0.059 A 
ATOM     89  C   UNL A   1      51.532  25.748  26.873  1.00  0.00     0.059 A 
ATOM     90  F   UNL A   1      49.934  26.138  28.544  1.00  0.00    -0.206 F 
ATOM     91  C   UNL A   1      51.928  25.871  25.542  1.00  0.00     0.060 A 
BRANCH  91  92
ATOM     92  S   UNL A   1      53.490  25.154  24.989  1.00  0.00     0.124 S 
ATOM     93  O   UNL A   1      54.452  25.881  25.809  1.00  0.00    -0.237 OA
ATOM     94  O   UNL A   1      53.321  23.740  25.314  1.00  0.00    -0.237 OA
ATOM     95  O   UNL A   1      53.519  25.463  23.563  1.00  0.00    -0.744 OA
ENDBRANCH  91  92
ENDBRANCH  59  84
ENDBRANCH  33  34
ENDBRANCH  26  28
ENDBRANCH  25  26
ENDBRANCH  24  25
ENDBRANCH  23  24
ENDBRANCH  22  23
ENDBRANCH   1  22
TORSDOF 21
ENDMDL
MODEL 2
REMARK VINA RESULT:      -9.9      2.072      3.463
REMARK SMILES C[C@H](CC(=O)OCCOCCOC(=O)c1ccc(-c2c3nc(c(-c4c(F)cc(S(=O)(=O)[O-])cc4F)c4ccc([nH]4)c(-c4c(F)cc(S(=O)(=O)[O-])cc4F)c4nc(c(-c5c(F)cc(S(=O)(=O)[O-])cc5F)c5ccc2[nH]5)C=C4)C=C3)cc1)NC(=O)Cc1cn2ccsc2n1
REMARK SMILES IDX 8 1 7 2 6 3 4 4 5 5 3 6 2 7 1 8 81 9 82 10 83 12 84 13 85 14
REMARK SMILES IDX 86 15 92 16 87 17 91 18 88 19 90 20 89 21 9 22 10 23 11 24
REMARK SMILES IDX 12 25 13 26 14 27 15 28 16 29 80 30 17 31 79 32 18 33 19 34
REMARK SMILES IDX 20 35 73 36 21 37 78 38 72 39 74 40 22 41 77 42 71 43 70 44
REMARK SMILES IDX 23 46 57 47 36 48 56 49 37 50 40 51 55 52 75 53 38 54 39 55
REMARK SMILES IDX 54 57 76 58 41 59 24 60 25 61 34 62 26 63 27 64 33 65 35 66
REMARK SMILES IDX 28 67 29 68 30 69 31 70 32 71 58 72 59 73 68 74 60 75 61 76
REMARK SMILES IDX 67 77 69 78 62 79 63 80 64 81 65 82 66 83 42 84 43 85 52 86
REMARK SMILES IDX 44 87 45 88 51 89 53 90 46 91 47 92 48 93 49 94 50 95
REMARK H PARENT 81 11 74 45 40 56
REMARK Flexibility Score: inf
ROOT
ATOM      1  C   UNL A   1      33.873  35.127  32.466  1.00  0.00     0.202 C 
ENDROOT
BRANCH   1   2
ATOM      2  C   UNL A   1      33.731  35.588  31.011  1.00  0.00     0.261 C 
BRANCH   2   3
ATOM      3  O   UNL A   1      32.673  34.935  30.284  1.00  0.00    -0.463 OA
BRANCH   3   4
ATOM      4  C   UNL A   1      33.074  34.346  29.128  1.00  0.00     0.307 C 
ATOM      5  O   UNL A   1      32.659  34.641  28.011  1.00  0.00    -0.252 OA
BRANCH   4   6
ATOM      6  C   UNL A   1      34.027  33.204  29.328  1.00  0.00     0.147 C 
BRANCH   6   7
ATOM      7  C   UNL A   1      34.865  32.641  28.173  1.00  0.00     0.090 C 
ATOM      8  C   UNL A   1      36.237  33.268  27.977  1.00  0.00     0.031 C 
BRANCH   7   9
ATOM      9  N   UNL A   1      34.972  31.186  28.211  1.00  0.00    -0.353 N 
ATOM     10  C   UNL A   1      34.182  30.254  27.590  1.00  0.00     0.226 C 
ATOM     11  H   UNL A   1      35.710  30.826  28.753  1.00  0.00     0.163 HD
ATOM     12  O   UNL A   1      34.408  29.061  27.807  1.00  0.00    -0.275 OA
BRANCH  10  13
ATOM     13  C   UNL A   1      33.125  30.676  26.581  1.00  0.00     0.157 C 
BRANCH  13  14
ATOM     14  C   UNL A   1      32.713  29.606  25.620  1.00  0.00     0.070 A 
ATOM     15  C   UNL A   1      33.265  29.286  24.380  1.00  0.00     0.118 A 
ATOM     16  N   UNL A   1      31.580  28.848  25.846  1.00  0.00    -0.223 NA
ATOM     17  N   UNL A   1      32.425  28.345  23.857  1.00  0.00    -0.297 N 
ATOM     18  C   UNL A   1      31.455  28.119  24.779  1.00  0.00     0.193 A 
ATOM     19  C   UNL A   1      32.289  27.640  22.683  1.00  0.00     0.104 A 
ATOM     20  S   UNL A   1      30.275  26.986  24.211  1.00  0.00    -0.105 S 
ATOM     21  C   UNL A   1      31.189  26.864  22.699  1.00  0.00     0.087 A 
ENDBRANCH  13  14
ENDBRANCH  10  13
ENDBRANCH   7   9
ENDBRANCH   6   7
ENDBRANCH   4   6
ENDBRANCH   3   4
ENDBRANCH   2   3
ENDBRANCH   1   2
BRANCH   1  22
ATOM     22  O   UNL A   1      34.061  33.732  32.697  1.00  0.00    -0.374 OA
BRANCH  22  23
ATOM     23  C   UNL A   1      35.401  33.261  32.822  1.00  0.00     0.202 C 
BRANCH  23  24
ATOM     24  C   UNL A   1      35.649  31.805  32.414  1.00  0.00     0.261 C 
BRANCH  24  25
ATOM     25  O   UNL A   1      36.425  31.727  31.202  1.00  0.00    -0.460 OA
BRANCH  25  26
ATOM     26  C   UNL A   1      36.843  30.476  30.892  1.00  0.00     0.338 C 
ATOM     27  O   UNL A   1      36.158  29.468  30.840  1.00  0.00    -0.246 OA
BRANCH  26  28
ATOM     28  C   UNL A   1      38.238  30.501  30.416  1.00  0.00     0.060 A 
ATOM     29  C   UNL A   1      38.432  30.469  29.030  1.00  0.00     0.016 A 
ATOM     30  C   UNL A   1      39.328  30.429  31.287  1.00  0.00     0.016 A 
ATOM     31  C   UNL A   1      39.709  30.278  28.511  1.00  0.00     0.010 A 
ATOM     32  C   UNL A   1      40.613  30.232  30.761  1.00  0.00     0.010 A 
ATOM     33  C   UNL A   1      40.799  30.100  29.373  1.00  0.00    -0.014 A 
BRANCH  33  34
ATOM     34  C   UNL A   1      42.071  29.593  28.795  1.00  0.00     0.031 A 
ATOM     35  C   UNL A   1      43.264  30.514  28.738  1.00  0.00     0.074 A 
ATOM     36  C   UNL A   1      42.199  28.303  28.438  1.00  0.00     0.049 A 
ATOM     37  N   UNL A   1      44.500  30.250  28.396  1.00  0.00    -0.248 NA
ATOM     38  C   UNL A   1      43.035  31.915  29.125  1.00  0.00     0.031 C 
ATOM     39  C   UNL A   1      41.129  27.308  28.474  1.00  0.00     0.029 A 
ATOM     40  N   UNL A   1      43.294  27.605  27.992  1.00  0.00    -0.354 N 
ATOM     41  C   UNL A   1      45.196  31.446  28.535  1.00  0.00     0.074 A 
ATOM     42  C   UNL A   1      44.237  32.446  28.954  1.00  0.00     0.031 C 
ATOM     43  C   UNL A   1      41.624  26.122  28.079  1.00  0.00     0.029 A 
ATOM     44  C   UNL A   1      43.040  26.277  27.750  1.00  0.00     0.049 A 
ATOM     45  H   UNL A   1      44.178  28.018  27.859  1.00  0.00     0.167 HD
ATOM     46  C   UNL A   1      46.516  31.690  28.347  1.00  0.00     0.037 A 
ATOM     47  C   UNL A   1      43.858  25.296  27.317  1.00  0.00     0.037 A 
ATOM     48  C   UNL A   1      47.470  30.697  27.928  1.00  0.00     0.049 A 
ATOM     49  C   UNL A   1      45.313  25.600  27.076  1.00  0.00     0.074 A 
ATOM     50  C   UNL A   1      48.830  30.842  27.717  1.00  0.00     0.029 A 
ATOM     51  N   UNL A   1      47.165  29.372  27.652  1.00  0.00    -0.354 N 
ATOM     52  N   UNL A   1      45.961  26.729  27.237  1.00  0.00    -0.248 NA
ATOM     53  C   UNL A   1      46.153  24.488  26.607  1.00  0.00     0.031 C 
ATOM     54  C   UNL A   1      49.340  29.616  27.276  1.00  0.00     0.029 A 
ATOM     55  C   UNL A   1      48.306  28.694  27.256  1.00  0.00     0.049 A 
ATOM     56  H   UNL A   1      46.268  28.972  27.728  1.00  0.00     0.167 HD
ATOM     57  C   UNL A   1      47.286  26.459  26.910  1.00  0.00     0.074 A 
ATOM     58  C   UNL A   1      47.350  25.056  26.557  1.00  0.00     0.031 C 
ATOM     59  C   UNL A   1      48.353  27.297  26.904  1.00  0.00     0.037 A 
BRANCH  46  60
ATOM     60  C   UNL A   1      46.999  33.095  28.575  1.00  0.00     0.058 A 
ATOM     61  C   UNL A   1      47.401  33.540  29.846  1.00  0.00     0.135 A 
ATOM     62  C   UNL A   1      47.081  34.004  27.508  1.00  0.00     0.135 A 
ATOM     63  F   UNL A   1      47.325  32.718  30.904  1.00  0.00    -0.206 F 
ATOM     64  C   UNL A   1      47.840  34.844  30.055  1.00  0.00     0.059 A 
ATOM     65  C   UNL A   1      47.540  35.305  27.690  1.00  0.00     0.059 A 
ATOM     66  F   UNL A   1      46.708  33.631  26.273  1.00  0.00    -0.206 F 
ATOM     67  C   UNL A   1      47.903  35.720  28.970  1.00  0.00     0.060 A 
BRANCH  67  68
ATOM     68  S   UNL A   1      48.471  37.410  29.255  1.00  0.00     0.124 S 
ATOM     69  O   UNL A   1      49.849  37.186  29.680  1.00  0.00    -0.237 OA
ATOM     70  O   UNL A   1      48.305  38.024  27.941  1.00  0.00    -0.237 OA
ATOM     71  O   UNL A   1      47.567  37.903  30.291  1.00  0.00    -0.744 OA
ENDBRANCH  67  68
ENDBRANCH  46  60
BRANCH  47  72
ATOM     72  C   UNL A   1      43.319  23.930  27.093  1.00  0.00     0.058 A 
ATOM     73  C   UNL A   1      43.058  23.452  25.800  1.00  0.00     0.135 A 
ATOM     74  C   UNL A   1      43.057  23.071  28.171  1.00  0.00     0.135 A 
ATOM     75  F   UNL A   1      43.281  24.239  24.736  1.00  0.00    -0.206 F 
ATOM     76  C   UNL A   1      42.546  22.176  25.584  1.00  0.00     0.059 A 
ATOM     77  C   UNL A   1      42.567  21.783  27.981  1.00  0.00     0.059 A 
ATOM     78  F   UNL A   1      43.297  23.479  29.428  1.00  0.00    -0.206 F 
ATOM     79  C   UNL A   1      42.306  21.349  26.682  1.00  0.00     0.060 A 
BRANCH  79  80
ATOM     80  S   UNL A   1      41.693  19.674  26.390  1.00  0.00     0.124 S 
ATOM     81  O   UNL A   1      40.282  19.921  26.115  1.00  0.00    -0.237 OA
ATOM     82  O   UNL A   1      42.501  19.244  25.253  1.00  0.00    -0.237 OA
ATOM     83  O   UNL A   1      41.982  18.989  27.647  1.00  0.00    -0.744 OA
ENDBRANCH  79  80
ENDBRANCH  47  72
BRANCH  59  84
ATOM     84  C   UNL A   1      49.685  26.707  26.529  1.00  0.00     0.058 A 
ATOM     85  C   UNL A   1      50.164  26.745  25.209  1.00  0.00     0.135 A 
ATOM     86  C   UNL A   1      50.502  26.113  27.504  1.00  0.00     0.135 A 
ATOM     87  F   UNL A   1      49.422  27.301  24.238  1.00  0.00    -0.206 F 
ATOM     88  C   UNL A   1      51.387  26.179  24.863  1.00  0.00     0.059 A 
ATOM     89  C   UNL A   1      51.740  25.563  27.185  1.00  0.00     0.059 A 
ATOM     90  F   UNL A   1      50.100  26.064  28.784  1.00  0.00    -0.206 F 
ATOM     91  C   UNL A   1      52.164  25.583  25.857  1.00  0.00     0.060 A 
BRANCH  91  92
ATOM     92  S   UNL A   1      53.748  24.846  25.399  1.00  0.00     0.124 S 
ATOM     93  O   UNL A   1      53.349  23.488  25.049  1.00  0.00    -0.237 OA
ATOM     94  O   UNL A   1      54.178  25.688  24.286  1.00  0.00    -0.237 OA
ATOM     95  O   UNL A   1      54.545  24.973  26.615  1.00  0.00    -0.744 OA
ENDBRANCH  91  92
ENDBRANCH  59  84
ENDBRANCH  33  34
ENDBRANCH  26  28
ENDBRANCH  25  26
ENDBRANCH  24  25
ENDBRANCH  23  24
ENDBRANCH  22  23
ENDBRANCH   1  22
TORSDOF 21
ENDMDL
MODEL 3
REMARK VINA RESULT:      -9.8      1.861      8.587
REMARK SMILES C[C@H](CC(=O)OCCOCCOC(=O)c1ccc(-c2c3nc(c(-c4c(F)cc(S(=O)(=O)[O-])cc4F)c4ccc([nH]4)c(-c4c(F)cc(S(=O)(=O)[O-])cc4F)c4nc(c(-c5c(F)cc(S(=O)(=O)[O-])cc5F)c5ccc2[nH]5)C=C4)C=C3)cc1)NC(=O)Cc1cn2ccsc2n1
REMARK SMILES IDX 8 1 7 2 6 3 4 4 5 5 3 6 2 7 1 8 81 9 82 10 83 12 84 13 85 14
REMARK SMILES IDX 86 15 92 16 87 17 91 18 88 19 90 20 89 21 9 22 10 23 11 24
REMARK SMILES IDX 12 25 13 26 14 27 15 28 16 29 80 30 17 31 79 32 18 33 19 34
REMARK SMILES IDX 20 35 73 36 21 37 78 38 72 39 74 40 22 41 77 42 71 43 70 44
REMARK SMILES IDX 23 46 57 47 36 48 56 49 37 50 40 51 55 52 75 53 38 54 39 55
REMARK SMILES IDX 54 57 76 58 41 59 24 60 25 61 34 62 26 63 27 64 33 65 35 66
REMARK SMILES IDX 28 67 29 68 30 69 31 70 32 71 58 72 59 73 68 74 60 75 61 76
REMARK SMILES IDX 67 77 69 78 62 79 63 80 64 81 65 82 66 83 42 84 43 85 52 86
REMARK SMILES IDX 44 87 45 88 51 89 53 90 46 91 47 92 48 93 49 94 50 95
REMARK H PARENT 81 11 74 45 40 56
REMARK Flexibility Score: inf
ROOT
ATOM      1  C   UNL A   1      33.533  28.136  26.602  1.00  0.00     0.202 C 
ENDROOT
BRANCH   1   2
ATOM      2  C   UNL A   1      32.370  27.373  25.960  1.00  0.00     0.261 C 
BRANCH   2   3
ATOM      3  O   UNL A   1      31.656  26.511  26.867  1.00  0.00    -0.463 OA
BRANCH   3   4
ATOM      4  C   UNL A   1      31.625  25.208  26.488  1.00  0.00     0.307 C 
ATOM      5  O   UNL A   1      31.326  24.271  27.223  1.00  0.00    -0.252 OA
BRANCH   4   6
ATOM      6  C   UNL A   1      32.089  24.975  25.080  1.00  0.00     0.147 C 
BRANCH   6   7
ATOM      7  C   UNL A   1      33.272  24.051  24.762  1.00  0.00     0.090 C 
ATOM      8  C   UNL A   1      34.506  24.722  24.178  1.00  0.00     0.031 C 
BRANCH   7   9
ATOM      9  N   UNL A   1      33.641  23.200  25.890  1.00  0.00    -0.353 N 
ATOM     10  C   UNL A   1      33.934  21.862  25.891  1.00  0.00     0.226 C 
ATOM     11  H   UNL A   1      33.687  23.649  26.765  1.00  0.00     0.163 HD
ATOM     12  O   UNL A   1      34.162  21.317  26.975  1.00  0.00    -0.275 OA
BRANCH  10  13
ATOM     13  C   UNL A   1      34.078  21.094  24.586  1.00  0.00     0.157 C 
BRANCH  13  14
ATOM     14  C   UNL A   1      33.810  19.626  24.690  1.00  0.00     0.070 A 
ATOM     15  C   UNL A   1      32.611  18.975  24.975  1.00  0.00     0.118 A 
ATOM     16  N   UNL A   1      34.843  18.709  24.616  1.00  0.00    -0.223 NA
ATOM     17  N   UNL A   1      32.950  17.657  25.100  1.00  0.00    -0.297 N 
ATOM     18  C   UNL A   1      34.283  17.564  24.862  1.00  0.00     0.193 A 
ATOM     19  C   UNL A   1      32.334  16.473  25.432  1.00  0.00     0.104 A 
ATOM     20  S   UNL A   1      34.863  15.944  25.056  1.00  0.00    -0.105 S 
ATOM     21  C   UNL A   1      33.210  15.452  25.458  1.00  0.00     0.087 A 
ENDBRANCH  13  14
ENDBRANCH  10  13
ENDBRANCH   7   9
ENDBRANCH   6   7
ENDBRANCH   4   6
ENDBRANCH   3   4
ENDBRANCH   2   3
ENDBRANCH   1   2
BRANCH   1  22
ATOM     22  O   UNL A   1      33.208  29.244  27.440  1.00  0.00    -0.374 OA
BRANCH  22  23
ATOM     23  C   UNL A   1      33.944  30.451  27.250  1.00  0.00     0.202 C 
BRANCH  23  24
ATOM     24  C   UNL A   1      35.027  30.755  28.290  1.00  0.00     0.261 C 
BRANCH  24  25
ATOM     25  O   UNL A   1      35.932  29.643  28.443  1.00  0.00    -0.460 OA
BRANCH  25  26
ATOM     26  C   UNL A   1      36.601  29.632  29.622  1.00  0.00     0.338 C 
ATOM     27  O   UNL A   1      36.142  29.364  30.720  1.00  0.00    -0.246 OA
BRANCH  26  28
ATOM     28  C   UNL A   1      38.048  29.800  29.395  1.00  0.00     0.060 A 
ATOM     29  C   UNL A   1      38.507  29.604  28.087  1.00  0.00     0.016 A 
ATOM     30  C   UNL A   1      38.950  30.013  30.440  1.00  0.00     0.016 A 
ATOM     31  C   UNL A   1      39.873  29.536  27.833  1.00  0.00     0.010 A 
ATOM     32  C   UNL A   1      40.327  29.939  30.181  1.00  0.00     0.010 A 
ATOM     33  C   UNL A   1      40.791  29.645  28.887  1.00  0.00    -0.014 A 
BRANCH  33  34
ATOM     34  C   UNL A   1      42.202  29.258  28.626  1.00  0.00     0.031 A 
ATOM     35  C   UNL A   1      42.508  27.838  28.226  1.00  0.00     0.074 A 
ATOM     36  C   UNL A   1      43.180  30.182  28.629  1.00  0.00     0.049 A 
ATOM     37  N   UNL A   1      43.640  27.312  27.830  1.00  0.00    -0.248 NA
ATOM     38  C   UNL A   1      41.388  26.884  28.269  1.00  0.00     0.031 C 
ATOM     39  C   UNL A   1      43.006  31.592  28.971  1.00  0.00     0.029 A 
ATOM     40  N   UNL A   1      44.512  30.073  28.315  1.00  0.00    -0.354 N 
ATOM     41  C   UNL A   1      43.367  25.974  27.569  1.00  0.00     0.074 A 
ATOM     42  C   UNL A   1      41.972  25.758  27.889  1.00  0.00     0.031 C 
ATOM     43  C   UNL A   1      44.187  32.222  28.835  1.00  0.00     0.029 A 
ATOM     44  C   UNL A   1      45.200  31.258  28.411  1.00  0.00     0.049 A 
ATOM     45  H   UNL A   1      44.933  29.224  28.046  1.00  0.00     0.167 HD
ATOM     46  C   UNL A   1      44.195  25.014  27.091  1.00  0.00     0.037 A 
ATOM     47  C   UNL A   1      46.499  31.534  28.178  1.00  0.00     0.037 A 
ATOM     48  C   UNL A   1      45.584  25.227  26.774  1.00  0.00     0.049 A 
ATOM     49  C   UNL A   1      47.411  30.441  27.686  1.00  0.00     0.074 A 
ATOM     50  C   UNL A   1      46.504  24.321  26.278  1.00  0.00     0.029 A 
ATOM     51  N   UNL A   1      46.254  26.432  26.926  1.00  0.00    -0.354 N 
ATOM     52  N   UNL A   1      47.132  29.187  27.420  1.00  0.00    -0.248 NA
ATOM     53  C   UNL A   1      48.815  30.806  27.449  1.00  0.00     0.031 C 
ATOM     54  C   UNL A   1      47.740  24.967  26.165  1.00  0.00     0.029 A 
ATOM     55  C   UNL A   1      47.580  26.289  26.550  1.00  0.00     0.049 A 
ATOM     56  H   UNL A   1      45.847  27.267  27.251  1.00  0.00     0.167 HD
ATOM     57  C   UNL A   1      48.318  28.620  26.964  1.00  0.00     0.074 A 
ATOM     58  C   UNL A   1      49.314  29.672  26.976  1.00  0.00     0.031 C 
ATOM     59  C   UNL A   1      48.560  27.345  26.570  1.00  0.00     0.037 A 
BRANCH  46  60
ATOM     60  C   UNL A   1      43.622  23.636  26.903  1.00  0.00     0.058 A 
ATOM     61  C   UNL A   1      43.253  23.159  25.635  1.00  0.00     0.135 A 
ATOM     62  C   UNL A   1      43.457  22.776  27.999  1.00  0.00     0.135 A 
ATOM     63  F   UNL A   1      43.373  23.946  24.554  1.00  0.00    -0.206 F 
ATOM     64  C   UNL A   1      42.715  21.886  25.465  1.00  0.00     0.059 A 
ATOM     65  C   UNL A   1      42.944  21.491  27.849  1.00  0.00     0.059 A 
ATOM     66  F   UNL A   1      43.792  23.183  29.234  1.00  0.00    -0.206 F 
ATOM     67  C   UNL A   1      42.562  21.060  26.580  1.00  0.00     0.060 A 
BRANCH  67  68
ATOM     68  S   UNL A   1      41.859  19.413  26.347  1.00  0.00     0.124 S 
ATOM     69  O   UNL A   1      40.433  19.715  26.261  1.00  0.00    -0.237 OA
ATOM     70  O   UNL A   1      42.490  18.975  25.106  1.00  0.00    -0.237 OA
ATOM     71  O   UNL A   1      42.277  18.694  27.546  1.00  0.00    -0.744 OA
ENDBRANCH  67  68
ENDBRANCH  46  60
BRANCH  47  72
ATOM     72  C   UNL A   1      47.013  32.911  28.399  1.00  0.00     0.058 A 
ATOM     73  C   UNL A   1      47.549  33.299  29.635  1.00  0.00     0.135 A 
ATOM     74  C   UNL A   1      46.979  33.867  27.372  1.00  0.00     0.135 A 
ATOM     75  F   UNL A   1      47.593  32.424  30.652  1.00  0.00    -0.206 F 
ATOM     76  C   UNL A   1      48.025  34.589  29.850  1.00  0.00     0.059 A 
ATOM     77  C   UNL A   1      47.470  35.156  27.555  1.00  0.00     0.059 A 
ATOM     78  F   UNL A   1      46.483  33.542  26.168  1.00  0.00    -0.206 F 
ATOM     79  C   UNL A   1      47.982  35.509  28.802  1.00  0.00     0.060 A 
BRANCH  79  80
ATOM     80  S   UNL A   1      48.651  37.166  29.072  1.00  0.00     0.124 S 
ATOM     81  O   UNL A   1      49.036  37.552  27.719  1.00  0.00    -0.237 OA
ATOM     82  O   UNL A   1      47.506  37.873  29.638  1.00  0.00    -0.237 OA
ATOM     83  O   UNL A   1      49.754  36.934  30.001  1.00  0.00    -0.744 OA
ENDBRANCH  79  80
ENDBRANCH  47  72
BRANCH  59  84
ATOM     84  C   UNL A   1      49.952  27.027  26.094  1.00  0.00     0.058 A 
ATOM     85  C   UNL A   1      50.332  27.206  24.754  1.00  0.00     0.135 A 
ATOM     86  C   UNL A   1      50.922  26.555  26.993  1.00  0.00     0.135 A 
ATOM     87  F   UNL A   1      49.443  27.654  23.854  1.00  0.00    -0.206 F 
ATOM     88  C   UNL A   1      51.614  26.889  24.315  1.00  0.00     0.059 A 
ATOM     89  C   UNL A   1      52.217  26.256  26.580  1.00  0.00     0.059 A 
ATOM     90  F   UNL A   1      50.615  26.381  28.288  1.00  0.00    -0.206 F 
ATOM     91  C   UNL A   1      52.547  26.408  25.234  1.00  0.00     0.060 A 
BRANCH  91  92
ATOM     92  S   UNL A   1      54.207  25.995  24.655  1.00  0.00     0.124 S 
ATOM     93  O   UNL A   1      54.103  26.297  23.231  1.00  0.00    -0.237 OA
ATOM     94  O   UNL A   1      55.048  26.899  25.435  1.00  0.00    -0.237 OA
ATOM     95  O   UNL A   1      54.341  24.581  24.990  1.00  0.00    -0.744 OA
ENDBRANCH  91  92
ENDBRANCH  59  84
ENDBRANCH  33  34
ENDBRANCH  26  28
ENDBRANCH  25  26
ENDBRANCH  24  25
ENDBRANCH  23  24
ENDBRANCH  22  23
ENDBRANCH   1  22
TORSDOF 21
ENDMDL
