MODEL 1
REMARK VINA RESULT:     -11.0      0.000      0.000
REMARK SMILES Cc1cc(C(=O)N2[C@@H](C(=O)OCCOCCOC(=O)c3ccc(-c4c5nc(c(-c6c(F)cc(S(=O)(=O)[O-])cc6F)c6ccc([nH]6)c(-c6c(F)cc(S(=O)(=O)[O-])cc6F)c6nc(c(-c7c(F)cc(S(=O)(=O)[O-])cc7F)c7ccc4[nH]7)C=C6)C=C5)cc3)C[C@H]3CCCC[C@H]32)c(C)s1
REMARK SMILES IDX 15 1 14 2 13 3 12 4 11 5 9 6 10 7 8 8 7 9 92 10 86 11 87 12
REMARK SMILES IDX 91 13 88 14 90 15 89 16 5 17 6 18 4 19 1 20 2 21 3 22 95 23
REMARK SMILES IDX 93 24 94 25 16 26 17 27 18 28 19 29 20 30 21 31 85 32 22 33
REMARK SMILES IDX 84 34 23 35 24 36 25 37 78 38 26 39 83 40 77 41 79 42 27 43
REMARK SMILES IDX 82 44 76 45 75 46 28 48 62 49 41 50 61 51 42 52 45 53 60 54
REMARK SMILES IDX 80 55 43 56 44 57 59 59 81 60 46 61 29 62 30 63 39 64 31 65
REMARK SMILES IDX 32 66 38 67 40 68 33 69 34 70 35 71 36 72 37 73 63 74 64 75
REMARK SMILES IDX 73 76 65 77 66 78 72 79 74 80 67 81 68 82 69 83 70 84 71 85
REMARK SMILES IDX 47 86 48 87 57 88 49 89 50 90 56 91 58 92 51 93 52 94 53 95
REMARK SMILES IDX 54 96 55 97
REMARK H PARENT 79 47 45 58
REMARK Flexibility Score: inf
ROOT
ATOM      1  C   UNL A   1      32.057  28.717  27.075  1.00  0.00     0.202 C 
ENDROOT
BRANCH   1   2
ATOM      2  O   UNL A   1      31.515  27.431  27.359  1.00  0.00    -0.374 OA
BRANCH   2   3
ATOM      3  C   UNL A   1      30.998  26.720  26.229  1.00  0.00     0.202 C 
BRANCH   3   4
ATOM      4  C   UNL A   1      31.877  26.756  24.972  1.00  0.00     0.261 C 
BRANCH   4   5
ATOM      5  O   UNL A   1      32.566  25.506  24.744  1.00  0.00    -0.462 OA
BRANCH   5   6
ATOM      6  C   UNL A   1      31.906  24.580  24.000  1.00  0.00     0.328 C 
ATOM      7  O   UNL A   1      30.743  24.687  23.620  1.00  0.00    -0.250 OA
BRANCH   6   8
ATOM      8  C   UNL A   1      32.791  23.402  23.565  1.00  0.00     0.196 C 
ATOM      9  N   UNL A   1      33.040  22.312  24.531  1.00  0.00    -0.322 N 
ATOM     10  C   UNL A   1      34.464  22.154  24.800  1.00  0.00     0.089 C 
ATOM     11  C   UNL A   1      34.201  23.896  23.189  1.00  0.00     0.043 C 
ATOM     12  C   UNL A   1      35.095  22.698  23.514  1.00  0.00     0.014 C 
ATOM     13  C   UNL A   1      34.908  22.891  26.070  1.00  0.00     0.025 C 
ATOM     14  C   UNL A   1      36.584  23.002  23.614  1.00  0.00     0.006 C 
ATOM     15  C   UNL A   1      36.428  23.020  26.135  1.00  0.00     0.002 C 
ATOM     16  C   UNL A   1      36.984  23.717  24.899  1.00  0.00     0.000 C 
BRANCH   9  17
ATOM     17  C   UNL A   1      32.162  21.318  24.952  1.00  0.00     0.255 C 
ATOM     18  O   UNL A   1      31.218  21.574  25.696  1.00  0.00    -0.269 OA
BRANCH  17  19
ATOM     19  C   UNL A   1      32.470  19.935  24.568  1.00  0.00     0.053 A 
ATOM     20  C   UNL A   1      33.443  16.394  25.524  1.00  0.00     0.056 C 
ATOM     21  C   UNL A   1      33.032  17.669  24.878  1.00  0.00     0.003 A 
ATOM     22  C   UNL A   1      32.699  18.854  25.490  1.00  0.00     0.029 A 
ATOM     23  S   UNL A   1      32.874  17.790  23.188  1.00  0.00    -0.145 S 
ATOM     24  C   UNL A   1      32.410  19.442  23.270  1.00  0.00     0.014 A 
ATOM     25  C   UNL A   1      31.998  20.130  22.008  1.00  0.00     0.057 C 
ENDBRANCH  17  19
ENDBRANCH   9  17
ENDBRANCH   6   8
ENDBRANCH   5   6
ENDBRANCH   4   5
ENDBRANCH   3   4
ENDBRANCH   2   3
ENDBRANCH   1   2
BRANCH   1  26
ATOM     26  C   UNL A   1      33.502  28.935  27.526  1.00  0.00     0.261 C 
BRANCH  26  27
ATOM     27  O   UNL A   1      33.900  30.296  27.280  1.00  0.00    -0.460 OA
BRANCH  27  28
ATOM     28  C   UNL A   1      34.687  30.828  28.241  1.00  0.00     0.338 C 
ATOM     29  O   UNL A   1      34.357  31.658  29.080  1.00  0.00    -0.246 OA
BRANCH  28  30
ATOM     30  C   UNL A   1      35.991  30.142  28.277  1.00  0.00     0.060 A 
ATOM     31  C   UNL A   1      36.387  29.611  29.511  1.00  0.00     0.016 A 
ATOM     32  C   UNL A   1      36.837  30.062  27.167  1.00  0.00     0.016 A 
ATOM     33  C   UNL A   1      37.661  29.073  29.663  1.00  0.00     0.010 A 
ATOM     34  C   UNL A   1      38.118  29.522  27.322  1.00  0.00     0.010 A 
ATOM     35  C   UNL A   1      38.551  29.070  28.582  1.00  0.00    -0.014 A 
BRANCH  35  36
ATOM     36  C   UNL A   1      39.977  28.745  28.832  1.00  0.00     0.031 A 
ATOM     37  C   UNL A   1      40.862  29.790  29.458  1.00  0.00     0.074 A 
ATOM     38  C   UNL A   1      40.460  27.518  28.565  1.00  0.00     0.049 A 
ATOM     39  N   UNL A   1      42.127  29.720  29.781  1.00  0.00    -0.248 NA
ATOM     40  C   UNL A   1      40.234  31.087  29.763  1.00  0.00     0.031 C 
ATOM     41  C   UNL A   1      39.689  26.417  27.990  1.00  0.00     0.029 A 
ATOM     42  N   UNL A   1      41.715  26.996  28.742  1.00  0.00    -0.354 N 
ATOM     43  C   UNL A   1      42.450  30.962  30.317  1.00  0.00     0.074 A 
ATOM     44  C   UNL A   1      41.256  31.776  30.248  1.00  0.00     0.031 C 
ATOM     45  C   UNL A   1      40.493  25.347  27.855  1.00  0.00     0.029 A 
ATOM     46  C   UNL A   1      41.838  25.699  28.305  1.00  0.00     0.049 A 
ATOM     47  H   UNL A   1      42.457  27.501  29.145  1.00  0.00     0.167 HD
ATOM     48  C   UNL A   1      43.633  31.382  30.828  1.00  0.00     0.037 A 
ATOM     49  C   UNL A   1      42.918  24.894  28.257  1.00  0.00     0.037 A 
ATOM     50  C   UNL A   1      44.814  30.562  30.899  1.00  0.00     0.049 A 
ATOM     51  C   UNL A   1      44.236  25.398  28.786  1.00  0.00     0.074 A 
ATOM     52  C   UNL A   1      46.054  30.883  31.424  1.00  0.00     0.029 A 
ATOM     53  N   UNL A   1      44.907  29.262  30.423  1.00  0.00    -0.354 N 
ATOM     54  N   UNL A   1      44.519  26.563  29.319  1.00  0.00    -0.248 NA
ATOM     55  C   UNL A   1      45.379  24.477  28.712  1.00  0.00     0.031 C 
ATOM     56  C   UNL A   1      46.910  29.797  31.218  1.00  0.00     0.029 A 
ATOM     57  C   UNL A   1      46.189  28.777  30.615  1.00  0.00     0.049 A 
ATOM     58  H   UNL A   1      44.169  28.758  30.009  1.00  0.00     0.167 HD
ATOM     59  C   UNL A   1      45.866  26.507  29.665  1.00  0.00     0.074 A 
ATOM     60  C   UNL A   1      46.336  25.188  29.293  1.00  0.00     0.031 C 
ATOM     61  C   UNL A   1      46.641  27.460  30.241  1.00  0.00     0.037 A 
BRANCH  48  62
ATOM     62  C   UNL A   1      43.715  32.800  31.324  1.00  0.00     0.058 A 
ATOM     63  C   UNL A   1      43.454  33.136  32.662  1.00  0.00     0.135 A 
ATOM     64  C   UNL A   1      44.087  33.835  30.451  1.00  0.00     0.135 A 
ATOM     65  F   UNL A   1      43.077  32.189  33.536  1.00  0.00    -0.206 F 
ATOM     66  C   UNL A   1      43.533  34.451  33.111  1.00  0.00     0.059 A 
ATOM     67  C   UNL A   1      44.199  35.153  30.883  1.00  0.00     0.059 A 
ATOM     68  F   UNL A   1      44.345  33.571  29.160  1.00  0.00    -0.206 F 
ATOM     69  C   UNL A   1      43.905  35.453  32.212  1.00  0.00     0.060 A 
BRANCH  69  70
ATOM     70  S   UNL A   1      44.004  37.155  32.808  1.00  0.00     0.124 S 
ATOM     71  O   UNL A   1      45.316  37.165  33.446  1.00  0.00    -0.237 OA
ATOM     72  O   UNL A   1      43.894  37.926  31.573  1.00  0.00    -0.237 OA
ATOM     73  O   UNL A   1      42.865  37.265  33.714  1.00  0.00    -0.744 OA
ENDBRANCH  69  70
ENDBRANCH  48  62
BRANCH  49  74
ATOM     74  C   UNL A   1      42.798  23.531  27.673  1.00  0.00     0.058 A 
ATOM     75  C   UNL A   1      42.427  22.430  28.458  1.00  0.00     0.135 A 
ATOM     76  C   UNL A   1      43.042  23.308  26.308  1.00  0.00     0.135 A 
ATOM     77  F   UNL A   1      42.195  22.589  29.770  1.00  0.00    -0.206 F 
ATOM     78  C   UNL A   1      42.310  21.154  27.915  1.00  0.00     0.059 A 
ATOM     79  C   UNL A   1      42.907  22.046  25.736  1.00  0.00     0.059 A 
ATOM     80  F   UNL A   1      43.391  24.329  25.512  1.00  0.00    -0.206 F 
ATOM     81  C   UNL A   1      42.548  20.973  26.551  1.00  0.00     0.060 A 
BRANCH  81  82
ATOM     82  S   UNL A   1      42.337  19.325  25.844  1.00  0.00     0.124 S 
ATOM     83  O   UNL A   1      43.103  19.435  24.608  1.00  0.00    -0.237 OA
ATOM     84  O   UNL A   1      42.914  18.472  26.879  1.00  0.00    -0.237 OA
ATOM     85  O   UNL A   1      40.891  19.211  25.683  1.00  0.00    -0.744 OA
ENDBRANCH  81  82
ENDBRANCH  49  74
BRANCH  61  86
ATOM     86  C   UNL A   1      48.074  27.104  30.536  1.00  0.00     0.058 A 
ATOM     87  C   UNL A   1      49.116  27.448  29.661  1.00  0.00     0.135 A 
ATOM     88  C   UNL A   1      48.413  26.461  31.739  1.00  0.00     0.135 A 
ATOM     89  F   UNL A   1      48.848  28.059  28.497  1.00  0.00    -0.206 F 
ATOM     90  C   UNL A   1      50.442  27.145  29.956  1.00  0.00     0.059 A 
ATOM     91  C   UNL A   1      49.734  26.173  32.067  1.00  0.00     0.059 A 
ATOM     92  F   UNL A   1      47.456  26.121  32.617  1.00  0.00    -0.206 F 
ATOM     93  C   UNL A   1      50.741  26.509  31.163  1.00  0.00     0.060 A 
BRANCH  93  94
ATOM     94  S   UNL A   1      52.468  26.151  31.550  1.00  0.00     0.124 S 
ATOM     95  O   UNL A   1      53.041  25.998  30.217  1.00  0.00    -0.237 OA
ATOM     96  O   UNL A   1      52.879  27.344  32.282  1.00  0.00    -0.237 OA
ATOM     97  O   UNL A   1      52.393  24.929  32.346  1.00  0.00    -0.744 OA
ENDBRANCH  93  94
ENDBRANCH  61  86
ENDBRANCH  35  36
ENDBRANCH  28  30
ENDBRANCH  27  28
ENDBRANCH  26  27
ENDBRANCH   1  26
TORSDOF 19
ENDMDL
MODEL 2
REMARK VINA RESULT:     -10.9      3.122      8.948
REMARK SMILES Cc1cc(C(=O)N2[C@@H](C(=O)OCCOCCOC(=O)c3ccc(-c4c5nc(c(-c6c(F)cc(S(=O)(=O)[O-])cc6F)c6ccc([nH]6)c(-c6c(F)cc(S(=O)(=O)[O-])cc6F)c6nc(c(-c7c(F)cc(S(=O)(=O)[O-])cc7F)c7ccc4[nH]7)C=C6)C=C5)cc3)C[C@H]3CCCC[C@H]32)c(C)s1
REMARK SMILES IDX 15 1 14 2 13 3 12 4 11 5 9 6 10 7 8 8 7 9 92 10 86 11 87 12
REMARK SMILES IDX 91 13 88 14 90 15 89 16 5 17 6 18 4 19 1 20 2 21 3 22 95 23
REMARK SMILES IDX 93 24 94 25 16 26 17 27 18 28 19 29 20 30 21 31 85 32 22 33
REMARK SMILES IDX 84 34 23 35 24 36 25 37 78 38 26 39 83 40 77 41 79 42 27 43
REMARK SMILES IDX 82 44 76 45 75 46 28 48 62 49 41 50 61 51 42 52 45 53 60 54
REMARK SMILES IDX 80 55 43 56 44 57 59 59 81 60 46 61 29 62 30 63 39 64 31 65
REMARK SMILES IDX 32 66 38 67 40 68 33 69 34 70 35 71 36 72 37 73 63 74 64 75
REMARK SMILES IDX 73 76 65 77 66 78 72 79 74 80 67 81 68 82 69 83 70 84 71 85
REMARK SMILES IDX 47 86 48 87 57 88 49 89 50 90 56 91 58 92 51 93 52 94 53 95
REMARK SMILES IDX 54 96 55 97
REMARK H PARENT 79 47 45 58
REMARK Flexibility Score: inf
ROOT
ATOM      1  C   UNL A   1      38.617  21.830  26.102  1.00  0.00     0.202 C 
ENDROOT
BRANCH   1   2
ATOM      2  O   UNL A   1      37.938  22.574  25.094  1.00  0.00    -0.374 OA
BRANCH   2   3
ATOM      3  C   UNL A   1      36.911  21.866  24.394  1.00  0.00     0.202 C 
BRANCH   3   4
ATOM      4  C   UNL A   1      35.783  22.738  23.825  1.00  0.00     0.261 C 
BRANCH   4   5
ATOM      5  O   UNL A   1      35.441  23.838  24.698  1.00  0.00    -0.462 OA
BRANCH   5   6
ATOM      6  C   UNL A   1      34.416  24.634  24.293  1.00  0.00     0.328 C 
ATOM      7  O   UNL A   1      34.036  24.748  23.131  1.00  0.00    -0.250 OA
BRANCH   6   8
ATOM      8  C   UNL A   1      33.677  25.315  25.454  1.00  0.00     0.196 C 
ATOM      9  N   UNL A   1      32.288  24.902  25.745  1.00  0.00    -0.322 N 
ATOM     10  C   UNL A   1      31.365  26.027  25.643  1.00  0.00     0.089 C 
ATOM     11  C   UNL A   1      33.571  26.833  25.211  1.00  0.00     0.043 C 
ATOM     12  C   UNL A   1      32.282  27.220  25.938  1.00  0.00     0.014 C 
ATOM     13  C   UNL A   1      30.673  26.098  24.277  1.00  0.00     0.025 C 
ATOM     14  C   UNL A   1      31.701  28.576  25.562  1.00  0.00     0.006 C 
ATOM     15  C   UNL A   1      30.008  27.454  24.060  1.00  0.00     0.002 C 
ATOM     16  C   UNL A   1      31.006  28.597  24.205  1.00  0.00     0.000 C 
BRANCH   9  17
ATOM     17  C   UNL A   1      31.847  23.722  26.338  1.00  0.00     0.255 C 
ATOM     18  O   UNL A   1      31.174  23.739  27.366  1.00  0.00    -0.269 OA
BRANCH  17  19
ATOM     19  C   UNL A   1      32.310  22.458  25.757  1.00  0.00     0.053 A 
ATOM     20  C   UNL A   1      32.205  19.885  22.968  1.00  0.00     0.056 C 
ATOM     21  C   UNL A   1      32.467  20.728  24.166  1.00  0.00     0.003 A 
ATOM     22  C   UNL A   1      31.952  21.970  24.450  1.00  0.00     0.029 A 
ATOM     23  S   UNL A   1      33.550  20.223  25.378  1.00  0.00    -0.145 S 
ATOM     24  C   UNL A   1      33.291  21.644  26.310  1.00  0.00     0.014 A 
ATOM     25  C   UNL A   1      34.117  21.849  27.540  1.00  0.00     0.057 C 
ENDBRANCH  17  19
ENDBRANCH   9  17
ENDBRANCH   6   8
ENDBRANCH   5   6
ENDBRANCH   4   5
ENDBRANCH   3   4
ENDBRANCH   2   3
ENDBRANCH   1   2
BRANCH   1  26
ATOM     26  C   UNL A   1      39.244  20.515  25.637  1.00  0.00     0.261 C 
BRANCH  26  27
ATOM     27  O   UNL A   1      40.082  19.971  26.671  1.00  0.00    -0.460 OA
BRANCH  27  28
ATOM     28  C   UNL A   1      41.355  19.731  26.287  1.00  0.00     0.338 C 
ATOM     29  O   UNL A   1      41.771  18.726  25.721  1.00  0.00    -0.246 OA
BRANCH  28  30
ATOM     30  C   UNL A   1      42.187  20.933  26.477  1.00  0.00     0.060 A 
ATOM     31  C   UNL A   1      42.365  21.371  27.795  1.00  0.00     0.016 A 
ATOM     32  C   UNL A   1      42.733  21.653  25.410  1.00  0.00     0.016 A 
ATOM     33  C   UNL A   1      43.017  22.573  28.048  1.00  0.00     0.010 A 
ATOM     34  C   UNL A   1      43.387  22.863  25.667  1.00  0.00     0.010 A 
ATOM     35  C   UNL A   1      43.489  23.350  26.983  1.00  0.00    -0.014 A 
BRANCH  35  36
ATOM     36  C   UNL A   1      43.934  24.739  27.254  1.00  0.00     0.031 A 
ATOM     37  C   UNL A   1      45.383  25.092  27.046  1.00  0.00     0.074 A 
ATOM     38  C   UNL A   1      43.050  25.686  27.617  1.00  0.00     0.049 A 
ATOM     39  N   UNL A   1      45.988  26.241  27.202  1.00  0.00    -0.248 NA
ATOM     40  C   UNL A   1      46.268  24.003  26.598  1.00  0.00     0.031 C 
ATOM     41  C   UNL A   1      41.618  25.470  27.816  1.00  0.00     0.029 A 
ATOM     42  N   UNL A   1      43.230  27.019  27.883  1.00  0.00    -0.354 N 
ATOM     43  C   UNL A   1      47.322  26.013  26.884  1.00  0.00     0.074 A 
ATOM     44  C   UNL A   1      47.444  24.610  26.553  1.00  0.00     0.031 C 
ATOM     45  C   UNL A   1      41.049  26.631  28.182  1.00  0.00     0.029 A 
ATOM     46  C   UNL A   1      42.080  27.663  28.270  1.00  0.00     0.049 A 
ATOM     47  H   UNL A   1      44.101  27.472  27.804  1.00  0.00     0.167 HD
ATOM     48  C   UNL A   1      48.349  26.896  26.859  1.00  0.00     0.037 A 
ATOM     49  C   UNL A   1      41.886  28.937  28.668  1.00  0.00     0.037 A 
ATOM     50  C   UNL A   1      48.216  28.293  27.183  1.00  0.00     0.049 A 
ATOM     51  C   UNL A   1      43.052  29.890  28.682  1.00  0.00     0.074 A 
ATOM     52  C   UNL A   1      49.189  29.277  27.162  1.00  0.00     0.029 A 
ATOM     53  N   UNL A   1      47.040  28.903  27.595  1.00  0.00    -0.354 N 
ATOM     54  N   UNL A   1      44.302  29.669  28.347  1.00  0.00    -0.248 NA
ATOM     55  C   UNL A   1      42.782  31.266  29.120  1.00  0.00     0.031 C 
ATOM     56  C   UNL A   1      48.614  30.469  27.612  1.00  0.00     0.029 A 
ATOM     57  C   UNL A   1      47.268  30.243  27.859  1.00  0.00     0.049 A 
ATOM     58  H   UNL A   1      46.171  28.450  27.686  1.00  0.00     0.167 HD
ATOM     59  C   UNL A   1      44.962  30.883  28.513  1.00  0.00     0.074 A 
ATOM     60  C   UNL A   1      43.969  31.837  28.964  1.00  0.00     0.031 C 
ATOM     61  C   UNL A   1      46.269  31.181  28.306  1.00  0.00     0.037 A 
BRANCH  48  62
ATOM     62  C   UNL A   1      49.712  26.372  26.498  1.00  0.00     0.058 A 
ATOM     63  C   UNL A   1      50.175  26.353  25.173  1.00  0.00     0.135 A 
ATOM     64  C   UNL A   1      50.579  25.905  27.500  1.00  0.00     0.135 A 
ATOM     65  F   UNL A   1      49.382  26.771  24.174  1.00  0.00    -0.206 F 
ATOM     66  C   UNL A   1      51.438  25.866  24.850  1.00  0.00     0.059 A 
ATOM     67  C   UNL A   1      51.857  25.439  27.203  1.00  0.00     0.059 A 
ATOM     68  F   UNL A   1      50.188  25.897  28.784  1.00  0.00    -0.206 F 
ATOM     69  C   UNL A   1      52.272  25.409  25.873  1.00  0.00     0.060 A 
BRANCH  69  70
ATOM     70  S   UNL A   1      53.907  24.780  25.439  1.00  0.00     0.124 S 
ATOM     71  O   UNL A   1      54.632  24.963  26.692  1.00  0.00    -0.237 OA
ATOM     72  O   UNL A   1      53.622  23.396  25.069  1.00  0.00    -0.237 OA
ATOM     73  O   UNL A   1      54.325  25.644  24.340  1.00  0.00    -0.744 OA
ENDBRANCH  69  70
ENDBRANCH  48  62
BRANCH  49  74
ATOM     74  C   UNL A   1      40.532  29.376  29.100  1.00  0.00     0.058 A 
ATOM     75  C   UNL A   1      40.228  29.583  30.453  1.00  0.00     0.135 A 
ATOM     76  C   UNL A   1      39.515  29.609  28.160  1.00  0.00     0.135 A 
ATOM     77  F   UNL A   1      41.162  29.363  31.392  1.00  0.00    -0.206 F 
ATOM     78  C   UNL A   1      38.964  29.997  30.862  1.00  0.00     0.059 A 
ATOM     79  C   UNL A   1      38.251  30.048  28.541  1.00  0.00     0.059 A 
ATOM     80  F   UNL A   1      39.756  29.433  26.852  1.00  0.00    -0.206 F 
ATOM     81  C   UNL A   1      37.982  30.231  29.896  1.00  0.00     0.060 A 
BRANCH  81  82
ATOM     82  S   UNL A   1      36.362  30.824  30.432  1.00  0.00     0.124 S 
ATOM     83  O   UNL A   1      35.984  29.806  31.405  1.00  0.00    -0.237 OA
ATOM     84  O   UNL A   1      36.683  32.140  30.976  1.00  0.00    -0.237 OA
ATOM     85  O   UNL A   1      35.585  30.838  29.197  1.00  0.00    -0.744 OA
ENDBRANCH  81  82
ENDBRANCH  49  74
BRANCH  61  86
ATOM     86  C   UNL A   1      46.701  32.604  28.536  1.00  0.00     0.058 A 
ATOM     87  C   UNL A   1      46.619  33.573  27.523  1.00  0.00     0.135 A 
ATOM     88  C   UNL A   1      47.149  33.016  29.802  1.00  0.00     0.135 A 
ATOM     89  F   UNL A   1      46.203  33.233  26.294  1.00  0.00    -0.206 F 
ATOM     90  C   UNL A   1      46.990  34.895  27.752  1.00  0.00     0.059 A 
ATOM     91  C   UNL A   1      47.498  34.338  30.061  1.00  0.00     0.059 A 
ATOM     92  F   UNL A   1      47.235  32.132  30.809  1.00  0.00    -0.206 F 
ATOM     93  C   UNL A   1      47.426  35.268  29.025  1.00  0.00     0.060 A 
BRANCH  93  94
ATOM     94  S   UNL A   1      47.872  36.993  29.318  1.00  0.00     0.124 S 
ATOM     95  O   UNL A   1      48.319  36.949  30.706  1.00  0.00    -0.237 OA
ATOM     96  O   UNL A   1      48.917  37.220  28.323  1.00  0.00    -0.237 OA
ATOM     97  O   UNL A   1      46.624  37.712  29.081  1.00  0.00    -0.744 OA
ENDBRANCH  93  94
ENDBRANCH  61  86
ENDBRANCH  35  36
ENDBRANCH  28  30
ENDBRANCH  27  28
ENDBRANCH  26  27
ENDBRANCH   1  26
TORSDOF 19
ENDMDL
MODEL 3
REMARK VINA RESULT:     -10.9      2.896      4.172
REMARK SMILES Cc1cc(C(=O)N2[C@@H](C(=O)OCCOCCOC(=O)c3ccc(-c4c5nc(c(-c6c(F)cc(S(=O)(=O)[O-])cc6F)c6ccc([nH]6)c(-c6c(F)cc(S(=O)(=O)[O-])cc6F)c6nc(c(-c7c(F)cc(S(=O)(=O)[O-])cc7F)c7ccc4[nH]7)C=C6)C=C5)cc3)C[C@H]3CCCC[C@H]32)c(C)s1
REMARK SMILES IDX 15 1 14 2 13 3 12 4 11 5 9 6 10 7 8 8 7 9 92 10 86 11 87 12
REMARK SMILES IDX 91 13 88 14 90 15 89 16 5 17 6 18 4 19 1 20 2 21 3 22 95 23
REMARK SMILES IDX 93 24 94 25 16 26 17 27 18 28 19 29 20 30 21 31 85 32 22 33
REMARK SMILES IDX 84 34 23 35 24 36 25 37 78 38 26 39 83 40 77 41 79 42 27 43
REMARK SMILES IDX 82 44 76 45 75 46 28 48 62 49 41 50 61 51 42 52 45 53 60 54
REMARK SMILES IDX 80 55 43 56 44 57 59 59 81 60 46 61 29 62 30 63 39 64 31 65
REMARK SMILES IDX 32 66 38 67 40 68 33 69 34 70 35 71 36 72 37 73 63 74 64 75
REMARK SMILES IDX 73 76 65 77 66 78 72 79 74 80 67 81 68 82 69 83 70 84 71 85
REMARK SMILES IDX 47 86 48 87 57 88 49 89 50 90 56 91 58 92 51 93 52 94 53 95
REMARK SMILES IDX 54 96 55 97
REMARK H PARENT 79 47 45 58
REMARK Flexibility Score: inf
ROOT
ATOM      1  C   UNL A   1      35.082  31.978  28.279  1.00  0.00     0.202 C 
ENDROOT
BRANCH   1   2
ATOM      2  O   UNL A   1      34.099  31.238  27.561  1.00  0.00    -0.374 OA
BRANCH   2   3
ATOM      3  C   UNL A   1      34.407  29.857  27.346  1.00  0.00     0.202 C 
BRANCH   3   4
ATOM      4  C   UNL A   1      33.530  29.142  26.309  1.00  0.00     0.261 C 
BRANCH   4   5
ATOM      5  O   UNL A   1      33.265  27.766  26.663  1.00  0.00    -0.462 OA
BRANCH   5   6
ATOM      6  C   UNL A   1      31.997  27.479  27.062  1.00  0.00     0.328 C 
ATOM      7  O   UNL A   1      31.436  27.987  28.029  1.00  0.00    -0.250 OA
BRANCH   6   8
ATOM      8  C   UNL A   1      31.261  26.522  26.113  1.00  0.00     0.196 C 
ATOM      9  N   UNL A   1      31.947  25.284  25.688  1.00  0.00    -0.322 N 
ATOM     10  C   UNL A   1      32.087  25.224  24.238  1.00  0.00     0.089 C 
ATOM     11  C   UNL A   1      30.918  27.231  24.789  1.00  0.00     0.043 C 
ATOM     12  C   UNL A   1      30.916  26.094  23.767  1.00  0.00     0.014 C 
ATOM     13  C   UNL A   1      33.458  25.716  23.759  1.00  0.00     0.025 C 
ATOM     14  C   UNL A   1      30.990  26.525  22.309  1.00  0.00     0.006 C 
ATOM     15  C   UNL A   1      33.458  25.989  22.257  1.00  0.00     0.002 C 
ATOM     16  C   UNL A   1      32.374  26.989  21.870  1.00  0.00     0.000 C 
BRANCH   9  17
ATOM     17  C   UNL A   1      32.190  24.135  26.435  1.00  0.00     0.255 C 
ATOM     18  O   UNL A   1      31.530  23.875  27.438  1.00  0.00    -0.269 OA
BRANCH  17  19
ATOM     19  C   UNL A   1      33.337  23.305  26.047  1.00  0.00     0.053 A 
ATOM     20  C   UNL A   1      37.087  22.744  25.890  1.00  0.00     0.056 C 
ATOM     21  C   UNL A   1      35.601  22.689  25.844  1.00  0.00     0.003 A 
ATOM     22  C   UNL A   1      34.709  23.587  26.380  1.00  0.00     0.029 A 
ATOM     23  S   UNL A   1      34.790  21.388  25.106  1.00  0.00    -0.145 S 
ATOM     24  C   UNL A   1      33.244  22.050  25.459  1.00  0.00     0.014 A 
ATOM     25  C   UNL A   1      32.030  21.241  25.129  1.00  0.00     0.057 C 
ENDBRANCH  17  19
ENDBRANCH   9  17
ENDBRANCH   6   8
ENDBRANCH   5   6
ENDBRANCH   4   5
ENDBRANCH   3   4
ENDBRANCH   2   3
ENDBRANCH   1   2
BRANCH   1  26
ATOM     26  C   UNL A   1      34.917  31.988  29.799  1.00  0.00     0.261 C 
BRANCH  26  27
ATOM     27  O   UNL A   1      36.205  31.933  30.439  1.00  0.00    -0.460 OA
BRANCH  27  28
ATOM     28  C   UNL A   1      36.660  30.682  30.668  1.00  0.00     0.338 C 
ATOM     29  O   UNL A   1      35.995  29.715  31.019  1.00  0.00    -0.246 OA
BRANCH  28  30
ATOM     30  C   UNL A   1      38.072  30.566  30.263  1.00  0.00     0.060 A 
ATOM     31  C   UNL A   1      38.324  30.426  28.892  1.00  0.00     0.016 A 
ATOM     32  C   UNL A   1      39.124  30.534  31.184  1.00  0.00     0.016 A 
ATOM     33  C   UNL A   1      39.615  30.170  28.443  1.00  0.00     0.010 A 
ATOM     34  C   UNL A   1      40.422  30.275  30.729  1.00  0.00     0.010 A 
ATOM     35  C   UNL A   1      40.663  30.045  29.362  1.00  0.00    -0.014 A 
BRANCH  35  36
ATOM     36  C   UNL A   1      41.966  29.511  28.893  1.00  0.00     0.031 A 
ATOM     37  C   UNL A   1      43.153  30.436  28.836  1.00  0.00     0.074 A 
ATOM     38  C   UNL A   1      42.104  28.209  28.585  1.00  0.00     0.049 A 
ATOM     39  N   UNL A   1      44.385  30.183  28.477  1.00  0.00    -0.248 NA
ATOM     40  C   UNL A   1      42.919  31.832  29.240  1.00  0.00     0.031 C 
ATOM     41  C   UNL A   1      41.035  27.213  28.636  1.00  0.00     0.029 A 
ATOM     42  N   UNL A   1      43.203  27.503  28.168  1.00  0.00    -0.354 N 
ATOM     43  C   UNL A   1      45.069  31.386  28.601  1.00  0.00     0.074 A 
ATOM     44  C   UNL A   1      44.110  32.376  29.041  1.00  0.00     0.031 C 
ATOM     45  C   UNL A   1      41.530  26.022  28.256  1.00  0.00     0.029 A 
ATOM     46  C   UNL A   1      42.941  26.179  27.908  1.00  0.00     0.049 A 
ATOM     47  H   UNL A   1      44.095  27.906  28.066  1.00  0.00     0.167 HD
ATOM     48  C   UNL A   1      46.381  31.640  28.379  1.00  0.00     0.037 A 
ATOM     49  C   UNL A   1      43.745  25.210  27.425  1.00  0.00     0.037 A 
ATOM     50  C   UNL A   1      47.331  30.647  27.948  1.00  0.00     0.049 A 
ATOM     51  C   UNL A   1      45.189  25.527  27.137  1.00  0.00     0.074 A 
ATOM     52  C   UNL A   1      48.688  30.796  27.721  1.00  0.00     0.029 A 
ATOM     53  N   UNL A   1      47.022  29.323  27.671  1.00  0.00    -0.354 N 
ATOM     54  N   UNL A   1      45.831  26.661  27.290  1.00  0.00    -0.248 NA
ATOM     55  C   UNL A   1      46.019  24.431  26.617  1.00  0.00     0.031 C 
ATOM     56  C   UNL A   1      49.189  29.576  27.256  1.00  0.00     0.029 A 
ATOM     57  C   UNL A   1      48.156  28.651  27.247  1.00  0.00     0.049 A 
ATOM     58  H   UNL A   1      46.129  28.921  27.761  1.00  0.00     0.167 HD
ATOM     59  C   UNL A   1      47.146  26.410  26.907  1.00  0.00     0.074 A 
ATOM     60  C   UNL A   1      47.208  25.013  26.529  1.00  0.00     0.031 C 
ATOM     61  C   UNL A   1      48.203  27.259  26.875  1.00  0.00     0.037 A 
BRANCH  48  62
ATOM     62  C   UNL A   1      46.861  33.054  28.569  1.00  0.00     0.058 A 
ATOM     63  C   UNL A   1      47.366  33.509  29.797  1.00  0.00     0.135 A 
ATOM     64  C   UNL A   1      46.839  33.959  27.495  1.00  0.00     0.135 A 
ATOM     65  F   UNL A   1      47.394  32.692  30.861  1.00  0.00    -0.206 F 
ATOM     66  C   UNL A   1      47.807  34.819  29.962  1.00  0.00     0.059 A 
ATOM     67  C   UNL A   1      47.301  35.265  27.629  1.00  0.00     0.059 A 
ATOM     68  F   UNL A   1      46.364  33.578  26.299  1.00  0.00    -0.206 F 
ATOM     69  C   UNL A   1      47.769  35.690  28.871  1.00  0.00     0.060 A 
BRANCH  69  70
ATOM     70  S   UNL A   1      48.344  37.386  29.100  1.00  0.00     0.124 S 
ATOM     71  O   UNL A   1      47.105  38.139  28.936  1.00  0.00    -0.237 OA
ATOM     72  O   UNL A   1      48.889  37.352  30.454  1.00  0.00    -0.237 OA
ATOM     73  O   UNL A   1      49.329  37.559  28.036  1.00  0.00    -0.744 OA
ENDBRANCH  69  70
ENDBRANCH  48  62
BRANCH  49  74
ATOM     74  C   UNL A   1      43.192  23.852  27.173  1.00  0.00     0.058 A 
ATOM     75  C   UNL A   1      42.753  23.468  25.898  1.00  0.00     0.135 A 
ATOM     76  C   UNL A   1      43.105  22.905  28.206  1.00  0.00     0.135 A 
ATOM     77  F   UNL A   1      42.805  24.341  24.879  1.00  0.00    -0.206 F 
ATOM     78  C   UNL A   1      42.238  22.198  25.656  1.00  0.00     0.059 A 
ATOM     79  C   UNL A   1      42.618  21.621  27.984  1.00  0.00     0.059 A 
ATOM     80  F   UNL A   1      43.519  23.220  29.443  1.00  0.00    -0.206 F 
ATOM     81  C   UNL A   1      42.179  21.279  26.706  1.00  0.00     0.060 A 
BRANCH  81  82
ATOM     82  S   UNL A   1      41.564  19.615  26.369  1.00  0.00     0.124 S 
ATOM     83  O   UNL A   1      42.396  19.218  25.238  1.00  0.00    -0.237 OA
ATOM     84  O   UNL A   1      41.832  18.929  27.629  1.00  0.00    -0.237 OA
ATOM     85  O   UNL A   1      40.152  19.832  26.070  1.00  0.00    -0.744 OA
ENDBRANCH  81  82
ENDBRANCH  49  74
BRANCH  61  86
ATOM     86  C   UNL A   1      49.531  26.696  26.446  1.00  0.00     0.058 A 
ATOM     87  C   UNL A   1      50.004  26.838  25.132  1.00  0.00     0.135 A 
ATOM     88  C   UNL A   1      50.367  26.056  27.377  1.00  0.00     0.135 A 
ATOM     89  F   UNL A   1      49.245  27.437  24.201  1.00  0.00    -0.206 F 
ATOM     90  C   UNL A   1      51.248  26.344  24.750  1.00  0.00     0.059 A 
ATOM     91  C   UNL A   1      51.626  25.579  27.024  1.00  0.00     0.059 A 
ATOM     92  F   UNL A   1      49.968  25.904  28.650  1.00  0.00    -0.206 F 
ATOM     93  C   UNL A   1      52.052  25.717  25.704  1.00  0.00     0.060 A 
BRANCH  93  94
ATOM     94  S   UNL A   1      53.678  25.110  25.204  1.00  0.00     0.124 S 
ATOM     95  O   UNL A   1      53.772  25.615  23.838  1.00  0.00    -0.237 OA
ATOM     96  O   UNL A   1      54.562  25.745  26.176  1.00  0.00    -0.237 OA
ATOM     97  O   UNL A   1      53.553  23.661  25.332  1.00  0.00    -0.744 OA
ENDBRANCH  93  94
ENDBRANCH  61  86
ENDBRANCH  35  36
ENDBRANCH  28  30
ENDBRANCH  27  28
ENDBRANCH  26  27
ENDBRANCH   1  26
TORSDOF 19
ENDMDL
