MODEL 1
REMARK VINA RESULT:     -10.9      0.000      0.000
REMARK SMILES Cc1ccc(-c2nn(CCC(=O)OCCOCCOC(=O)c3ccc(-c4c5nc(c(-c6c(F)cc(S(=O)(=O)[O-])cc6F)c6ccc([nH]6)c(-c6c(F)cc(S(=O)(=O)[O-])cc6F)c6nc(c(-c7c(F)cc(S(=O)(=O)[O-])cc7F)c7ccc4[nH]7)C=C6)C=C5)cc3)c(=O)c3noc(C)c23)cc1C
REMARK SMILES IDX 16 1 15 2 14 3 13 4 11 5 12 6 10 7 9 8 8 9 6 10 7 11 95 12
REMARK SMILES IDX 90 13 93 14 88 15 91 16 92 17 94 18 89 19 5 20 1 21 2 22
REMARK SMILES IDX 3 23 97 24 4 25 96 26 98 27 17 28 18 29 19 30 20 31 21 32
REMARK SMILES IDX 22 33 23 34 87 35 24 36 86 37 25 38 26 39 27 40 80 41 28 42
REMARK SMILES IDX 85 43 79 44 81 45 29 46 84 47 78 48 77 49 30 51 64 52 43 53
REMARK SMILES IDX 63 54 44 55 47 56 62 57 82 58 45 59 46 60 61 62 83 63 48 64
REMARK SMILES IDX 31 65 32 66 41 67 33 68 34 69 40 70 42 71 35 72 36 73 37 74
REMARK SMILES IDX 38 75 39 76 65 77 66 78 75 79 67 80 68 81 74 82 76 83 69 84
REMARK SMILES IDX 70 85 71 86 72 87 73 88 49 89 50 90 59 91 51 92 52 93 58 94
REMARK SMILES IDX 60 95 53 96 54 97 55 98 56 99 57 100
REMARK H PARENT 81 50 47 61
REMARK Flexibility Score: inf
ROOT
ATOM      1  O   UNL A   1      33.930  29.104  27.256  1.00  0.00    -0.374 OA
ENDROOT
BRANCH   1   2
ATOM      2  C   UNL A   1      32.555  29.377  26.974  1.00  0.00     0.202 C 
BRANCH   2   3
ATOM      3  C   UNL A   1      32.262  29.886  25.548  1.00  0.00     0.261 C 
BRANCH   3   4
ATOM      4  O   UNL A   1      33.057  29.266  24.514  1.00  0.00    -0.463 OA
BRANCH   4   5
ATOM      5  C   UNL A   1      32.417  28.810  23.410  1.00  0.00     0.307 C 
ATOM      6  O   UNL A   1      31.354  29.240  22.979  1.00  0.00    -0.252 OA
BRANCH   5   7
ATOM      7  C   UNL A   1      33.135  27.628  22.789  1.00  0.00     0.146 C 
BRANCH   7   8
ATOM      8  C   UNL A   1      32.351  26.315  22.751  1.00  0.00     0.160 C 
BRANCH   8   9
ATOM      9  N   UNL A   1      32.537  25.463  23.928  1.00  0.00    -0.227 N 
ATOM     10  C   UNL A   1      33.977  24.020  25.084  1.00  0.00     0.104 A 
ATOM     11  N   UNL A   1      33.752  24.778  24.042  1.00  0.00    -0.169 NA
ATOM     12  C   UNL A   1      32.947  23.797  26.064  1.00  0.00     0.078 A 
ATOM     13  C   UNL A   1      31.758  24.521  25.972  1.00  0.00     0.183 A 
ATOM     14  C   UNL A   1      32.789  23.045  27.205  1.00  0.00     0.143 A 
ATOM     15  C   UNL A   1      31.593  25.512  24.957  1.00  0.00     0.296 A 
ATOM     16  N   UNL A   1      30.871  24.187  26.913  1.00  0.00    -0.074 NA
ATOM     17  O   UNL A   1      31.528  23.250  27.694  1.00  0.00    -0.360 OA
ATOM     18  C   UNL A   1      33.617  22.127  28.004  1.00  0.00     0.091 C 
ATOM     19  O   UNL A   1      30.703  26.359  24.998  1.00  0.00    -0.265 OA
BRANCH  10  20
ATOM     20  C   UNL A   1      35.287  23.397  25.257  1.00  0.00     0.003 A 
ATOM     21  C   UNL A   1      39.110  21.563  25.887  1.00  0.00     0.044 C 
ATOM     22  C   UNL A   1      37.761  22.180  25.646  1.00  0.00    -0.048 A 
ATOM     23  C   UNL A   1      37.580  23.545  25.942  1.00  0.00     0.004 A 
ATOM     24  C   UNL A   1      36.680  21.426  25.141  1.00  0.00    -0.048 A 
ATOM     25  C   UNL A   1      36.346  24.157  25.747  1.00  0.00     0.011 A 
ATOM     26  C   UNL A   1      35.447  22.053  24.935  1.00  0.00     0.014 A 
ATOM     27  C   UNL A   1      36.756  19.957  24.838  1.00  0.00     0.044 C 
ENDBRANCH  10  20
ENDBRANCH   8   9
ENDBRANCH   7   8
ENDBRANCH   5   7
ENDBRANCH   4   5
ENDBRANCH   3   4
ENDBRANCH   2   3
ENDBRANCH   1   2
BRANCH   1  28
ATOM     28  C   UNL A   1      34.690  30.162  27.831  1.00  0.00     0.202 C 
BRANCH  28  29
ATOM     29  C   UNL A   1      35.641  29.840  29.009  1.00  0.00     0.261 C 
BRANCH  29  30
ATOM     30  O   UNL A   1      37.013  30.254  28.908  1.00  0.00    -0.460 OA
BRANCH  30  31
ATOM     31  C   UNL A   1      37.658  29.791  27.815  1.00  0.00     0.338 C 
ATOM     32  O   UNL A   1      37.371  30.040  26.653  1.00  0.00    -0.246 OA
BRANCH  31  33
ATOM     33  C   UNL A   1      38.812  28.930  28.159  1.00  0.00     0.060 A 
ATOM     34  C   UNL A   1      38.748  28.263  29.387  1.00  0.00     0.016 A 
ATOM     35  C   UNL A   1      39.991  28.898  27.408  1.00  0.00     0.016 A 
ATOM     36  C   UNL A   1      39.873  27.620  29.895  1.00  0.00     0.010 A 
ATOM     37  C   UNL A   1      41.126  28.257  27.928  1.00  0.00     0.010 A 
ATOM     38  C   UNL A   1      41.081  27.636  29.187  1.00  0.00    -0.014 A 
BRANCH  38  39
ATOM     39  C   UNL A   1      42.236  26.943  29.805  1.00  0.00     0.031 A 
ATOM     40  C   UNL A   1      42.807  25.802  29.031  1.00  0.00     0.074 A 
ATOM     41  C   UNL A   1      43.064  27.598  30.651  1.00  0.00     0.049 A 
ATOM     42  N   UNL A   1      43.586  25.969  28.003  1.00  0.00    -0.248 NA
ATOM     43  C   UNL A   1      42.361  24.421  29.211  1.00  0.00     0.031 C 
ATOM     44  C   UNL A   1      43.405  29.021  30.504  1.00  0.00     0.029 A 
ATOM     45  N   UNL A   1      43.943  27.139  31.609  1.00  0.00    -0.354 N 
ATOM     46  C   UNL A   1      43.717  24.744  27.376  1.00  0.00     0.074 A 
ATOM     47  C   UNL A   1      42.940  23.812  28.163  1.00  0.00     0.031 C 
ATOM     48  C   UNL A   1      44.528  29.273  31.207  1.00  0.00     0.029 A 
ATOM     49  C   UNL A   1      44.907  28.083  31.967  1.00  0.00     0.049 A 
ATOM     50  H   UNL A   1      43.896  26.237  32.001  1.00  0.00     0.167 HD
ATOM     51  C   UNL A   1      44.463  24.574  26.252  1.00  0.00     0.037 A 
ATOM     52  C   UNL A   1      46.179  27.791  32.362  1.00  0.00     0.037 A 
ATOM     53  C   UNL A   1      45.146  25.746  25.788  1.00  0.00     0.049 A 
ATOM     54  C   UNL A   1      46.790  27.395  31.040  1.00  0.00     0.074 A 
ATOM     55  C   UNL A   1      44.912  26.774  24.900  1.00  0.00     0.029 A 
ATOM     56  N   UNL A   1      46.346  26.068  26.382  1.00  0.00    -0.354 N 
ATOM     57  N   UNL A   1      47.184  28.214  30.097  1.00  0.00    -0.248 NA
ATOM     58  C   UNL A   1      46.593  26.012  30.600  1.00  0.00     0.031 C 
ATOM     59  C   UNL A   1      45.727  27.861  25.352  1.00  0.00     0.029 A 
ATOM     60  C   UNL A   1      46.374  27.435  26.511  1.00  0.00     0.049 A 
ATOM     61  H   UNL A   1      47.049  25.439  26.660  1.00  0.00     0.167 HD
ATOM     62  C   UNL A   1      47.001  27.515  28.900  1.00  0.00     0.074 A 
ATOM     63  C   UNL A   1      46.664  26.159  29.285  1.00  0.00     0.031 C 
ATOM     64  C   UNL A   1      46.936  28.100  27.669  1.00  0.00     0.037 A 
BRANCH  51  65
ATOM     65  C   UNL A   1      44.746  23.275  25.608  1.00  0.00     0.058 A 
ATOM     66  C   UNL A   1      43.683  22.601  24.985  1.00  0.00     0.135 A 
ATOM     67  C   UNL A   1      45.951  22.587  25.786  1.00  0.00     0.135 A 
ATOM     68  F   UNL A   1      42.510  23.229  24.799  1.00  0.00    -0.206 F 
ATOM     69  C   UNL A   1      43.785  21.271  24.607  1.00  0.00     0.059 A 
ATOM     70  C   UNL A   1      46.081  21.251  25.405  1.00  0.00     0.059 A 
ATOM     71  F   UNL A   1      46.996  23.189  26.378  1.00  0.00    -0.206 F 
ATOM     72  C   UNL A   1      44.982  20.597  24.842  1.00  0.00     0.060 A 
BRANCH  72  73
ATOM     73  S   UNL A   1      45.052  18.837  24.437  1.00  0.00     0.124 S 
ATOM     74  O   UNL A   1      46.336  18.448  25.010  1.00  0.00    -0.237 OA
ATOM     75  O   UNL A   1      43.868  18.326  25.119  1.00  0.00    -0.237 OA
ATOM     76  O   UNL A   1      44.986  18.823  22.979  1.00  0.00    -0.744 OA
ENDBRANCH  72  73
ENDBRANCH  51  65
BRANCH  52  77
ATOM     77  C   UNL A   1      46.277  26.980  33.622  1.00  0.00     0.058 A 
ATOM     78  C   UNL A   1      45.589  27.456  34.759  1.00  0.00     0.135 A 
ATOM     79  C   UNL A   1      46.958  25.763  33.785  1.00  0.00     0.135 A 
ATOM     80  F   UNL A   1      45.040  28.682  34.752  1.00  0.00    -0.206 F 
ATOM     81  C   UNL A   1      45.419  26.689  35.908  1.00  0.00     0.059 A 
ATOM     82  C   UNL A   1      46.781  24.961  34.916  1.00  0.00     0.059 A 
ATOM     83  F   UNL A   1      47.792  25.301  32.846  1.00  0.00    -0.206 F 
ATOM     84  C   UNL A   1      45.967  25.412  35.950  1.00  0.00     0.060 A 
BRANCH  84  85
ATOM     85  S   UNL A   1      45.527  24.337  37.331  1.00  0.00     0.124 S 
ATOM     86  O   UNL A   1      45.279  23.066  36.662  1.00  0.00    -0.237 OA
ATOM     87  O   UNL A   1      46.734  24.402  38.149  1.00  0.00    -0.237 OA
ATOM     88  O   UNL A   1      44.353  24.986  37.905  1.00  0.00    -0.744 OA
ENDBRANCH  84  85
ENDBRANCH  52  77
BRANCH  64  89
ATOM     89  C   UNL A   1      47.254  29.557  27.599  1.00  0.00     0.058 A 
ATOM     90  C   UNL A   1      48.569  29.984  27.378  1.00  0.00     0.135 A 
ATOM     91  C   UNL A   1      46.247  30.537  27.645  1.00  0.00     0.135 A 
ATOM     92  F   UNL A   1      49.571  29.091  27.318  1.00  0.00    -0.206 F 
ATOM     93  C   UNL A   1      48.871  31.325  27.158  1.00  0.00     0.059 A 
ATOM     94  C   UNL A   1      46.522  31.881  27.403  1.00  0.00     0.059 A 
ATOM     95  F   UNL A   1      44.968  30.197  27.876  1.00  0.00    -0.206 F 
ATOM     96  C   UNL A   1      47.837  32.263  27.146  1.00  0.00     0.060 A 
BRANCH  96  97
ATOM     97  S   UNL A   1      48.228  33.969  26.702  1.00  0.00     0.124 S 
ATOM     98  O   UNL A   1      49.157  33.792  25.590  1.00  0.00    -0.237 OA
ATOM     99  O   UNL A   1      46.916  34.504  26.349  1.00  0.00    -0.237 OA
ATOM    100  O   UNL A   1      48.811  34.520  27.922  1.00  0.00    -0.744 OA
ENDBRANCH  96  97
ENDBRANCH  64  89
ENDBRANCH  38  39
ENDBRANCH  31  33
ENDBRANCH  30  31
ENDBRANCH  29  30
ENDBRANCH  28  29
ENDBRANCH   1  28
TORSDOF 20
ENDMDL
MODEL 2
REMARK VINA RESULT:     -10.5      7.574     14.768
REMARK SMILES Cc1ccc(-c2nn(CCC(=O)OCCOCCOC(=O)c3ccc(-c4c5nc(c(-c6c(F)cc(S(=O)(=O)[O-])cc6F)c6ccc([nH]6)c(-c6c(F)cc(S(=O)(=O)[O-])cc6F)c6nc(c(-c7c(F)cc(S(=O)(=O)[O-])cc7F)c7ccc4[nH]7)C=C6)C=C5)cc3)c(=O)c3noc(C)c23)cc1C
REMARK SMILES IDX 16 1 15 2 14 3 13 4 11 5 12 6 10 7 9 8 8 9 6 10 7 11 95 12
REMARK SMILES IDX 90 13 93 14 88 15 91 16 92 17 94 18 89 19 5 20 1 21 2 22
REMARK SMILES IDX 3 23 97 24 4 25 96 26 98 27 17 28 18 29 19 30 20 31 21 32
REMARK SMILES IDX 22 33 23 34 87 35 24 36 86 37 25 38 26 39 27 40 80 41 28 42
REMARK SMILES IDX 85 43 79 44 81 45 29 46 84 47 78 48 77 49 30 51 64 52 43 53
REMARK SMILES IDX 63 54 44 55 47 56 62 57 82 58 45 59 46 60 61 62 83 63 48 64
REMARK SMILES IDX 31 65 32 66 41 67 33 68 34 69 40 70 42 71 35 72 36 73 37 74
REMARK SMILES IDX 38 75 39 76 65 77 66 78 75 79 67 80 68 81 74 82 76 83 69 84
REMARK SMILES IDX 70 85 71 86 72 87 73 88 49 89 50 90 59 91 51 92 52 93 58 94
REMARK SMILES IDX 60 95 53 96 54 97 55 98 56 99 57 100
REMARK H PARENT 81 50 47 61
REMARK Flexibility Score: inf
ROOT
ATOM      1  O   UNL A   1      45.626  18.801  36.027  1.00  0.00    -0.374 OA
ENDROOT
BRANCH   1   2
ATOM      2  C   UNL A   1      46.155  19.143  37.310  1.00  0.00     0.202 C 
BRANCH   2   3
ATOM      3  C   UNL A   1      45.666  18.267  38.481  1.00  0.00     0.261 C 
BRANCH   3   4
ATOM      4  O   UNL A   1      44.406  17.599  38.246  1.00  0.00    -0.463 OA
BRANCH   4   5
ATOM      5  C   UNL A   1      44.127  16.496  38.982  1.00  0.00     0.307 C 
ATOM      6  O   UNL A   1      43.693  15.440  38.537  1.00  0.00    -0.252 OA
BRANCH   5   7
ATOM      7  C   UNL A   1      44.341  16.736  40.463  1.00  0.00     0.146 C 
BRANCH   7   8
ATOM      8  C   UNL A   1      43.107  16.565  41.351  1.00  0.00     0.160 C 
BRANCH   8   9
ATOM      9  N   UNL A   1      42.980  15.242  41.966  1.00  0.00    -0.227 N 
ATOM     10  C   UNL A   1      43.481  13.894  43.818  1.00  0.00     0.104 A 
ATOM     11  N   UNL A   1      43.582  15.051  43.216  1.00  0.00    -0.169 NA
ATOM     12  C   UNL A   1      42.849  12.780  43.162  1.00  0.00     0.078 A 
ATOM     13  C   UNL A   1      42.207  12.990  41.941  1.00  0.00     0.183 A 
ATOM     14  C   UNL A   1      42.622  11.450  43.430  1.00  0.00     0.143 A 
ATOM     15  C   UNL A   1      42.128  14.302  41.383  1.00  0.00     0.296 A 
ATOM     16  N   UNL A   1      41.703  11.868  41.419  1.00  0.00    -0.074 NA
ATOM     17  O   UNL A   1      41.967  10.893  42.366  1.00  0.00    -0.360 OA
ATOM     18  C   UNL A   1      42.886  10.524  44.544  1.00  0.00     0.091 C 
ATOM     19  O   UNL A   1      41.351  14.588  40.474  1.00  0.00    -0.265 OA
BRANCH  10  20
ATOM     20  C   UNL A   1      44.010  13.732  45.169  1.00  0.00     0.003 A 
ATOM     21  C   UNL A   1      45.508  13.148  49.143  1.00  0.00     0.044 C 
ATOM     22  C   UNL A   1      45.015  13.354  47.739  1.00  0.00    -0.048 A 
ATOM     23  C   UNL A   1      43.682  13.765  47.544  1.00  0.00     0.004 A 
ATOM     24  C   UNL A   1      45.850  13.140  46.621  1.00  0.00    -0.048 A 
ATOM     25  C   UNL A   1      43.177  13.958  46.262  1.00  0.00     0.011 A 
ATOM     26  C   UNL A   1      45.338  13.349  45.337  1.00  0.00     0.014 A 
ATOM     27  C   UNL A   1      47.269  12.658  46.718  1.00  0.00     0.044 C 
ENDBRANCH  10  20
ENDBRANCH   8   9
ENDBRANCH   7   8
ENDBRANCH   5   7
ENDBRANCH   4   5
ENDBRANCH   3   4
ENDBRANCH   2   3
ENDBRANCH   1   2
BRANCH   1  28
ATOM     28  C   UNL A   1      45.424  19.872  35.111  1.00  0.00     0.202 C 
BRANCH  28  29
ATOM     29  C   UNL A   1      46.522  20.956  34.980  1.00  0.00     0.261 C 
BRANCH  29  30
ATOM     30  O   UNL A   1      46.218  22.288  35.424  1.00  0.00    -0.460 OA
BRANCH  30  31
ATOM     31  C   UNL A   1      47.165  23.206  35.131  1.00  0.00     0.338 C 
ATOM     32  O   UNL A   1      48.310  23.217  35.558  1.00  0.00    -0.246 OA
BRANCH  31  33
ATOM     33  C   UNL A   1      46.682  24.238  34.186  1.00  0.00     0.060 A 
ATOM     34  C   UNL A   1      45.298  24.428  34.123  1.00  0.00     0.016 A 
ATOM     35  C   UNL A   1      47.517  24.881  33.267  1.00  0.00     0.016 A 
ATOM     36  C   UNL A   1      44.741  25.204  33.110  1.00  0.00     0.010 A 
ATOM     37  C   UNL A   1      46.952  25.655  32.242  1.00  0.00     0.010 A 
ATOM     38  C   UNL A   1      45.558  25.800  32.143  1.00  0.00    -0.014 A 
BRANCH  38  39
ATOM     39  C   UNL A   1      44.886  26.596  31.088  1.00  0.00     0.031 A 
ATOM     40  C   UNL A   1      45.714  27.653  30.436  1.00  0.00     0.074 A 
ATOM     41  C   UNL A   1      43.866  26.073  30.369  1.00  0.00     0.049 A 
ATOM     42  N   UNL A   1      46.605  27.387  29.527  1.00  0.00    -0.248 NA
ATOM     43  C   UNL A   1      45.764  29.031  30.922  1.00  0.00     0.031 C 
ATOM     44  C   UNL A   1      43.793  24.653  29.993  1.00  0.00     0.029 A 
ATOM     45  N   UNL A   1      42.868  26.668  29.630  1.00  0.00    -0.354 N 
ATOM     46  C   UNL A   1      47.356  28.531  29.332  1.00  0.00     0.074 A 
ATOM     47  C   UNL A   1      46.795  29.528  30.218  1.00  0.00     0.031 C 
ATOM     48  C   UNL A   1      42.926  24.521  28.968  1.00  0.00     0.029 A 
ATOM     49  C   UNL A   1      42.275  25.803  28.709  1.00  0.00     0.049 A 
ATOM     50  H   UNL A   1      42.599  27.609  29.741  1.00  0.00     0.167 HD
ATOM     51  C   UNL A   1      48.386  28.588  28.448  1.00  0.00     0.037 A 
ATOM     52  C   UNL A   1      41.758  26.179  27.504  1.00  0.00     0.037 A 
ATOM     53  C   UNL A   1      48.612  27.389  27.693  1.00  0.00     0.049 A 
ATOM     54  C   UNL A   1      43.030  26.431  26.730  1.00  0.00     0.074 A 
ATOM     55  C   UNL A   1      49.389  26.256  27.794  1.00  0.00     0.029 A 
ATOM     56  N   UNL A   1      47.833  27.176  26.576  1.00  0.00    -0.354 N 
ATOM     57  N   UNL A   1      43.807  25.518  26.204  1.00  0.00    -0.248 NA
ATOM     58  C   UNL A   1      43.657  27.745  26.886  1.00  0.00     0.031 C 
ATOM     59  C   UNL A   1      48.707  25.256  27.031  1.00  0.00     0.029 A 
ATOM     60  C   UNL A   1      47.535  25.837  26.547  1.00  0.00     0.049 A 
ATOM     61  H   UNL A   1      47.546  27.856  25.925  1.00  0.00     0.167 HD
ATOM     62  C   UNL A   1      45.093  26.062  26.239  1.00  0.00     0.074 A 
ATOM     63  C   UNL A   1      44.924  27.444  26.642  1.00  0.00     0.031 C 
ATOM     64  C   UNL A   1      46.241  25.332  26.133  1.00  0.00     0.037 A 
BRANCH  51  65
ATOM     65  C   UNL A   1      49.143  29.808  28.099  1.00  0.00     0.058 A 
ATOM     66  C   UNL A   1      48.498  30.785  27.323  1.00  0.00     0.135 A 
ATOM     67  C   UNL A   1      50.521  29.930  28.305  1.00  0.00     0.135 A 
ATOM     68  F   UNL A   1      47.176  30.700  27.103  1.00  0.00    -0.206 F 
ATOM     69  C   UNL A   1      49.202  31.815  26.718  1.00  0.00     0.059 A 
ATOM     70  C   UNL A   1      51.249  30.964  27.714  1.00  0.00     0.059 A 
ATOM     71  F   UNL A   1      51.183  29.020  29.038  1.00  0.00    -0.206 F 
ATOM     72  C   UNL A   1      50.582  31.884  26.901  1.00  0.00     0.060 A 
BRANCH  72  73
ATOM     73  S   UNL A   1      51.487  33.172  26.015  1.00  0.00     0.124 S 
ATOM     74  O   UNL A   1      50.821  34.383  26.482  1.00  0.00    -0.237 OA
ATOM     75  O   UNL A   1      52.848  32.967  26.497  1.00  0.00    -0.237 OA
ATOM     76  O   UNL A   1      51.266  32.837  24.612  1.00  0.00    -0.744 OA
ENDBRANCH  72  73
ENDBRANCH  51  65
BRANCH  52  77
ATOM     77  C   UNL A   1      40.606  27.138  27.583  1.00  0.00     0.058 A 
ATOM     78  C   UNL A   1      39.562  26.830  28.484  1.00  0.00     0.135 A 
ATOM     79  C   UNL A   1      40.467  28.342  26.877  1.00  0.00     0.135 A 
ATOM     80  F   UNL A   1      39.524  25.631  29.089  1.00  0.00    -0.206 F 
ATOM     81  C   UNL A   1      38.561  27.739  28.810  1.00  0.00     0.059 A 
ATOM     82  C   UNL A   1      39.488  29.286  27.205  1.00  0.00     0.059 A 
ATOM     83  F   UNL A   1      41.289  28.657  25.868  1.00  0.00    -0.206 F 
ATOM     84  C   UNL A   1      38.572  28.993  28.209  1.00  0.00     0.060 A 
BRANCH  84  85
ATOM     85  S   UNL A   1      37.428  30.246  28.825  1.00  0.00     0.124 S 
ATOM     86  O   UNL A   1      38.285  31.040  29.698  1.00  0.00    -0.237 OA
ATOM     87  O   UNL A   1      37.007  30.893  27.586  1.00  0.00    -0.237 OA
ATOM     88  O   UNL A   1      36.397  29.463  29.498  1.00  0.00    -0.744 OA
ENDBRANCH  84  85
ENDBRANCH  52  77
BRANCH  64  89
ATOM     89  C   UNL A   1      46.091  23.887  25.788  1.00  0.00     0.058 A 
ATOM     90  C   UNL A   1      45.641  22.975  26.750  1.00  0.00     0.135 A 
ATOM     91  C   UNL A   1      46.291  23.414  24.479  1.00  0.00     0.135 A 
ATOM     92  F   UNL A   1      45.427  23.372  28.015  1.00  0.00    -0.206 F 
ATOM     93  C   UNL A   1      45.349  21.654  26.418  1.00  0.00     0.059 A 
ATOM     94  C   UNL A   1      45.981  22.104  24.120  1.00  0.00     0.059 A 
ATOM     95  F   UNL A   1      46.743  24.232  23.515  1.00  0.00    -0.206 F 
ATOM     96  C   UNL A   1      45.496  21.235  25.095  1.00  0.00     0.060 A 
BRANCH  96  97
ATOM     97  S   UNL A   1      44.961  19.568  24.656  1.00  0.00     0.124 S 
ATOM     98  O   UNL A   1      43.765  19.402  25.477  1.00  0.00    -0.237 OA
ATOM     99  O   UNL A   1      44.728  19.687  23.219  1.00  0.00    -0.237 OA
ATOM    100  O   UNL A   1      46.097  18.729  25.029  1.00  0.00    -0.744 OA
ENDBRANCH  96  97
ENDBRANCH  64  89
ENDBRANCH  38  39
ENDBRANCH  31  33
ENDBRANCH  30  31
ENDBRANCH  29  30
ENDBRANCH  28  29
ENDBRANCH   1  28
TORSDOF 20
ENDMDL
MODEL 3
REMARK VINA RESULT:     -10.4      5.708     10.357
REMARK SMILES Cc1ccc(-c2nn(CCC(=O)OCCOCCOC(=O)c3ccc(-c4c5nc(c(-c6c(F)cc(S(=O)(=O)[O-])cc6F)c6ccc([nH]6)c(-c6c(F)cc(S(=O)(=O)[O-])cc6F)c6nc(c(-c7c(F)cc(S(=O)(=O)[O-])cc7F)c7ccc4[nH]7)C=C6)C=C5)cc3)c(=O)c3noc(C)c23)cc1C
REMARK SMILES IDX 16 1 15 2 14 3 13 4 11 5 12 6 10 7 9 8 8 9 6 10 7 11 95 12
REMARK SMILES IDX 90 13 93 14 88 15 91 16 92 17 94 18 89 19 5 20 1 21 2 22
REMARK SMILES IDX 3 23 97 24 4 25 96 26 98 27 17 28 18 29 19 30 20 31 21 32
REMARK SMILES IDX 22 33 23 34 87 35 24 36 86 37 25 38 26 39 27 40 80 41 28 42
REMARK SMILES IDX 85 43 79 44 81 45 29 46 84 47 78 48 77 49 30 51 64 52 43 53
REMARK SMILES IDX 63 54 44 55 47 56 62 57 82 58 45 59 46 60 61 62 83 63 48 64
REMARK SMILES IDX 31 65 32 66 41 67 33 68 34 69 40 70 42 71 35 72 36 73 37 74
REMARK SMILES IDX 38 75 39 76 65 77 66 78 75 79 67 80 68 81 74 82 76 83 69 84
REMARK SMILES IDX 70 85 71 86 72 87 73 88 49 89 50 90 59 91 51 92 52 93 58 94
REMARK SMILES IDX 60 95 53 96 54 97 55 98 56 99 57 100
REMARK H PARENT 81 50 47 61
REMARK Flexibility Score: inf
ROOT
ATOM      1  O   UNL A   1      41.544  27.620  27.286  1.00  0.00    -0.374 OA
ENDROOT
BRANCH   1   2
ATOM      2  C   UNL A   1      41.074  26.313  26.947  1.00  0.00     0.202 C 
BRANCH   2   3
ATOM      3  C   UNL A   1      40.384  25.542  28.089  1.00  0.00     0.261 C 
BRANCH   3   4
ATOM      4  O   UNL A   1      39.055  25.068  27.778  1.00  0.00    -0.463 OA
BRANCH   4   5
ATOM      5  C   UNL A   1      38.939  24.024  26.922  1.00  0.00     0.307 C 
ATOM      6  O   UNL A   1      38.032  23.869  26.113  1.00  0.00    -0.252 OA
BRANCH   5   7
ATOM      7  C   UNL A   1      40.038  23.001  27.127  1.00  0.00     0.146 C 
BRANCH   7   8
ATOM      8  C   UNL A   1      40.067  21.843  26.128  1.00  0.00     0.160 C 
BRANCH   8   9
ATOM      9  N   UNL A   1      41.391  21.251  25.923  1.00  0.00    -0.227 N 
ATOM     10  C   UNL A   1      43.669  21.649  25.536  1.00  0.00     0.104 A 
ATOM     11  N   UNL A   1      42.462  22.126  25.703  1.00  0.00    -0.169 NA
ATOM     12  C   UNL A   1      43.892  20.229  25.468  1.00  0.00     0.078 A 
ATOM     13  C   UNL A   1      42.832  19.364  25.737  1.00  0.00     0.183 A 
ATOM     14  C   UNL A   1      44.957  19.388  25.243  1.00  0.00     0.143 A 
ATOM     15  C   UNL A   1      41.561  19.881  26.135  1.00  0.00     0.296 A 
ATOM     16  N   UNL A   1      43.161  18.077  25.595  1.00  0.00    -0.074 NA
ATOM     17  O   UNL A   1      44.510  18.095  25.281  1.00  0.00    -0.360 OA
ATOM     18  C   UNL A   1      46.402  19.532  24.999  1.00  0.00     0.091 C 
ATOM     19  O   UNL A   1      40.692  19.178  26.647  1.00  0.00    -0.265 OA
BRANCH  10  20
ATOM     20  C   UNL A   1      44.800  22.566  25.421  1.00  0.00     0.003 A 
ATOM     21  C   UNL A   1      48.039  25.350  25.061  1.00  0.00     0.044 C 
ATOM     22  C   UNL A   1      46.913  24.368  25.219  1.00  0.00    -0.048 A 
ATOM     23  C   UNL A   1      46.293  23.859  24.062  1.00  0.00     0.004 A 
ATOM     24  C   UNL A   1      46.463  23.955  26.492  1.00  0.00    -0.048 A 
ATOM     25  C   UNL A   1      45.238  22.957  24.159  1.00  0.00     0.011 A 
ATOM     26  C   UNL A   1      45.412  23.037  26.579  1.00  0.00     0.014 A 
ATOM     27  C   UNL A   1      47.025  24.472  27.785  1.00  0.00     0.044 C 
ENDBRANCH  10  20
ENDBRANCH   8   9
ENDBRANCH   7   8
ENDBRANCH   5   7
ENDBRANCH   4   5
ENDBRANCH   3   4
ENDBRANCH   2   3
ENDBRANCH   1   2
BRANCH   1  28
ATOM     28  C   UNL A   1      42.931  27.747  27.580  1.00  0.00     0.202 C 
BRANCH  28  29
ATOM     29  C   UNL A   1      43.430  27.366  28.995  1.00  0.00     0.261 C 
BRANCH  29  30
ATOM     30  O   UNL A   1      44.539  26.459  29.104  1.00  0.00    -0.460 OA
BRANCH  30  31
ATOM     31  C   UNL A   1      44.264  25.315  29.768  1.00  0.00     0.338 C 
ATOM     32  O   UNL A   1      43.467  24.457  29.420  1.00  0.00    -0.246 OA
BRANCH  31  33
ATOM     33  C   UNL A   1      45.063  25.171  31.005  1.00  0.00     0.060 A 
ATOM     34  C   UNL A   1      44.531  24.344  32.000  1.00  0.00     0.016 A 
ATOM     35  C   UNL A   1      46.201  25.940  31.273  1.00  0.00     0.016 A 
ATOM     36  C   UNL A   1      45.090  24.328  33.274  1.00  0.00     0.010 A 
ATOM     37  C   UNL A   1      46.757  25.928  32.562  1.00  0.00     0.010 A 
ATOM     38  C   UNL A   1      46.188  25.142  33.577  1.00  0.00    -0.014 A 
BRANCH  38  39
ATOM     39  C   UNL A   1      46.713  25.081  34.961  1.00  0.00     0.031 A 
ATOM     40  C   UNL A   1      46.463  23.809  35.703  1.00  0.00     0.074 A 
ATOM     41  C   UNL A   1      47.792  25.811  35.326  1.00  0.00     0.049 A 
ATOM     42  N   UNL A   1      47.157  22.728  35.499  1.00  0.00    -0.248 NA
ATOM     43  C   UNL A   1      45.283  23.600  36.539  1.00  0.00     0.031 C 
ATOM     44  C   UNL A   1      48.914  26.098  34.420  1.00  0.00     0.029 A 
ATOM     45  N   UNL A   1      48.247  26.218  36.562  1.00  0.00    -0.354 N 
ATOM     46  C   UNL A   1      46.509  21.690  36.141  1.00  0.00     0.074 A 
ATOM     47  C   UNL A   1      45.350  22.279  36.776  1.00  0.00     0.031 C 
ATOM     48  C   UNL A   1      49.983  26.465  35.156  1.00  0.00     0.029 A 
ATOM     49  C   UNL A   1      49.594  26.583  36.559  1.00  0.00     0.049 A 
ATOM     50  H   UNL A   1      47.678  26.248  37.366  1.00  0.00     0.167 HD
ATOM     51  C   UNL A   1      46.971  20.412  36.114  1.00  0.00     0.037 A 
ATOM     52  C   UNL A   1      50.446  26.437  37.614  1.00  0.00     0.037 A 
ATOM     53  C   UNL A   1      48.208  20.223  35.413  1.00  0.00     0.049 A 
ATOM     54  C   UNL A   1      50.660  24.943  37.583  1.00  0.00     0.074 A 
ATOM     55  C   UNL A   1      48.612  19.888  34.139  1.00  0.00     0.029 A 
ATOM     56  N   UNL A   1      49.377  20.497  36.087  1.00  0.00    -0.354 N 
ATOM     57  N   UNL A   1      51.439  24.291  36.758  1.00  0.00    -0.248 NA
ATOM     58  C   UNL A   1      49.660  24.111  38.258  1.00  0.00     0.031 C 
ATOM     59  C   UNL A   1      49.929  20.434  34.001  1.00  0.00     0.029 A 
ATOM     60  C   UNL A   1      50.223  21.100  35.190  1.00  0.00     0.049 A 
ATOM     61  H   UNL A   1      49.569  20.297  37.031  1.00  0.00     0.167 HD
ATOM     62  C   UNL A   1      50.839  23.040  36.592  1.00  0.00     0.074 A 
ATOM     63  C   UNL A   1      49.767  22.987  37.565  1.00  0.00     0.031 C 
ATOM     64  C   UNL A   1      51.104  22.190  35.558  1.00  0.00     0.037 A 
BRANCH  51  65
ATOM     65  C   UNL A   1      46.400  19.285  36.880  1.00  0.00     0.058 A 
ATOM     66  C   UNL A   1      45.297  18.608  36.333  1.00  0.00     0.135 A 
ATOM     67  C   UNL A   1      46.752  19.013  38.206  1.00  0.00     0.135 A 
ATOM     68  F   UNL A   1      44.928  18.844  35.063  1.00  0.00    -0.206 F 
ATOM     69  C   UNL A   1      44.529  17.737  37.091  1.00  0.00     0.059 A 
ATOM     70  C   UNL A   1      45.999  18.132  38.985  1.00  0.00     0.059 A 
ATOM     71  F   UNL A   1      47.798  19.636  38.773  1.00  0.00    -0.206 F 
ATOM     72  C   UNL A   1      44.875  17.523  38.424  1.00  0.00     0.060 A 
BRANCH  72  73
ATOM     73  S   UNL A   1      43.795  16.467  39.416  1.00  0.00     0.124 S 
ATOM     74  O   UNL A   1      43.531  15.362  38.502  1.00  0.00    -0.237 OA
ATOM     75  O   UNL A   1      44.646  16.159  40.560  1.00  0.00    -0.237 OA
ATOM     76  O   UNL A   1      42.652  17.328  39.704  1.00  0.00    -0.744 OA
ENDBRANCH  72  73
ENDBRANCH  51  65
BRANCH  52  77
ATOM     77  C   UNL A   1      50.073  27.219  38.840  1.00  0.00     0.058 A 
ATOM     78  C   UNL A   1      49.505  28.497  38.650  1.00  0.00     0.135 A 
ATOM     79  C   UNL A   1      50.196  26.797  40.173  1.00  0.00     0.135 A 
ATOM     80  F   UNL A   1      49.487  29.054  37.427  1.00  0.00    -0.206 F 
ATOM     81  C   UNL A   1      48.917  29.218  39.685  1.00  0.00     0.059 A 
ATOM     82  C   UNL A   1      49.590  27.487  41.227  1.00  0.00     0.059 A 
ATOM     83  F   UNL A   1      50.882  25.692  40.493  1.00  0.00    -0.206 F 
ATOM     84  C   UNL A   1      48.909  28.671  40.963  1.00  0.00     0.060 A 
BRANCH  84  85
ATOM     85  S   UNL A   1      47.927  29.488  42.238  1.00  0.00     0.124 S 
ATOM     86  O   UNL A   1      47.604  30.761  41.606  1.00  0.00    -0.237 OA
ATOM     87  O   UNL A   1      46.816  28.555  42.397  1.00  0.00    -0.237 OA
ATOM     88  O   UNL A   1      48.841  29.563  43.374  1.00  0.00    -0.744 OA
ENDBRANCH  84  85
ENDBRANCH  52  77
BRANCH  64  89
ATOM     89  C   UNL A   1      52.231  22.563  34.651  1.00  0.00     0.058 A 
ATOM     90  C   UNL A   1      52.012  23.422  33.568  1.00  0.00     0.135 A 
ATOM     91  C   UNL A   1      53.552  22.157  34.908  1.00  0.00     0.135 A 
ATOM     92  F   UNL A   1      50.771  23.848  33.280  1.00  0.00    -0.206 F 
ATOM     93  C   UNL A   1      53.067  23.905  32.799  1.00  0.00     0.059 A 
ATOM     94  C   UNL A   1      54.625  22.647  34.167  1.00  0.00     0.059 A 
ATOM     95  F   UNL A   1      53.828  21.315  35.918  1.00  0.00    -0.206 F 
ATOM     96  C   UNL A   1      54.372  23.533  33.122  1.00  0.00     0.060 A 
BRANCH  96  97
ATOM     97  S   UNL A   1      55.735  24.295  32.214  1.00  0.00     0.124 S 
ATOM     98  O   UNL A   1      55.031  25.085  31.209  1.00  0.00    -0.237 OA
ATOM     99  O   UNL A   1      56.411  25.060  33.257  1.00  0.00    -0.237 OA
ATOM    100  O   UNL A   1      56.488  23.155  31.699  1.00  0.00    -0.744 OA
ENDBRANCH  96  97
ENDBRANCH  64  89
ENDBRANCH  38  39
ENDBRANCH  31  33
ENDBRANCH  30  31
ENDBRANCH  29  30
ENDBRANCH  28  29
ENDBRANCH   1  28
TORSDOF 20
ENDMDL
