MODEL 1
REMARK VINA RESULT:     -10.6      0.000      0.000
REMARK SMILES CSCc1ccc(C(=O)N[C@H]2C=C[C@@H](C(=O)OCCOCCOC(=O)c3ccc(-c4c5nc(c(-c6c(F)cc(S(=O)(=O)[O-])cc6F)c6ccc([nH]6)c(-c6c(F)cc(S(=O)(=O)[O-])cc6F)c6nc(c(-c7c(F)cc(S(=O)(=O)[O-])cc7F)c7ccc4[nH]7)C=C6)C=C5)cc3)C2)o1
REMARK SMILES IDX 19 1 18 2 17 3 15 4 16 5 14 6 11 7 12 8 92 9 13 10 10 11
REMARK SMILES IDX 8 12 9 13 7 15 4 16 5 17 93 18 6 19 3 20 2 21 1 22 20 23
REMARK SMILES IDX 21 24 22 25 23 26 24 27 25 28 26 29 27 30 91 31 28 32 90 33
REMARK SMILES IDX 29 34 30 35 31 36 84 37 32 38 89 39 83 40 85 41 33 42 88 43
REMARK SMILES IDX 82 44 81 45 34 47 68 48 47 49 67 50 48 51 51 52 66 53 86 54
REMARK SMILES IDX 49 55 50 56 65 58 87 59 52 60 35 61 36 62 45 63 37 64 38 65
REMARK SMILES IDX 44 66 46 67 39 68 40 69 41 70 42 71 43 72 69 73 70 74 79 75
REMARK SMILES IDX 71 76 72 77 78 78 80 79 73 80 74 81 75 82 76 83 77 84 53 85
REMARK SMILES IDX 54 86 63 87 55 88 56 89 62 90 64 91 57 92 58 93 59 94 60 95
REMARK SMILES IDX 61 96
REMARK H PARENT 10 14 85 46 51 57
REMARK Flexibility Score: inf
ROOT
ATOM      1  C   UNL A   1      33.481  30.521  27.079  1.00  0.00     0.202 C 
ENDROOT
BRANCH   1   2
ATOM      2  C   UNL A   1      32.041  30.039  26.868  1.00  0.00     0.261 C 
BRANCH   2   3
ATOM      3  O   UNL A   1      31.647  30.302  25.512  1.00  0.00    -0.463 OA
BRANCH   3   4
ATOM      4  C   UNL A   1      32.029  29.418  24.552  1.00  0.00     0.312 C 
ATOM      5  O   UNL A   1      33.155  29.341  24.079  1.00  0.00    -0.252 OA
BRANCH   4   6
ATOM      6  C   UNL A   1      30.887  28.433  24.227  1.00  0.00     0.124 C 
ATOM      7  C   UNL A   1      30.732  26.684  22.488  1.00  0.00     0.106 C 
ATOM      8  C   UNL A   1      31.095  26.108  23.807  1.00  0.00    -0.006 C 
ATOM      9  C   UNL A   1      30.648  28.193  22.720  1.00  0.00     0.048 C 
ATOM     10  C   UNL A   1      31.131  27.047  24.764  1.00  0.00    -0.014 C 
BRANCH   7  11
ATOM     11  N   UNL A   1      31.562  26.289  21.363  1.00  0.00    -0.343 N 
ATOM     12  C   UNL A   1      32.624  25.452  21.102  1.00  0.00     0.287 C 
ATOM     13  O   UNL A   1      33.114  25.599  19.977  1.00  0.00    -0.266 OA
ATOM     14  H   UNL A   1      31.281  26.758  20.544  1.00  0.00     0.164 HD
BRANCH  12  15
ATOM     15  C   UNL A   1      33.090  24.443  22.033  1.00  0.00     0.191 A 
ATOM     16  C   UNL A   1      34.583  23.487  23.384  1.00  0.00     0.114 A 
ATOM     17  C   UNL A   1      33.566  22.583  23.204  1.00  0.00     0.047 A 
ATOM     18  O   UNL A   1      34.328  24.608  22.634  1.00  0.00    -0.455 OA
ATOM     19  C   UNL A   1      32.568  23.269  22.511  1.00  0.00     0.056 A 
BRANCH  16  20
ATOM     20  C   UNL A   1      35.811  23.477  24.224  1.00  0.00     0.144 C 
BRANCH  20  21
ATOM     21  S   UNL A   1      36.083  21.859  25.057  1.00  0.00    -0.157 SA
ATOM     22  C   UNL A   1      37.871  21.954  25.380  1.00  0.00     0.085 C 
ENDBRANCH  20  21
ENDBRANCH  16  20
ENDBRANCH  12  15
ENDBRANCH   7  11
ENDBRANCH   4   6
ENDBRANCH   3   4
ENDBRANCH   2   3
ENDBRANCH   1   2
BRANCH   1  23
ATOM     23  O   UNL A   1      33.640  31.692  27.887  1.00  0.00    -0.374 OA
BRANCH  23  24
ATOM     24  C   UNL A   1      34.906  31.916  28.504  1.00  0.00     0.202 C 
BRANCH  24  25
ATOM     25  C   UNL A   1      34.933  32.193  30.012  1.00  0.00     0.261 C 
BRANCH  25  26
ATOM     26  O   UNL A   1      35.842  31.353  30.738  1.00  0.00    -0.460 OA
BRANCH  26  27
ATOM     27  C   UNL A   1      37.039  31.932  30.996  1.00  0.00     0.338 C 
ATOM     28  O   UNL A   1      37.238  32.944  31.662  1.00  0.00    -0.246 OA
BRANCH  27  29
ATOM     29  C   UNL A   1      38.146  31.103  30.493  1.00  0.00     0.060 A 
ATOM     30  C   UNL A   1      39.072  30.630  31.432  1.00  0.00     0.016 A 
ATOM     31  C   UNL A   1      38.342  30.877  29.128  1.00  0.00     0.016 A 
ATOM     32  C   UNL A   1      40.225  29.975  31.007  1.00  0.00     0.010 A 
ATOM     33  C   UNL A   1      39.503  30.221  28.703  1.00  0.00     0.010 A 
ATOM     34  C   UNL A   1      40.468  29.802  29.638  1.00  0.00    -0.014 A 
BRANCH  34  35
ATOM     35  C   UNL A   1      41.789  29.299  29.190  1.00  0.00     0.031 A 
ATOM     36  C   UNL A   1      42.952  30.250  29.116  1.00  0.00     0.074 A 
ATOM     37  C   UNL A   1      41.955  28.004  28.867  1.00  0.00     0.049 A 
ATOM     38  N   UNL A   1      44.181  30.028  28.731  1.00  0.00    -0.248 NA
ATOM     39  C   UNL A   1      42.690  31.638  29.527  1.00  0.00     0.031 C 
ATOM     40  C   UNL A   1      40.909  26.985  28.913  1.00  0.00     0.029 A 
ATOM     41  N   UNL A   1      43.065  27.332  28.421  1.00  0.00    -0.354 N 
ATOM     42  C   UNL A   1      44.838  31.248  28.837  1.00  0.00     0.074 A 
ATOM     43  C   UNL A   1      43.862  32.212  29.301  1.00  0.00     0.031 C 
ATOM     44  C   UNL A   1      41.420  25.818  28.487  1.00  0.00     0.029 A 
ATOM     45  C   UNL A   1      42.821  26.016  28.112  1.00  0.00     0.049 A 
ATOM     46  H   UNL A   1      43.951  27.752  28.331  1.00  0.00     0.167 HD
ATOM     47  C   UNL A   1      46.135  31.539  28.572  1.00  0.00     0.037 A 
ATOM     48  C   UNL A   1      43.625  25.084  27.563  1.00  0.00     0.037 A 
ATOM     49  C   UNL A   1      47.100  30.575  28.114  1.00  0.00     0.049 A 
ATOM     50  C   UNL A   1      45.053  25.431  27.247  1.00  0.00     0.074 A 
ATOM     51  C   UNL A   1      48.451  30.757  27.869  1.00  0.00     0.029 A 
ATOM     52  N   UNL A   1      46.815  29.251  27.810  1.00  0.00    -0.354 N 
ATOM     53  N   UNL A   1      45.678  26.575  27.405  1.00  0.00    -0.248 NA
ATOM     54  C   UNL A   1      45.891  24.362  26.685  1.00  0.00     0.031 C 
ATOM     55  C   UNL A   1      48.970  29.558  27.368  1.00  0.00     0.029 A 
ATOM     56  C   UNL A   1      47.957  28.613  27.349  1.00  0.00     0.049 A 
ATOM     57  H   UNL A   1      45.933  28.827  27.908  1.00  0.00     0.167 HD
ATOM     58  C   UNL A   1      46.984  26.360  26.978  1.00  0.00     0.074 A 
ATOM     59  C   UNL A   1      47.064  24.973  26.565  1.00  0.00     0.031 C 
ATOM     60  C   UNL A   1      48.022  27.231  26.936  1.00  0.00     0.037 A 
BRANCH  47  61
ATOM     61  C   UNL A   1      46.569  32.970  28.738  1.00  0.00     0.058 A 
ATOM     62  C   UNL A   1      47.090  33.455  29.948  1.00  0.00     0.135 A 
ATOM     63  C   UNL A   1      46.457  33.870  27.667  1.00  0.00     0.135 A 
ATOM     64  F   UNL A   1      47.205  32.641  31.010  1.00  0.00    -0.206 F 
ATOM     65  C   UNL A   1      47.441  34.793  30.105  1.00  0.00     0.059 A 
ATOM     66  C   UNL A   1      46.829  35.206  27.791  1.00  0.00     0.059 A 
ATOM     67  F   UNL A   1      45.969  33.459  26.486  1.00  0.00    -0.206 F 
ATOM     68  C   UNL A   1      47.298  35.662  29.022  1.00  0.00     0.060 A 
BRANCH  68  69
ATOM     69  S   UNL A   1      47.723  37.403  29.248  1.00  0.00     0.124 S 
ATOM     70  O   UNL A   1      47.289  37.973  27.976  1.00  0.00    -0.237 OA
ATOM     71  O   UNL A   1      46.925  37.773  30.412  1.00  0.00    -0.237 OA
ATOM     72  O   UNL A   1      49.167  37.375  29.463  1.00  0.00    -0.744 OA
ENDBRANCH  68  69
ENDBRANCH  47  61
BRANCH  48  73
ATOM     73  C   UNL A   1      43.073  23.736  27.267  1.00  0.00     0.058 A 
ATOM     74  C   UNL A   1      42.686  23.375  25.971  1.00  0.00     0.135 A 
ATOM     75  C   UNL A   1      42.982  22.763  28.276  1.00  0.00     0.135 A 
ATOM     76  F   UNL A   1      42.744  24.275  24.977  1.00  0.00    -0.206 F 
ATOM     77  C   UNL A   1      42.237  22.091  25.678  1.00  0.00     0.059 A 
ATOM     78  C   UNL A   1      42.558  21.467  28.004  1.00  0.00     0.059 A 
ATOM     79  F   UNL A   1      43.349  23.060  29.532  1.00  0.00    -0.206 F 
ATOM     80  C   UNL A   1      42.190  21.140  26.700  1.00  0.00     0.060 A 
BRANCH  80  81
ATOM     81  S   UNL A   1      41.712  19.447  26.287  1.00  0.00     0.124 S 
ATOM     82  O   UNL A   1      42.132  18.723  27.480  1.00  0.00    -0.237 OA
ATOM     83  O   UNL A   1      40.271  19.577  26.092  1.00  0.00    -0.237 OA
ATOM     84  O   UNL A   1      42.476  19.171  25.075  1.00  0.00    -0.744 OA
ENDBRANCH  80  81
ENDBRANCH  48  73
BRANCH  60  85
ATOM     85  C   UNL A   1      49.348  26.714  26.445  1.00  0.00     0.058 A 
ATOM     86  C   UNL A   1      49.790  26.947  25.133  1.00  0.00     0.135 A 
ATOM     87  C   UNL A   1      50.213  26.034  27.317  1.00  0.00     0.135 A 
ATOM     88  F   UNL A   1      49.000  27.585  24.257  1.00  0.00    -0.206 F 
ATOM     89  C   UNL A   1      51.038  26.510  24.699  1.00  0.00     0.059 A 
ATOM     90  C   UNL A   1      51.476  25.611  26.913  1.00  0.00     0.059 A 
ATOM     91  F   UNL A   1      49.844  25.794  28.585  1.00  0.00    -0.206 F 
ATOM     92  C   UNL A   1      51.876  25.846  25.597  1.00  0.00     0.060 A 
BRANCH  92  93
ATOM     93  S   UNL A   1      53.510  25.322  25.037  1.00  0.00     0.124 S 
ATOM     94  O   UNL A   1      54.379  26.243  25.763  1.00  0.00    -0.237 OA
ATOM     95  O   UNL A   1      53.559  23.929  25.470  1.00  0.00    -0.237 OA
ATOM     96  O   UNL A   1      53.454  25.521  23.592  1.00  0.00    -0.744 OA
ENDBRANCH  92  93
ENDBRANCH  60  85
ENDBRANCH  34  35
ENDBRANCH  27  29
ENDBRANCH  26  27
ENDBRANCH  25  26
ENDBRANCH  24  25
ENDBRANCH  23  24
ENDBRANCH   1  23
TORSDOF 21
ENDMDL
MODEL 2
REMARK VINA RESULT:     -10.6      1.701      2.133
REMARK SMILES CSCc1ccc(C(=O)N[C@H]2C=C[C@@H](C(=O)OCCOCCOC(=O)c3ccc(-c4c5nc(c(-c6c(F)cc(S(=O)(=O)[O-])cc6F)c6ccc([nH]6)c(-c6c(F)cc(S(=O)(=O)[O-])cc6F)c6nc(c(-c7c(F)cc(S(=O)(=O)[O-])cc7F)c7ccc4[nH]7)C=C6)C=C5)cc3)C2)o1
REMARK SMILES IDX 19 1 18 2 17 3 15 4 16 5 14 6 11 7 12 8 92 9 13 10 10 11
REMARK SMILES IDX 8 12 9 13 7 15 4 16 5 17 93 18 6 19 3 20 2 21 1 22 20 23
REMARK SMILES IDX 21 24 22 25 23 26 24 27 25 28 26 29 27 30 91 31 28 32 90 33
REMARK SMILES IDX 29 34 30 35 31 36 84 37 32 38 89 39 83 40 85 41 33 42 88 43
REMARK SMILES IDX 82 44 81 45 34 47 68 48 47 49 67 50 48 51 51 52 66 53 86 54
REMARK SMILES IDX 49 55 50 56 65 58 87 59 52 60 35 61 36 62 45 63 37 64 38 65
REMARK SMILES IDX 44 66 46 67 39 68 40 69 41 70 42 71 43 72 69 73 70 74 79 75
REMARK SMILES IDX 71 76 72 77 78 78 80 79 73 80 74 81 75 82 76 83 77 84 53 85
REMARK SMILES IDX 54 86 63 87 55 88 56 89 62 90 64 91 57 92 58 93 59 94 60 95
REMARK SMILES IDX 61 96
REMARK H PARENT 10 14 85 46 51 57
REMARK Flexibility Score: inf
ROOT
ATOM      1  C   UNL A   1      33.386  30.481  26.986  1.00  0.00     0.202 C 
ENDROOT
BRANCH   1   2
ATOM      2  C   UNL A   1      32.157  30.237  26.102  1.00  0.00     0.261 C 
BRANCH   2   3
ATOM      3  O   UNL A   1      32.586  29.771  24.813  1.00  0.00    -0.463 OA
BRANCH   3   4
ATOM      4  C   UNL A   1      32.202  28.526  24.424  1.00  0.00     0.312 C 
ATOM      5  O   UNL A   1      31.100  28.243  23.972  1.00  0.00    -0.252 OA
BRANCH   4   6
ATOM      6  C   UNL A   1      33.381  27.535  24.505  1.00  0.00     0.124 C 
ATOM      7  C   UNL A   1      33.527  25.305  25.559  1.00  0.00     0.106 C 
ATOM      8  C   UNL A   1      33.304  25.200  24.095  1.00  0.00    -0.006 C 
ATOM      9  C   UNL A   1      33.522  26.805  25.858  1.00  0.00     0.048 C 
ATOM     10  C   UNL A   1      33.275  26.408  23.511  1.00  0.00    -0.014 C 
BRANCH   7  11
ATOM     11  N   UNL A   1      32.644  24.516  26.401  1.00  0.00    -0.343 N 
ATOM     12  C   UNL A   1      32.275  23.200  26.572  1.00  0.00     0.287 C 
ATOM     13  O   UNL A   1      31.315  23.043  27.334  1.00  0.00    -0.266 OA
ATOM     14  H   UNL A   1      32.168  25.095  27.040  1.00  0.00     0.164 HD
BRANCH  12  15
ATOM     15  C   UNL A   1      32.985  22.091  25.966  1.00  0.00     0.191 A 
ATOM     16  C   UNL A   1      33.141  20.087  25.003  1.00  0.00     0.114 A 
ATOM     17  C   UNL A   1      34.413  20.465  25.354  1.00  0.00     0.047 A 
ATOM     18  O   UNL A   1      32.254  21.050  25.416  1.00  0.00    -0.455 OA
ATOM     19  C   UNL A   1      34.309  21.788  25.783  1.00  0.00     0.056 A 
BRANCH  16  20
ATOM     20  C   UNL A   1      32.599  18.913  24.267  1.00  0.00     0.144 C 
BRANCH  20  21
ATOM     21  S   UNL A   1      32.735  17.351  25.232  1.00  0.00    -0.157 SA
ATOM     22  C   UNL A   1      33.644  16.313  24.047  1.00  0.00     0.085 C 
ENDBRANCH  20  21
ENDBRANCH  16  20
ENDBRANCH  12  15
ENDBRANCH   7  11
ENDBRANCH   4   6
ENDBRANCH   3   4
ENDBRANCH   2   3
ENDBRANCH   1   2
BRANCH   1  23
ATOM     23  O   UNL A   1      33.465  31.765  27.613  1.00  0.00    -0.374 OA
BRANCH  23  24
ATOM     24  C   UNL A   1      34.728  32.187  28.123  1.00  0.00     0.202 C 
BRANCH  24  25
ATOM     25  C   UNL A   1      34.882  32.319  29.644  1.00  0.00     0.261 C 
BRANCH  25  26
ATOM     26  O   UNL A   1      35.719  31.311  30.230  1.00  0.00    -0.460 OA
BRANCH  26  27
ATOM     27  C   UNL A   1      36.893  31.785  30.715  1.00  0.00     0.338 C 
ATOM     28  O   UNL A   1      37.038  32.694  31.527  1.00  0.00    -0.246 OA
BRANCH  27  29
ATOM     29  C   UNL A   1      38.024  30.963  30.256  1.00  0.00     0.060 A 
ATOM     30  C   UNL A   1      38.956  30.560  31.221  1.00  0.00     0.016 A 
ATOM     31  C   UNL A   1      38.234  30.679  28.904  1.00  0.00     0.016 A 
ATOM     32  C   UNL A   1      40.129  29.916  30.832  1.00  0.00     0.010 A 
ATOM     33  C   UNL A   1      39.415  30.035  28.516  1.00  0.00     0.010 A 
ATOM     34  C   UNL A   1      40.384  29.686  29.475  1.00  0.00    -0.014 A 
BRANCH  34  35
ATOM     35  C   UNL A   1      41.721  29.199  29.057  1.00  0.00     0.031 A 
ATOM     36  C   UNL A   1      42.872  30.165  29.001  1.00  0.00     0.074 A 
ATOM     37  C   UNL A   1      41.910  27.904  28.745  1.00  0.00     0.049 A 
ATOM     38  N   UNL A   1      44.112  29.957  28.643  1.00  0.00    -0.248 NA
ATOM     39  C   UNL A   1      42.583  31.551  29.399  1.00  0.00     0.031 C 
ATOM     40  C   UNL A   1      40.877  26.871  28.775  1.00  0.00     0.029 A 
ATOM     41  N   UNL A   1      43.039  27.244  28.326  1.00  0.00    -0.354 N 
ATOM     42  C   UNL A   1      44.751  31.186  28.755  1.00  0.00     0.074 A 
ATOM     43  C   UNL A   1      43.753  32.140  29.193  1.00  0.00     0.031 C 
ATOM     44  C   UNL A   1      41.413  25.709  28.366  1.00  0.00     0.029 A 
ATOM     45  C   UNL A   1      42.818  25.923  28.020  1.00  0.00     0.049 A 
ATOM     46  H   UNL A   1      43.920  27.675  28.251  1.00  0.00     0.167 HD
ATOM     47  C   UNL A   1      46.049  31.492  28.516  1.00  0.00     0.037 A 
ATOM     48  C   UNL A   1      43.645  25.000  27.492  1.00  0.00     0.037 A 
ATOM     49  C   UNL A   1      47.036  30.538  28.083  1.00  0.00     0.049 A 
ATOM     50  C   UNL A   1      45.075  25.363  27.204  1.00  0.00     0.074 A 
ATOM     51  C   UNL A   1      48.389  30.738  27.865  1.00  0.00     0.029 A 
ATOM     52  N   UNL A   1      46.775  29.209  27.781  1.00  0.00    -0.354 N 
ATOM     53  N   UNL A   1      45.681  26.516  27.368  1.00  0.00    -0.248 NA
ATOM     54  C   UNL A   1      45.938  24.303  26.666  1.00  0.00     0.031 C 
ATOM     55  C   UNL A   1      48.934  29.543  27.382  1.00  0.00     0.029 A 
ATOM     56  C   UNL A   1      47.934  28.584  27.347  1.00  0.00     0.049 A 
ATOM     57  H   UNL A   1      45.896  28.774  27.863  1.00  0.00     0.167 HD
ATOM     58  C   UNL A   1      46.999  26.316  26.969  1.00  0.00     0.074 A 
ATOM     59  C   UNL A   1      47.105  24.928  26.567  1.00  0.00     0.031 C 
ATOM     60  C   UNL A   1      48.026  27.201  26.944  1.00  0.00     0.037 A 
BRANCH  47  61
ATOM     61  C   UNL A   1      46.461  32.929  28.682  1.00  0.00     0.058 A 
ATOM     62  C   UNL A   1      47.004  33.415  29.882  1.00  0.00     0.135 A 
ATOM     63  C   UNL A   1      46.304  33.837  27.622  1.00  0.00     0.135 A 
ATOM     64  F   UNL A   1      47.163  32.594  30.934  1.00  0.00    -0.206 F 
ATOM     65  C   UNL A   1      47.335  34.758  30.041  1.00  0.00     0.059 A 
ATOM     66  C   UNL A   1      46.654  35.178  27.748  1.00  0.00     0.059 A 
ATOM     67  F   UNL A   1      45.792  33.426  26.451  1.00  0.00    -0.206 F 
ATOM     68  C   UNL A   1      47.147  35.633  28.970  1.00  0.00     0.060 A 
BRANCH  68  69
ATOM     69  S   UNL A   1      47.545  37.379  29.199  1.00  0.00     0.124 S 
ATOM     70  O   UNL A   1      46.364  38.022  28.630  1.00  0.00    -0.237 OA
ATOM     71  O   UNL A   1      47.686  37.482  30.648  1.00  0.00    -0.237 OA
ATOM     72  O   UNL A   1      48.780  37.549  28.439  1.00  0.00    -0.744 OA
ENDBRANCH  68  69
ENDBRANCH  47  61
BRANCH  48  73
ATOM     73  C   UNL A   1      43.117  23.643  27.193  1.00  0.00     0.058 A 
ATOM     74  C   UNL A   1      42.857  23.235  25.879  1.00  0.00     0.135 A 
ATOM     75  C   UNL A   1      42.923  22.707  28.223  1.00  0.00     0.135 A 
ATOM     76  F   UNL A   1      43.017  24.097  24.864  1.00  0.00    -0.206 F 
ATOM     77  C   UNL A   1      42.432  21.942  25.591  1.00  0.00     0.059 A 
ATOM     78  C   UNL A   1      42.521  21.402  27.958  1.00  0.00     0.059 A 
ATOM     79  F   UNL A   1      43.167  23.049  29.497  1.00  0.00    -0.206 F 
ATOM     80  C   UNL A   1      42.279  21.029  26.637  1.00  0.00     0.060 A 
BRANCH  80  81
ATOM     81  S   UNL A   1      41.834  19.323  26.241  1.00  0.00     0.124 S 
ATOM     82  O   UNL A   1      42.542  19.119  24.983  1.00  0.00    -0.237 OA
ATOM     83  O   UNL A   1      42.357  18.596  27.393  1.00  0.00    -0.237 OA
ATOM     84  O   UNL A   1      40.379  19.371  26.149  1.00  0.00    -0.744 OA
ENDBRANCH  80  81
ENDBRANCH  48  73
BRANCH  60  85
ATOM     85  C   UNL A   1      49.368  26.698  26.483  1.00  0.00     0.058 A 
ATOM     86  C   UNL A   1      49.799  26.857  25.157  1.00  0.00     0.135 A 
ATOM     87  C   UNL A   1      50.259  26.112  27.396  1.00  0.00     0.135 A 
ATOM     88  F   UNL A   1      48.985  27.405  24.242  1.00  0.00    -0.206 F 
ATOM     89  C   UNL A   1      51.061  26.436  24.748  1.00  0.00     0.059 A 
ATOM     90  C   UNL A   1      51.535  25.707  27.016  1.00  0.00     0.059 A 
ATOM     91  F   UNL A   1      49.901  25.946  28.679  1.00  0.00    -0.206 F 
ATOM     92  C   UNL A   1      51.924  25.865  25.686  1.00  0.00     0.060 A 
BRANCH  92  93
ATOM     93  S   UNL A   1      53.575  25.362  25.154  1.00  0.00     0.124 S 
ATOM     94  O   UNL A   1      54.422  26.139  26.053  1.00  0.00    -0.237 OA
ATOM     95  O   UNL A   1      53.555  23.922  25.390  1.00  0.00    -0.237 OA
ATOM     96  O   UNL A   1      53.616  25.761  23.751  1.00  0.00    -0.744 OA
ENDBRANCH  92  93
ENDBRANCH  60  85
ENDBRANCH  34  35
ENDBRANCH  27  29
ENDBRANCH  26  27
ENDBRANCH  25  26
ENDBRANCH  24  25
ENDBRANCH  23  24
ENDBRANCH   1  23
TORSDOF 21
ENDMDL
MODEL 3
REMARK VINA RESULT:     -10.2      1.463      8.340
REMARK SMILES CSCc1ccc(C(=O)N[C@H]2C=C[C@@H](C(=O)OCCOCCOC(=O)c3ccc(-c4c5nc(c(-c6c(F)cc(S(=O)(=O)[O-])cc6F)c6ccc([nH]6)c(-c6c(F)cc(S(=O)(=O)[O-])cc6F)c6nc(c(-c7c(F)cc(S(=O)(=O)[O-])cc7F)c7ccc4[nH]7)C=C6)C=C5)cc3)C2)o1
REMARK SMILES IDX 19 1 18 2 17 3 15 4 16 5 14 6 11 7 12 8 92 9 13 10 10 11
REMARK SMILES IDX 8 12 9 13 7 15 4 16 5 17 93 18 6 19 3 20 2 21 1 22 20 23
REMARK SMILES IDX 21 24 22 25 23 26 24 27 25 28 26 29 27 30 91 31 28 32 90 33
REMARK SMILES IDX 29 34 30 35 31 36 84 37 32 38 89 39 83 40 85 41 33 42 88 43
REMARK SMILES IDX 82 44 81 45 34 47 68 48 47 49 67 50 48 51 51 52 66 53 86 54
REMARK SMILES IDX 49 55 50 56 65 58 87 59 52 60 35 61 36 62 45 63 37 64 38 65
REMARK SMILES IDX 44 66 46 67 39 68 40 69 41 70 42 71 43 72 69 73 70 74 79 75
REMARK SMILES IDX 71 76 72 77 78 78 80 79 73 80 74 81 75 82 76 83 77 84 53 85
REMARK SMILES IDX 54 86 63 87 55 88 56 89 62 90 64 91 57 92 58 93 59 94 60 95
REMARK SMILES IDX 61 96
REMARK H PARENT 10 14 85 46 51 57
REMARK Flexibility Score: inf
ROOT
ATOM      1  C   UNL A   1      33.798  29.118  26.983  1.00  0.00     0.202 C 
ENDROOT
BRANCH   1   2
ATOM      2  C   UNL A   1      32.960  29.642  25.811  1.00  0.00     0.261 C 
BRANCH   2   3
ATOM      3  O   UNL A   1      31.809  28.801  25.639  1.00  0.00    -0.463 OA
BRANCH   3   4
ATOM      4  C   UNL A   1      30.988  29.048  24.583  1.00  0.00     0.312 C 
ATOM      5  O   UNL A   1      30.545  30.149  24.283  1.00  0.00    -0.252 OA
BRANCH   4   6
ATOM      6  C   UNL A   1      30.791  27.778  23.731  1.00  0.00     0.124 C 
ATOM      7  C   UNL A   1      30.303  25.454  24.414  1.00  0.00     0.106 C 
ATOM      8  C   UNL A   1      29.074  26.159  23.973  1.00  0.00    -0.006 C 
ATOM      9  C   UNL A   1      31.418  26.497  24.322  1.00  0.00     0.048 C 
ATOM     10  C   UNL A   1      29.342  27.406  23.554  1.00  0.00    -0.014 C 
BRANCH   7  11
ATOM     11  N   UNL A   1      30.224  24.762  25.689  1.00  0.00    -0.343 N 
ATOM     12  C   UNL A   1      30.721  23.623  26.284  1.00  0.00     0.287 C 
ATOM     13  O   UNL A   1      30.203  23.360  27.374  1.00  0.00    -0.266 OA
ATOM     14  H   UNL A   1      29.643  25.254  26.314  1.00  0.00     0.164 HD
BRANCH  12  15
ATOM     15  C   UNL A   1      31.799  22.836  25.718  1.00  0.00     0.191 A 
ATOM     16  C   UNL A   1      33.899  22.102  25.585  1.00  0.00     0.114 A 
ATOM     17  C   UNL A   1      33.266  21.720  24.429  1.00  0.00     0.047 A 
ATOM     18  O   UNL A   1      33.028  22.828  26.359  1.00  0.00    -0.455 OA
ATOM     19  C   UNL A   1      31.918  22.028  24.617  1.00  0.00     0.056 A 
BRANCH  16  20
ATOM     20  C   UNL A   1      35.263  21.849  26.124  1.00  0.00     0.144 C 
BRANCH  20  21
ATOM     21  S   UNL A   1      36.397  23.276  25.873  1.00  0.00    -0.157 SA
ATOM     22  C   UNL A   1      36.403  23.374  24.057  1.00  0.00     0.085 C 
ENDBRANCH  20  21
ENDBRANCH  16  20
ENDBRANCH  12  15
ENDBRANCH   7  11
ENDBRANCH   4   6
ENDBRANCH   3   4
ENDBRANCH   2   3
ENDBRANCH   1   2
BRANCH   1  23
ATOM     23  O   UNL A   1      34.902  29.937  27.382  1.00  0.00    -0.374 OA
BRANCH  23  24
ATOM     24  C   UNL A   1      34.638  31.289  27.749  1.00  0.00     0.202 C 
BRANCH  24  25
ATOM     25  C   UNL A   1      35.176  31.787  29.096  1.00  0.00     0.261 C 
BRANCH  25  26
ATOM     26  O   UNL A   1      35.999  30.830  29.780  1.00  0.00    -0.460 OA
BRANCH  26  27
ATOM     27  C   UNL A   1      37.127  31.358  30.315  1.00  0.00     0.338 C 
ATOM     28  O   UNL A   1      37.194  32.236  31.170  1.00  0.00    -0.246 OA
BRANCH  27  29
ATOM     29  C   UNL A   1      38.320  30.634  29.849  1.00  0.00     0.060 A 
ATOM     30  C   UNL A   1      39.363  30.458  30.768  1.00  0.00     0.016 A 
ATOM     31  C   UNL A   1      38.469  30.226  28.521  1.00  0.00     0.016 A 
ATOM     32  C   UNL A   1      40.579  29.923  30.350  1.00  0.00     0.010 A 
ATOM     33  C   UNL A   1      39.693  29.692  28.103  1.00  0.00     0.010 A 
ATOM     34  C   UNL A   1      40.765  29.573  29.006  1.00  0.00    -0.014 A 
BRANCH  34  35
ATOM     35  C   UNL A   1      42.121  29.209  28.529  1.00  0.00     0.031 A 
ATOM     36  C   UNL A   1      42.397  27.792  28.106  1.00  0.00     0.074 A 
ATOM     37  C   UNL A   1      43.093  30.136  28.457  1.00  0.00     0.049 A 
ATOM     38  N   UNL A   1      43.511  27.256  27.681  1.00  0.00    -0.248 NA
ATOM     39  C   UNL A   1      41.265  26.856  28.178  1.00  0.00     0.031 C 
ATOM     40  C   UNL A   1      42.943  31.542  28.823  1.00  0.00     0.029 A 
ATOM     41  N   UNL A   1      44.404  30.025  28.066  1.00  0.00    -0.354 N 
ATOM     42  C   UNL A   1      43.222  25.916  27.449  1.00  0.00     0.074 A 
ATOM     43  C   UNL A   1      41.833  25.718  27.804  1.00  0.00     0.031 C 
ATOM     44  C   UNL A   1      44.125  32.161  28.664  1.00  0.00     0.029 A 
ATOM     45  C   UNL A   1      45.119  31.188  28.211  1.00  0.00     0.049 A 
ATOM     46  H   UNL A   1      44.794  29.191  27.716  1.00  0.00     0.167 HD
ATOM     47  C   UNL A   1      44.040  24.941  26.984  1.00  0.00     0.037 A 
ATOM     48  C   UNL A   1      46.431  31.435  28.028  1.00  0.00     0.037 A 
ATOM     49  C   UNL A   1      45.420  25.146  26.631  1.00  0.00     0.049 A 
ATOM     50  C   UNL A   1      47.332  30.334  27.540  1.00  0.00     0.074 A 
ATOM     51  C   UNL A   1      46.318  24.236  26.099  1.00  0.00     0.029 A 
ATOM     52  N   UNL A   1      46.111  26.339  26.793  1.00  0.00    -0.354 N 
ATOM     53  N   UNL A   1      47.034  29.085  27.270  1.00  0.00    -0.248 NA
ATOM     54  C   UNL A   1      48.745  30.675  27.323  1.00  0.00     0.031 C 
ATOM     55  C   UNL A   1      47.563  24.864  25.989  1.00  0.00     0.029 A 
ATOM     56  C   UNL A   1      47.432  26.180  26.403  1.00  0.00     0.049 A 
ATOM     57  H   UNL A   1      45.720  27.175  27.135  1.00  0.00     0.167 HD
ATOM     58  C   UNL A   1      48.216  28.494  26.837  1.00  0.00     0.074 A 
ATOM     59  C   UNL A   1      49.233  29.526  26.869  1.00  0.00     0.031 C 
ATOM     60  C   UNL A   1      48.437  27.215  26.445  1.00  0.00     0.037 A 
BRANCH  47  61
ATOM     61  C   UNL A   1      43.465  23.556  26.867  1.00  0.00     0.058 A 
ATOM     62  C   UNL A   1      43.268  22.734  27.989  1.00  0.00     0.135 A 
ATOM     63  C   UNL A   1      43.112  23.040  25.610  1.00  0.00     0.135 A 
ATOM     64  F   UNL A   1      43.602  23.171  29.214  1.00  0.00    -0.206 F 
ATOM     65  C   UNL A   1      42.783  21.436  27.864  1.00  0.00     0.059 A 
ATOM     66  C   UNL A   1      42.599  21.755  25.463  1.00  0.00     0.059 A 
ATOM     67  F   UNL A   1      43.277  23.783  24.504  1.00  0.00    -0.206 F 
ATOM     68  C   UNL A   1      42.460  20.952  26.595  1.00  0.00     0.060 A 
BRANCH  68  69
ATOM     69  S   UNL A   1      41.866  19.254  26.440  1.00  0.00     0.124 S 
ATOM     70  O   UNL A   1      42.673  18.766  25.325  1.00  0.00    -0.237 OA
ATOM     71  O   UNL A   1      42.186  18.689  27.747  1.00  0.00    -0.237 OA
ATOM     72  O   UNL A   1      40.442  19.416  26.161  1.00  0.00    -0.744 OA
ENDBRANCH  68  69
ENDBRANCH  47  61
BRANCH  48  73
ATOM     73  C   UNL A   1      46.961  32.790  28.330  1.00  0.00     0.058 A 
ATOM     74  C   UNL A   1      47.472  33.109  29.595  1.00  0.00     0.135 A 
ATOM     75  C   UNL A   1      47.020  33.775  27.330  1.00  0.00     0.135 A 
ATOM     76  F   UNL A   1      47.426  32.204  30.585  1.00  0.00    -0.206 F 
ATOM     77  C   UNL A   1      48.034  34.354  29.859  1.00  0.00     0.059 A 
ATOM     78  C   UNL A   1      47.598  35.019  27.563  1.00  0.00     0.059 A 
ATOM     79  F   UNL A   1      46.552  33.514  26.101  1.00  0.00    -0.206 F 
ATOM     80  C   UNL A   1      48.105  35.298  28.831  1.00  0.00     0.060 A 
BRANCH  80  81
ATOM     81  S   UNL A   1      48.936  36.869  29.154  1.00  0.00     0.124 S 
ATOM     82  O   UNL A   1      47.897  37.829  28.803  1.00  0.00    -0.237 OA
ATOM     83  O   UNL A   1      49.253  36.759  30.574  1.00  0.00    -0.237 OA
ATOM     84  O   UNL A   1      50.088  36.826  28.259  1.00  0.00    -0.744 OA
ENDBRANCH  80  81
ENDBRANCH  48  73
BRANCH  60  85
ATOM     85  C   UNL A   1      49.828  26.853  25.997  1.00  0.00     0.058 A 
ATOM     86  C   UNL A   1      50.245  27.035  24.669  1.00  0.00     0.135 A 
ATOM     87  C   UNL A   1      50.773  26.382  26.922  1.00  0.00     0.135 A 
ATOM     88  F   UNL A   1      49.381  27.476  23.743  1.00  0.00    -0.206 F 
ATOM     89  C   UNL A   1      51.548  26.747  24.271  1.00  0.00     0.059 A 
ATOM     90  C   UNL A   1      52.087  26.112  26.552  1.00  0.00     0.059 A 
ATOM     91  F   UNL A   1      50.429  26.200  28.207  1.00  0.00    -0.206 F 
ATOM     92  C   UNL A   1      52.462  26.289  25.221  1.00  0.00     0.060 A 
BRANCH  92  93
ATOM     93  S   UNL A   1      54.161  25.959  24.703  1.00  0.00     0.124 S 
ATOM     94  O   UNL A   1      54.108  26.302  23.286  1.00  0.00    -0.237 OA
ATOM     95  O   UNL A   1      54.928  26.870  25.547  1.00  0.00    -0.237 OA
ATOM     96  O   UNL A   1      54.338  24.541  25.000  1.00  0.00    -0.744 OA
ENDBRANCH  92  93
ENDBRANCH  60  85
ENDBRANCH  34  35
ENDBRANCH  27  29
ENDBRANCH  26  27
ENDBRANCH  25  26
ENDBRANCH  24  25
ENDBRANCH  23  24
ENDBRANCH   1  23
TORSDOF 21
ENDMDL
