MODEL 1
REMARK VINA RESULT:     -10.5      0.000      0.000
REMARK SMILES CC(C)CCOc1ccccc1-c1cc(C(=O)OCCOCCOC(=O)c2ccc(-c3c4nc(c(-c5c(F)cc(S(=O)(=O)[O-])cc5F)c5ccc([nH]5)c(-c5c(F)cc(S(=O)(=O)[O-])cc5F)c5nc(c(-c6c(F)cc(S(=O)(=O)[O-])cc6F)c6ccc3[nH]6)C=C5)C=C4)cc2)no1
REMARK SMILES IDX 20 1 19 2 18 3 16 4 17 5 15 6 13 7 14 8 94 9 93 10 12 11
REMARK SMILES IDX 7 12 8 13 9 14 11 15 10 16 6 17 5 18 4 19 2 20 1 21 3 22
REMARK SMILES IDX 21 23 22 24 23 25 24 26 25 27 26 28 27 29 28 30 92 31 29 32
REMARK SMILES IDX 91 33 30 34 31 35 32 36 85 37 33 38 90 39 84 40 86 41 34 42
REMARK SMILES IDX 89 43 83 44 82 45 35 47 69 48 48 49 68 50 49 51 52 52 67 53
REMARK SMILES IDX 87 54 50 55 51 56 66 58 88 59 53 60 36 61 37 62 46 63 38 64
REMARK SMILES IDX 39 65 45 66 47 67 40 68 41 69 42 70 43 71 44 72 70 73 71 74
REMARK SMILES IDX 80 75 72 76 73 77 79 78 81 79 74 80 75 81 76 82 77 83 78 84
REMARK SMILES IDX 54 85 55 86 64 87 56 88 57 89 63 90 65 91 58 92 59 93 60 94
REMARK SMILES IDX 61 95 62 96
REMARK H PARENT 86 46 52 57
REMARK Flexibility Score: inf
ROOT
ATOM      1  C   UNL A   1      39.734  21.076  25.788  1.00  0.00     0.202 C 
ENDROOT
BRANCH   1   2
ATOM      2  C   UNL A   1      38.228  21.022  25.497  1.00  0.00     0.261 C 
BRANCH   2   3
ATOM      3  O   UNL A   1      37.754  22.244  24.921  1.00  0.00    -0.458 OA
BRANCH   3   4
ATOM      4  C   UNL A   1      37.355  23.208  25.802  1.00  0.00     0.360 C 
ATOM      5  O   UNL A   1      38.078  24.062  26.293  1.00  0.00    -0.244 OA
BRANCH   4   6
ATOM      6  C   UNL A   1      35.908  23.138  25.993  1.00  0.00     0.192 A 
ATOM      7  C   UNL A   1      33.172  24.118  25.929  1.00  0.00     0.171 A 
ATOM      8  C   UNL A   1      34.743  24.559  25.669  1.00  0.00     0.090 A 
ATOM      9  O   UNL A   1      33.196  22.347  26.581  1.00  0.00    -0.355 OA
ATOM     10  N   UNL A   1      35.114  21.782  26.579  1.00  0.00    -0.072 NA
BRANCH   7  11
ATOM     11  C   UNL A   1      31.942  24.521  25.262  1.00  0.00     0.062 A 
ATOM     12  C   UNL A   1      31.251  25.637  25.785  1.00  0.00     0.130 A 
ATOM     13  C   UNL A   1      30.185  26.193  25.089  1.00  0.00     0.047 A 
ATOM     14  C   UNL A   1      29.813  25.649  23.860  1.00  0.00     0.004 A 
ATOM     15  C   UNL A   1      31.559  23.974  24.039  1.00  0.00     0.016 A 
ATOM     16  C   UNL A   1      30.488  24.538  23.344  1.00  0.00     0.001 A 
BRANCH  12  17
ATOM     17  O   UNL A   1      31.582  26.180  27.007  1.00  0.00    -0.493 OA
BRANCH  17  18
ATOM     18  C   UNL A   1      31.353  27.598  27.099  1.00  0.00     0.230 C 
BRANCH  18  19
ATOM     19  C   UNL A   1      32.547  28.423  26.558  1.00  0.00     0.044 C 
BRANCH  19  20
ATOM     20  C   UNL A   1      32.359  30.094  26.906  1.00  0.00    -0.014 C 
ATOM     21  C   UNL A   1      33.971  30.440  27.511  1.00  0.00     0.007 C 
ATOM     22  C   UNL A   1      31.041  31.690  26.006  1.00  0.00     0.007 C 
ENDBRANCH  19  20
ENDBRANCH  18  19
ENDBRANCH  17  18
ENDBRANCH  12  17
ENDBRANCH   7  11
ENDBRANCH   4   6
ENDBRANCH   3   4
ENDBRANCH   2   3
ENDBRANCH   1   2
BRANCH   1  23
ATOM     23  O   UNL A   1      40.150  21.198  27.147  1.00  0.00    -0.374 OA
BRANCH  23  24
ATOM     24  C   UNL A   1      41.540  21.357  27.422  1.00  0.00     0.202 C 
BRANCH  24  25
ATOM     25  C   UNL A   1      42.415  22.152  26.446  1.00  0.00     0.261 C 
BRANCH  25  26
ATOM     26  O   UNL A   1      42.989  23.327  27.039  1.00  0.00    -0.460 OA
BRANCH  26  27
ATOM     27  C   UNL A   1      42.815  24.443  26.291  1.00  0.00     0.338 C 
ATOM     28  O   UNL A   1      43.028  24.565  25.096  1.00  0.00    -0.246 OA
BRANCH  27  29
ATOM     29  C   UNL A   1      42.141  25.494  27.072  1.00  0.00     0.060 A 
ATOM     30  C   UNL A   1      42.773  26.743  27.125  1.00  0.00     0.016 A 
ATOM     31  C   UNL A   1      41.007  25.233  27.844  1.00  0.00     0.016 A 
ATOM     32  C   UNL A   1      42.341  27.700  28.033  1.00  0.00     0.010 A 
ATOM     33  C   UNL A   1      40.570  26.202  28.753  1.00  0.00     0.010 A 
ATOM     34  C   UNL A   1      41.279  27.409  28.899  1.00  0.00    -0.014 A 
BRANCH  34  35
ATOM     35  C   UNL A   1      41.060  28.285  30.077  1.00  0.00     0.031 A 
ATOM     36  C   UNL A   1      41.970  28.141  31.271  1.00  0.00     0.074 A 
ATOM     37  C   UNL A   1      40.116  29.242  30.054  1.00  0.00     0.049 A 
ATOM     38  N   UNL A   1      41.971  28.805  32.398  1.00  0.00    -0.248 NA
ATOM     39  C   UNL A   1      43.013  27.107  31.185  1.00  0.00     0.031 C 
ATOM     40  C   UNL A   1      39.206  29.502  28.940  1.00  0.00     0.029 A 
ATOM     41  N   UNL A   1      39.771  30.177  30.998  1.00  0.00    -0.354 N 
ATOM     42  C   UNL A   1      43.001  28.260  33.158  1.00  0.00     0.074 A 
ATOM     43  C   UNL A   1      43.574  27.182  32.382  1.00  0.00     0.031 C 
ATOM     44  C   UNL A   1      38.404  30.530  29.264  1.00  0.00     0.029 A 
ATOM     45  C   UNL A   1      38.720  30.976  30.619  1.00  0.00     0.049 A 
ATOM     46  H   UNL A   1      40.233  30.265  31.863  1.00  0.00     0.167 HD
ATOM     47  C   UNL A   1      43.440  28.633  34.384  1.00  0.00     0.037 A 
ATOM     48  C   UNL A   1      38.076  31.945  31.298  1.00  0.00     0.037 A 
ATOM     49  C   UNL A   1      42.864  29.712  35.148  1.00  0.00     0.049 A 
ATOM     50  C   UNL A   1      38.545  32.309  32.683  1.00  0.00     0.074 A 
ATOM     51  C   UNL A   1      43.243  30.184  36.392  1.00  0.00     0.029 A 
ATOM     52  N   UNL A   1      41.782  30.481  34.743  1.00  0.00    -0.354 N 
ATOM     53  N   UNL A   1      39.529  31.796  33.385  1.00  0.00    -0.248 NA
ATOM     54  C   UNL A   1      37.825  33.392  33.363  1.00  0.00     0.031 C 
ATOM     55  C   UNL A   1      42.347  31.189  36.770  1.00  0.00     0.029 A 
ATOM     56  C   UNL A   1      41.464  31.406  35.725  1.00  0.00     0.049 A 
ATOM     57  H   UNL A   1      41.310  30.385  33.883  1.00  0.00     0.167 HD
ATOM     58  C   UNL A   1      39.574  32.526  34.569  1.00  0.00     0.074 A 
ATOM     59  C   UNL A   1      38.522  33.518  34.483  1.00  0.00     0.031 C 
ATOM     60  C   UNL A   1      40.416  32.393  35.627  1.00  0.00     0.037 A 
BRANCH  47  61
ATOM     61  C   UNL A   1      44.570  27.844  34.994  1.00  0.00     0.058 A 
ATOM     62  C   UNL A   1      45.916  28.214  34.834  1.00  0.00     0.135 A 
ATOM     63  C   UNL A   1      44.300  26.706  35.773  1.00  0.00     0.135 A 
ATOM     64  F   UNL A   1      46.240  29.283  34.088  1.00  0.00    -0.206 F 
ATOM     65  C   UNL A   1      46.950  27.468  35.390  1.00  0.00     0.059 A 
ATOM     66  C   UNL A   1      45.316  25.965  36.370  1.00  0.00     0.059 A 
ATOM     67  F   UNL A   1      43.034  26.300  35.961  1.00  0.00    -0.206 F 
ATOM     68  C   UNL A   1      46.640  26.344  36.157  1.00  0.00     0.060 A 
BRANCH  68  69
ATOM     69  S   UNL A   1      47.993  25.385  36.871  1.00  0.00     0.124 S 
ATOM     70  O   UNL A   1      49.094  25.725  35.975  1.00  0.00    -0.237 OA
ATOM     71  O   UNL A   1      48.082  25.930  38.221  1.00  0.00    -0.237 OA
ATOM     72  O   UNL A   1      47.519  24.007  36.782  1.00  0.00    -0.744 OA
ENDBRANCH  68  69
ENDBRANCH  47  61
BRANCH  48  73
ATOM     73  C   UNL A   1      36.920  32.642  30.673  1.00  0.00     0.058 A 
ATOM     74  C   UNL A   1      35.601  32.226  30.908  1.00  0.00     0.135 A 
ATOM     75  C   UNL A   1      37.114  33.750  29.831  1.00  0.00     0.135 A 
ATOM     76  F   UNL A   1      35.362  31.166  31.696  1.00  0.00    -0.206 F 
ATOM     77  C   UNL A   1      34.518  32.872  30.321  1.00  0.00     0.059 A 
ATOM     78  C   UNL A   1      36.045  34.432  29.260  1.00  0.00     0.059 A 
ATOM     79  F   UNL A   1      38.355  34.197  29.582  1.00  0.00    -0.206 F 
ATOM     80  C   UNL A   1      34.750  33.980  29.504  1.00  0.00     0.060 A 
BRANCH  80  81
ATOM     81  S   UNL A   1      33.332  34.849  28.801  1.00  0.00     0.124 S 
ATOM     82  O   UNL A   1      32.532  35.117  29.990  1.00  0.00    -0.237 OA
ATOM     83  O   UNL A   1      33.965  36.008  28.180  1.00  0.00    -0.237 OA
ATOM     84  O   UNL A   1      32.771  33.876  27.868  1.00  0.00    -0.744 OA
ENDBRANCH  80  81
ENDBRANCH  48  73
BRANCH  60  85
ATOM     85  C   UNL A   1      40.281  33.391  36.749  1.00  0.00     0.058 A 
ATOM     86  C   UNL A   1      41.079  34.543  36.834  1.00  0.00     0.135 A 
ATOM     87  C   UNL A   1      39.316  33.193  37.753  1.00  0.00     0.135 A 
ATOM     88  F   UNL A   1      42.017  34.787  35.905  1.00  0.00    -0.206 F 
ATOM     89  C   UNL A   1      40.962  35.433  37.899  1.00  0.00     0.059 A 
ATOM     90  C   UNL A   1      39.154  34.090  38.803  1.00  0.00     0.059 A 
ATOM     91  F   UNL A   1      38.512  32.118  37.715  1.00  0.00    -0.206 F 
ATOM     92  C   UNL A   1      39.998  35.195  38.880  1.00  0.00     0.060 A 
BRANCH  92  93
ATOM     93  S   UNL A   1      39.863  36.350  40.261  1.00  0.00     0.124 S 
ATOM     94  O   UNL A   1      39.027  37.399  39.685  1.00  0.00    -0.237 OA
ATOM     95  O   UNL A   1      39.231  35.530  41.291  1.00  0.00    -0.237 OA
ATOM     96  O   UNL A   1      41.247  36.726  40.529  1.00  0.00    -0.744 OA
ENDBRANCH  92  93
ENDBRANCH  60  85
ENDBRANCH  34  35
ENDBRANCH  27  29
ENDBRANCH  26  27
ENDBRANCH  25  26
ENDBRANCH  24  25
ENDBRANCH  23  24
ENDBRANCH   1  23
TORSDOF 22
ENDMDL
MODEL 2
REMARK VINA RESULT:      -9.9      1.226      8.283
REMARK SMILES CC(C)CCOc1ccccc1-c1cc(C(=O)OCCOCCOC(=O)c2ccc(-c3c4nc(c(-c5c(F)cc(S(=O)(=O)[O-])cc5F)c5ccc([nH]5)c(-c5c(F)cc(S(=O)(=O)[O-])cc5F)c5nc(c(-c6c(F)cc(S(=O)(=O)[O-])cc6F)c6ccc3[nH]6)C=C5)C=C4)cc2)no1
REMARK SMILES IDX 20 1 19 2 18 3 16 4 17 5 15 6 13 7 14 8 94 9 93 10 12 11
REMARK SMILES IDX 7 12 8 13 9 14 11 15 10 16 6 17 5 18 4 19 2 20 1 21 3 22
REMARK SMILES IDX 21 23 22 24 23 25 24 26 25 27 26 28 27 29 28 30 92 31 29 32
REMARK SMILES IDX 91 33 30 34 31 35 32 36 85 37 33 38 90 39 84 40 86 41 34 42
REMARK SMILES IDX 89 43 83 44 82 45 35 47 69 48 48 49 68 50 49 51 52 52 67 53
REMARK SMILES IDX 87 54 50 55 51 56 66 58 88 59 53 60 36 61 37 62 46 63 38 64
REMARK SMILES IDX 39 65 45 66 47 67 40 68 41 69 42 70 43 71 44 72 70 73 71 74
REMARK SMILES IDX 80 75 72 76 73 77 79 78 81 79 74 80 75 81 76 82 77 83 78 84
REMARK SMILES IDX 54 85 55 86 64 87 56 88 57 89 63 90 65 91 58 92 59 93 60 94
REMARK SMILES IDX 61 95 62 96
REMARK H PARENT 86 46 52 57
REMARK Flexibility Score: inf
ROOT
ATOM      1  C   UNL A   1      39.840  22.037  26.794  1.00  0.00     0.202 C 
ENDROOT
BRANCH   1   2
ATOM      2  C   UNL A   1      38.626  22.790  26.232  1.00  0.00     0.261 C 
BRANCH   2   3
ATOM      3  O   UNL A   1      37.535  21.904  25.953  1.00  0.00    -0.458 OA
BRANCH   3   4
ATOM      4  C   UNL A   1      36.844  22.148  24.801  1.00  0.00     0.360 C 
ATOM      5  O   UNL A   1      37.333  22.215  23.682  1.00  0.00    -0.244 OA
BRANCH   4   6
ATOM      6  C   UNL A   1      35.413  22.213  25.084  1.00  0.00     0.192 A 
ATOM      7  C   UNL A   1      32.940  23.441  25.995  1.00  0.00     0.171 A 
ATOM      8  C   UNL A   1      34.571  23.678  25.876  1.00  0.00     0.090 A 
ATOM      9  O   UNL A   1      32.589  21.693  25.376  1.00  0.00    -0.355 OA
ATOM     10  N   UNL A   1      34.348  20.953  24.778  1.00  0.00    -0.072 NA
BRANCH   7  11
ATOM     11  C   UNL A   1      31.828  24.376  25.892  1.00  0.00     0.062 A 
ATOM     12  C   UNL A   1      31.957  25.445  24.977  1.00  0.00     0.130 A 
ATOM     13  C   UNL A   1      30.868  26.255  24.685  1.00  0.00     0.047 A 
ATOM     14  C   UNL A   1      29.640  25.995  25.293  1.00  0.00     0.004 A 
ATOM     15  C   UNL A   1      30.603  24.126  26.505  1.00  0.00     0.016 A 
ATOM     16  C   UNL A   1      29.511  24.944  26.208  1.00  0.00     0.001 A 
BRANCH  12  17
ATOM     17  O   UNL A   1      33.164  25.739  24.380  1.00  0.00    -0.493 OA
BRANCH  17  18
ATOM     18  C   UNL A   1      33.666  27.052  24.693  1.00  0.00     0.230 C 
BRANCH  18  19
ATOM     19  C   UNL A   1      33.952  27.227  26.205  1.00  0.00     0.044 C 
BRANCH  19  20
ATOM     20  C   UNL A   1      33.382  28.743  26.775  1.00  0.00    -0.014 C 
ATOM     21  C   UNL A   1      31.871  28.222  27.503  1.00  0.00     0.007 C 
ATOM     22  C   UNL A   1      34.458  30.613  27.439  1.00  0.00     0.007 C 
ENDBRANCH  19  20
ENDBRANCH  18  19
ENDBRANCH  17  18
ENDBRANCH  12  17
ENDBRANCH   7  11
ENDBRANCH   4   6
ENDBRANCH   3   4
ENDBRANCH   2   3
ENDBRANCH   1   2
BRANCH   1  23
ATOM     23  O   UNL A   1      40.838  21.595  25.876  1.00  0.00    -0.374 OA
BRANCH  23  24
ATOM     24  C   UNL A   1      42.203  21.893  26.158  1.00  0.00     0.202 C 
BRANCH  24  25
ATOM     25  C   UNL A   1      42.835  23.161  25.571  1.00  0.00     0.261 C 
BRANCH  25  26
ATOM     26  O   UNL A   1      42.248  24.368  26.082  1.00  0.00    -0.460 OA
BRANCH  26  27
ATOM     27  C   UNL A   1      43.137  25.169  26.716  1.00  0.00     0.338 C 
ATOM     28  O   UNL A   1      44.344  25.210  26.537  1.00  0.00    -0.246 OA
BRANCH  27  29
ATOM     29  C   UNL A   1      42.442  26.158  27.556  1.00  0.00     0.060 A 
ATOM     30  C   UNL A   1      42.976  27.452  27.578  1.00  0.00     0.016 A 
ATOM     31  C   UNL A   1      41.391  25.803  28.405  1.00  0.00     0.016 A 
ATOM     32  C   UNL A   1      42.538  28.366  28.527  1.00  0.00     0.010 A 
ATOM     33  C   UNL A   1      40.948  26.728  29.355  1.00  0.00     0.010 A 
ATOM     34  C   UNL A   1      41.569  27.986  29.465  1.00  0.00    -0.014 A 
BRANCH  34  35
ATOM     35  C   UNL A   1      41.369  28.834  30.666  1.00  0.00     0.031 A 
ATOM     36  C   UNL A   1      40.231  29.823  30.679  1.00  0.00     0.074 A 
ATOM     37  C   UNL A   1      42.140  28.674  31.756  1.00  0.00     0.049 A 
ATOM     38  N   UNL A   1      39.862  30.653  31.620  1.00  0.00    -0.248 NA
ATOM     39  C   UNL A   1      39.401  29.890  29.464  1.00  0.00     0.031 C 
ATOM     40  C   UNL A   1      43.243  27.722  31.875  1.00  0.00     0.029 A 
ATOM     41  N   UNL A   1      42.109  29.308  32.972  1.00  0.00    -0.354 N 
ATOM     42  C   UNL A   1      38.771  31.348  31.108  1.00  0.00     0.074 A 
ATOM     43  C   UNL A   1      38.565  30.874  29.757  1.00  0.00     0.031 C 
ATOM     44  C   UNL A   1      43.785  27.834  33.099  1.00  0.00     0.029 A 
ATOM     45  C   UNL A   1      43.091  28.889  33.835  1.00  0.00     0.049 A 
ATOM     46  H   UNL A   1      41.445  29.998  33.203  1.00  0.00     0.167 HD
ATOM     47  C   UNL A   1      38.001  32.285  31.712  1.00  0.00     0.037 A 
ATOM     48  C   UNL A   1      43.405  29.321  35.072  1.00  0.00     0.037 A 
ATOM     49  C   UNL A   1      38.213  32.747  33.061  1.00  0.00     0.049 A 
ATOM     50  C   UNL A   1      42.570  30.402  35.707  1.00  0.00     0.074 A 
ATOM     51  C   UNL A   1      37.482  33.680  33.777  1.00  0.00     0.029 A 
ATOM     52  N   UNL A   1      39.237  32.318  33.896  1.00  0.00    -0.354 N 
ATOM     53  N   UNL A   1      41.532  31.041  35.218  1.00  0.00    -0.248 NA
ATOM     54  C   UNL A   1      42.940  30.812  37.067  1.00  0.00     0.031 C 
ATOM     55  C   UNL A   1      38.105  33.866  35.016  1.00  0.00     0.029 A 
ATOM     56  C   UNL A   1      39.172  32.987  35.108  1.00  0.00     0.049 A 
ATOM     57  H   UNL A   1      39.909  31.638  33.661  1.00  0.00     0.167 HD
ATOM     58  C   UNL A   1      41.099  31.895  36.228  1.00  0.00     0.074 A 
ATOM     59  C   UNL A   1      41.984  31.684  37.355  1.00  0.00     0.031 C 
ATOM     60  C   UNL A   1      40.057  32.766  36.227  1.00  0.00     0.037 A 
BRANCH  47  61
ATOM     61  C   UNL A   1      36.886  32.901  30.908  1.00  0.00     0.058 A 
ATOM     62  C   UNL A   1      37.108  33.944  29.993  1.00  0.00     0.135 A 
ATOM     63  C   UNL A   1      35.571  32.424  31.040  1.00  0.00     0.135 A 
ATOM     64  F   UNL A   1      38.340  34.454  29.834  1.00  0.00    -0.206 F 
ATOM     65  C   UNL A   1      36.065  34.514  29.269  1.00  0.00     0.059 A 
ATOM     66  C   UNL A   1      34.518  32.955  30.299  1.00  0.00     0.059 A 
ATOM     67  F   UNL A   1      35.295  31.431  31.900  1.00  0.00    -0.206 F 
ATOM     68  C   UNL A   1      34.773  34.012  29.429  1.00  0.00     0.060 A 
BRANCH  68  69
ATOM     69  S   UNL A   1      33.432  34.764  28.483  1.00  0.00     0.124 S 
ATOM     70  O   UNL A   1      32.620  35.350  29.545  1.00  0.00    -0.237 OA
ATOM     71  O   UNL A   1      34.144  35.712  27.633  1.00  0.00    -0.237 OA
ATOM     72  O   UNL A   1      32.828  33.631  27.788  1.00  0.00    -0.744 OA
ENDBRANCH  68  69
ENDBRANCH  47  61
BRANCH  48  73
ATOM     73  C   UNL A   1      44.563  28.725  35.791  1.00  0.00     0.058 A 
ATOM     74  C   UNL A   1      45.864  29.223  35.624  1.00  0.00     0.135 A 
ATOM     75  C   UNL A   1      44.387  27.645  36.672  1.00  0.00     0.135 A 
ATOM     76  F   UNL A   1      46.087  30.247  34.785  1.00  0.00    -0.206 F 
ATOM     77  C   UNL A   1      46.949  28.666  36.291  1.00  0.00     0.059 A 
ATOM     78  C   UNL A   1      45.452  27.092  37.376  1.00  0.00     0.059 A 
ATOM     79  F   UNL A   1      43.161  27.137  36.879  1.00  0.00    -0.206 F 
ATOM     80  C   UNL A   1      46.732  27.605  37.172  1.00  0.00     0.060 A 
BRANCH  80  81
ATOM     81  S   UNL A   1      48.139  26.932  38.080  1.00  0.00     0.124 S 
ATOM     82  O   UNL A   1      49.034  26.548  36.995  1.00  0.00    -0.237 OA
ATOM     83  O   UNL A   1      48.559  28.077  38.881  1.00  0.00    -0.237 OA
ATOM     84  O   UNL A   1      47.554  25.828  38.836  1.00  0.00    -0.744 OA
ENDBRANCH  80  81
ENDBRANCH  48  73
BRANCH  60  85
ATOM     85  C   UNL A   1      39.771  33.508  37.508  1.00  0.00     0.058 A 
ATOM     86  C   UNL A   1      38.856  33.038  38.464  1.00  0.00     0.135 A 
ATOM     87  C   UNL A   1      40.446  34.709  37.789  1.00  0.00     0.135 A 
ATOM     88  F   UNL A   1      38.182  31.896  38.252  1.00  0.00    -0.206 F 
ATOM     89  C   UNL A   1      38.581  33.757  39.623  1.00  0.00     0.059 A 
ATOM     90  C   UNL A   1      40.217  35.423  38.960  1.00  0.00     0.059 A 
ATOM     91  F   UNL A   1      41.346  35.199  36.921  1.00  0.00    -0.206 F 
ATOM     92  C   UNL A   1      39.265  34.950  39.861  1.00  0.00     0.060 A 
BRANCH  92  93
ATOM     93  S   UNL A   1      38.893  35.879  41.363  1.00  0.00     0.124 S 
ATOM     94  O   UNL A   1      37.541  35.419  41.666  1.00  0.00    -0.237 OA
ATOM     95  O   UNL A   1      39.937  35.424  42.277  1.00  0.00    -0.237 OA
ATOM     96  O   UNL A   1      39.002  37.272  40.940  1.00  0.00    -0.744 OA
ENDBRANCH  92  93
ENDBRANCH  60  85
ENDBRANCH  34  35
ENDBRANCH  27  29
ENDBRANCH  26  27
ENDBRANCH  25  26
ENDBRANCH  24  25
ENDBRANCH  23  24
ENDBRANCH   1  23
TORSDOF 22
ENDMDL
MODEL 3
REMARK VINA RESULT:      -9.7      6.162     12.329
REMARK SMILES CC(C)CCOc1ccccc1-c1cc(C(=O)OCCOCCOC(=O)c2ccc(-c3c4nc(c(-c5c(F)cc(S(=O)(=O)[O-])cc5F)c5ccc([nH]5)c(-c5c(F)cc(S(=O)(=O)[O-])cc5F)c5nc(c(-c6c(F)cc(S(=O)(=O)[O-])cc6F)c6ccc3[nH]6)C=C5)C=C4)cc2)no1
REMARK SMILES IDX 20 1 19 2 18 3 16 4 17 5 15 6 13 7 14 8 94 9 93 10 12 11
REMARK SMILES IDX 7 12 8 13 9 14 11 15 10 16 6 17 5 18 4 19 2 20 1 21 3 22
REMARK SMILES IDX 21 23 22 24 23 25 24 26 25 27 26 28 27 29 28 30 92 31 29 32
REMARK SMILES IDX 91 33 30 34 31 35 32 36 85 37 33 38 90 39 84 40 86 41 34 42
REMARK SMILES IDX 89 43 83 44 82 45 35 47 69 48 48 49 68 50 49 51 52 52 67 53
REMARK SMILES IDX 87 54 50 55 51 56 66 58 88 59 53 60 36 61 37 62 46 63 38 64
REMARK SMILES IDX 39 65 45 66 47 67 40 68 41 69 42 70 43 71 44 72 70 73 71 74
REMARK SMILES IDX 80 75 72 76 73 77 79 78 81 79 74 80 75 81 76 82 77 83 78 84
REMARK SMILES IDX 54 85 55 86 64 87 56 88 57 89 63 90 65 91 58 92 59 93 60 94
REMARK SMILES IDX 61 95 62 96
REMARK H PARENT 86 46 52 57
REMARK Flexibility Score: inf
ROOT
ATOM      1  C   UNL A   1      34.723  36.184  32.668  1.00  0.00     0.202 C 
ENDROOT
BRANCH   1   2
ATOM      2  C   UNL A   1      33.345  36.203  31.992  1.00  0.00     0.261 C 
BRANCH   2   3
ATOM      3  O   UNL A   1      32.997  34.920  31.460  1.00  0.00    -0.458 OA
BRANCH   3   4
ATOM      4  C   UNL A   1      33.225  34.741  30.125  1.00  0.00     0.360 C 
ATOM      5  O   UNL A   1      32.528  35.183  29.223  1.00  0.00    -0.244 OA
BRANCH   4   6
ATOM      6  C   UNL A   1      34.487  34.033  29.927  1.00  0.00     0.192 A 
ATOM      7  C   UNL A   1      36.394  31.865  30.263  1.00  0.00     0.171 A 
ATOM      8  C   UNL A   1      34.918  32.417  30.756  1.00  0.00     0.090 A 
ATOM      9  O   UNL A   1      37.124  33.179  29.122  1.00  0.00    -0.355 OA
ATOM     10  N   UNL A   1      35.733  34.609  28.965  1.00  0.00    -0.072 NA
BRANCH   7  11
ATOM     11  C   UNL A   1      36.887  30.511  30.051  1.00  0.00     0.062 A 
ATOM     12  C   UNL A   1      36.790  29.979  28.745  1.00  0.00     0.130 A 
ATOM     13  C   UNL A   1      37.412  28.778  28.428  1.00  0.00     0.047 A 
ATOM     14  C   UNL A   1      38.146  28.109  29.407  1.00  0.00     0.004 A 
ATOM     15  C   UNL A   1      37.611  29.833  31.029  1.00  0.00     0.016 A 
ATOM     16  C   UNL A   1      38.235  28.627  30.704  1.00  0.00     0.001 A 
BRANCH  12  17
ATOM     17  O   UNL A   1      36.053  30.606  27.766  1.00  0.00    -0.493 OA
BRANCH  17  18
ATOM     18  C   UNL A   1      34.714  30.096  27.625  1.00  0.00     0.230 C 
BRANCH  18  19
ATOM     19  C   UNL A   1      34.526  29.293  26.313  1.00  0.00     0.044 C 
BRANCH  19  20
ATOM     20  C   UNL A   1      33.186  28.224  26.424  1.00  0.00    -0.014 C 
ATOM     21  C   UNL A   1      33.953  26.750  25.854  1.00  0.00     0.007 C 
ATOM     22  C   UNL A   1      31.377  28.198  27.772  1.00  0.00     0.007 C 
ENDBRANCH  19  20
ENDBRANCH  18  19
ENDBRANCH  17  18
ENDBRANCH  12  17
ENDBRANCH   7  11
ENDBRANCH   4   6
ENDBRANCH   3   4
ENDBRANCH   2   3
ENDBRANCH   1   2
BRANCH   1  23
ATOM     23  O   UNL A   1      34.870  35.428  33.868  1.00  0.00    -0.374 OA
BRANCH  23  24
ATOM     24  C   UNL A   1      35.734  34.294  33.857  1.00  0.00     0.202 C 
BRANCH  24  25
ATOM     25  C   UNL A   1      37.060  34.364  33.090  1.00  0.00     0.261 C 
BRANCH  25  26
ATOM     26  O   UNL A   1      37.755  33.107  33.056  1.00  0.00    -0.460 OA
BRANCH  26  27
ATOM     27  C   UNL A   1      39.096  33.233  33.199  1.00  0.00     0.338 C 
ATOM     28  O   UNL A   1      39.685  33.884  34.046  1.00  0.00    -0.246 OA
BRANCH  27  29
ATOM     29  C   UNL A   1      39.805  32.316  32.291  1.00  0.00     0.060 A 
ATOM     30  C   UNL A   1      40.490  31.248  32.885  1.00  0.00     0.016 A 
ATOM     31  C   UNL A   1      39.919  32.567  30.922  1.00  0.00     0.016 A 
ATOM     32  C   UNL A   1      41.381  30.494  32.133  1.00  0.00     0.010 A 
ATOM     33  C   UNL A   1      40.812  31.802  30.167  1.00  0.00     0.010 A 
ATOM     34  C   UNL A   1      41.597  30.810  30.785  1.00  0.00    -0.014 A 
BRANCH  34  35
ATOM     35  C   UNL A   1      42.783  30.238  30.101  1.00  0.00     0.031 A 
ATOM     36  C   UNL A   1      44.044  31.061  30.016  1.00  0.00     0.074 A 
ATOM     37  C   UNL A   1      42.762  28.979  29.629  1.00  0.00     0.049 A 
ATOM     38  N   UNL A   1      45.198  30.760  29.479  1.00  0.00    -0.248 NA
ATOM     39  C   UNL A   1      43.994  32.407  30.612  1.00  0.00     0.031 C 
ATOM     40  C   UNL A   1      41.615  28.075  29.691  1.00  0.00     0.029 A 
ATOM     41  N   UNL A   1      43.739  28.243  29.008  1.00  0.00    -0.354 N 
ATOM     42  C   UNL A   1      46.003  31.880  29.658  1.00  0.00     0.074 A 
ATOM     43  C   UNL A   1      45.193  32.882  30.314  1.00  0.00     0.031 C 
ATOM     44  C   UNL A   1      41.954  26.902  29.129  1.00  0.00     0.029 A 
ATOM     45  C   UNL A   1      43.328  26.986  28.637  1.00  0.00     0.049 A 
ATOM     46  H   UNL A   1      44.648  28.584  28.843  1.00  0.00     0.167 HD
ATOM     47  C   UNL A   1      47.304  32.053  29.321  1.00  0.00     0.037 A 
ATOM     48  C   UNL A   1      43.981  26.021  27.961  1.00  0.00     0.037 A 
ATOM     49  C   UNL A   1      48.104  31.044  28.670  1.00  0.00     0.049 A 
ATOM     50  C   UNL A   1      45.411  26.253  27.547  1.00  0.00     0.074 A 
ATOM     51  C   UNL A   1      49.436  31.109  28.300  1.00  0.00     0.029 A 
ATOM     52  N   UNL A   1      47.643  29.792  28.286  1.00  0.00    -0.354 N 
ATOM     53  N   UNL A   1      46.166  27.310  27.735  1.00  0.00    -0.248 NA
ATOM     54  C   UNL A   1      46.081  25.154  26.841  1.00  0.00     0.031 C 
ATOM     55  C   UNL A   1      49.760  29.925  27.629  1.00  0.00     0.029 A 
ATOM     56  C   UNL A   1      48.658  29.086  27.658  1.00  0.00     0.049 A 
ATOM     57  H   UNL A   1      46.731  29.455  28.437  1.00  0.00     0.167 HD
ATOM     58  C   UNL A   1      47.414  26.985  27.210  1.00  0.00     0.074 A 
ATOM     59  C   UNL A   1      47.310  25.632  26.705  1.00  0.00     0.031 C 
ATOM     60  C   UNL A   1      48.545  27.736  27.162  1.00  0.00     0.037 A 
BRANCH  47  61
ATOM     61  C   UNL A   1      47.932  33.392  29.610  1.00  0.00     0.058 A 
ATOM     62  C   UNL A   1      48.608  33.659  30.813  1.00  0.00     0.135 A 
ATOM     63  C   UNL A   1      47.875  34.422  28.656  1.00  0.00     0.135 A 
ATOM     64  F   UNL A   1      48.682  32.720  31.771  1.00  0.00    -0.206 F 
ATOM     65  C   UNL A   1      49.169  34.906  31.073  1.00  0.00     0.059 A 
ATOM     66  C   UNL A   1      48.462  35.665  28.880  1.00  0.00     0.059 A 
ATOM     67  F   UNL A   1      47.241  34.228  27.488  1.00  0.00    -0.206 F 
ATOM     68  C   UNL A   1      49.091  35.902  30.099  1.00  0.00     0.060 A 
BRANCH  68  69
ATOM     69  S   UNL A   1      49.824  37.514  30.453  1.00  0.00     0.124 S 
ATOM     70  O   UNL A   1      48.879  38.413  29.797  1.00  0.00    -0.237 OA
ATOM     71  O   UNL A   1      49.818  37.544  31.912  1.00  0.00    -0.237 OA
ATOM     72  O   UNL A   1      51.143  37.433  29.834  1.00  0.00    -0.744 OA
ENDBRANCH  68  69
ENDBRANCH  47  61
BRANCH  48  73
ATOM     73  C   UNL A   1      43.286  24.745  27.640  1.00  0.00     0.058 A 
ATOM     74  C   UNL A   1      43.167  23.718  28.588  1.00  0.00     0.135 A 
ATOM     75  C   UNL A   1      42.716  24.532  26.374  1.00  0.00     0.135 A 
ATOM     76  F   UNL A   1      43.703  23.868  29.809  1.00  0.00    -0.206 F 
ATOM     77  C   UNL A   1      42.522  22.523  28.291  1.00  0.00     0.059 A 
ATOM     78  C   UNL A   1      42.038  23.359  26.064  1.00  0.00     0.059 A 
ATOM     79  F   UNL A   1      42.790  25.487  25.433  1.00  0.00    -0.206 F 
ATOM     80  C   UNL A   1      41.953  22.355  27.027  1.00  0.00     0.060 A 
BRANCH  80  81
ATOM     81  S   UNL A   1      41.063  20.825  26.674  1.00  0.00     0.124 S 
ATOM     82  O   UNL A   1      39.764  21.332  26.247  1.00  0.00    -0.237 OA
ATOM     83  O   UNL A   1      41.890  20.227  25.631  1.00  0.00    -0.237 OA
ATOM     84  O   UNL A   1      41.078  20.125  27.955  1.00  0.00    -0.744 OA
ENDBRANCH  80  81
ENDBRANCH  48  73
BRANCH  60  85
ATOM     85  C   UNL A   1      49.785  27.085  26.603  1.00  0.00     0.058 A 
ATOM     86  C   UNL A   1      50.128  27.157  25.243  1.00  0.00     0.135 A 
ATOM     87  C   UNL A   1      50.658  26.389  27.457  1.00  0.00     0.135 A 
ATOM     88  F   UNL A   1      49.334  27.810  24.379  1.00  0.00    -0.206 F 
ATOM     89  C   UNL A   1      51.258  26.519  24.742  1.00  0.00     0.059 A 
ATOM     90  C   UNL A   1      51.816  25.779  26.986  1.00  0.00     0.059 A 
ATOM     91  F   UNL A   1      50.393  26.301  28.771  1.00  0.00    -0.206 F 
ATOM     92  C   UNL A   1      52.095  25.830  25.622  1.00  0.00     0.060 A 
BRANCH  92  93
ATOM     93  S   UNL A   1      53.554  24.998  24.959  1.00  0.00     0.124 S 
ATOM     94  O   UNL A   1      53.460  25.326  23.540  1.00  0.00    -0.237 OA
ATOM     95  O   UNL A   1      54.639  25.646  25.689  1.00  0.00    -0.237 OA
ATOM     96  O   UNL A   1      53.329  23.595  25.296  1.00  0.00    -0.744 OA
ENDBRANCH  92  93
ENDBRANCH  60  85
ENDBRANCH  34  35
ENDBRANCH  27  29
ENDBRANCH  26  27
ENDBRANCH  25  26
ENDBRANCH  24  25
ENDBRANCH  23  24
ENDBRANCH   1  23
TORSDOF 22
ENDMDL
