MODEL 1
REMARK VINA RESULT:      -9.8      0.000      0.000
REMARK SMILES C[C@@H](Oc1ccc(C=C(C#N)C#N)cc1)C(=O)OCCOCCOC(=O)c1ccc(-c2c3nc(c(-c4c(F)cc(S(=O)(=O)[O-])cc4F)c4ccc([nH]4)c(-c4c(F)cc(S(=O)(=O)[O-])cc4F)c4nc(c(-c5c(F)cc(S(=O)(=O)[O-])cc5F)c5ccc2[nH]5)C=C4)C=C3)cc1
REMARK SMILES IDX 20 1 19 2 18 3 16 4 17 5 2 6 1 7 3 8 4 9 5 10 15 11 6 12
REMARK SMILES IDX 14 13 7 14 8 15 9 16 10 17 11 18 12 19 13 20 21 21 22 22
REMARK SMILES IDX 23 23 24 24 25 25 26 26 27 27 28 28 92 29 29 30 91 31 30 32
REMARK SMILES IDX 31 33 32 34 85 35 33 36 90 37 84 38 86 39 34 40 89 41 83 42
REMARK SMILES IDX 82 43 35 45 69 46 48 47 68 48 49 49 52 50 67 51 87 52 50 53
REMARK SMILES IDX 51 54 66 56 88 57 53 58 36 59 37 60 46 61 38 62 39 63 45 64
REMARK SMILES IDX 47 65 40 66 41 67 42 68 43 69 44 70 70 71 71 72 80 73 72 74
REMARK SMILES IDX 73 75 79 76 81 77 74 78 75 79 76 80 77 81 78 82 54 83 55 84
REMARK SMILES IDX 64 85 56 86 57 87 63 88 65 89 58 90 59 91 60 92 61 93 62 94
REMARK H PARENT 86 44 52 55
REMARK Flexibility Score: inf
ROOT
ATOM      1  C   UNL A   1      34.588  30.473  27.698  1.00  0.00     0.202 C 
ENDROOT
BRANCH   1   2
ATOM      2  C   UNL A   1      33.220  29.991  27.207  1.00  0.00     0.261 C 
BRANCH   2   3
ATOM      3  O   UNL A   1      33.127  29.981  25.776  1.00  0.00    -0.461 OA
BRANCH   3   4
ATOM      4  C   UNL A   1      31.909  29.651  25.261  1.00  0.00     0.347 C 
ATOM      5  O   UNL A   1      30.957  30.419  25.157  1.00  0.00    -0.248 OA
BRANCH   4   6
ATOM      6  C   UNL A   1      31.863  28.202  24.789  1.00  0.00     0.279 C 
ATOM      7  C   UNL A   1      30.781  27.959  23.733  1.00  0.00     0.066 C 
BRANCH   6   8
ATOM      8  O   UNL A   1      33.183  27.926  24.303  1.00  0.00    -0.479 OA
BRANCH   8   9
ATOM      9  C   UNL A   1      33.506  26.601  24.349  1.00  0.00     0.120 A 
ATOM     10  C   UNL A   1      33.720  26.009  25.589  1.00  0.00     0.047 A 
ATOM     11  C   UNL A   1      33.738  25.879  23.186  1.00  0.00     0.047 A 
ATOM     12  C   UNL A   1      34.182  24.689  25.656  1.00  0.00     0.012 A 
ATOM     13  C   UNL A   1      34.120  24.548  23.251  1.00  0.00     0.012 A 
ATOM     14  C   UNL A   1      34.421  23.962  24.481  1.00  0.00    -0.023 A 
BRANCH  14  15
ATOM     15  C   UNL A   1      34.999  22.610  24.543  1.00  0.00     0.039 C 
ATOM     16  C   UNL A   1      36.228  22.297  25.011  1.00  0.00     0.130 C 
BRANCH  16  17
ATOM     17  C   UNL A   1      37.144  23.259  25.527  1.00  0.00     0.111 C 
ATOM     18  N   UNL A   1      37.867  24.075  25.928  1.00  0.00    -0.192 NA
ENDBRANCH  16  17
BRANCH  16  19
ATOM     19  C   UNL A   1      36.659  20.940  24.978  1.00  0.00     0.111 C 
ATOM     20  N   UNL A   1      36.994  19.831  24.963  1.00  0.00    -0.192 NA
ENDBRANCH  16  19
ENDBRANCH  14  15
ENDBRANCH   8   9
ENDBRANCH   6   8
ENDBRANCH   4   6
ENDBRANCH   3   4
ENDBRANCH   2   3
ENDBRANCH   1   2
BRANCH   1  21
ATOM     21  O   UNL A   1      34.906  31.860  27.602  1.00  0.00    -0.374 OA
BRANCH  21  22
ATOM     22  C   UNL A   1      34.436  32.737  28.619  1.00  0.00     0.202 C 
BRANCH  22  23
ATOM     23  C   UNL A   1      35.298  32.963  29.876  1.00  0.00     0.261 C 
BRANCH  23  24
ATOM     24  O   UNL A   1      35.908  31.768  30.394  1.00  0.00    -0.460 OA
BRANCH  24  25
ATOM     25  C   UNL A   1      37.144  31.973  30.918  1.00  0.00     0.338 C 
ATOM     26  O   UNL A   1      37.429  32.719  31.841  1.00  0.00    -0.246 OA
BRANCH  25  27
ATOM     27  C   UNL A   1      38.123  31.016  30.371  1.00  0.00     0.060 A 
ATOM     28  C   UNL A   1      39.065  30.492  31.267  1.00  0.00     0.016 A 
ATOM     29  C   UNL A   1      38.221  30.754  29.004  1.00  0.00     0.016 A 
ATOM     30  C   UNL A   1      40.163  29.786  30.792  1.00  0.00     0.010 A 
ATOM     31  C   UNL A   1      39.328  30.039  28.528  1.00  0.00     0.010 A 
ATOM     32  C   UNL A   1      40.335  29.610  29.414  1.00  0.00    -0.014 A 
BRANCH  32  33
ATOM     33  C   UNL A   1      41.658  29.160  28.908  1.00  0.00     0.031 A 
ATOM     34  C   UNL A   1      42.804  30.140  28.887  1.00  0.00     0.074 A 
ATOM     35  C   UNL A   1      41.857  27.881  28.540  1.00  0.00     0.049 A 
ATOM     36  N   UNL A   1      44.041  29.965  28.502  1.00  0.00    -0.248 NA
ATOM     37  C   UNL A   1      42.512  31.503  29.362  1.00  0.00     0.031 C 
ATOM     38  C   UNL A   1      40.843  26.828  28.567  1.00  0.00     0.029 A 
ATOM     39  N   UNL A   1      42.984  27.252  28.077  1.00  0.00    -0.354 N 
ATOM     40  C   UNL A   1      44.668  31.197  28.664  1.00  0.00     0.074 A 
ATOM     41  C   UNL A   1      43.664  32.118  29.147  1.00  0.00     0.031 C 
ATOM     42  C   UNL A   1      41.398  25.679  28.146  1.00  0.00     0.029 A 
ATOM     43  C   UNL A   1      42.792  25.924  27.782  1.00  0.00     0.049 A 
ATOM     44  H   UNL A   1      43.850  27.709  27.967  1.00  0.00     0.167 HD
ATOM     45  C   UNL A   1      45.963  31.527  28.437  1.00  0.00     0.037 A 
ATOM     46  C   UNL A   1      43.641  25.013  27.265  1.00  0.00     0.037 A 
ATOM     47  C   UNL A   1      46.956  30.598  27.959  1.00  0.00     0.049 A 
ATOM     48  C   UNL A   1      45.059  25.419  26.958  1.00  0.00     0.074 A 
ATOM     49  C   UNL A   1      48.300  30.823  27.723  1.00  0.00     0.029 A 
ATOM     50  N   UNL A   1      46.710  29.272  27.628  1.00  0.00    -0.354 N 
ATOM     51  N   UNL A   1      45.645  26.580  27.134  1.00  0.00    -0.248 NA
ATOM     52  C   UNL A   1      45.935  24.385  26.392  1.00  0.00     0.031 C 
ATOM     53  C   UNL A   1      48.849  29.659  27.176  1.00  0.00     0.029 A 
ATOM     54  C   UNL A   1      47.870  28.678  27.156  1.00  0.00     0.049 A 
ATOM     55  H   UNL A   1      45.840  28.821  27.715  1.00  0.00     0.167 HD
ATOM     56  C   UNL A   1      46.970  26.403  26.745  1.00  0.00     0.074 A 
ATOM     57  C   UNL A   1      47.096  25.022  26.326  1.00  0.00     0.031 C 
ATOM     58  C   UNL A   1      47.990  27.299  26.747  1.00  0.00     0.037 A 
BRANCH  45  59
ATOM     59  C   UNL A   1      46.367  32.964  28.654  1.00  0.00     0.058 A 
ATOM     60  C   UNL A   1      46.257  33.937  27.647  1.00  0.00     0.135 A 
ATOM     61  C   UNL A   1      46.868  33.374  29.901  1.00  0.00     0.135 A 
ATOM     62  F   UNL A   1      45.798  33.606  26.430  1.00  0.00    -0.206 F 
ATOM     63  C   UNL A   1      46.672  35.251  27.854  1.00  0.00     0.059 A 
ATOM     64  C   UNL A   1      47.251  34.689  30.143  1.00  0.00     0.059 A 
ATOM     65  F   UNL A   1      46.996  32.490  30.903  1.00  0.00    -0.206 F 
ATOM     66  C   UNL A   1      47.169  35.617  29.106  1.00  0.00     0.060 A 
BRANCH  66  67
ATOM     67  S   UNL A   1      47.720  37.318  29.353  1.00  0.00     0.124 S 
ATOM     68  O   UNL A   1      49.076  37.114  29.853  1.00  0.00    -0.237 OA
ATOM     69  O   UNL A   1      47.617  37.876  28.009  1.00  0.00    -0.237 OA
ATOM     70  O   UNL A   1      46.768  37.847  30.325  1.00  0.00    -0.744 OA
ENDBRANCH  66  67
ENDBRANCH  45  59
BRANCH  46  71
ATOM     71  C   UNL A   1      43.175  23.621  27.022  1.00  0.00     0.058 A 
ATOM     72  C   UNL A   1      42.844  23.184  25.731  1.00  0.00     0.135 A 
ATOM     73  C   UNL A   1      43.068  22.695  28.072  1.00  0.00     0.135 A 
ATOM     74  F   UNL A   1      42.917  24.034  24.695  1.00  0.00    -0.206 F 
ATOM     75  C   UNL A   1      42.412  21.884  25.489  1.00  0.00     0.059 A 
ATOM     76  C   UNL A   1      42.670  21.380  27.851  1.00  0.00     0.059 A 
ATOM     77  F   UNL A   1      43.383  23.058  29.325  1.00  0.00    -0.206 F 
ATOM     78  C   UNL A   1      42.338  20.986  26.555  1.00  0.00     0.060 A 
BRANCH  78  79
ATOM     79  S   UNL A   1      41.845  19.284  26.215  1.00  0.00     0.124 S 
ATOM     80  O   UNL A   1      42.686  18.956  25.068  1.00  0.00    -0.237 OA
ATOM     81  O   UNL A   1      42.182  18.614  27.467  1.00  0.00    -0.237 OA
ATOM     82  O   UNL A   1      40.416  19.396  25.937  1.00  0.00    -0.744 OA
ENDBRANCH  78  79
ENDBRANCH  46  71
BRANCH  58  83
ATOM     83  C   UNL A   1      49.358  26.799  26.352  1.00  0.00     0.058 A 
ATOM     84  C   UNL A   1      49.844  26.888  25.038  1.00  0.00     0.135 A 
ATOM     85  C   UNL A   1      50.211  26.250  27.326  1.00  0.00     0.135 A 
ATOM     86  F   UNL A   1      49.075  27.402  24.065  1.00  0.00    -0.206 F 
ATOM     87  C   UNL A   1      51.106  26.409  24.694  1.00  0.00     0.059 A 
ATOM     88  C   UNL A   1      51.491  25.804  27.012  1.00  0.00     0.059 A 
ATOM     89  F   UNL A   1      49.809  26.152  28.602  1.00  0.00    -0.206 F 
ATOM     90  C   UNL A   1      51.922  25.870  25.690  1.00  0.00     0.060 A 
BRANCH  90  91
ATOM     91  S   UNL A   1      53.560  25.261  25.233  1.00  0.00     0.124 S 
ATOM     92  O   UNL A   1      53.383  23.818  25.361  1.00  0.00    -0.237 OA
ATOM     93  O   UNL A   1      53.709  25.764  23.871  1.00  0.00    -0.237 OA
ATOM     94  O   UNL A   1      54.440  25.875  26.222  1.00  0.00    -0.744 OA
ENDBRANCH  90  91
ENDBRANCH  58  83
ENDBRANCH  32  33
ENDBRANCH  25  27
ENDBRANCH  24  25
ENDBRANCH  23  24
ENDBRANCH  22  23
ENDBRANCH  21  22
ENDBRANCH   1  21
TORSDOF 22
ENDMDL
MODEL 2
REMARK VINA RESULT:      -9.4      4.066      6.742
REMARK SMILES C[C@@H](Oc1ccc(C=C(C#N)C#N)cc1)C(=O)OCCOCCOC(=O)c1ccc(-c2c3nc(c(-c4c(F)cc(S(=O)(=O)[O-])cc4F)c4ccc([nH]4)c(-c4c(F)cc(S(=O)(=O)[O-])cc4F)c4nc(c(-c5c(F)cc(S(=O)(=O)[O-])cc5F)c5ccc2[nH]5)C=C4)C=C3)cc1
REMARK SMILES IDX 20 1 19 2 18 3 16 4 17 5 2 6 1 7 3 8 4 9 5 10 15 11 6 12
REMARK SMILES IDX 14 13 7 14 8 15 9 16 10 17 11 18 12 19 13 20 21 21 22 22
REMARK SMILES IDX 23 23 24 24 25 25 26 26 27 27 28 28 92 29 29 30 91 31 30 32
REMARK SMILES IDX 31 33 32 34 85 35 33 36 90 37 84 38 86 39 34 40 89 41 83 42
REMARK SMILES IDX 82 43 35 45 69 46 48 47 68 48 49 49 52 50 67 51 87 52 50 53
REMARK SMILES IDX 51 54 66 56 88 57 53 58 36 59 37 60 46 61 38 62 39 63 45 64
REMARK SMILES IDX 47 65 40 66 41 67 42 68 43 69 44 70 70 71 71 72 80 73 72 74
REMARK SMILES IDX 73 75 79 76 81 77 74 78 75 79 76 80 77 81 78 82 54 83 55 84
REMARK SMILES IDX 64 85 56 86 57 87 63 88 65 89 58 90 59 91 60 92 61 93 62 94
REMARK H PARENT 86 44 52 55
REMARK Flexibility Score: inf
ROOT
ATOM      1  C   UNL A   1      36.808  33.672  31.900  1.00  0.00     0.202 C 
ENDROOT
BRANCH   1   2
ATOM      2  C   UNL A   1      37.698  32.444  32.111  1.00  0.00     0.261 C 
BRANCH   2   3
ATOM      3  O   UNL A   1      37.616  31.937  33.451  1.00  0.00    -0.461 OA
BRANCH   3   4
ATOM      4  C   UNL A   1      38.252  30.753  33.678  1.00  0.00     0.347 C 
ATOM      5  O   UNL A   1      37.750  29.644  33.526  1.00  0.00    -0.248 OA
BRANCH   4   6
ATOM      6  C   UNL A   1      39.696  30.957  34.123  1.00  0.00     0.279 C 
ATOM      7  C   UNL A   1      39.976  32.390  34.582  1.00  0.00     0.066 C 
BRANCH   6   8
ATOM      8  O   UNL A   1      39.906  29.991  35.162  1.00  0.00    -0.479 OA
BRANCH   8   9
ATOM      9  C   UNL A   1      40.963  29.162  34.919  1.00  0.00     0.120 A 
ATOM     10  C   UNL A   1      41.214  28.769  33.609  1.00  0.00     0.047 A 
ATOM     11  C   UNL A   1      41.703  28.620  35.961  1.00  0.00     0.047 A 
ATOM     12  C   UNL A   1      42.208  27.816  33.351  1.00  0.00     0.012 A 
ATOM     13  C   UNL A   1      42.738  27.736  35.700  1.00  0.00     0.012 A 
ATOM     14  C   UNL A   1      42.951  27.265  34.404  1.00  0.00    -0.023 A 
BRANCH  14  15
ATOM     15  C   UNL A   1      43.927  26.193  34.149  1.00  0.00     0.039 C 
ATOM     16  C   UNL A   1      43.776  24.892  34.483  1.00  0.00     0.130 C 
BRANCH  16  17
ATOM     17  C   UNL A   1      42.618  24.374  35.132  1.00  0.00     0.111 C 
ATOM     18  N   UNL A   1      41.667  23.990  35.680  1.00  0.00    -0.192 NA
ENDBRANCH  16  17
BRANCH  16  19
ATOM     19  C   UNL A   1      44.826  23.975  34.196  1.00  0.00     0.111 C 
ATOM     20  N   UNL A   1      45.668  23.214  33.962  1.00  0.00    -0.192 NA
ENDBRANCH  16  19
ENDBRANCH  14  15
ENDBRANCH   8   9
ENDBRANCH   6   8
ENDBRANCH   4   6
ENDBRANCH   3   4
ENDBRANCH   2   3
ENDBRANCH   1   2
BRANCH   1  21
ATOM     21  O   UNL A   1      35.392  33.518  31.962  1.00  0.00    -0.374 OA
BRANCH  21  22
ATOM     22  C   UNL A   1      34.772  32.572  31.099  1.00  0.00     0.202 C 
BRANCH  22  23
ATOM     23  C   UNL A   1      34.461  32.971  29.643  1.00  0.00     0.261 C 
BRANCH  23  24
ATOM     24  O   UNL A   1      35.376  32.427  28.675  1.00  0.00    -0.460 OA
BRANCH  24  25
ATOM     25  C   UNL A   1      35.073  31.159  28.296  1.00  0.00     0.338 C 
ATOM     26  O   UNL A   1      34.015  30.772  27.826  1.00  0.00    -0.246 OA
BRANCH  25  27
ATOM     27  C   UNL A   1      36.266  30.293  28.323  1.00  0.00     0.060 A 
ATOM     28  C   UNL A   1      36.552  29.648  29.534  1.00  0.00     0.016 A 
ATOM     29  C   UNL A   1      37.162  30.230  27.255  1.00  0.00     0.016 A 
ATOM     30  C   UNL A   1      37.778  29.020  29.717  1.00  0.00     0.010 A 
ATOM     31  C   UNL A   1      38.396  29.594  27.442  1.00  0.00     0.010 A 
ATOM     32  C   UNL A   1      38.733  29.044  28.694  1.00  0.00    -0.014 A 
BRANCH  32  33
ATOM     33  C   UNL A   1      40.136  28.674  29.014  1.00  0.00     0.031 A 
ATOM     34  C   UNL A   1      40.980  29.634  29.815  1.00  0.00     0.074 A 
ATOM     35  C   UNL A   1      40.631  27.474  28.662  1.00  0.00     0.049 A 
ATOM     36  N   UNL A   1      42.218  29.516  30.218  1.00  0.00    -0.248 NA
ATOM     37  C   UNL A   1      40.341  30.901  30.208  1.00  0.00     0.031 C 
ATOM     38  C   UNL A   1      39.897  26.439  27.935  1.00  0.00     0.029 A 
ATOM     39  N   UNL A   1      41.868  26.921  28.876  1.00  0.00    -0.354 N 
ATOM     40  C   UNL A   1      42.514  30.698  30.890  1.00  0.00     0.074 A 
ATOM     41  C   UNL A   1      41.337  31.534  30.807  1.00  0.00     0.031 C 
ATOM     42  C   UNL A   1      40.697  25.373  27.770  1.00  0.00     0.029 A 
ATOM     43  C   UNL A   1      42.009  25.663  28.342  1.00  0.00     0.049 A 
ATOM     44  H   UNL A   1      42.588  27.384  29.365  1.00  0.00     0.167 HD
ATOM     45  C   UNL A   1      43.659  31.051  31.525  1.00  0.00     0.037 A 
ATOM     46  C   UNL A   1      43.080  24.845  28.308  1.00  0.00     0.037 A 
ATOM     47  C   UNL A   1      44.825  30.208  31.604  1.00  0.00     0.049 A 
ATOM     48  C   UNL A   1      44.365  25.285  28.963  1.00  0.00     0.074 A 
ATOM     49  C   UNL A   1      46.024  30.457  32.246  1.00  0.00     0.029 A 
ATOM     50  N   UNL A   1      44.944  28.957  31.011  1.00  0.00    -0.354 N 
ATOM     51  N   UNL A   1      44.625  26.396  29.611  1.00  0.00    -0.248 NA
ATOM     52  C   UNL A   1      45.498  24.354  28.888  1.00  0.00     0.031 C 
ATOM     53  C   UNL A   1      46.895  29.397  31.974  1.00  0.00     0.029 A 
ATOM     54  C   UNL A   1      46.209  28.442  31.241  1.00  0.00     0.049 A 
ATOM     55  H   UNL A   1      44.234  28.505  30.501  1.00  0.00     0.167 HD
ATOM     56  C   UNL A   1      45.937  26.275  30.064  1.00  0.00     0.074 A 
ATOM     57  C   UNL A   1      46.412  24.983  29.614  1.00  0.00     0.031 C 
ATOM     58  C   UNL A   1      46.674  27.149  30.796  1.00  0.00     0.037 A 
BRANCH  45  59
ATOM     59  C   UNL A   1      43.724  32.428  32.137  1.00  0.00     0.058 A 
ATOM     60  C   UNL A   1      44.002  33.577  31.379  1.00  0.00     0.135 A 
ATOM     61  C   UNL A   1      43.495  32.599  33.513  1.00  0.00     0.135 A 
ATOM     62  F   UNL A   1      44.242  33.479  30.062  1.00  0.00    -0.206 F 
ATOM     63  C   UNL A   1      44.095  34.836  31.969  1.00  0.00     0.059 A 
ATOM     64  C   UNL A   1      43.545  33.850  34.117  1.00  0.00     0.059 A 
ATOM     65  F   UNL A   1      43.224  31.538  34.291  1.00  0.00    -0.206 F 
ATOM     66  C   UNL A   1      43.867  34.961  33.340  1.00  0.00     0.060 A 
BRANCH  66  67
ATOM     67  S   UNL A   1      44.011  36.596  34.094  1.00  0.00     0.124 S 
ATOM     68  O   UNL A   1      42.861  37.284  33.516  1.00  0.00    -0.237 OA
ATOM     69  O   UNL A   1      43.918  36.290  35.517  1.00  0.00    -0.237 OA
ATOM     70  O   UNL A   1      45.315  37.068  33.638  1.00  0.00    -0.744 OA
ENDBRANCH  66  67
ENDBRANCH  45  59
BRANCH  46  71
ATOM     71  C   UNL A   1      42.977  23.517  27.645  1.00  0.00     0.058 A 
ATOM     72  C   UNL A   1      43.535  23.297  26.377  1.00  0.00     0.135 A 
ATOM     73  C   UNL A   1      42.334  22.438  28.271  1.00  0.00     0.135 A 
ATOM     74  F   UNL A   1      44.149  24.300  25.730  1.00  0.00    -0.206 F 
ATOM     75  C   UNL A   1      43.450  22.059  25.747  1.00  0.00     0.059 A 
ATOM     76  C   UNL A   1      42.264  21.182  27.677  1.00  0.00     0.059 A 
ATOM     77  F   UNL A   1      41.793  22.592  29.489  1.00  0.00    -0.206 F 
ATOM     78  C   UNL A   1      42.820  21.004  26.411  1.00  0.00     0.060 A 
BRANCH  78  79
ATOM     79  S   UNL A   1      42.781  19.386  25.613  1.00  0.00     0.124 S 
ATOM     80  O   UNL A   1      41.351  19.203  25.387  1.00  0.00    -0.237 OA
ATOM     81  O   UNL A   1      43.592  19.616  24.421  1.00  0.00    -0.237 OA
ATOM     82  O   UNL A   1      43.379  18.504  26.609  1.00  0.00    -0.744 OA
ENDBRANCH  78  79
ENDBRANCH  46  71
BRANCH  58  83
ATOM     83  C   UNL A   1      48.052  26.712  31.224  1.00  0.00     0.058 A 
ATOM     84  C   UNL A   1      49.187  26.892  30.416  1.00  0.00     0.135 A 
ATOM     85  C   UNL A   1      48.241  26.130  32.489  1.00  0.00     0.135 A 
ATOM     86  F   UNL A   1      49.069  27.442  29.197  1.00  0.00    -0.206 F 
ATOM     87  C   UNL A   1      50.448  26.469  30.827  1.00  0.00     0.059 A 
ATOM     88  C   UNL A   1      49.499  25.738  32.937  1.00  0.00     0.059 A 
ATOM     89  F   UNL A   1      47.198  25.945  33.313  1.00  0.00    -0.206 F 
ATOM     90  C   UNL A   1      50.594  25.894  32.091  1.00  0.00     0.060 A 
BRANCH  90  91
ATOM     91  S   UNL A   1      52.237  25.359  32.616  1.00  0.00     0.124 S 
ATOM     92  O   UNL A   1      53.097  26.168  31.758  1.00  0.00    -0.237 OA
ATOM     93  O   UNL A   1      52.240  25.712  34.032  1.00  0.00    -0.237 OA
ATOM     94  O   UNL A   1      52.236  23.927  32.332  1.00  0.00    -0.744 OA
ENDBRANCH  90  91
ENDBRANCH  58  83
ENDBRANCH  32  33
ENDBRANCH  25  27
ENDBRANCH  24  25
ENDBRANCH  23  24
ENDBRANCH  22  23
ENDBRANCH  21  22
ENDBRANCH   1  21
TORSDOF 22
ENDMDL
MODEL 3
REMARK VINA RESULT:      -9.2      6.349     12.040
REMARK SMILES C[C@@H](Oc1ccc(C=C(C#N)C#N)cc1)C(=O)OCCOCCOC(=O)c1ccc(-c2c3nc(c(-c4c(F)cc(S(=O)(=O)[O-])cc4F)c4ccc([nH]4)c(-c4c(F)cc(S(=O)(=O)[O-])cc4F)c4nc(c(-c5c(F)cc(S(=O)(=O)[O-])cc5F)c5ccc2[nH]5)C=C4)C=C3)cc1
REMARK SMILES IDX 20 1 19 2 18 3 16 4 17 5 2 6 1 7 3 8 4 9 5 10 15 11 6 12
REMARK SMILES IDX 14 13 7 14 8 15 9 16 10 17 11 18 12 19 13 20 21 21 22 22
REMARK SMILES IDX 23 23 24 24 25 25 26 26 27 27 28 28 92 29 29 30 91 31 30 32
REMARK SMILES IDX 31 33 32 34 85 35 33 36 90 37 84 38 86 39 34 40 89 41 83 42
REMARK SMILES IDX 82 43 35 45 69 46 48 47 68 48 49 49 52 50 67 51 87 52 50 53
REMARK SMILES IDX 51 54 66 56 88 57 53 58 36 59 37 60 46 61 38 62 39 63 45 64
REMARK SMILES IDX 47 65 40 66 41 67 42 68 43 69 44 70 70 71 71 72 80 73 72 74
REMARK SMILES IDX 73 75 79 76 81 77 74 78 75 79 76 80 77 81 78 82 54 83 55 84
REMARK SMILES IDX 64 85 56 86 57 87 63 88 65 89 58 90 59 91 60 92 61 93 62 94
REMARK H PARENT 86 44 52 55
REMARK Flexibility Score: inf
ROOT
ATOM      1  C   UNL A   1      40.412  21.816  27.398  1.00  0.00     0.202 C 
ENDROOT
BRANCH   1   2
ATOM      2  C   UNL A   1      39.828  21.607  25.998  1.00  0.00     0.261 C 
BRANCH   2   3
ATOM      3  O   UNL A   1      38.405  21.793  25.968  1.00  0.00    -0.461 OA
BRANCH   3   4
ATOM      4  C   UNL A   1      37.706  20.909  25.202  1.00  0.00     0.347 C 
ATOM      5  O   UNL A   1      38.126  19.821  24.822  1.00  0.00    -0.248 OA
BRANCH   4   6
ATOM      6  C   UNL A   1      36.302  21.415  24.885  1.00  0.00     0.279 C 
ATOM      7  C   UNL A   1      35.416  21.514  26.129  1.00  0.00     0.066 C 
BRANCH   6   8
ATOM      8  O   UNL A   1      36.499  22.682  24.242  1.00  0.00    -0.479 OA
BRANCH   8   9
ATOM      9  C   UNL A   1      35.341  23.385  24.076  1.00  0.00     0.120 A 
ATOM     10  C   UNL A   1      34.488  23.028  23.037  1.00  0.00     0.047 A 
ATOM     11  C   UNL A   1      35.069  24.509  24.842  1.00  0.00     0.047 A 
ATOM     12  C   UNL A   1      33.363  23.816  22.764  1.00  0.00     0.012 A 
ATOM     13  C   UNL A   1      33.915  25.245  24.623  1.00  0.00     0.012 A 
ATOM     14  C   UNL A   1      33.091  24.954  23.535  1.00  0.00    -0.023 A 
BRANCH  14  15
ATOM     15  C   UNL A   1      31.967  25.839  23.191  1.00  0.00     0.039 C 
ATOM     16  C   UNL A   1      32.069  27.063  22.625  1.00  0.00     0.130 C 
BRANCH  16  17
ATOM     17  C   UNL A   1      33.311  27.665  22.269  1.00  0.00     0.111 C 
ATOM     18  N   UNL A   1      34.321  28.182  22.016  1.00  0.00    -0.192 NA
ENDBRANCH  16  17
BRANCH  16  19
ATOM     19  C   UNL A   1      30.886  27.815  22.379  1.00  0.00     0.111 C 
ATOM     20  N   UNL A   1      29.923  28.434  22.197  1.00  0.00    -0.192 NA
ENDBRANCH  16  19
ENDBRANCH  14  15
ENDBRANCH   8   9
ENDBRANCH   6   8
ENDBRANCH   4   6
ENDBRANCH   3   4
ENDBRANCH   2   3
ENDBRANCH   1   2
BRANCH   1  21
ATOM     21  O   UNL A   1      41.534  22.680  27.556  1.00  0.00    -0.374 OA
BRANCH  21  22
ATOM     22  C   UNL A   1      42.472  22.780  26.491  1.00  0.00     0.202 C 
BRANCH  22  23
ATOM     23  C   UNL A   1      42.301  23.893  25.439  1.00  0.00     0.261 C 
BRANCH  23  24
ATOM     24  O   UNL A   1      41.488  24.996  25.876  1.00  0.00    -0.460 OA
BRANCH  24  25
ATOM     25  C   UNL A   1      42.095  26.204  25.742  1.00  0.00     0.338 C 
ATOM     26  O   UNL A   1      42.279  26.815  24.702  1.00  0.00    -0.246 OA
BRANCH  25  27
ATOM     27  C   UNL A   1      42.346  26.826  27.056  1.00  0.00     0.060 A 
ATOM     28  C   UNL A   1      41.804  26.180  28.175  1.00  0.00     0.016 A 
ATOM     29  C   UNL A   1      42.956  28.074  27.181  1.00  0.00     0.016 A 
ATOM     30  C   UNL A   1      41.781  26.822  29.408  1.00  0.00     0.010 A 
ATOM     31  C   UNL A   1      42.933  28.717  28.426  1.00  0.00     0.010 A 
ATOM     32  C   UNL A   1      42.288  28.121  29.526  1.00  0.00    -0.014 A 
BRANCH  32  33
ATOM     33  C   UNL A   1      41.958  28.912  30.740  1.00  0.00     0.031 A 
ATOM     34  C   UNL A   1      40.728  29.784  30.732  1.00  0.00     0.074 A 
ATOM     35  C   UNL A   1      42.699  28.802  31.857  1.00  0.00     0.049 A 
ATOM     36  N   UNL A   1      40.242  30.547  31.676  1.00  0.00    -0.248 NA
ATOM     37  C   UNL A   1      39.942  29.800  29.487  1.00  0.00     0.031 C 
ATOM     38  C   UNL A   1      43.879  27.951  32.008  1.00  0.00     0.029 A 
ATOM     39  N   UNL A   1      42.563  29.407  33.081  1.00  0.00    -0.354 N 
ATOM     40  C   UNL A   1      39.112  31.151  31.134  1.00  0.00     0.074 A 
ATOM     41  C   UNL A   1      39.006  30.693  29.767  1.00  0.00     0.031 C 
ATOM     42  C   UNL A   1      44.355  28.083  33.257  1.00  0.00     0.029 A 
ATOM     43  C   UNL A   1      43.539  29.055  33.981  1.00  0.00     0.049 A 
ATOM     44  H   UNL A   1      41.833  30.034  33.294  1.00  0.00     0.167 HD
ATOM     45  C   UNL A   1      38.238  32.002  31.724  1.00  0.00     0.037 A 
ATOM     46  C   UNL A   1      43.758  29.481  35.242  1.00  0.00     0.037 A 
ATOM     47  C   UNL A   1      38.351  32.448  33.090  1.00  0.00     0.049 A 
ATOM     48  C   UNL A   1      42.811  30.479  35.857  1.00  0.00     0.074 A 
ATOM     49  C   UNL A   1      37.506  33.287  33.794  1.00  0.00     0.029 A 
ATOM     50  N   UNL A   1      39.382  32.105  33.956  1.00  0.00    -0.354 N 
ATOM     51  N   UNL A   1      41.736  31.027  35.341  1.00  0.00    -0.248 NA
ATOM     52  C   UNL A   1      43.104  30.909  37.231  1.00  0.00     0.031 C 
ATOM     53  C   UNL A   1      38.065  33.515  35.055  1.00  0.00     0.029 A 
ATOM     54  C   UNL A   1      39.211  32.745  35.174  1.00  0.00     0.049 A 
ATOM     55  H   UNL A   1      40.124  31.497  33.737  1.00  0.00     0.167 HD
ATOM     56  C   UNL A   1      41.197  31.829  36.345  1.00  0.00     0.074 A 
ATOM     57  C   UNL A   1      42.067  31.691  37.495  1.00  0.00     0.031 C 
ATOM     58  C   UNL A   1      40.078  32.597  36.319  1.00  0.00     0.037 A 
BRANCH  45  59
ATOM     59  C   UNL A   1      37.114  32.548  30.881  1.00  0.00     0.058 A 
ATOM     60  C   UNL A   1      37.281  33.647  30.022  1.00  0.00     0.135 A 
ATOM     61  C   UNL A   1      35.843  31.951  30.929  1.00  0.00     0.135 A 
ATOM     62  F   UNL A   1      38.468  34.269  29.940  1.00  0.00    -0.206 F 
ATOM     63  C   UNL A   1      36.221  34.161  29.279  1.00  0.00     0.059 A 
ATOM     64  C   UNL A   1      34.779  32.422  30.166  1.00  0.00     0.059 A 
ATOM     65  F   UNL A   1      35.620  30.897  31.730  1.00  0.00    -0.206 F 
ATOM     66  C   UNL A   1      34.973  33.542  29.359  1.00  0.00     0.060 A 
BRANCH  66  67
ATOM     67  S   UNL A   1      33.603  34.231  28.406  1.00  0.00     0.124 S 
ATOM     68  O   UNL A   1      32.707  34.680  29.467  1.00  0.00    -0.237 OA
ATOM     69  O   UNL A   1      34.258  35.286  27.641  1.00  0.00    -0.237 OA
ATOM     70  O   UNL A   1      33.126  33.095  27.623  1.00  0.00    -0.744 OA
ENDBRANCH  66  67
ENDBRANCH  45  59
BRANCH  46  71
ATOM     71  C   UNL A   1      44.914  28.948  36.014  1.00  0.00     0.058 A 
ATOM     72  C   UNL A   1      46.170  29.568  35.953  1.00  0.00     0.135 A 
ATOM     73  C   UNL A   1      44.781  27.820  36.838  1.00  0.00     0.135 A 
ATOM     74  F   UNL A   1      46.352  30.642  35.169  1.00  0.00    -0.206 F 
ATOM     75  C   UNL A   1      47.258  29.084  36.672  1.00  0.00     0.059 A 
ATOM     76  C   UNL A   1      45.845  27.336  37.593  1.00  0.00     0.059 A 
ATOM     77  F   UNL A   1      43.598  27.196  36.940  1.00  0.00    -0.206 F 
ATOM     78  C   UNL A   1      47.082  27.972  37.498  1.00  0.00     0.060 A 
BRANCH  78  79
ATOM     79  S   UNL A   1      48.483  27.398  38.481  1.00  0.00     0.124 S 
ATOM     80  O   UNL A   1      48.992  26.304  37.660  1.00  0.00    -0.237 OA
ATOM     81  O   UNL A   1      49.319  28.593  38.542  1.00  0.00    -0.237 OA
ATOM     82  O   UNL A   1      47.870  27.005  39.745  1.00  0.00    -0.744 OA
ENDBRANCH  78  79
ENDBRANCH  46  71
BRANCH  58  83
ATOM     83  C   UNL A   1      39.682  33.296  37.595  1.00  0.00     0.058 A 
ATOM     84  C   UNL A   1      40.249  34.517  37.995  1.00  0.00     0.135 A 
ATOM     85  C   UNL A   1      38.685  32.741  38.417  1.00  0.00     0.135 A 
ATOM     86  F   UNL A   1      41.205  35.095  37.251  1.00  0.00    -0.206 F 
ATOM     87  C   UNL A   1      39.875  35.138  39.184  1.00  0.00     0.059 A 
ATOM     88  C   UNL A   1      38.267  33.366  39.588  1.00  0.00     0.059 A 
ATOM     89  F   UNL A   1      38.096  31.584  38.081  1.00  0.00    -0.206 F 
ATOM     90  C   UNL A   1      38.882  34.555  39.974  1.00  0.00     0.060 A 
BRANCH  90  91
ATOM     91  S   UNL A   1      38.401  35.375  41.509  1.00  0.00     0.124 S 
ATOM     92  O   UNL A   1      39.374  34.830  42.451  1.00  0.00    -0.237 OA
ATOM     93  O   UNL A   1      38.566  36.785  41.172  1.00  0.00    -0.237 OA
ATOM     94  O   UNL A   1      37.022  34.941  41.710  1.00  0.00    -0.744 OA
ENDBRANCH  90  91
ENDBRANCH  58  83
ENDBRANCH  32  33
ENDBRANCH  25  27
ENDBRANCH  24  25
ENDBRANCH  23  24
ENDBRANCH  22  23
ENDBRANCH  21  22
ENDBRANCH   1  21
TORSDOF 22
ENDMDL
