MODEL 1
REMARK VINA RESULT:     -12.0      0.000      0.000
REMARK SMILES Cc1ccc(C(=O)OCCOCCOC(=O)c2ccc(-c3c4nc(c(-c5c(F)cc(S(=O)(=O)[O-])cc5F)c5ccc([nH]5)c(-c5c(F)cc(S(=O)(=O)[O-])cc5F)c5nc(c(-c6c(F)cc(S(=O)(=O)[O-])cc6F)c6ccc3[nH]6)C=C5)C=C4)cc2)c(Oc2cccc(F)c2C(N)=O)c1
REMARK SMILES IDX 11 1 10 2 9 3 8 4 6 5 7 6 5 7 1 8 2 9 3 10 95 11 4 12 83 13
REMARK SMILES IDX 84 14 85 15 86 16 91 17 87 18 89 19 88 20 90 21 92 22 93 23
REMARK SMILES IDX 94 24 12 27 13 28 14 29 15 30 16 31 17 32 18 33 82 34 19 35
REMARK SMILES IDX 81 36 20 37 21 38 22 39 75 40 23 41 80 42 74 43 76 44 24 45
REMARK SMILES IDX 79 46 73 47 72 48 25 50 59 51 38 52 58 53 39 54 42 55 57 56
REMARK SMILES IDX 77 57 40 58 41 59 56 61 78 62 43 63 26 64 27 65 36 66 28 67
REMARK SMILES IDX 29 68 35 69 37 70 30 71 31 72 32 73 33 74 34 75 60 76 61 77
REMARK SMILES IDX 70 78 62 79 63 80 69 81 71 82 64 83 65 84 66 85 67 86 68 87
REMARK SMILES IDX 44 88 45 89 54 90 46 91 47 92 53 93 55 94 48 95 49 96 50 97
REMARK SMILES IDX 51 98 52 99
REMARK H PARENT 93 25 93 26 76 49 42 60
REMARK Flexibility Score: inf
ROOT
ATOM      1  O   UNL A   1      31.662  28.286  25.120  1.00  0.00    -0.374 OA
ENDROOT
BRANCH   1   2
ATOM      2  C   UNL A   1      31.704  27.387  26.222  1.00  0.00     0.202 C 
BRANCH   2   3
ATOM      3  C   UNL A   1      31.111  26.128  25.691  1.00  0.00     0.261 C 
BRANCH   3   4
ATOM      4  O   UNL A   1      32.148  25.164  25.430  1.00  0.00    -0.460 OA
BRANCH   4   5
ATOM      5  C   UNL A   1      32.472  24.180  26.315  1.00  0.00     0.342 C 
ATOM      6  O   UNL A   1      31.793  23.697  27.190  1.00  0.00    -0.246 OA
BRANCH   5   7
ATOM      7  C   UNL A   1      33.796  23.643  25.904  1.00  0.00     0.102 A 
ATOM      8  C   UNL A   1      37.810  22.193  25.530  1.00  0.00     0.044 C 
ATOM      9  C   UNL A   1      36.400  22.697  25.584  1.00  0.00    -0.047 A 
ATOM     10  C   UNL A   1      36.155  24.075  25.659  1.00  0.00     0.004 A 
ATOM     11  C   UNL A   1      35.325  21.796  25.582  1.00  0.00     0.051 A 
ATOM     12  C   UNL A   1      34.855  24.551  25.811  1.00  0.00     0.020 A 
ATOM     13  C   UNL A   1      34.024  22.264  25.741  1.00  0.00     0.142 A 
BRANCH  13  14
ATOM     14  O   UNL A   1      32.906  21.469  25.707  1.00  0.00    -0.455 OA
BRANCH  14  15
ATOM     15  C   UNL A   1      32.591  20.669  24.646  1.00  0.00     0.143 A 
ATOM     16  C   UNL A   1      32.688  19.305  24.962  1.00  0.00     0.048 A 
ATOM     17  C   UNL A   1      32.347  21.073  23.325  1.00  0.00     0.117 A 
ATOM     18  C   UNL A   1      32.493  18.333  23.988  1.00  0.00     0.007 A 
ATOM     19  C   UNL A   1      32.140  20.079  22.362  1.00  0.00     0.139 A 
ATOM     20  C   UNL A   1      32.209  18.723  22.686  1.00  0.00     0.040 A 
ATOM     21  F   UNL A   1      31.912  20.392  21.077  1.00  0.00    -0.206 F 
BRANCH  17  22
ATOM     22  C   UNL A   1      32.315  22.478  22.853  1.00  0.00     0.255 C 
ATOM     23  N   UNL A   1      31.167  23.179  23.057  1.00  0.00    -0.365 N 
ATOM     24  O   UNL A   1      33.278  23.004  22.309  1.00  0.00    -0.269 OA
ATOM     25  H   UNL A   1      30.397  22.749  23.494  1.00  0.00     0.159 HD
ATOM     26  H   UNL A   1      31.106  24.117  22.765  1.00  0.00     0.159 HD
ENDBRANCH  17  22
ENDBRANCH  14  15
ENDBRANCH  13  14
ENDBRANCH   5   7
ENDBRANCH   4   5
ENDBRANCH   3   4
ENDBRANCH   2   3
ENDBRANCH   1   2
BRANCH   1  27
ATOM     27  C   UNL A   1      32.133  29.586  25.374  1.00  0.00     0.202 C 
BRANCH  27  28
ATOM     28  C   UNL A   1      33.510  29.600  26.040  1.00  0.00     0.261 C 
BRANCH  28  29
ATOM     29  O   UNL A   1      33.485  30.410  27.237  1.00  0.00    -0.460 OA
BRANCH  29  30
ATOM     30  C   UNL A   1      34.611  31.138  27.506  1.00  0.00     0.338 C 
ATOM     31  O   UNL A   1      34.705  32.337  27.306  1.00  0.00    -0.246 OA
BRANCH  30  32
ATOM     32  C   UNL A   1      35.680  30.263  28.078  1.00  0.00     0.060 A 
ATOM     33  C   UNL A   1      35.561  29.683  29.356  1.00  0.00     0.016 A 
ATOM     34  C   UNL A   1      36.896  30.200  27.411  1.00  0.00     0.016 A 
ATOM     35  C   UNL A   1      36.695  29.172  30.019  1.00  0.00     0.010 A 
ATOM     36  C   UNL A   1      38.017  29.799  28.102  1.00  0.00     0.010 A 
ATOM     37  C   UNL A   1      37.941  29.301  29.416  1.00  0.00    -0.014 A 
BRANCH  37  38
ATOM     38  C   UNL A   1      39.261  29.024  30.002  1.00  0.00     0.031 A 
ATOM     39  C   UNL A   1      39.913  27.754  29.579  1.00  0.00     0.074 A 
ATOM     40  C   UNL A   1      40.010  30.029  30.528  1.00  0.00     0.049 A 
ATOM     41  N   UNL A   1      41.082  27.374  29.948  1.00  0.00    -0.248 NA
ATOM     42  C   UNL A   1      39.279  26.777  28.688  1.00  0.00     0.031 C 
ATOM     43  C   UNL A   1      41.469  30.166  30.517  1.00  0.00     0.029 A 
ATOM     44  N   UNL A   1      39.618  31.203  31.188  1.00  0.00    -0.354 N 
ATOM     45  C   UNL A   1      41.503  26.398  29.069  1.00  0.00     0.074 A 
ATOM     46  C   UNL A   1      40.299  25.957  28.420  1.00  0.00     0.031 C 
ATOM     47  C   UNL A   1      41.843  31.132  31.379  1.00  0.00     0.029 A 
ATOM     48  C   UNL A   1      40.643  31.563  32.075  1.00  0.00     0.049 A 
ATOM     49  H   UNL A   1      38.772  31.689  31.053  1.00  0.00     0.167 HD
ATOM     50  C   UNL A   1      42.848  26.226  28.910  1.00  0.00     0.037 A 
ATOM     51  C   UNL A   1      40.414  31.593  33.415  1.00  0.00     0.037 A 
ATOM     52  C   UNL A   1      43.567  27.012  29.930  1.00  0.00     0.049 A 
ATOM     53  C   UNL A   1      41.285  30.540  34.032  1.00  0.00     0.074 A 
ATOM     54  C   UNL A   1      44.349  28.155  29.882  1.00  0.00     0.029 A 
ATOM     55  N   UNL A   1      43.252  26.818  31.279  1.00  0.00    -0.354 N 
ATOM     56  N   UNL A   1      41.660  29.476  33.371  1.00  0.00    -0.248 NA
ATOM     57  C   UNL A   1      41.958  30.675  35.318  1.00  0.00     0.031 C 
ATOM     58  C   UNL A   1      44.400  28.702  31.200  1.00  0.00     0.029 A 
ATOM     59  C   UNL A   1      43.669  27.886  32.052  1.00  0.00     0.049 A 
ATOM     60  H   UNL A   1      42.792  26.022  31.631  1.00  0.00     0.167 HD
ATOM     61  C   UNL A   1      42.694  28.888  34.028  1.00  0.00     0.074 A 
ATOM     62  C   UNL A   1      42.799  29.625  35.279  1.00  0.00     0.031 C 
ATOM     63  C   UNL A   1      43.449  27.888  33.495  1.00  0.00     0.037 A 
BRANCH  50  64
ATOM     64  C   UNL A   1      43.547  25.538  27.738  1.00  0.00     0.058 A 
ATOM     65  C   UNL A   1      43.778  24.140  27.774  1.00  0.00     0.135 A 
ATOM     66  C   UNL A   1      44.083  26.167  26.590  1.00  0.00     0.135 A 
ATOM     67  F   UNL A   1      43.330  23.385  28.786  1.00  0.00    -0.206 F 
ATOM     68  C   UNL A   1      44.488  23.446  26.786  1.00  0.00     0.059 A 
ATOM     69  C   UNL A   1      44.776  25.491  25.577  1.00  0.00     0.059 A 
ATOM     70  F   UNL A   1      43.991  27.481  26.380  1.00  0.00    -0.206 F 
ATOM     71  C   UNL A   1      44.983  24.128  25.685  1.00  0.00     0.060 A 
BRANCH  71  72
ATOM     72  S   UNL A   1      45.878  23.224  24.409  1.00  0.00     0.124 S 
ATOM     73  O   UNL A   1      46.400  22.082  25.153  1.00  0.00    -0.237 OA
ATOM     74  O   UNL A   1      44.822  22.928  23.446  1.00  0.00    -0.237 OA
ATOM     75  O   UNL A   1      46.883  24.181  23.952  1.00  0.00    -0.744 OA
ENDBRANCH  71  72
ENDBRANCH  50  64
BRANCH  51  76
ATOM     76  C   UNL A   1      39.014  32.031  33.727  1.00  0.00     0.058 A 
ATOM     77  C   UNL A   1      38.747  33.410  33.559  1.00  0.00     0.135 A 
ATOM     78  C   UNL A   1      37.919  31.161  33.601  1.00  0.00     0.135 A 
ATOM     79  F   UNL A   1      39.746  34.299  33.687  1.00  0.00    -0.206 F 
ATOM     80  C   UNL A   1      37.517  33.885  33.104  1.00  0.00     0.059 A 
ATOM     81  C   UNL A   1      36.671  31.619  33.147  1.00  0.00     0.059 A 
ATOM     82  F   UNL A   1      38.088  29.840  33.748  1.00  0.00    -0.206 F 
ATOM     83  C   UNL A   1      36.502  32.970  32.837  1.00  0.00     0.060 A 
BRANCH  83  84
ATOM     84  S   UNL A   1      35.068  33.538  31.875  1.00  0.00     0.124 S 
ATOM     85  O   UNL A   1      35.216  34.986  31.936  1.00  0.00    -0.237 OA
ATOM     86  O   UNL A   1      35.314  32.932  30.567  1.00  0.00    -0.237 OA
ATOM     87  O   UNL A   1      33.936  32.981  32.605  1.00  0.00    -0.744 OA
ENDBRANCH  83  84
ENDBRANCH  51  76
BRANCH  63  88
ATOM     88  C   UNL A   1      44.106  26.848  34.349  1.00  0.00     0.058 A 
ATOM     89  C   UNL A   1      43.375  25.848  35.015  1.00  0.00     0.135 A 
ATOM     90  C   UNL A   1      45.511  26.704  34.360  1.00  0.00     0.135 A 
ATOM     91  F   UNL A   1      42.035  25.800  34.967  1.00  0.00    -0.206 F 
ATOM     92  C   UNL A   1      43.994  24.832  35.728  1.00  0.00     0.059 A 
ATOM     93  C   UNL A   1      46.147  25.654  35.006  1.00  0.00     0.059 A 
ATOM     94  F   UNL A   1      46.317  27.569  33.725  1.00  0.00    -0.206 F 
ATOM     95  C   UNL A   1      45.381  24.748  35.722  1.00  0.00     0.060 A 
BRANCH  95  96
ATOM     96  S   UNL A   1      46.171  23.435  36.655  1.00  0.00     0.124 S 
ATOM     97  O   UNL A   1      45.522  23.585  37.954  1.00  0.00    -0.237 OA
ATOM     98  O   UNL A   1      45.802  22.242  35.899  1.00  0.00    -0.237 OA
ATOM     99  O   UNL A   1      47.584  23.790  36.609  1.00  0.00    -0.744 OA
ENDBRANCH  95  96
ENDBRANCH  63  88
ENDBRANCH  37  38
ENDBRANCH  30  32
ENDBRANCH  29  30
ENDBRANCH  28  29
ENDBRANCH  27  28
ENDBRANCH   1  27
TORSDOF 20
ENDMDL
MODEL 2
REMARK VINA RESULT:     -11.9      1.700      2.560
REMARK SMILES Cc1ccc(C(=O)OCCOCCOC(=O)c2ccc(-c3c4nc(c(-c5c(F)cc(S(=O)(=O)[O-])cc5F)c5ccc([nH]5)c(-c5c(F)cc(S(=O)(=O)[O-])cc5F)c5nc(c(-c6c(F)cc(S(=O)(=O)[O-])cc6F)c6ccc3[nH]6)C=C5)C=C4)cc2)c(Oc2cccc(F)c2C(N)=O)c1
REMARK SMILES IDX 11 1 10 2 9 3 8 4 6 5 7 6 5 7 1 8 2 9 3 10 95 11 4 12 83 13
REMARK SMILES IDX 84 14 85 15 86 16 91 17 87 18 89 19 88 20 90 21 92 22 93 23
REMARK SMILES IDX 94 24 12 27 13 28 14 29 15 30 16 31 17 32 18 33 82 34 19 35
REMARK SMILES IDX 81 36 20 37 21 38 22 39 75 40 23 41 80 42 74 43 76 44 24 45
REMARK SMILES IDX 79 46 73 47 72 48 25 50 59 51 38 52 58 53 39 54 42 55 57 56
REMARK SMILES IDX 77 57 40 58 41 59 56 61 78 62 43 63 26 64 27 65 36 66 28 67
REMARK SMILES IDX 29 68 35 69 37 70 30 71 31 72 32 73 33 74 34 75 60 76 61 77
REMARK SMILES IDX 70 78 62 79 63 80 69 81 71 82 64 83 65 84 66 85 67 86 68 87
REMARK SMILES IDX 44 88 45 89 54 90 46 91 47 92 53 93 55 94 48 95 49 96 50 97
REMARK SMILES IDX 51 98 52 99
REMARK H PARENT 93 25 93 26 76 49 42 60
REMARK Flexibility Score: inf
ROOT
ATOM      1  O   UNL A   1      33.079  28.833  22.995  1.00  0.00    -0.374 OA
ENDROOT
BRANCH   1   2
ATOM      2  C   UNL A   1      33.780  28.096  22.001  1.00  0.00     0.202 C 
BRANCH   2   3
ATOM      3  C   UNL A   1      33.114  26.763  21.993  1.00  0.00     0.261 C 
BRANCH   3   4
ATOM      4  O   UNL A   1      34.074  25.730  22.285  1.00  0.00    -0.460 OA
BRANCH   4   5
ATOM      5  C   UNL A   1      33.704  24.471  22.654  1.00  0.00     0.342 C 
ATOM      6  O   UNL A   1      32.815  23.784  22.211  1.00  0.00    -0.246 OA
BRANCH   5   7
ATOM      7  C   UNL A   1      34.726  23.982  23.616  1.00  0.00     0.102 A 
ATOM      8  C   UNL A   1      38.169  23.143  26.026  1.00  0.00     0.044 C 
ATOM      9  C   UNL A   1      36.930  23.377  25.215  1.00  0.00    -0.047 A 
ATOM     10  C   UNL A   1      36.847  22.874  23.909  1.00  0.00     0.004 A 
ATOM     11  C   UNL A   1      35.862  24.113  25.749  1.00  0.00     0.051 A 
ATOM     12  C   UNL A   1      35.744  23.168  23.112  1.00  0.00     0.020 A 
ATOM     13  C   UNL A   1      34.761  24.417  24.954  1.00  0.00     0.142 A 
BRANCH  13  14
ATOM     14  O   UNL A   1      33.650  25.091  25.396  1.00  0.00    -0.455 OA
BRANCH  14  15
ATOM     15  C   UNL A   1      32.523  24.461  25.842  1.00  0.00     0.143 A 
ATOM     16  C   UNL A   1      32.696  23.072  25.941  1.00  0.00     0.048 A 
ATOM     17  C   UNL A   1      31.258  25.032  26.046  1.00  0.00     0.117 A 
ATOM     18  C   UNL A   1      31.635  22.246  26.293  1.00  0.00     0.007 A 
ATOM     19  C   UNL A   1      30.206  24.185  26.412  1.00  0.00     0.139 A 
ATOM     20  C   UNL A   1      30.389  22.808  26.538  1.00  0.00     0.040 A 
ATOM     21  F   UNL A   1      28.967  24.661  26.612  1.00  0.00    -0.206 F 
BRANCH  17  22
ATOM     22  C   UNL A   1      30.933  26.469  25.878  1.00  0.00     0.255 C 
ATOM     23  N   UNL A   1      30.939  27.245  26.996  1.00  0.00    -0.365 N 
ATOM     24  O   UNL A   1      30.677  26.955  24.784  1.00  0.00    -0.269 OA
ATOM     25  H   UNL A   1      31.145  26.846  27.872  1.00  0.00     0.159 HD
ATOM     26  H   UNL A   1      30.735  28.206  26.929  1.00  0.00     0.159 HD
ENDBRANCH  17  22
ENDBRANCH  14  15
ENDBRANCH  13  14
ENDBRANCH   5   7
ENDBRANCH   4   5
ENDBRANCH   3   4
ENDBRANCH   2   3
ENDBRANCH   1   2
BRANCH   1  27
ATOM     27  C   UNL A   1      33.613  28.767  24.294  1.00  0.00     0.202 C 
BRANCH  27  28
ATOM     28  C   UNL A   1      32.881  29.673  25.285  1.00  0.00     0.261 C 
BRANCH  28  29
ATOM     29  O   UNL A   1      33.794  30.160  26.295  1.00  0.00    -0.460 OA
BRANCH  29  30
ATOM     30  C   UNL A   1      34.125  29.284  27.291  1.00  0.00     0.338 C 
ATOM     31  O   UNL A   1      33.411  28.364  27.650  1.00  0.00    -0.246 OA
BRANCH  30  32
ATOM     32  C   UNL A   1      35.471  29.613  27.855  1.00  0.00     0.060 A 
ATOM     33  C   UNL A   1      36.578  29.885  27.027  1.00  0.00     0.016 A 
ATOM     34  C   UNL A   1      35.666  29.438  29.219  1.00  0.00     0.016 A 
ATOM     35  C   UNL A   1      37.888  29.838  27.544  1.00  0.00     0.010 A 
ATOM     36  C   UNL A   1      36.949  29.287  29.696  1.00  0.00     0.010 A 
ATOM     37  C   UNL A   1      38.074  29.463  28.869  1.00  0.00    -0.014 A 
BRANCH  37  38
ATOM     38  C   UNL A   1      39.341  29.160  29.553  1.00  0.00     0.031 A 
ATOM     39  C   UNL A   1      39.932  27.822  29.275  1.00  0.00     0.074 A 
ATOM     40  C   UNL A   1      40.123  30.161  30.038  1.00  0.00     0.049 A 
ATOM     41  N   UNL A   1      41.053  27.408  29.744  1.00  0.00    -0.248 NA
ATOM     42  C   UNL A   1      39.287  26.811  28.433  1.00  0.00     0.031 C 
ATOM     43  C   UNL A   1      41.586  30.211  30.102  1.00  0.00     0.029 A 
ATOM     44  N   UNL A   1      39.771  31.408  30.574  1.00  0.00    -0.354 N 
ATOM     45  C   UNL A   1      41.458  26.336  28.975  1.00  0.00     0.074 A 
ATOM     46  C   UNL A   1      40.265  25.912  28.294  1.00  0.00     0.031 C 
ATOM     47  C   UNL A   1      41.973  31.223  30.902  1.00  0.00     0.029 A 
ATOM     48  C   UNL A   1      40.767  31.783  31.487  1.00  0.00     0.049 A 
ATOM     49  H   UNL A   1      38.966  31.930  30.349  1.00  0.00     0.167 HD
ATOM     50  C   UNL A   1      42.797  26.072  28.911  1.00  0.00     0.037 A 
ATOM     51  C   UNL A   1      40.469  31.941  32.804  1.00  0.00     0.037 A 
ATOM     52  C   UNL A   1      43.508  26.900  29.903  1.00  0.00     0.049 A 
ATOM     53  C   UNL A   1      41.236  30.896  33.557  1.00  0.00     0.074 A 
ATOM     54  C   UNL A   1      44.362  27.986  29.807  1.00  0.00     0.029 A 
ATOM     55  N   UNL A   1      43.108  26.841  31.242  1.00  0.00    -0.354 N 
ATOM     56  N   UNL A   1      41.578  29.759  33.010  1.00  0.00    -0.248 NA
ATOM     57  C   UNL A   1      41.846  31.101  34.865  1.00  0.00     0.031 C 
ATOM     58  C   UNL A   1      44.377  28.641  31.076  1.00  0.00     0.029 A 
ATOM     59  C   UNL A   1      43.550  27.945  31.948  1.00  0.00     0.049 A 
ATOM     60  H   UNL A   1      42.580  26.108  31.632  1.00  0.00     0.167 HD
ATOM     61  C   UNL A   1      42.535  29.169  33.773  1.00  0.00     0.074 A 
ATOM     62  C   UNL A   1      42.619  30.004  34.962  1.00  0.00     0.031 C 
ATOM     63  C   UNL A   1      43.253  28.085  33.370  1.00  0.00     0.037 A 
BRANCH  50  64
ATOM     64  C   UNL A   1      43.513  25.246  27.843  1.00  0.00     0.058 A 
ATOM     65  C   UNL A   1      43.586  25.722  26.511  1.00  0.00     0.135 A 
ATOM     66  C   UNL A   1      44.081  23.962  28.013  1.00  0.00     0.135 A 
ATOM     67  F   UNL A   1      43.104  26.927  26.174  1.00  0.00    -0.206 F 
ATOM     68  C   UNL A   1      44.144  24.991  25.455  1.00  0.00     0.059 A 
ATOM     69  C   UNL A   1      44.666  23.221  26.978  1.00  0.00     0.059 A 
ATOM     70  F   UNL A   1      44.093  23.329  29.187  1.00  0.00    -0.206 F 
ATOM     71  C   UNL A   1      44.686  23.738  25.696  1.00  0.00     0.060 A 
BRANCH  71  72
ATOM     72  S   UNL A   1      45.420  22.811  24.336  1.00  0.00     0.124 S 
ATOM     73  O   UNL A   1      46.479  23.712  23.890  1.00  0.00    -0.237 OA
ATOM     74  O   UNL A   1      45.861  21.589  25.000  1.00  0.00    -0.237 OA
ATOM     75  O   UNL A   1      44.311  22.643  23.399  1.00  0.00    -0.744 OA
ENDBRANCH  71  72
ENDBRANCH  50  64
BRANCH  51  76
ATOM     76  C   UNL A   1      39.085  32.486  32.996  1.00  0.00     0.058 A 
ATOM     77  C   UNL A   1      38.832  33.749  32.410  1.00  0.00     0.135 A 
ATOM     78  C   UNL A   1      37.974  31.645  33.174  1.00  0.00     0.135 A 
ATOM     79  F   UNL A   1      39.847  34.610  32.229  1.00  0.00    -0.206 F 
ATOM     80  C   UNL A   1      37.595  34.085  31.857  1.00  0.00     0.059 A 
ATOM     81  C   UNL A   1      36.720  31.965  32.628  1.00  0.00     0.059 A 
ATOM     82  F   UNL A   1      38.129  30.433  33.725  1.00  0.00    -0.206 F 
ATOM     83  C   UNL A   1      36.561  33.154  31.914  1.00  0.00     0.060 A 
BRANCH  83  84
ATOM     84  S   UNL A   1      35.108  33.424  30.856  1.00  0.00     0.124 S 
ATOM     85  O   UNL A   1      35.481  32.715  29.641  1.00  0.00    -0.237 OA
ATOM     86  O   UNL A   1      34.036  32.813  31.642  1.00  0.00    -0.237 OA
ATOM     87  O   UNL A   1      35.038  34.877  30.752  1.00  0.00    -0.744 OA
ENDBRANCH  83  84
ENDBRANCH  51  76
BRANCH  63  88
ATOM     88  C   UNL A   1      43.796  27.086  34.345  1.00  0.00     0.058 A 
ATOM     89  C   UNL A   1      42.982  26.123  34.968  1.00  0.00     0.135 A 
ATOM     90  C   UNL A   1      45.188  26.936  34.527  1.00  0.00     0.135 A 
ATOM     91  F   UNL A   1      41.656  26.078  34.766  1.00  0.00    -0.206 F 
ATOM     92  C   UNL A   1      43.503  25.141  35.797  1.00  0.00     0.059 A 
ATOM     93  C   UNL A   1      45.734  25.916  35.293  1.00  0.00     0.059 A 
ATOM     94  F   UNL A   1      46.071  27.765  33.950  1.00  0.00    -0.206 F 
ATOM     95  C   UNL A   1      44.880  25.050  35.958  1.00  0.00     0.060 A 
BRANCH  95  96
ATOM     96  S   UNL A   1      45.543  23.782  37.039  1.00  0.00     0.124 S 
ATOM     97  O   UNL A   1      44.885  24.117  38.299  1.00  0.00    -0.237 OA
ATOM     98  O   UNL A   1      45.091  22.551  36.399  1.00  0.00    -0.237 OA
ATOM     99  O   UNL A   1      46.981  24.016  36.994  1.00  0.00    -0.744 OA
ENDBRANCH  95  96
ENDBRANCH  63  88
ENDBRANCH  37  38
ENDBRANCH  30  32
ENDBRANCH  29  30
ENDBRANCH  28  29
ENDBRANCH  27  28
ENDBRANCH   1  27
TORSDOF 20
ENDMDL
MODEL 3
REMARK VINA RESULT:     -11.8      1.708      3.042
REMARK SMILES Cc1ccc(C(=O)OCCOCCOC(=O)c2ccc(-c3c4nc(c(-c5c(F)cc(S(=O)(=O)[O-])cc5F)c5ccc([nH]5)c(-c5c(F)cc(S(=O)(=O)[O-])cc5F)c5nc(c(-c6c(F)cc(S(=O)(=O)[O-])cc6F)c6ccc3[nH]6)C=C5)C=C4)cc2)c(Oc2cccc(F)c2C(N)=O)c1
REMARK SMILES IDX 11 1 10 2 9 3 8 4 6 5 7 6 5 7 1 8 2 9 3 10 95 11 4 12 83 13
REMARK SMILES IDX 84 14 85 15 86 16 91 17 87 18 89 19 88 20 90 21 92 22 93 23
REMARK SMILES IDX 94 24 12 27 13 28 14 29 15 30 16 31 17 32 18 33 82 34 19 35
REMARK SMILES IDX 81 36 20 37 21 38 22 39 75 40 23 41 80 42 74 43 76 44 24 45
REMARK SMILES IDX 79 46 73 47 72 48 25 50 59 51 38 52 58 53 39 54 42 55 57 56
REMARK SMILES IDX 77 57 40 58 41 59 56 61 78 62 43 63 26 64 27 65 36 66 28 67
REMARK SMILES IDX 29 68 35 69 37 70 30 71 31 72 32 73 33 74 34 75 60 76 61 77
REMARK SMILES IDX 70 78 62 79 63 80 69 81 71 82 64 83 65 84 66 85 67 86 68 87
REMARK SMILES IDX 44 88 45 89 54 90 46 91 47 92 53 93 55 94 48 95 49 96 50 97
REMARK SMILES IDX 51 98 52 99
REMARK H PARENT 93 25 93 26 76 49 42 60
REMARK Flexibility Score: inf
ROOT
ATOM      1  O   UNL A   1      33.243  29.445  24.068  1.00  0.00    -0.374 OA
ENDROOT
BRANCH   1   2
ATOM      2  C   UNL A   1      33.950  28.223  23.894  1.00  0.00     0.202 C 
BRANCH   2   3
ATOM      3  C   UNL A   1      33.996  28.033  22.417  1.00  0.00     0.261 C 
BRANCH   3   4
ATOM      4  O   UNL A   1      33.961  26.629  22.097  1.00  0.00    -0.460 OA
BRANCH   4   5
ATOM      5  C   UNL A   1      32.899  26.047  21.474  1.00  0.00     0.342 C 
ATOM      6  O   UNL A   1      32.881  25.406  20.449  1.00  0.00    -0.246 OA
BRANCH   5   7
ATOM      7  C   UNL A   1      31.733  26.178  22.387  1.00  0.00     0.102 A 
ATOM      8  C   UNL A   1      27.920  26.394  24.330  1.00  0.00     0.044 C 
ATOM      9  C   UNL A   1      29.286  26.343  23.716  1.00  0.00    -0.047 A 
ATOM     10  C   UNL A   1      29.745  27.422  22.946  1.00  0.00     0.004 A 
ATOM     11  C   UNL A   1      30.099  25.213  23.888  1.00  0.00     0.051 A 
ATOM     12  C   UNL A   1      30.970  27.345  22.289  1.00  0.00     0.020 A 
ATOM     13  C   UNL A   1      31.321  25.127  23.227  1.00  0.00     0.142 A 
BRANCH  13  14
ATOM     14  O   UNL A   1      32.205  24.086  23.366  1.00  0.00    -0.455 OA
BRANCH  14  15
ATOM     15  C   UNL A   1      33.095  23.997  24.399  1.00  0.00     0.143 A 
ATOM     16  C   UNL A   1      34.414  24.237  23.984  1.00  0.00     0.048 A 
ATOM     17  C   UNL A   1      32.833  23.565  25.707  1.00  0.00     0.117 A 
ATOM     18  C   UNL A   1      35.474  24.106  24.872  1.00  0.00     0.007 A 
ATOM     19  C   UNL A   1      33.913  23.451  26.590  1.00  0.00     0.139 A 
ATOM     20  C   UNL A   1      35.220  23.720  26.182  1.00  0.00     0.040 A 
ATOM     21  F   UNL A   1      33.738  23.034  27.853  1.00  0.00    -0.206 F 
BRANCH  17  22
ATOM     22  C   UNL A   1      31.498  23.192  26.232  1.00  0.00     0.255 C 
ATOM     23  N   UNL A   1      30.975  22.004  25.821  1.00  0.00    -0.365 N 
ATOM     24  O   UNL A   1      30.882  23.906  27.012  1.00  0.00    -0.269 OA
ATOM     25  H   UNL A   1      31.477  21.436  25.192  1.00  0.00     0.159 HD
ATOM     26  H   UNL A   1      30.094  21.714  26.150  1.00  0.00     0.159 HD
ENDBRANCH  17  22
ENDBRANCH  14  15
ENDBRANCH  13  14
ENDBRANCH   5   7
ENDBRANCH   4   5
ENDBRANCH   3   4
ENDBRANCH   2   3
ENDBRANCH   1   2
BRANCH   1  27
ATOM     27  C   UNL A   1      32.151  29.397  24.952  1.00  0.00     0.202 C 
BRANCH  27  28
ATOM     28  C   UNL A   1      32.309  30.343  26.144  1.00  0.00     0.261 C 
BRANCH  28  29
ATOM     29  O   UNL A   1      33.691  30.395  26.568  1.00  0.00    -0.460 OA
BRANCH  29  30
ATOM     30  C   UNL A   1      34.091  29.439  27.461  1.00  0.00     0.338 C 
ATOM     31  O   UNL A   1      33.418  28.469  27.763  1.00  0.00    -0.246 OA
BRANCH  30  32
ATOM     32  C   UNL A   1      35.454  29.753  27.991  1.00  0.00     0.060 A 
ATOM     33  C   UNL A   1      36.540  30.024  27.137  1.00  0.00     0.016 A 
ATOM     34  C   UNL A   1      35.683  29.567  29.348  1.00  0.00     0.016 A 
ATOM     35  C   UNL A   1      37.863  29.962  27.619  1.00  0.00     0.010 A 
ATOM     36  C   UNL A   1      36.976  29.401  29.791  1.00  0.00     0.010 A 
ATOM     37  C   UNL A   1      38.081  29.575  28.936  1.00  0.00    -0.014 A 
BRANCH  37  38
ATOM     38  C   UNL A   1      39.362  29.256  29.584  1.00  0.00     0.031 A 
ATOM     39  C   UNL A   1      39.971  27.946  29.225  1.00  0.00     0.074 A 
ATOM     40  C   UNL A   1      40.136  30.243  30.111  1.00  0.00     0.049 A 
ATOM     41  N   UNL A   1      41.106  27.526  29.654  1.00  0.00    -0.248 NA
ATOM     42  C   UNL A   1      39.329  26.972  28.338  1.00  0.00     0.031 C 
ATOM     43  C   UNL A   1      41.599  30.314  30.157  1.00  0.00     0.029 A 
ATOM     44  N   UNL A   1      39.773  31.453  30.719  1.00  0.00    -0.354 N 
ATOM     45  C   UNL A   1      41.515  26.504  28.822  1.00  0.00     0.074 A 
ATOM     46  C   UNL A   1      40.319  26.098  28.136  1.00  0.00     0.031 C 
ATOM     47  C   UNL A   1      41.982  31.287  31.005  1.00  0.00     0.029 A 
ATOM     48  C   UNL A   1      40.777  31.794  31.637  1.00  0.00     0.049 A 
ATOM     49  H   UNL A   1      38.956  31.973  30.535  1.00  0.00     0.167 HD
ATOM     50  C   UNL A   1      42.857  26.267  28.725  1.00  0.00     0.037 A 
ATOM     51  C   UNL A   1      40.496  31.876  32.965  1.00  0.00     0.037 A 
ATOM     52  C   UNL A   1      43.570  27.051  29.750  1.00  0.00     0.049 A 
ATOM     53  C   UNL A   1      41.291  30.804  33.648  1.00  0.00     0.074 A 
ATOM     54  C   UNL A   1      44.405  28.155  29.701  1.00  0.00     0.029 A 
ATOM     55  N   UNL A   1      43.192  26.913  31.090  1.00  0.00    -0.354 N 
ATOM     56  N   UNL A   1      41.642  29.705  33.035  1.00  0.00    -0.248 NA
ATOM     57  C   UNL A   1      41.918  30.949  34.957  1.00  0.00     0.031 C 
ATOM     58  C   UNL A   1      44.429  28.740  31.003  1.00  0.00     0.029 A 
ATOM     59  C   UNL A   1      43.627  27.985  31.847  1.00  0.00     0.049 A 
ATOM     60  H   UNL A   1      42.682  26.151  31.446  1.00  0.00     0.167 HD
ATOM     61  C   UNL A   1      42.621  29.091  33.752  1.00  0.00     0.074 A 
ATOM     62  C   UNL A   1      42.710  29.861  34.983  1.00  0.00     0.031 C 
ATOM     63  C   UNL A   1      43.350  28.042  33.280  1.00  0.00     0.037 A 
BRANCH  50  64
ATOM     64  C   UNL A   1      43.570  25.511  27.603  1.00  0.00     0.058 A 
ATOM     65  C   UNL A   1      43.619  24.096  27.624  1.00  0.00     0.135 A 
ATOM     66  C   UNL A   1      44.284  26.083  26.525  1.00  0.00     0.135 A 
ATOM     67  F   UNL A   1      42.988  23.390  28.572  1.00  0.00    -0.206 F 
ATOM     68  C   UNL A   1      44.325  23.330  26.687  1.00  0.00     0.059 A 
ATOM     69  C   UNL A   1      44.977  25.339  25.562  1.00  0.00     0.059 A 
ATOM     70  F   UNL A   1      44.378  27.401  26.340  1.00  0.00    -0.206 F 
ATOM     71  C   UNL A   1      45.002  23.959  25.653  1.00  0.00     0.060 A 
BRANCH  71  72
ATOM     72  S   UNL A   1      45.890  22.967  24.440  1.00  0.00     0.124 S 
ATOM     73  O   UNL A   1      44.839  22.649  23.477  1.00  0.00    -0.237 OA
ATOM     74  O   UNL A   1      46.918  23.894  23.978  1.00  0.00    -0.237 OA
ATOM     75  O   UNL A   1      46.382  21.832  25.219  1.00  0.00    -0.744 OA
ENDBRANCH  71  72
ENDBRANCH  50  64
BRANCH  51  76
ATOM     76  C   UNL A   1      39.107  32.386  33.206  1.00  0.00     0.058 A 
ATOM     77  C   UNL A   1      38.875  33.736  32.851  1.00  0.00     0.135 A 
ATOM     78  C   UNL A   1      37.990  31.534  33.191  1.00  0.00     0.135 A 
ATOM     79  F   UNL A   1      39.895  34.609  32.864  1.00  0.00    -0.206 F 
ATOM     80  C   UNL A   1      37.658  34.175  32.328  1.00  0.00     0.059 A 
ATOM     81  C   UNL A   1      36.755  31.957  32.671  1.00  0.00     0.059 A 
ATOM     82  F   UNL A   1      38.126  30.241  33.517  1.00  0.00    -0.206 F 
ATOM     83  C   UNL A   1      36.621  33.257  32.180  1.00  0.00     0.060 A 
BRANCH  83  84
ATOM     84  S   UNL A   1      35.205  33.725  31.141  1.00  0.00     0.124 S 
ATOM     85  O   UNL A   1      35.843  33.979  29.856  1.00  0.00    -0.237 OA
ATOM     86  O   UNL A   1      34.366  32.528  31.205  1.00  0.00    -0.237 OA
ATOM     87  O   UNL A   1      34.662  34.892  31.825  1.00  0.00    -0.744 OA
ENDBRANCH  83  84
ENDBRANCH  51  76
BRANCH  63  88
ATOM     88  C   UNL A   1      43.923  27.000  34.191  1.00  0.00     0.058 A 
ATOM     89  C   UNL A   1      43.129  26.013  34.800  1.00  0.00     0.135 A 
ATOM     90  C   UNL A   1      45.321  26.841  34.317  1.00  0.00     0.135 A 
ATOM     91  F   UNL A   1      41.797  25.979  34.643  1.00  0.00    -0.206 F 
ATOM     92  C   UNL A   1      43.676  24.995  35.566  1.00  0.00     0.059 A 
ATOM     93  C   UNL A   1      45.890  25.788  35.018  1.00  0.00     0.059 A 
ATOM     94  F   UNL A   1      46.185  27.693  33.745  1.00  0.00    -0.206 F 
ATOM     95  C   UNL A   1      45.057  24.895  35.674  1.00  0.00     0.060 A 
BRANCH  95  96
ATOM     96  S   UNL A   1      45.754  23.580  36.676  1.00  0.00     0.124 S 
ATOM     97  O   UNL A   1      45.390  24.027  38.017  1.00  0.00    -0.237 OA
ATOM     98  O   UNL A   1      45.044  22.401  36.190  1.00  0.00    -0.237 OA
ATOM     99  O   UNL A   1      47.175  23.628  36.357  1.00  0.00    -0.744 OA
ENDBRANCH  95  96
ENDBRANCH  63  88
ENDBRANCH  37  38
ENDBRANCH  30  32
ENDBRANCH  29  30
ENDBRANCH  28  29
ENDBRANCH  27  28
ENDBRANCH   1  27
TORSDOF 20
ENDMDL
