MODEL 1
REMARK VINA RESULT:     -10.8      0.000      0.000
REMARK SMILES COc1nc2c(cc1C(=O)NCc1ccc(C(=O)OCCOCCOC(=O)c3ccc(-c4c5nc(c(-c6c(F)cc(S(=O)(=O)[O-])cc6F)c6ccc([nH]6)c(-c6c(F)cc(S(=O)(=O)[O-])cc6F)c6nc(c(-c7c(F)cc(S(=O)(=O)[O-])cc7F)c7ccc4[nH]7)C=C6)C=C5)cc3)s1)CCC2
REMARK SMILES IDX 21 1 20 2 19 3 17 4 18 5 16 6 13 7 14 8 94 9 15 10 12 11
REMARK SMILES IDX 11 12 9 13 10 14 8 16 3 17 4 18 5 19 7 20 6 21 97 22 95 23
REMARK SMILES IDX 96 24 2 25 1 26 22 27 23 28 24 29 25 30 26 31 27 32 28 33
REMARK SMILES IDX 29 34 93 35 30 36 92 37 31 38 32 39 33 40 86 41 34 42 91 43
REMARK SMILES IDX 85 44 87 45 35 46 90 47 84 48 83 49 36 51 70 52 49 53 69 54
REMARK SMILES IDX 50 55 53 56 68 57 88 58 51 59 52 60 67 62 89 63 54 64 37 65
REMARK SMILES IDX 38 66 47 67 39 68 40 69 46 70 48 71 41 72 42 73 43 74 44 75
REMARK SMILES IDX 45 76 71 77 72 78 81 79 73 80 74 81 80 82 82 83 75 84 76 85
REMARK SMILES IDX 77 86 78 87 79 88 55 89 56 90 65 91 57 92 58 93 64 94 66 95
REMARK SMILES IDX 59 96 60 97 61 98 62 99 63 100
REMARK H PARENT 11 15 87 50 53 61
REMARK Flexibility Score: inf
ROOT
ATOM      1  C   UNL A   1      43.789  21.309  25.259  1.00  0.00     0.202 C 
ENDROOT
BRANCH   1   2
ATOM      2  C   UNL A   1      42.711  20.680  26.145  1.00  0.00     0.261 C 
BRANCH   2   3
ATOM      3  O   UNL A   1      41.431  21.245  25.810  1.00  0.00    -0.459 OA
BRANCH   3   4
ATOM      4  C   UNL A   1      40.550  21.357  26.845  1.00  0.00     0.348 C 
ATOM      5  O   UNL A   1      40.700  20.832  27.943  1.00  0.00    -0.245 OA
BRANCH   4   6
ATOM      6  C   UNL A   1      39.512  22.306  26.489  1.00  0.00     0.112 A 
ATOM      7  C   UNL A   1      37.357  23.219  25.667  1.00  0.00     0.025 A 
ATOM      8  C   UNL A   1      38.067  24.140  26.412  1.00  0.00     0.018 A 
ATOM      9  S   UNL A   1      38.245  21.766  25.473  1.00  0.00    -0.131 S 
ATOM     10  C   UNL A   1      39.301  23.609  26.902  1.00  0.00     0.028 A 
BRANCH   7  11
ATOM     11  C   UNL A   1      36.018  23.308  25.012  1.00  0.00     0.163 C 
BRANCH  11  12
ATOM     12  N   UNL A   1      34.978  23.572  25.986  1.00  0.00    -0.347 N 
ATOM     13  C   UNL A   1      33.703  23.930  25.623  1.00  0.00     0.257 C 
ATOM     14  O   UNL A   1      32.796  23.103  25.699  1.00  0.00    -0.269 OA
ATOM     15  H   UNL A   1      35.194  23.490  26.942  1.00  0.00     0.164 HD
BRANCH  13  16
ATOM     16  C   UNL A   1      33.369  25.363  25.435  1.00  0.00     0.102 A 
ATOM     17  C   UNL A   1      33.565  26.116  24.273  1.00  0.00     0.226 A 
ATOM     18  N   UNL A   1      33.282  27.441  24.156  1.00  0.00    -0.218 NA
ATOM     19  C   UNL A   1      32.764  28.019  25.248  1.00  0.00     0.048 A 
ATOM     20  C   UNL A   1      32.764  26.004  26.529  1.00  0.00     0.025 A 
ATOM     21  C   UNL A   1      32.468  27.349  26.426  1.00  0.00    -0.025 A 
ATOM     22  C   UNL A   1      32.381  29.469  25.342  1.00  0.00     0.057 C 
ATOM     23  C   UNL A   1      31.805  28.254  27.408  1.00  0.00     0.038 C 
ATOM     24  C   UNL A   1      32.212  29.631  26.860  1.00  0.00     0.011 C 
BRANCH  17  25
ATOM     25  O   UNL A   1      34.028  25.549  23.118  1.00  0.00    -0.480 OA
ATOM     26  C   UNL A   1      33.345  26.131  22.008  1.00  0.00     0.280 C 
ENDBRANCH  17  25
ENDBRANCH  13  16
ENDBRANCH  11  12
ENDBRANCH   7  11
ENDBRANCH   4   6
ENDBRANCH   3   4
ENDBRANCH   2   3
ENDBRANCH   1   2
BRANCH   1  27
ATOM     27  O   UNL A   1      43.336  22.419  24.481  1.00  0.00    -0.374 OA
BRANCH  27  28
ATOM     28  C   UNL A   1      43.957  23.680  24.755  1.00  0.00     0.202 C 
BRANCH  28  29
ATOM     29  C   UNL A   1      43.359  24.461  25.931  1.00  0.00     0.261 C 
BRANCH  29  30
ATOM     30  O   UNL A   1      43.106  25.827  25.555  1.00  0.00    -0.460 OA
BRANCH  30  31
ATOM     31  C   UNL A   1      41.912  26.320  25.963  1.00  0.00     0.338 C 
ATOM     32  O   UNL A   1      40.843  26.234  25.385  1.00  0.00    -0.246 OA
BRANCH  31  33
ATOM     33  C   UNL A   1      42.033  26.821  27.344  1.00  0.00     0.060 A 
ATOM     34  C   UNL A   1      41.108  26.347  28.282  1.00  0.00     0.016 A 
ATOM     35  C   UNL A   1      42.972  27.794  27.695  1.00  0.00     0.016 A 
ATOM     36  C   UNL A   1      41.073  26.888  29.563  1.00  0.00     0.010 A 
ATOM     37  C   UNL A   1      42.918  28.358  28.973  1.00  0.00     0.010 A 
ATOM     38  C   UNL A   1      41.937  27.940  29.891  1.00  0.00    -0.014 A 
BRANCH  38  39
ATOM     39  C   UNL A   1      41.645  28.760  31.089  1.00  0.00     0.031 A 
ATOM     40  C   UNL A   1      40.505  29.740  31.011  1.00  0.00     0.074 A 
ATOM     41  C   UNL A   1      42.345  28.614  32.227  1.00  0.00     0.049 A 
ATOM     42  N   UNL A   1      40.089  30.601  31.902  1.00  0.00    -0.248 NA
ATOM     43  C   UNL A   1      39.724  29.740  29.763  1.00  0.00     0.031 C 
ATOM     44  C   UNL A   1      43.420  27.648  32.442  1.00  0.00     0.029 A 
ATOM     45  N   UNL A   1      42.250  29.286  33.418  1.00  0.00    -0.354 N 
ATOM     46  C   UNL A   1      38.994  31.236  31.327  1.00  0.00     0.074 A 
ATOM     47  C   UNL A   1      38.823  30.679  30.004  1.00  0.00     0.031 C 
ATOM     48  C   UNL A   1      43.897  27.801  33.691  1.00  0.00     0.029 A 
ATOM     49  C   UNL A   1      43.181  28.894  34.348  1.00  0.00     0.049 A 
ATOM     50  H   UNL A   1      41.577  29.985  33.590  1.00  0.00     0.167 HD
ATOM     51  C   UNL A   1      38.200  32.196  31.855  1.00  0.00     0.037 A 
ATOM     52  C   UNL A   1      43.437  29.382  35.577  1.00  0.00     0.037 A 
ATOM     53  C   UNL A   1      38.394  32.773  33.158  1.00  0.00     0.049 A 
ATOM     54  C   UNL A   1      42.613  30.528  36.102  1.00  0.00     0.074 A 
ATOM     55  C   UNL A   1      37.671  33.779  33.773  1.00  0.00     0.029 A 
ATOM     56  N   UNL A   1      39.390  32.393  34.045  1.00  0.00    -0.354 N 
ATOM     57  N   UNL A   1      41.601  31.145  35.536  1.00  0.00    -0.248 NA
ATOM     58  C   UNL A   1      42.968  31.049  37.429  1.00  0.00     0.031 C 
ATOM     59  C   UNL A   1      38.254  34.033  35.020  1.00  0.00     0.029 A 
ATOM     60  C   UNL A   1      39.313  33.157  35.198  1.00  0.00     0.049 A 
ATOM     61  H   UNL A   1      40.054  31.685  33.881  1.00  0.00     0.167 HD
ATOM     62  C   UNL A   1      41.192  32.116  36.443  1.00  0.00     0.074 A 
ATOM     63  C   UNL A   1      42.056  31.997  37.601  1.00  0.00     0.031 C 
ATOM     64  C   UNL A   1      40.192  33.027  36.332  1.00  0.00     0.037 A 
BRANCH  51  65
ATOM     65  C   UNL A   1      37.072  32.699  31.004  1.00  0.00     0.058 A 
ATOM     66  C   UNL A   1      37.290  33.622  29.969  1.00  0.00     0.135 A 
ATOM     67  C   UNL A   1      35.760  32.249  31.217  1.00  0.00     0.135 A 
ATOM     68  F   UNL A   1      38.523  34.104  29.743  1.00  0.00    -0.206 F 
ATOM     69  C   UNL A   1      36.243  34.093  29.184  1.00  0.00     0.059 A 
ATOM     70  C   UNL A   1      34.700  32.691  30.431  1.00  0.00     0.059 A 
ATOM     71  F   UNL A   1      35.497  31.377  32.203  1.00  0.00    -0.206 F 
ATOM     72  C   UNL A   1      34.951  33.622  29.423  1.00  0.00     0.060 A 
BRANCH  72  73
ATOM     73  S   UNL A   1      33.603  34.237  28.392  1.00  0.00     0.124 S 
ATOM     74  O   UNL A   1      33.230  33.036  27.651  1.00  0.00    -0.237 OA
ATOM     75  O   UNL A   1      32.635  34.696  29.384  1.00  0.00    -0.237 OA
ATOM     76  O   UNL A   1      34.233  35.291  27.602  1.00  0.00    -0.744 OA
ENDBRANCH  72  73
ENDBRANCH  51  65
BRANCH  52  77
ATOM     77  C   UNL A   1      44.541  28.806  36.390  1.00  0.00     0.058 A 
ATOM     78  C   UNL A   1      44.331  27.677  37.195  1.00  0.00     0.135 A 
ATOM     79  C   UNL A   1      45.824  29.373  36.376  1.00  0.00     0.135 A 
ATOM     80  F   UNL A   1      43.117  27.111  37.251  1.00  0.00    -0.206 F 
ATOM     81  C   UNL A   1      45.355  27.131  37.962  1.00  0.00     0.059 A 
ATOM     82  C   UNL A   1      46.869  28.834  37.119  1.00  0.00     0.059 A 
ATOM     83  F   UNL A   1      46.075  30.452  35.619  1.00  0.00    -0.206 F 
ATOM     84  C   UNL A   1      46.623  27.715  37.914  1.00  0.00     0.060 A 
BRANCH  84  85
ATOM     85  S   UNL A   1      47.960  26.961  38.866  1.00  0.00     0.124 S 
ATOM     86  O   UNL A   1      47.515  25.576  38.952  1.00  0.00    -0.237 OA
ATOM     87  O   UNL A   1      49.120  27.209  38.015  1.00  0.00    -0.237 OA
ATOM     88  O   UNL A   1      47.942  27.710  40.119  1.00  0.00    -0.744 OA
ENDBRANCH  84  85
ENDBRANCH  52  77
BRANCH  64  89
ATOM     89  C   UNL A   1      39.972  33.951  37.495  1.00  0.00     0.058 A 
ATOM     90  C   UNL A   1      39.174  33.579  38.588  1.00  0.00     0.135 A 
ATOM     91  C   UNL A   1      40.596  35.208  37.534  1.00  0.00     0.135 A 
ATOM     92  F   UNL A   1      38.554  32.389  38.595  1.00  0.00    -0.206 F 
ATOM     93  C   UNL A   1      38.977  34.434  39.666  1.00  0.00     0.059 A 
ATOM     94  C   UNL A   1      40.432  36.070  38.614  1.00  0.00     0.059 A 
ATOM     95  F   UNL A   1      41.381  35.606  36.520  1.00  0.00    -0.206 F 
ATOM     96  C   UNL A   1      39.608  35.680  39.669  1.00  0.00     0.060 A 
BRANCH  96  97
ATOM     97  S   UNL A   1      39.355  36.777  41.079  1.00  0.00     0.124 S 
ATOM     98  O   UNL A   1      38.818  37.969  40.430  1.00  0.00    -0.237 OA
ATOM     99  O   UNL A   1      38.413  36.024  41.901  1.00  0.00    -0.237 OA
ATOM    100  O   UNL A   1      40.694  36.919  41.643  1.00  0.00    -0.744 OA
ENDBRANCH  96  97
ENDBRANCH  64  89
ENDBRANCH  38  39
ENDBRANCH  31  33
ENDBRANCH  30  31
ENDBRANCH  29  30
ENDBRANCH  28  29
ENDBRANCH  27  28
ENDBRANCH   1  27
TORSDOF 21
ENDMDL
MODEL 2
REMARK VINA RESULT:     -10.8      4.819     10.699
REMARK SMILES COc1nc2c(cc1C(=O)NCc1ccc(C(=O)OCCOCCOC(=O)c3ccc(-c4c5nc(c(-c6c(F)cc(S(=O)(=O)[O-])cc6F)c6ccc([nH]6)c(-c6c(F)cc(S(=O)(=O)[O-])cc6F)c6nc(c(-c7c(F)cc(S(=O)(=O)[O-])cc7F)c7ccc4[nH]7)C=C6)C=C5)cc3)s1)CCC2
REMARK SMILES IDX 21 1 20 2 19 3 17 4 18 5 16 6 13 7 14 8 94 9 15 10 12 11
REMARK SMILES IDX 11 12 9 13 10 14 8 16 3 17 4 18 5 19 7 20 6 21 97 22 95 23
REMARK SMILES IDX 96 24 2 25 1 26 22 27 23 28 24 29 25 30 26 31 27 32 28 33
REMARK SMILES IDX 29 34 93 35 30 36 92 37 31 38 32 39 33 40 86 41 34 42 91 43
REMARK SMILES IDX 85 44 87 45 35 46 90 47 84 48 83 49 36 51 70 52 49 53 69 54
REMARK SMILES IDX 50 55 53 56 68 57 88 58 51 59 52 60 67 62 89 63 54 64 37 65
REMARK SMILES IDX 38 66 47 67 39 68 40 69 46 70 48 71 41 72 42 73 43 74 44 75
REMARK SMILES IDX 45 76 71 77 72 78 81 79 73 80 74 81 80 82 82 83 75 84 76 85
REMARK SMILES IDX 77 86 78 87 79 88 55 89 56 90 65 91 57 92 58 93 64 94 66 95
REMARK SMILES IDX 59 96 60 97 61 98 62 99 63 100
REMARK H PARENT 11 15 87 50 53 61
REMARK Flexibility Score: inf
ROOT
ATOM      1  C   UNL A   1      30.569  30.635  24.740  1.00  0.00     0.202 C 
ENDROOT
BRANCH   1   2
ATOM      2  C   UNL A   1      30.204  29.772  23.530  1.00  0.00     0.261 C 
BRANCH   2   3
ATOM      3  O   UNL A   1      30.096  28.398  23.941  1.00  0.00    -0.459 OA
BRANCH   3   4
ATOM      4  C   UNL A   1      30.764  27.498  23.164  1.00  0.00     0.348 C 
ATOM      5  O   UNL A   1      30.676  27.438  21.942  1.00  0.00    -0.245 OA
BRANCH   4   6
ATOM      6  C   UNL A   1      31.691  26.748  23.989  1.00  0.00     0.112 A 
ATOM      7  C   UNL A   1      33.648  25.378  24.659  1.00  0.00     0.025 A 
ATOM      8  C   UNL A   1      33.028  25.972  25.741  1.00  0.00     0.018 A 
ATOM      9  S   UNL A   1      32.801  25.707  23.206  1.00  0.00    -0.131 S 
ATOM     10  C   UNL A   1      31.911  26.777  25.354  1.00  0.00     0.028 A 
BRANCH   7  11
ATOM     11  C   UNL A   1      34.860  24.510  24.576  1.00  0.00     0.163 C 
BRANCH  11  12
ATOM     12  N   UNL A   1      34.929  23.602  25.702  1.00  0.00    -0.347 N 
ATOM     13  C   UNL A   1      35.420  22.324  25.590  1.00  0.00     0.257 C 
ATOM     14  O   UNL A   1      36.542  22.065  26.021  1.00  0.00    -0.269 OA
ATOM     15  H   UNL A   1      34.614  23.913  26.581  1.00  0.00     0.164 HD
BRANCH  13  16
ATOM     16  C   UNL A   1      34.502  21.215  25.233  1.00  0.00     0.102 A 
ATOM     17  C   UNL A   1      33.107  21.282  25.162  1.00  0.00     0.226 A 
ATOM     18  N   UNL A   1      32.299  20.228  24.870  1.00  0.00    -0.218 NA
ATOM     19  C   UNL A   1      32.926  19.070  24.625  1.00  0.00     0.048 A 
ATOM     20  C   UNL A   1      35.111  19.992  24.904  1.00  0.00     0.025 A 
ATOM     21  C   UNL A   1      34.304  18.912  24.603  1.00  0.00    -0.025 A 
ATOM     22  C   UNL A   1      32.231  17.782  24.285  1.00  0.00     0.057 C 
ATOM     23  C   UNL A   1      34.682  17.529  24.194  1.00  0.00     0.038 C 
ATOM     24  C   UNL A   1      33.374  16.772  24.474  1.00  0.00     0.011 C 
BRANCH  17  25
ATOM     25  O   UNL A   1      32.433  22.458  25.340  1.00  0.00    -0.480 OA
ATOM     26  C   UNL A   1      31.181  22.186  25.968  1.00  0.00     0.280 C 
ENDBRANCH  17  25
ENDBRANCH  13  16
ENDBRANCH  11  12
ENDBRANCH   7  11
ENDBRANCH   4   6
ENDBRANCH   3   4
ENDBRANCH   2   3
ENDBRANCH   1   2
BRANCH   1  27
ATOM     27  O   UNL A   1      31.811  30.287  25.357  1.00  0.00    -0.374 OA
BRANCH  27  28
ATOM     28  C   UNL A   1      31.836  30.310  26.788  1.00  0.00     0.202 C 
BRANCH  28  29
ATOM     29  C   UNL A   1      33.198  30.009  27.424  1.00  0.00     0.261 C 
BRANCH  29  30
ATOM     30  O   UNL A   1      34.033  31.182  27.410  1.00  0.00    -0.460 OA
BRANCH  30  31
ATOM     31  C   UNL A   1      34.713  31.411  28.559  1.00  0.00     0.338 C 
ATOM     32  O   UNL A   1      34.338  32.062  29.520  1.00  0.00    -0.246 OA
BRANCH  31  33
ATOM     33  C   UNL A   1      35.929  30.579  28.586  1.00  0.00     0.060 A 
ATOM     34  C   UNL A   1      36.359  30.112  29.834  1.00  0.00     0.016 A 
ATOM     35  C   UNL A   1      36.679  30.333  27.434  1.00  0.00     0.016 A 
ATOM     36  C   UNL A   1      37.576  29.447  29.949  1.00  0.00     0.010 A 
ATOM     37  C   UNL A   1      37.915  29.690  27.553  1.00  0.00     0.010 A 
ATOM     38  C   UNL A   1      38.386  29.291  28.817  1.00  0.00    -0.014 A 
BRANCH  38  39
ATOM     39  C   UNL A   1      39.814  28.945  29.000  1.00  0.00     0.031 A 
ATOM     40  C   UNL A   1      40.727  29.998  29.568  1.00  0.00     0.074 A 
ATOM     41  C   UNL A   1      40.282  27.720  28.709  1.00  0.00     0.049 A 
ATOM     42  N   UNL A   1      42.017  29.956  29.772  1.00  0.00    -0.248 NA
ATOM     43  C   UNL A   1      40.096  31.268  29.966  1.00  0.00     0.031 C 
ATOM     44  C   UNL A   1      39.479  26.599  28.224  1.00  0.00     0.029 A 
ATOM     45  N   UNL A   1      41.555  27.217  28.781  1.00  0.00    -0.354 N 
ATOM     46  C   UNL A   1      42.350  31.184  30.331  1.00  0.00     0.074 A 
ATOM     47  C   UNL A   1      41.132  31.960  30.414  1.00  0.00     0.031 C 
ATOM     48  C   UNL A   1      40.284  25.540  28.027  1.00  0.00     0.029 A 
ATOM     49  C   UNL A   1      41.662  25.920  28.343  1.00  0.00     0.049 A 
ATOM     50  H   UNL A   1      42.322  27.738  29.114  1.00  0.00     0.167 HD
ATOM     51  C   UNL A   1      43.561  31.627  30.742  1.00  0.00     0.037 A 
ATOM     52  C   UNL A   1      42.751  25.142  28.193  1.00  0.00     0.037 A 
ATOM     53  C   UNL A   1      44.775  30.866  30.627  1.00  0.00     0.049 A 
ATOM     54  C   UNL A   1      44.106  25.694  28.552  1.00  0.00     0.074 A 
ATOM     55  C   UNL A   1      46.062  31.236  30.976  1.00  0.00     0.029 A 
ATOM     56  N   UNL A   1      44.851  29.578  30.117  1.00  0.00    -0.354 N 
ATOM     57  N   UNL A   1      44.413  26.870  29.048  1.00  0.00    -0.248 NA
ATOM     58  C   UNL A   1      45.262  24.817  28.324  1.00  0.00     0.031 C 
ATOM     59  C   UNL A   1      46.922  30.183  30.643  1.00  0.00     0.029 A 
ATOM     60  C   UNL A   1      46.166  29.143  30.126  1.00  0.00     0.049 A 
ATOM     61  H   UNL A   1      44.085  29.051  29.797  1.00  0.00     0.167 HD
ATOM     62  C   UNL A   1      45.796  26.868  29.204  1.00  0.00     0.074 A 
ATOM     63  C   UNL A   1      46.263  25.569  28.762  1.00  0.00     0.031 C 
ATOM     64  C   UNL A   1      46.608  27.850  29.670  1.00  0.00     0.037 A 
BRANCH  51  65
ATOM     65  C   UNL A   1      43.626  33.008  31.324  1.00  0.00     0.058 A 
ATOM     66  C   UNL A   1      43.838  34.134  30.514  1.00  0.00     0.135 A 
ATOM     67  C   UNL A   1      43.467  33.211  32.704  1.00  0.00     0.135 A 
ATOM     68  F   UNL A   1      44.023  33.990  29.192  1.00  0.00    -0.206 F 
ATOM     69  C   UNL A   1      43.905  35.415  31.054  1.00  0.00     0.059 A 
ATOM     70  C   UNL A   1      43.511  34.485  33.263  1.00  0.00     0.059 A 
ATOM     71  F   UNL A   1      43.276  32.165  33.523  1.00  0.00    -0.206 F 
ATOM     72  C   UNL A   1      43.741  35.579  32.431  1.00  0.00     0.060 A 
BRANCH  72  73
ATOM     73  S   UNL A   1      43.824  37.247  33.116  1.00  0.00     0.124 S 
ATOM     74  O   UNL A   1      43.549  38.061  31.935  1.00  0.00    -0.237 OA
ATOM     75  O   UNL A   1      42.772  37.222  34.127  1.00  0.00    -0.237 OA
ATOM     76  O   UNL A   1      45.185  37.334  33.634  1.00  0.00    -0.744 OA
ENDBRANCH  72  73
ENDBRANCH  51  65
BRANCH  52  77
ATOM     77  C   UNL A   1      42.612  23.763  27.656  1.00  0.00     0.058 A 
ATOM     78  C   UNL A   1      42.513  22.659  28.515  1.00  0.00     0.135 A 
ATOM     79  C   UNL A   1      42.573  23.523  26.274  1.00  0.00     0.135 A 
ATOM     80  F   UNL A   1      42.560  22.839  29.844  1.00  0.00    -0.206 F 
ATOM     81  C   UNL A   1      42.384  21.365  28.024  1.00  0.00     0.059 A 
ATOM     82  C   UNL A   1      42.426  22.240  25.758  1.00  0.00     0.059 A 
ATOM     83  F   UNL A   1      42.660  24.548  25.411  1.00  0.00    -0.206 F 
ATOM     84  C   UNL A   1      42.338  21.166  26.643  1.00  0.00     0.060 A 
BRANCH  84  85
ATOM     85  S   UNL A   1      42.110  19.486  26.016  1.00  0.00     0.124 S 
ATOM     86  O   UNL A   1      42.493  18.687  27.174  1.00  0.00    -0.237 OA
ATOM     87  O   UNL A   1      40.691  19.477  25.673  1.00  0.00    -0.237 OA
ATOM     88  O   UNL A   1      43.022  19.427  24.878  1.00  0.00    -0.744 OA
ENDBRANCH  84  85
ENDBRANCH  52  77
BRANCH  64  89
ATOM     89  C   UNL A   1      48.078  27.550  29.738  1.00  0.00     0.058 A 
ATOM     90  C   UNL A   1      48.655  26.960  30.873  1.00  0.00     0.135 A 
ATOM     91  C   UNL A   1      48.912  27.824  28.642  1.00  0.00     0.135 A 
ATOM     92  F   UNL A   1      47.900  26.684  31.947  1.00  0.00    -0.206 F 
ATOM     93  C   UNL A   1      50.015  26.678  30.931  1.00  0.00     0.059 A 
ATOM     94  C   UNL A   1      50.271  27.528  28.670  1.00  0.00     0.059 A 
ATOM     95  F   UNL A   1      48.407  28.376  27.528  1.00  0.00    -0.206 F 
ATOM     96  C   UNL A   1      50.817  26.970  29.825  1.00  0.00     0.060 A 
BRANCH  96  97
ATOM     97  S   UNL A   1      52.579  26.589  29.906  1.00  0.00     0.124 S 
ATOM     98  O   UNL A   1      53.139  27.878  30.301  1.00  0.00    -0.237 OA
ATOM     99  O   UNL A   1      52.629  25.540  30.920  1.00  0.00    -0.237 OA
ATOM    100  O   UNL A   1      52.895  26.156  28.549  1.00  0.00    -0.744 OA
ENDBRANCH  96  97
ENDBRANCH  64  89
ENDBRANCH  38  39
ENDBRANCH  31  33
ENDBRANCH  30  31
ENDBRANCH  29  30
ENDBRANCH  28  29
ENDBRANCH  27  28
ENDBRANCH   1  27
TORSDOF 21
ENDMDL
MODEL 3
REMARK VINA RESULT:     -10.7      1.603      3.030
REMARK SMILES COc1nc2c(cc1C(=O)NCc1ccc(C(=O)OCCOCCOC(=O)c3ccc(-c4c5nc(c(-c6c(F)cc(S(=O)(=O)[O-])cc6F)c6ccc([nH]6)c(-c6c(F)cc(S(=O)(=O)[O-])cc6F)c6nc(c(-c7c(F)cc(S(=O)(=O)[O-])cc7F)c7ccc4[nH]7)C=C6)C=C5)cc3)s1)CCC2
REMARK SMILES IDX 21 1 20 2 19 3 17 4 18 5 16 6 13 7 14 8 94 9 15 10 12 11
REMARK SMILES IDX 11 12 9 13 10 14 8 16 3 17 4 18 5 19 7 20 6 21 97 22 95 23
REMARK SMILES IDX 96 24 2 25 1 26 22 27 23 28 24 29 25 30 26 31 27 32 28 33
REMARK SMILES IDX 29 34 93 35 30 36 92 37 31 38 32 39 33 40 86 41 34 42 91 43
REMARK SMILES IDX 85 44 87 45 35 46 90 47 84 48 83 49 36 51 70 52 49 53 69 54
REMARK SMILES IDX 50 55 53 56 68 57 88 58 51 59 52 60 67 62 89 63 54 64 37 65
REMARK SMILES IDX 38 66 47 67 39 68 40 69 46 70 48 71 41 72 42 73 43 74 44 75
REMARK SMILES IDX 45 76 71 77 72 78 81 79 73 80 74 81 80 82 82 83 75 84 76 85
REMARK SMILES IDX 77 86 78 87 79 88 55 89 56 90 65 91 57 92 58 93 64 94 66 95
REMARK SMILES IDX 59 96 60 97 61 98 62 99 63 100
REMARK H PARENT 11 15 87 50 53 61
REMARK Flexibility Score: inf
ROOT
ATOM      1  C   UNL A   1      43.835  21.411  25.123  1.00  0.00     0.202 C 
ENDROOT
BRANCH   1   2
ATOM      2  C   UNL A   1      42.754  20.867  26.060  1.00  0.00     0.261 C 
BRANCH   2   3
ATOM      3  O   UNL A   1      41.473  21.378  25.656  1.00  0.00    -0.459 OA
BRANCH   3   4
ATOM      4  C   UNL A   1      40.470  21.240  26.570  1.00  0.00     0.348 C 
ATOM      5  O   UNL A   1      40.434  20.370  27.433  1.00  0.00    -0.245 OA
BRANCH   4   6
ATOM      6  C   UNL A   1      39.557  22.361  26.452  1.00  0.00     0.112 A 
ATOM      7  C   UNL A   1      37.474  23.654  26.073  1.00  0.00     0.025 A 
ATOM      8  C   UNL A   1      38.440  24.395  26.725  1.00  0.00     0.018 A 
ATOM      9  S   UNL A   1      38.067  22.102  25.652  1.00  0.00    -0.131 S 
ATOM     10  C   UNL A   1      39.635  23.645  26.961  1.00  0.00     0.028 A 
BRANCH   7  11
ATOM     11  C   UNL A   1      36.078  23.998  25.672  1.00  0.00     0.163 C 
BRANCH  11  12
ATOM     12  N   UNL A   1      35.691  23.290  24.469  1.00  0.00    -0.347 N 
ATOM     13  C   UNL A   1      34.394  22.915  24.218  1.00  0.00     0.257 C 
ATOM     14  O   UNL A   1      33.728  23.544  23.398  1.00  0.00    -0.269 OA
ATOM     15  H   UNL A   1      36.385  23.070  23.806  1.00  0.00     0.164 HD
BRANCH  13  16
ATOM     16  C   UNL A   1      33.904  21.600  24.698  1.00  0.00     0.102 A 
ATOM     17  C   UNL A   1      33.843  21.172  26.028  1.00  0.00     0.226 A 
ATOM     18  N   UNL A   1      33.424  19.939  26.423  1.00  0.00    -0.218 NA
ATOM     19  C   UNL A   1      33.038  19.118  25.437  1.00  0.00     0.048 A 
ATOM     20  C   UNL A   1      33.427  20.721  23.711  1.00  0.00     0.025 A 
ATOM     21  C   UNL A   1      32.996  19.467  24.095  1.00  0.00    -0.025 A 
ATOM     22  C   UNL A   1      32.543  17.714  25.644  1.00  0.00     0.057 C 
ATOM     23  C   UNL A   1      32.419  18.367  23.270  1.00  0.00     0.038 C 
ATOM     24  C   UNL A   1      32.605  17.166  24.211  1.00  0.00     0.011 C 
BRANCH  17  25
ATOM     25  O   UNL A   1      34.165  22.001  27.067  1.00  0.00    -0.480 OA
ATOM     26  C   UNL A   1      32.964  22.529  27.629  1.00  0.00     0.280 C 
ENDBRANCH  17  25
ENDBRANCH  13  16
ENDBRANCH  11  12
ENDBRANCH   7  11
ENDBRANCH   4   6
ENDBRANCH   3   4
ENDBRANCH   2   3
ENDBRANCH   1   2
BRANCH   1  27
ATOM     27  O   UNL A   1      43.472  22.616  24.443  1.00  0.00    -0.374 OA
BRANCH  27  28
ATOM     28  C   UNL A   1      44.235  23.782  24.769  1.00  0.00     0.202 C 
BRANCH  28  29
ATOM     29  C   UNL A   1      43.675  24.631  25.915  1.00  0.00     0.261 C 
BRANCH  29  30
ATOM     30  O   UNL A   1      43.394  25.969  25.464  1.00  0.00    -0.460 OA
BRANCH  30  31
ATOM     31  C   UNL A   1      42.194  26.462  25.852  1.00  0.00     0.338 C 
ATOM     32  O   UNL A   1      41.135  26.380  25.254  1.00  0.00    -0.246 OA
BRANCH  31  33
ATOM     33  C   UNL A   1      42.291  26.958  27.236  1.00  0.00     0.060 A 
ATOM     34  C   UNL A   1      41.403  26.418  28.175  1.00  0.00     0.016 A 
ATOM     35  C   UNL A   1      43.166  27.987  27.591  1.00  0.00     0.016 A 
ATOM     36  C   UNL A   1      41.341  26.946  29.461  1.00  0.00     0.010 A 
ATOM     37  C   UNL A   1      43.083  28.536  28.874  1.00  0.00     0.010 A 
ATOM     38  C   UNL A   1      42.137  28.048  29.793  1.00  0.00    -0.014 A 
BRANCH  38  39
ATOM     39  C   UNL A   1      41.800  28.838  31.000  1.00  0.00     0.031 A 
ATOM     40  C   UNL A   1      40.628  29.779  30.921  1.00  0.00     0.074 A 
ATOM     41  C   UNL A   1      42.488  28.697  32.145  1.00  0.00     0.049 A 
ATOM     42  N   UNL A   1      40.170  30.611  31.818  1.00  0.00    -0.248 NA
ATOM     43  C   UNL A   1      39.866  29.773  29.661  1.00  0.00     0.031 C 
ATOM     44  C   UNL A   1      43.593  27.765  32.361  1.00  0.00     0.029 A 
ATOM     45  N   UNL A   1      42.353  29.346  33.345  1.00  0.00    -0.354 N 
ATOM     46  C   UNL A   1      39.062  31.218  31.238  1.00  0.00     0.074 A 
ATOM     47  C   UNL A   1      38.929  30.677  29.903  1.00  0.00     0.031 C 
ATOM     48  C   UNL A   1      44.046  27.913  33.619  1.00  0.00     0.029 A 
ATOM     49  C   UNL A   1      43.284  28.970  34.283  1.00  0.00     0.049 A 
ATOM     50  H   UNL A   1      41.654  30.018  33.519  1.00  0.00     0.167 HD
ATOM     51  C   UNL A   1      38.228  32.141  31.769  1.00  0.00     0.037 A 
ATOM     52  C   UNL A   1      43.505  29.447  35.523  1.00  0.00     0.037 A 
ATOM     53  C   UNL A   1      38.383  32.702  33.084  1.00  0.00     0.049 A 
ATOM     54  C   UNL A   1      42.634  30.554  36.054  1.00  0.00     0.074 A 
ATOM     55  C   UNL A   1      37.617  33.673  33.704  1.00  0.00     0.029 A 
ATOM     56  N   UNL A   1      39.379  32.342  33.980  1.00  0.00    -0.354 N 
ATOM     57  N   UNL A   1      41.610  31.146  35.483  1.00  0.00    -0.248 NA
ATOM     58  C   UNL A   1      42.952  31.065  37.395  1.00  0.00     0.031 C 
ATOM     59  C   UNL A   1      38.173  33.926  34.964  1.00  0.00     0.029 A 
ATOM     60  C   UNL A   1      39.259  33.084  35.143  1.00  0.00     0.049 A 
ATOM     61  H   UNL A   1      40.069  31.660  33.814  1.00  0.00     0.167 HD
ATOM     62  C   UNL A   1      41.155  32.088  36.400  1.00  0.00     0.074 A 
ATOM     63  C   UNL A   1      42.005  31.978  37.568  1.00  0.00     0.031 C 
ATOM     64  C   UNL A   1      40.125  32.965  36.288  1.00  0.00     0.037 A 
BRANCH  51  65
ATOM     65  C   UNL A   1      37.096  32.619  30.909  1.00  0.00     0.058 A 
ATOM     66  C   UNL A   1      35.795  32.113  31.063  1.00  0.00     0.135 A 
ATOM     67  C   UNL A   1      37.308  33.599  29.927  1.00  0.00     0.135 A 
ATOM     68  F   UNL A   1      35.546  31.154  31.969  1.00  0.00    -0.206 F 
ATOM     69  C   UNL A   1      34.746  32.551  30.261  1.00  0.00     0.059 A 
ATOM     70  C   UNL A   1      36.269  34.067  29.127  1.00  0.00     0.059 A 
ATOM     71  F   UNL A   1      38.536  34.105  29.732  1.00  0.00    -0.206 F 
ATOM     72  C   UNL A   1      34.994  33.529  29.295  1.00  0.00     0.060 A 
BRANCH  72  73
ATOM     73  S   UNL A   1      33.622  34.092  28.267  1.00  0.00     0.124 S 
ATOM     74  O   UNL A   1      32.677  34.564  29.275  1.00  0.00    -0.237 OA
ATOM     75  O   UNL A   1      34.247  35.128  27.451  1.00  0.00    -0.237 OA
ATOM     76  O   UNL A   1      33.220  32.889  27.546  1.00  0.00    -0.744 OA
ENDBRANCH  72  73
ENDBRANCH  51  65
BRANCH  52  77
ATOM     77  C   UNL A   1      44.616  28.895  36.343  1.00  0.00     0.058 A 
ATOM     78  C   UNL A   1      44.430  27.755  37.138  1.00  0.00     0.135 A 
ATOM     79  C   UNL A   1      45.883  29.497  36.347  1.00  0.00     0.135 A 
ATOM     80  F   UNL A   1      43.231  27.154  37.178  1.00  0.00    -0.206 F 
ATOM     81  C   UNL A   1      45.461  27.231  37.911  1.00  0.00     0.059 A 
ATOM     82  C   UNL A   1      46.935  28.981  37.096  1.00  0.00     0.059 A 
ATOM     83  F   UNL A   1      46.111  30.588  35.600  1.00  0.00    -0.206 F 
ATOM     84  C   UNL A   1      46.712  27.850  37.880  1.00  0.00     0.060 A 
BRANCH  84  85
ATOM     85  S   UNL A   1      48.060  27.127  38.841  1.00  0.00     0.124 S 
ATOM     86  O   UNL A   1      48.742  26.326  37.832  1.00  0.00    -0.237 OA
ATOM     87  O   UNL A   1      48.774  28.312  39.307  1.00  0.00    -0.237 OA
ATOM     88  O   UNL A   1      47.364  26.376  39.881  1.00  0.00    -0.744 OA
ENDBRANCH  84  85
ENDBRANCH  52  77
BRANCH  64  89
ATOM     89  C   UNL A   1      39.857  33.862  37.463  1.00  0.00     0.058 A 
ATOM     90  C   UNL A   1      39.008  33.468  38.508  1.00  0.00     0.135 A 
ATOM     91  C   UNL A   1      40.485  35.114  37.561  1.00  0.00     0.135 A 
ATOM     92  F   UNL A   1      38.382  32.282  38.458  1.00  0.00    -0.206 F 
ATOM     93  C   UNL A   1      38.767  34.297  39.597  1.00  0.00     0.059 A 
ATOM     94  C   UNL A   1      40.276  35.949  38.653  1.00  0.00     0.059 A 
ATOM     95  F   UNL A   1      41.317  35.532  36.594  1.00  0.00    -0.206 F 
ATOM     96  C   UNL A   1      39.402  35.539  39.659  1.00  0.00     0.060 A 
BRANCH  96  97
ATOM     97  S   UNL A   1      39.091  36.603  41.084  1.00  0.00     0.124 S 
ATOM     98  O   UNL A   1      38.645  37.833  40.438  1.00  0.00    -0.237 OA
ATOM     99  O   UNL A   1      38.065  35.863  41.812  1.00  0.00    -0.237 OA
ATOM    100  O   UNL A   1      40.391  36.675  41.743  1.00  0.00    -0.744 OA
ENDBRANCH  96  97
ENDBRANCH  64  89
ENDBRANCH  38  39
ENDBRANCH  31  33
ENDBRANCH  30  31
ENDBRANCH  29  30
ENDBRANCH  28  29
ENDBRANCH  27  28
ENDBRANCH   1  27
TORSDOF 21
ENDMDL
