MODEL 1
REMARK VINA RESULT:     -10.8      0.000      0.000
REMARK SMILES O=C(N[C@@H](Cc1ccccc1)C(=O)N[C@@H](CS)C(=O)N[C@@H](CO)C(=O)OCCOCCOC(=O)c1ccc(-c2c3nc(c(-c4c(F)cc(S(=O)(=O)[O-])cc4F)c4ccc([nH]4)c(-c4c(F)cc(S(=O)(=O)[O-])cc4F)c4nc(c(-c5c(F)cc(S(=O)(=O)[O-])cc5F)c5ccc2[nH]5)C=C4)C=C3)cc1)c1ccc(F)cc1
REMARK SMILES IDX 27 1 26 2 24 3 25 4 21 5 20 6 18 7 19 8 15 10 14 11 12 12
REMARK SMILES IDX 13 13 4 15 3 16 1 17 2 18 101 20 102 21 107 22 103 23 106 24
REMARK SMILES IDX 104 25 105 26 5 27 6 28 7 29 11 30 8 31 10 32 9 33 16 34
REMARK SMILES IDX 17 35 22 37 23 38 28 40 29 41 30 42 31 43 32 44 33 45 34 46
REMARK SMILES IDX 35 47 36 48 100 49 37 50 99 51 38 52 39 53 40 54 93 55 41 56
REMARK SMILES IDX 98 57 92 58 94 59 42 60 97 61 91 62 90 63 43 65 77 66 56 67
REMARK SMILES IDX 76 68 57 69 60 70 75 71 95 72 58 73 59 74 74 76 96 77 61 78
REMARK SMILES IDX 44 79 45 80 54 81 46 82 47 83 53 84 55 85 48 86 49 87 50 88
REMARK SMILES IDX 51 89 52 90 78 91 79 92 88 93 80 94 81 95 87 96 89 97 82 98
REMARK SMILES IDX 83 99 84 100 85 101 86 102 62 103 63 104 72 105 64 106
REMARK SMILES IDX 65 107 71 108 73 109 66 110 67 111 68 112 69 113 70 114
REMARK H PARENT 20 9 14 14 3 19 17 36 23 39 94 64 60 75
REMARK Flexibility Score: inf
ROOT
ATOM      1  C   UNL A   1      32.882  30.833  26.710  1.00  0.00     0.261 C 
ENDROOT
BRANCH   1   2
ATOM      2  O   UNL A   1      33.150  29.869  25.677  1.00  0.00    -0.462 OA
BRANCH   2   3
ATOM      3  C   UNL A   1      32.068  29.209  25.182  1.00  0.00     0.331 C 
ATOM      4  O   UNL A   1      31.034  29.742  24.797  1.00  0.00    -0.250 OA
BRANCH   3   5
ATOM      5  C   UNL A   1      32.276  27.681  25.198  1.00  0.00     0.218 C 
BRANCH   5   6
ATOM      6  N   UNL A   1      31.074  26.949  25.635  1.00  0.00    -0.339 N 
ATOM      7  C   UNL A   1      30.901  25.664  26.038  1.00  0.00     0.244 C 
ATOM      8  O   UNL A   1      30.061  25.480  26.927  1.00  0.00    -0.273 OA
ATOM      9  H   UNL A   1      30.250  27.488  25.634  1.00  0.00     0.164 HD
BRANCH   7  10
ATOM     10  C   UNL A   1      31.749  24.466  25.560  1.00  0.00     0.181 C 
BRANCH  10  11
ATOM     11  N   UNL A   1      32.574  23.822  26.578  1.00  0.00    -0.342 N 
ATOM     12  C   UNL A   1      33.511  22.841  26.466  1.00  0.00     0.243 C 
ATOM     13  O   UNL A   1      34.280  22.717  27.428  1.00  0.00    -0.273 OA
ATOM     14  H   UNL A   1      32.431  24.152  27.494  1.00  0.00     0.164 HD
BRANCH  12  15
ATOM     15  C   UNL A   1      33.701  21.945  25.217  1.00  0.00     0.176 C 
BRANCH  15  16
ATOM     16  N   UNL A   1      34.146  22.668  24.022  1.00  0.00    -0.340 N 
ATOM     17  O   UNL A   1      35.546  23.744  22.634  1.00  0.00    -0.269 OA
ATOM     18  C   UNL A   1      35.399  23.105  23.673  1.00  0.00     0.251 C 
ATOM     19  H   UNL A   1      33.437  22.872  23.370  1.00  0.00     0.164 HD
BRANCH  18  20
ATOM     20  C   UNL A   1      36.562  22.896  24.563  1.00  0.00     0.040 A 
ATOM     21  C   UNL A   1      37.304  21.709  24.556  1.00  0.00     0.017 A 
ATOM     22  C   UNL A   1      36.929  23.950  25.413  1.00  0.00     0.017 A 
ATOM     23  C   UNL A   1      38.362  21.550  25.455  1.00  0.00     0.040 A 
ATOM     24  C   UNL A   1      37.997  23.791  26.299  1.00  0.00     0.040 A 
ATOM     25  C   UNL A   1      38.694  22.588  26.321  1.00  0.00     0.123 A 
ATOM     26  F   UNL A   1      39.703  22.429  27.186  1.00  0.00    -0.207 F 
ENDBRANCH  18  20
ENDBRANCH  15  16
BRANCH  15  27
ATOM     27  C   UNL A   1      34.423  20.609  25.465  1.00  0.00     0.070 C 
BRANCH  27  28
ATOM     28  C   UNL A   1      33.999  19.393  24.683  1.00  0.00    -0.045 A 
ATOM     29  C   UNL A   1      34.781  18.228  24.675  1.00  0.00     0.004 A 
ATOM     30  C   UNL A   1      32.837  19.434  23.899  1.00  0.00     0.004 A 
ATOM     31  C   UNL A   1      34.391  17.119  23.920  1.00  0.00     0.000 A 
ATOM     32  C   UNL A   1      32.460  18.332  23.130  1.00  0.00     0.000 A 
ATOM     33  C   UNL A   1      33.234  17.173  23.147  1.00  0.00     0.000 A 
ENDBRANCH  27  28
ENDBRANCH  15  27
ENDBRANCH  12  15
ENDBRANCH  10  11
BRANCH  10  34
ATOM     34  C   UNL A   1      30.952  23.502  24.668  1.00  0.00     0.101 C 
BRANCH  34  35
ATOM     35  S   UNL A   1      30.578  24.088  22.989  1.00  0.00    -0.177 SA
ATOM     36  H   UNL A   1      31.403  23.473  22.100  1.00  0.00     0.102 HD
ENDBRANCH  34  35
ENDBRANCH  10  34
ENDBRANCH   7  10
ENDBRANCH   5   6
BRANCH   5  37
ATOM     37  C   UNL A   1      32.705  27.248  23.794  1.00  0.00     0.193 C 
BRANCH  37  38
ATOM     38  O   UNL A   1      33.838  27.989  23.347  1.00  0.00    -0.394 OA
ATOM     39  H   UNL A   1      34.595  27.391  23.243  1.00  0.00     0.210 HD
ENDBRANCH  37  38
ENDBRANCH   5  37
ENDBRANCH   3   5
ENDBRANCH   2   3
ENDBRANCH   1   2
BRANCH   1  40
ATOM     40  C   UNL A   1      34.090  30.961  27.645  1.00  0.00     0.202 C 
BRANCH  40  41
ATOM     41  O   UNL A   1      34.039  32.100  28.513  1.00  0.00    -0.374 OA
BRANCH  41  42
ATOM     42  C   UNL A   1      35.002  33.125  28.245  1.00  0.00     0.202 C 
BRANCH  42  43
ATOM     43  C   UNL A   1      36.457  32.649  28.281  1.00  0.00     0.261 C 
BRANCH  43  44
ATOM     44  O   UNL A   1      36.928  32.545  29.637  1.00  0.00    -0.460 OA
BRANCH  44  45
ATOM     45  C   UNL A   1      36.840  31.307  30.169  1.00  0.00     0.338 C 
ATOM     46  O   UNL A   1      35.906  30.836  30.804  1.00  0.00    -0.246 OA
BRANCH  45  47
ATOM     47  C   UNL A   1      37.986  30.496  29.732  1.00  0.00     0.060 A 
ATOM     48  C   UNL A   1      38.969  30.211  30.686  1.00  0.00     0.016 A 
ATOM     49  C   UNL A   1      38.150  30.109  28.399  1.00  0.00     0.016 A 
ATOM     50  C   UNL A   1      40.153  29.590  30.296  1.00  0.00     0.010 A 
ATOM     51  C   UNL A   1      39.344  29.490  28.010  1.00  0.00     0.010 A 
ATOM     52  C   UNL A   1      40.366  29.267  28.949  1.00  0.00    -0.014 A 
BRANCH  52  53
ATOM     53  C   UNL A   1      41.721  28.843  28.520  1.00  0.00     0.031 A 
ATOM     54  C   UNL A   1      42.828  29.862  28.484  1.00  0.00     0.074 A 
ATOM     55  C   UNL A   1      41.976  27.555  28.225  1.00  0.00     0.049 A 
ATOM     56  N   UNL A   1      44.092  29.702  28.187  1.00  0.00    -0.248 NA
ATOM     57  C   UNL A   1      42.461  31.244  28.832  1.00  0.00     0.031 C 
ATOM     58  C   UNL A   1      40.993  26.474  28.249  1.00  0.00     0.029 A 
ATOM     59  N   UNL A   1      43.144  26.942  27.849  1.00  0.00    -0.354 N 
ATOM     60  C   UNL A   1      44.672  30.959  28.314  1.00  0.00     0.074 A 
ATOM     61  C   UNL A   1      43.616  31.877  28.685  1.00  0.00     0.031 C 
ATOM     62  C   UNL A   1      41.599  25.327  27.899  1.00  0.00     0.029 A 
ATOM     63  C   UNL A   1      43.008  25.596  27.611  1.00  0.00     0.049 A 
ATOM     64  H   UNL A   1      44.000  27.420  27.760  1.00  0.00     0.167 HD
ATOM     65  C   UNL A   1      45.969  31.315  28.148  1.00  0.00     0.037 A 
ATOM     66  C   UNL A   1      43.913  24.688  27.199  1.00  0.00     0.037 A 
ATOM     67  C   UNL A   1      47.017  30.402  27.779  1.00  0.00     0.049 A 
ATOM     68  C   UNL A   1      45.340  25.113  26.976  1.00  0.00     0.074 A 
ATOM     69  C   UNL A   1      48.365  30.660  27.606  1.00  0.00     0.029 A 
ATOM     70  N   UNL A   1      46.832  29.052  27.515  1.00  0.00    -0.354 N 
ATOM     71  N   UNL A   1      45.880  26.299  27.132  1.00  0.00    -0.248 NA
ATOM     72  C   UNL A   1      46.282  24.078  26.527  1.00  0.00     0.031 C 
ATOM     73  C   UNL A   1      48.990  29.474  27.202  1.00  0.00     0.029 A 
ATOM     74  C   UNL A   1      48.038  28.470  27.160  1.00  0.00     0.049 A 
ATOM     75  H   UNL A   1      45.971  28.578  27.573  1.00  0.00     0.167 HD
ATOM     76  C   UNL A   1      47.227  26.149  26.818  1.00  0.00     0.074 A 
ATOM     77  C   UNL A   1      47.422  24.755  26.473  1.00  0.00     0.031 C 
ATOM     78  C   UNL A   1      48.212  27.080  26.816  1.00  0.00     0.037 A 
BRANCH  65  79
ATOM     79  C   UNL A   1      46.316  32.763  28.346  1.00  0.00     0.058 A 
ATOM     80  C   UNL A   1      46.258  33.685  27.288  1.00  0.00     0.135 A 
ATOM     81  C   UNL A   1      46.704  33.236  29.608  1.00  0.00     0.135 A 
ATOM     82  F   UNL A   1      45.910  33.280  26.057  1.00  0.00    -0.206 F 
ATOM     83  C   UNL A   1      46.600  35.022  27.471  1.00  0.00     0.059 A 
ATOM     84  C   UNL A   1      47.030  34.574  29.819  1.00  0.00     0.059 A 
ATOM     85  F   UNL A   1      46.779  32.396  30.652  1.00  0.00    -0.206 F 
ATOM     86  C   UNL A   1      46.991  35.455  28.738  1.00  0.00     0.060 A 
BRANCH  86  87
ATOM     87  S   UNL A   1      47.448  37.188  28.961  1.00  0.00     0.124 S 
ATOM     88  O   UNL A   1      48.272  37.424  27.779  1.00  0.00    -0.237 OA
ATOM     89  O   UNL A   1      46.151  37.857  28.973  1.00  0.00    -0.237 OA
ATOM     90  O   UNL A   1      48.162  37.189  30.234  1.00  0.00    -0.744 OA
ENDBRANCH  86  87
ENDBRANCH  65  79
BRANCH  66  91
ATOM     91  C   UNL A   1      43.492  23.282  26.969  1.00  0.00     0.058 A 
ATOM     92  C   UNL A   1      43.263  22.407  28.039  1.00  0.00     0.135 A 
ATOM     93  C   UNL A   1      43.285  22.795  25.668  1.00  0.00     0.135 A 
ATOM     94  F   UNL A   1      43.459  22.824  29.300  1.00  0.00    -0.206 F 
ATOM     95  C   UNL A   1      42.846  21.096  27.831  1.00  0.00     0.059 A 
ATOM     96  C   UNL A   1      42.849  21.495  25.435  1.00  0.00     0.059 A 
ATOM     97  F   UNL A   1      43.483  23.598  24.611  1.00  0.00    -0.206 F 
ATOM     98  C   UNL A   1      42.636  20.651  26.524  1.00  0.00     0.060 A 
BRANCH  98  99
ATOM     99  S   UNL A   1      42.025  18.971  26.264  1.00  0.00     0.124 S 
ATOM    100  O   UNL A   1      40.694  19.223  25.725  1.00  0.00    -0.237 OA
ATOM    101  O   UNL A   1      43.003  18.430  25.323  1.00  0.00    -0.237 OA
ATOM    102  O   UNL A   1      42.068  18.389  27.602  1.00  0.00    -0.744 OA
ENDBRANCH  98  99
ENDBRANCH  66  91
BRANCH  78 103
ATOM    103  C   UNL A   1      49.595  26.622  26.446  1.00  0.00     0.058 A 
ATOM    104  C   UNL A   1      50.436  26.003  27.381  1.00  0.00     0.135 A 
ATOM    105  C   UNL A   1      50.063  26.760  25.129  1.00  0.00     0.135 A 
ATOM    106  F   UNL A   1      50.037  25.852  28.654  1.00  0.00    -0.206 F 
ATOM    107  C   UNL A   1      51.704  25.550  27.029  1.00  0.00     0.059 A 
ATOM    108  C   UNL A   1      51.319  26.296  24.750  1.00  0.00     0.059 A 
ATOM    109  F   UNL A   1      49.292  27.338  24.194  1.00  0.00    -0.206 F 
ATOM    110  C   UNL A   1      52.137  25.702  25.710  1.00  0.00     0.060 A 
BRANCH 110 111
ATOM    111  S   UNL A   1      53.770  25.083  25.254  1.00  0.00     0.124 S 
ATOM    112  O   UNL A   1      53.553  23.640  25.273  1.00  0.00    -0.237 OA
ATOM    113  O   UNL A   1      53.977  25.675  23.936  1.00  0.00    -0.237 OA
ATOM    114  O   UNL A   1      54.636  25.602  26.308  1.00  0.00    -0.744 OA
ENDBRANCH 110 111
ENDBRANCH  78 103
ENDBRANCH  52  53
ENDBRANCH  45  47
ENDBRANCH  44  45
ENDBRANCH  43  44
ENDBRANCH  42  43
ENDBRANCH  41  42
ENDBRANCH  40  41
ENDBRANCH   1  40
TORSDOF 29
ENDMDL
MODEL 2
REMARK VINA RESULT:     -10.6      1.614      3.156
REMARK SMILES O=C(N[C@@H](Cc1ccccc1)C(=O)N[C@@H](CS)C(=O)N[C@@H](CO)C(=O)OCCOCCOC(=O)c1ccc(-c2c3nc(c(-c4c(F)cc(S(=O)(=O)[O-])cc4F)c4ccc([nH]4)c(-c4c(F)cc(S(=O)(=O)[O-])cc4F)c4nc(c(-c5c(F)cc(S(=O)(=O)[O-])cc5F)c5ccc2[nH]5)C=C4)C=C3)cc1)c1ccc(F)cc1
REMARK SMILES IDX 27 1 26 2 24 3 25 4 21 5 20 6 18 7 19 8 15 10 14 11 12 12
REMARK SMILES IDX 13 13 4 15 3 16 1 17 2 18 101 20 102 21 107 22 103 23 106 24
REMARK SMILES IDX 104 25 105 26 5 27 6 28 7 29 11 30 8 31 10 32 9 33 16 34
REMARK SMILES IDX 17 35 22 37 23 38 28 40 29 41 30 42 31 43 32 44 33 45 34 46
REMARK SMILES IDX 35 47 36 48 100 49 37 50 99 51 38 52 39 53 40 54 93 55 41 56
REMARK SMILES IDX 98 57 92 58 94 59 42 60 97 61 91 62 90 63 43 65 77 66 56 67
REMARK SMILES IDX 76 68 57 69 60 70 75 71 95 72 58 73 59 74 74 76 96 77 61 78
REMARK SMILES IDX 44 79 45 80 54 81 46 82 47 83 53 84 55 85 48 86 49 87 50 88
REMARK SMILES IDX 51 89 52 90 78 91 79 92 88 93 80 94 81 95 87 96 89 97 82 98
REMARK SMILES IDX 83 99 84 100 85 101 86 102 62 103 63 104 72 105 64 106
REMARK SMILES IDX 65 107 71 108 73 109 66 110 67 111 68 112 69 113 70 114
REMARK H PARENT 20 9 14 14 3 19 17 36 23 39 94 64 60 75
REMARK Flexibility Score: inf
ROOT
ATOM      1  C   UNL A   1      34.904  29.999  27.448  1.00  0.00     0.261 C 
ENDROOT
BRANCH   1   2
ATOM      2  O   UNL A   1      33.935  28.951  27.627  1.00  0.00    -0.462 OA
BRANCH   2   3
ATOM      3  C   UNL A   1      32.717  29.161  27.055  1.00  0.00     0.331 C 
ATOM      4  O   UNL A   1      31.640  28.902  27.578  1.00  0.00    -0.250 OA
BRANCH   3   5
ATOM      5  C   UNL A   1      32.848  29.735  25.630  1.00  0.00     0.218 C 
BRANCH   5   6
ATOM      6  N   UNL A   1      33.742  28.934  24.775  1.00  0.00    -0.339 N 
ATOM      7  C   UNL A   1      33.496  28.191  23.665  1.00  0.00     0.244 C 
ATOM      8  O   UNL A   1      34.384  28.187  22.806  1.00  0.00    -0.273 OA
ATOM      9  H   UNL A   1      34.684  28.937  25.060  1.00  0.00     0.164 HD
BRANCH   7  10
ATOM     10  C   UNL A   1      32.165  27.471  23.360  1.00  0.00     0.181 C 
BRANCH  10  11
ATOM     11  N   UNL A   1      32.008  26.971  21.998  1.00  0.00    -0.342 N 
ATOM     12  C   UNL A   1      32.181  25.720  21.489  1.00  0.00     0.243 C 
ATOM     13  O   UNL A   1      31.670  25.512  20.382  1.00  0.00    -0.273 OA
ATOM     14  H   UNL A   1      31.731  27.648  21.339  1.00  0.00     0.164 HD
BRANCH  12  15
ATOM     15  C   UNL A   1      32.905  24.565  22.224  1.00  0.00     0.176 C 
BRANCH  15  16
ATOM     16  N   UNL A   1      32.473  23.226  21.808  1.00  0.00    -0.340 N 
ATOM     17  O   UNL A   1      31.893  21.065  22.003  1.00  0.00    -0.269 OA
ATOM     18  C   UNL A   1      32.197  22.115  22.564  1.00  0.00     0.251 C 
ATOM     19  H   UNL A   1      32.366  23.107  20.837  1.00  0.00     0.164 HD
BRANCH  18  20
ATOM     20  C   UNL A   1      32.338  22.132  24.037  1.00  0.00     0.040 A 
ATOM     21  C   UNL A   1      33.241  21.301  24.711  1.00  0.00     0.017 A 
ATOM     22  C   UNL A   1      31.548  23.041  24.757  1.00  0.00     0.017 A 
ATOM     23  C   UNL A   1      33.294  21.326  26.107  1.00  0.00     0.040 A 
ATOM     24  C   UNL A   1      31.616  23.072  26.151  1.00  0.00     0.040 A 
ATOM     25  C   UNL A   1      32.478  22.204  26.813  1.00  0.00     0.123 A 
ATOM     26  F   UNL A   1      32.527  22.220  28.151  1.00  0.00    -0.207 F 
ENDBRANCH  18  20
ENDBRANCH  15  16
BRANCH  15  27
ATOM     27  C   UNL A   1      34.427  24.730  22.379  1.00  0.00     0.070 C 
BRANCH  27  28
ATOM     28  C   UNL A   1      35.087  24.264  23.650  1.00  0.00    -0.045 A 
ATOM     29  C   UNL A   1      36.025  23.221  23.639  1.00  0.00     0.004 A 
ATOM     30  C   UNL A   1      34.722  24.834  24.879  1.00  0.00     0.004 A 
ATOM     31  C   UNL A   1      36.606  22.779  24.830  1.00  0.00     0.000 A 
ATOM     32  C   UNL A   1      35.289  24.377  26.069  1.00  0.00     0.000 A 
ATOM     33  C   UNL A   1      36.235  23.354  26.043  1.00  0.00     0.000 A 
ENDBRANCH  27  28
ENDBRANCH  15  27
ENDBRANCH  12  15
ENDBRANCH  10  11
BRANCH  10  34
ATOM     34  C   UNL A   1      31.769  26.478  24.464  1.00  0.00     0.101 C 
BRANCH  34  35
ATOM     35  S   UNL A   1      29.988  26.313  24.790  1.00  0.00    -0.177 SA
ATOM     36  H   UNL A   1      29.653  27.074  25.866  1.00  0.00     0.102 HD
ENDBRANCH  34  35
ENDBRANCH  10  34
ENDBRANCH   7  10
ENDBRANCH   5   6
BRANCH   5  37
ATOM     37  C   UNL A   1      31.445  29.827  25.027  1.00  0.00     0.193 C 
BRANCH  37  38
ATOM     38  O   UNL A   1      30.933  31.156  25.104  1.00  0.00    -0.394 OA
ATOM     39  H   UNL A   1      31.648  31.788  24.929  1.00  0.00     0.210 HD
ENDBRANCH  37  38
ENDBRANCH   5  37
ENDBRANCH   3   5
ENDBRANCH   2   3
ENDBRANCH   1   2
BRANCH   1  40
ATOM     40  C   UNL A   1      34.611  31.163  28.400  1.00  0.00     0.202 C 
BRANCH  40  41
ATOM     41  O   UNL A   1      34.714  32.456  27.791  1.00  0.00    -0.374 OA
BRANCH  41  42
ATOM     42  C   UNL A   1      35.706  33.324  28.348  1.00  0.00     0.202 C 
BRANCH  42  43
ATOM     43  C   UNL A   1      35.772  33.310  29.878  1.00  0.00     0.261 C 
BRANCH  43  44
ATOM     44  O   UNL A   1      37.079  32.911  30.329  1.00  0.00    -0.460 OA
BRANCH  44  45
ATOM     45  C   UNL A   1      37.119  31.713  30.950  1.00  0.00     0.338 C 
ATOM     46  O   UNL A   1      36.321  31.272  31.766  1.00  0.00    -0.246 OA
BRANCH  45  47
ATOM     47  C   UNL A   1      38.198  30.892  30.378  1.00  0.00     0.060 A 
ATOM     48  C   UNL A   1      39.207  30.466  31.249  1.00  0.00     0.016 A 
ATOM     49  C   UNL A   1      38.278  30.631  29.008  1.00  0.00     0.016 A 
ATOM     50  C   UNL A   1      40.336  29.828  30.741  1.00  0.00     0.010 A 
ATOM     51  C   UNL A   1      39.417  29.995  28.500  1.00  0.00     0.010 A 
ATOM     52  C   UNL A   1      40.468  29.630  29.360  1.00  0.00    -0.014 A 
BRANCH  52  53
ATOM     53  C   UNL A   1      41.777  29.183  28.823  1.00  0.00     0.031 A 
ATOM     54  C   UNL A   1      42.909  30.170  28.745  1.00  0.00     0.074 A 
ATOM     55  C   UNL A   1      41.971  27.900  28.466  1.00  0.00     0.049 A 
ATOM     56  N   UNL A   1      44.145  29.986  28.355  1.00  0.00    -0.248 NA
ATOM     57  C   UNL A   1      42.611  31.549  29.165  1.00  0.00     0.031 C 
ATOM     58  C   UNL A   1      40.958  26.847  28.521  1.00  0.00     0.029 A 
ATOM     59  N   UNL A   1      43.090  27.268  27.988  1.00  0.00    -0.354 N 
ATOM     60  C   UNL A   1      44.771  31.220  28.485  1.00  0.00     0.074 A 
ATOM     61  C   UNL A   1      43.773  32.153  28.961  1.00  0.00     0.031 C 
ATOM     62  C   UNL A   1      41.503  25.697  28.089  1.00  0.00     0.029 A 
ATOM     63  C   UNL A   1      42.896  25.936  27.713  1.00  0.00     0.049 A 
ATOM     64  H   UNL A   1      43.953  27.724  27.857  1.00  0.00     0.167 HD
ATOM     65  C   UNL A   1      46.064  31.544  28.242  1.00  0.00     0.037 A 
ATOM     66  C   UNL A   1      43.742  25.018  27.208  1.00  0.00     0.037 A 
ATOM     67  C   UNL A   1      47.055  30.615  27.768  1.00  0.00     0.049 A 
ATOM     68  C   UNL A   1      45.163  25.410  26.901  1.00  0.00     0.074 A 
ATOM     69  C   UNL A   1      48.396  30.841  27.511  1.00  0.00     0.029 A 
ATOM     70  N   UNL A   1      46.811  29.282  27.471  1.00  0.00    -0.354 N 
ATOM     71  N   UNL A   1      45.749  26.573  27.060  1.00  0.00    -0.248 NA
ATOM     72  C   UNL A   1      46.039  24.366  26.352  1.00  0.00     0.031 C 
ATOM     73  C   UNL A   1      48.954  29.653  27.024  1.00  0.00     0.029 A 
ATOM     74  C   UNL A   1      47.970  28.679  27.013  1.00  0.00     0.049 A 
ATOM     75  H   UNL A   1      45.942  28.831  27.573  1.00  0.00     0.167 HD
ATOM     76  C   UNL A   1      47.065  26.397  26.647  1.00  0.00     0.074 A 
ATOM     77  C   UNL A   1      47.193  25.011  26.242  1.00  0.00     0.031 C 
ATOM     78  C   UNL A   1      48.077  27.298  26.610  1.00  0.00     0.037 A 
BRANCH  65  79
ATOM     79  C   UNL A   1      46.469  32.973  28.464  1.00  0.00     0.058 A 
ATOM     80  C   UNL A   1      46.953  33.416  29.706  1.00  0.00     0.135 A 
ATOM     81  C   UNL A   1      46.379  33.910  27.423  1.00  0.00     0.135 A 
ATOM     82  F   UNL A   1      47.042  32.566  30.739  1.00  0.00    -0.206 F 
ATOM     83  C   UNL A   1      47.309  34.746  29.914  1.00  0.00     0.059 A 
ATOM     84  C   UNL A   1      46.749  35.240  27.602  1.00  0.00     0.059 A 
ATOM     85  F   UNL A   1      45.919  33.539  26.218  1.00  0.00    -0.206 F 
ATOM     86  C   UNL A   1      47.196  35.651  28.858  1.00  0.00     0.060 A 
BRANCH  86  87
ATOM     87  S   UNL A   1      47.645  37.377  29.143  1.00  0.00     0.124 S 
ATOM     88  O   UNL A   1      48.507  37.645  27.996  1.00  0.00    -0.237 OA
ATOM     89  O   UNL A   1      46.348  38.047  29.131  1.00  0.00    -0.237 OA
ATOM     90  O   UNL A   1      48.316  37.343  30.439  1.00  0.00    -0.744 OA
ENDBRANCH  86  87
ENDBRANCH  65  79
BRANCH  66  91
ATOM     91  C   UNL A   1      43.262  23.634  26.959  1.00  0.00     0.058 A 
ATOM     92  C   UNL A   1      42.930  23.201  25.669  1.00  0.00     0.135 A 
ATOM     93  C   UNL A   1      43.154  22.709  28.010  1.00  0.00     0.135 A 
ATOM     94  F   UNL A   1      43.007  24.053  24.635  1.00  0.00    -0.206 F 
ATOM     95  C   UNL A   1      42.502  21.899  25.425  1.00  0.00     0.059 A 
ATOM     96  C   UNL A   1      42.749  21.397  27.789  1.00  0.00     0.059 A 
ATOM     97  F   UNL A   1      43.470  23.074  29.262  1.00  0.00    -0.206 F 
ATOM     98  C   UNL A   1      42.420  21.002  26.492  1.00  0.00     0.060 A 
BRANCH  98  99
ATOM     99  S   UNL A   1      41.934  19.295  26.160  1.00  0.00     0.124 S 
ATOM    100  O   UNL A   1      40.506  19.440  25.908  1.00  0.00    -0.237 OA
ATOM    101  O   UNL A   1      42.757  18.962  25.000  1.00  0.00    -0.237 OA
ATOM    102  O   UNL A   1      42.294  18.600  27.392  1.00  0.00    -0.744 OA
ENDBRANCH  98  99
ENDBRANCH  66  91
BRANCH  78 103
ATOM    103  C   UNL A   1      49.416  26.815  26.128  1.00  0.00     0.058 A 
ATOM    104  C   UNL A   1      49.851  27.053  24.815  1.00  0.00     0.135 A 
ATOM    105  C   UNL A   1      50.292  26.152  27.002  1.00  0.00     0.135 A 
ATOM    106  F   UNL A   1      49.048  27.677  23.940  1.00  0.00    -0.206 F 
ATOM    107  C   UNL A   1      51.104  26.633  24.380  1.00  0.00     0.059 A 
ATOM    108  C   UNL A   1      51.558  25.743  26.593  1.00  0.00     0.059 A 
ATOM    109  F   UNL A   1      49.926  25.909  28.270  1.00  0.00    -0.206 F 
ATOM    110  C   UNL A   1      51.951  25.978  25.276  1.00  0.00     0.060 A 
BRANCH 110 111
ATOM    111  S   UNL A   1      53.587  25.466  24.712  1.00  0.00     0.124 S 
ATOM    112  O   UNL A   1      53.512  24.017  24.870  1.00  0.00    -0.237 OA
ATOM    113  O   UNL A   1      53.614  25.952  23.336  1.00  0.00    -0.237 OA
ATOM    114  O   UNL A   1      54.492  26.152  25.629  1.00  0.00    -0.744 OA
ENDBRANCH 110 111
ENDBRANCH  78 103
ENDBRANCH  52  53
ENDBRANCH  45  47
ENDBRANCH  44  45
ENDBRANCH  43  44
ENDBRANCH  42  43
ENDBRANCH  41  42
ENDBRANCH  40  41
ENDBRANCH   1  40
TORSDOF 29
ENDMDL
MODEL 3
REMARK VINA RESULT:     -10.5      2.328      8.034
REMARK SMILES O=C(N[C@@H](Cc1ccccc1)C(=O)N[C@@H](CS)C(=O)N[C@@H](CO)C(=O)OCCOCCOC(=O)c1ccc(-c2c3nc(c(-c4c(F)cc(S(=O)(=O)[O-])cc4F)c4ccc([nH]4)c(-c4c(F)cc(S(=O)(=O)[O-])cc4F)c4nc(c(-c5c(F)cc(S(=O)(=O)[O-])cc5F)c5ccc2[nH]5)C=C4)C=C3)cc1)c1ccc(F)cc1
REMARK SMILES IDX 27 1 26 2 24 3 25 4 21 5 20 6 18 7 19 8 15 10 14 11 12 12
REMARK SMILES IDX 13 13 4 15 3 16 1 17 2 18 101 20 102 21 107 22 103 23 106 24
REMARK SMILES IDX 104 25 105 26 5 27 6 28 7 29 11 30 8 31 10 32 9 33 16 34
REMARK SMILES IDX 17 35 22 37 23 38 28 40 29 41 30 42 31 43 32 44 33 45 34 46
REMARK SMILES IDX 35 47 36 48 100 49 37 50 99 51 38 52 39 53 40 54 93 55 41 56
REMARK SMILES IDX 98 57 92 58 94 59 42 60 97 61 91 62 90 63 43 65 77 66 56 67
REMARK SMILES IDX 76 68 57 69 60 70 75 71 95 72 58 73 59 74 74 76 96 77 61 78
REMARK SMILES IDX 44 79 45 80 54 81 46 82 47 83 53 84 55 85 48 86 49 87 50 88
REMARK SMILES IDX 51 89 52 90 78 91 79 92 88 93 80 94 81 95 87 96 89 97 82 98
REMARK SMILES IDX 83 99 84 100 85 101 86 102 62 103 63 104 72 105 64 106
REMARK SMILES IDX 65 107 71 108 73 109 66 110 67 111 68 112 69 113 70 114
REMARK H PARENT 20 9 14 14 3 19 17 36 23 39 94 64 60 75
REMARK Flexibility Score: inf
ROOT
ATOM      1  C   UNL A   1      31.384  29.242  24.449  1.00  0.00     0.261 C 
ENDROOT
BRANCH   1   2
ATOM      2  O   UNL A   1      31.970  28.314  23.519  1.00  0.00    -0.462 OA
BRANCH   2   3
ATOM      3  C   UNL A   1      31.192  27.256  23.162  1.00  0.00     0.331 C 
ATOM      4  O   UNL A   1      30.208  27.320  22.435  1.00  0.00    -0.250 OA
BRANCH   3   5
ATOM      5  C   UNL A   1      31.672  25.947  23.821  1.00  0.00     0.218 C 
BRANCH   5   6
ATOM      6  N   UNL A   1      31.337  25.879  25.255  1.00  0.00    -0.339 N 
ATOM      7  C   UNL A   1      31.571  24.919  26.187  1.00  0.00     0.244 C 
ATOM      8  O   UNL A   1      31.812  25.319  27.331  1.00  0.00    -0.273 OA
ATOM      9  H   UNL A   1      30.859  26.668  25.597  1.00  0.00     0.164 HD
BRANCH   7  10
ATOM     10  C   UNL A   1      31.675  23.408  25.893  1.00  0.00     0.181 C 
BRANCH  10  11
ATOM     11  N   UNL A   1      32.646  22.667  26.694  1.00  0.00    -0.342 N 
ATOM     12  C   UNL A   1      33.659  21.841  26.314  1.00  0.00     0.243 C 
ATOM     13  O   UNL A   1      34.518  21.611  27.175  1.00  0.00    -0.273 OA
ATOM     14  H   UNL A   1      32.553  22.785  27.666  1.00  0.00     0.164 HD
BRANCH  12  15
ATOM     15  C   UNL A   1      33.822  21.245  24.894  1.00  0.00     0.176 C 
BRANCH  15  16
ATOM     16  N   UNL A   1      34.054  22.246  23.847  1.00  0.00    -0.340 N 
ATOM     17  O   UNL A   1      35.117  23.855  22.696  1.00  0.00    -0.269 OA
ATOM     18  C   UNL A   1      35.150  23.037  23.612  1.00  0.00     0.251 C 
ATOM     19  H   UNL A   1      33.308  22.369  23.217  1.00  0.00     0.164 HD
BRANCH  18  20
ATOM     20  C   UNL A   1      36.340  22.983  24.490  1.00  0.00     0.040 A 
ATOM     21  C   UNL A   1      37.263  21.932  24.434  1.00  0.00     0.017 A 
ATOM     22  C   UNL A   1      36.540  24.048  25.381  1.00  0.00     0.017 A 
ATOM     23  C   UNL A   1      38.341  21.911  25.323  1.00  0.00     0.040 A 
ATOM     24  C   UNL A   1      37.628  24.029  26.257  1.00  0.00     0.040 A 
ATOM     25  C   UNL A   1      38.509  22.954  26.229  1.00  0.00     0.123 A 
ATOM     26  F   UNL A   1      39.539  22.926  27.084  1.00  0.00    -0.207 F 
ENDBRANCH  18  20
ENDBRANCH  15  16
BRANCH  15  27
ATOM     27  C   UNL A   1      34.719  19.998  24.799  1.00  0.00     0.070 C 
BRANCH  27  28
ATOM     28  C   UNL A   1      34.074  18.637  24.756  1.00  0.00    -0.045 A 
ATOM     29  C   UNL A   1      32.837  18.401  25.374  1.00  0.00     0.004 A 
ATOM     30  C   UNL A   1      34.739  17.566  24.141  1.00  0.00     0.004 A 
ATOM     31  C   UNL A   1      32.267  17.126  25.352  1.00  0.00     0.000 A 
ATOM     32  C   UNL A   1      34.176  16.289  24.138  1.00  0.00     0.000 A 
ATOM     33  C   UNL A   1      32.937  16.071  24.737  1.00  0.00     0.000 A 
ENDBRANCH  27  28
ENDBRANCH  15  27
ENDBRANCH  12  15
ENDBRANCH  10  11
BRANCH  10  34
ATOM     34  C   UNL A   1      30.298  22.739  25.764  1.00  0.00     0.101 C 
BRANCH  34  35
ATOM     35  S   UNL A   1      29.315  22.629  27.290  1.00  0.00    -0.177 SA
ATOM     36  H   UNL A   1      29.005  23.881  27.719  1.00  0.00     0.102 HD
ENDBRANCH  34  35
ENDBRANCH  10  34
ENDBRANCH   7  10
ENDBRANCH   5   6
BRANCH   5  37
ATOM     37  C   UNL A   1      31.053  24.777  23.054  1.00  0.00     0.193 C 
BRANCH  37  38
ATOM     38  O   UNL A   1      32.048  24.036  22.350  1.00  0.00    -0.394 OA
ATOM     39  H   UNL A   1      32.554  23.497  22.978  1.00  0.00     0.210 HD
ENDBRANCH  37  38
ENDBRANCH   5  37
ENDBRANCH   3   5
ENDBRANCH   2   3
ENDBRANCH   1   2
BRANCH   1  40
ATOM     40  C   UNL A   1      32.430  29.703  25.471  1.00  0.00     0.202 C 
BRANCH  40  41
ATOM     41  O   UNL A   1      31.872  30.232  26.680  1.00  0.00    -0.374 OA
BRANCH  41  42
ATOM     42  C   UNL A   1      32.481  31.431  27.169  1.00  0.00     0.202 C 
BRANCH  42  43
ATOM     43  C   UNL A   1      34.009  31.371  27.263  1.00  0.00     0.261 C 
BRANCH  43  44
ATOM     44  O   UNL A   1      34.422  30.487  28.320  1.00  0.00    -0.460 OA
BRANCH  44  45
ATOM     45  C   UNL A   1      35.109  29.400  27.910  1.00  0.00     0.338 C 
ATOM     46  O   UNL A   1      34.713  28.507  27.172  1.00  0.00    -0.246 OA
BRANCH  45  47
ATOM     47  C   UNL A   1      36.510  29.506  28.340  1.00  0.00     0.060 A 
ATOM     48  C   UNL A   1      37.464  29.779  27.353  1.00  0.00     0.016 A 
ATOM     49  C   UNL A   1      36.899  29.244  29.657  1.00  0.00     0.016 A 
ATOM     50  C   UNL A   1      38.819  29.730  27.667  1.00  0.00     0.010 A 
ATOM     51  C   UNL A   1      38.263  29.189  29.968  1.00  0.00     0.010 A 
ATOM     52  C   UNL A   1      39.228  29.390  28.964  1.00  0.00    -0.014 A 
BRANCH  52  53
ATOM     53  C   UNL A   1      40.661  29.097  29.211  1.00  0.00     0.031 A 
ATOM     54  C   UNL A   1      41.205  27.745  28.838  1.00  0.00     0.074 A 
ATOM     55  C   UNL A   1      41.480  30.044  29.704  1.00  0.00     0.049 A 
ATOM     56  N   UNL A   1      42.429  27.292  28.921  1.00  0.00    -0.248 NA
ATOM     57  C   UNL A   1      40.240  26.774  28.296  1.00  0.00     0.031 C 
ATOM     58  C   UNL A   1      41.076  31.398  30.077  1.00  0.00     0.029 A 
ATOM     59  N   UNL A   1      42.825  30.007  29.971  1.00  0.00    -0.354 N 
ATOM     60  C   UNL A   1      42.384  25.988  28.441  1.00  0.00     0.074 A 
ATOM     61  C   UNL A   1      41.006  25.711  28.098  1.00  0.00     0.031 C 
ATOM     62  C   UNL A   1      42.151  32.064  30.530  1.00  0.00     0.029 A 
ATOM     63  C   UNL A   1      43.316  31.180  30.493  1.00  0.00     0.049 A 
ATOM     64  H   UNL A   1      43.387  29.216  29.802  1.00  0.00     0.167 HD
ATOM     65  C   UNL A   1      43.400  25.104  28.290  1.00  0.00     0.037 A 
ATOM     66  C   UNL A   1      44.558  31.499  30.902  1.00  0.00     0.037 A 
ATOM     67  C   UNL A   1      44.770  25.381  28.633  1.00  0.00     0.049 A 
ATOM     68  C   UNL A   1      45.665  30.487  30.768  1.00  0.00     0.074 A 
ATOM     69  C   UNL A   1      45.875  24.560  28.498  1.00  0.00     0.029 A 
ATOM     70  N   UNL A   1      45.220  26.569  29.189  1.00  0.00    -0.354 N 
ATOM     71  N   UNL A   1      45.613  29.269  30.282  1.00  0.00    -0.248 NA
ATOM     72  C   UNL A   1      47.000  30.893  31.231  1.00  0.00     0.031 C 
ATOM     73  C   UNL A   1      46.989  25.239  29.007  1.00  0.00     0.029 A 
ATOM     74  C   UNL A   1      46.584  26.496  29.424  1.00  0.00     0.049 A 
ATOM     75  H   UNL A   1      44.655  27.351  29.387  1.00  0.00     0.167 HD
ATOM     76  C   UNL A   1      46.908  28.769  30.365  1.00  0.00     0.074 A 
ATOM     77  C   UNL A   1      47.725  29.821  30.937  1.00  0.00     0.031 C 
ATOM     78  C   UNL A   1      47.380  27.552  29.998  1.00  0.00     0.037 A 
BRANCH  65  79
ATOM     79  C   UNL A   1      43.057  23.746  27.748  1.00  0.00     0.058 A 
ATOM     80  C   UNL A   1      42.668  22.694  28.592  1.00  0.00     0.135 A 
ATOM     81  C   UNL A   1      43.110  23.496  26.368  1.00  0.00     0.135 A 
ATOM     82  F   UNL A   1      42.618  22.875  29.920  1.00  0.00    -0.206 F 
ATOM     83  C   UNL A   1      42.370  21.431  28.087  1.00  0.00     0.059 A 
ATOM     84  C   UNL A   1      42.796  22.247  25.839  1.00  0.00     0.059 A 
ATOM     85  F   UNL A   1      43.479  24.467  25.518  1.00  0.00    -0.206 F 
ATOM     86  C   UNL A   1      42.444  21.216  26.710  1.00  0.00     0.060 A 
BRANCH  86  87
ATOM     87  S   UNL A   1      42.071  19.570  26.068  1.00  0.00     0.124 S 
ATOM     88  O   UNL A   1      42.916  19.525  24.879  1.00  0.00    -0.237 OA
ATOM     89  O   UNL A   1      42.478  18.702  27.168  1.00  0.00    -0.237 OA
ATOM     90  O   UNL A   1      40.634  19.623  25.816  1.00  0.00    -0.744 OA
ENDBRANCH  86  87
ENDBRANCH  65  79
BRANCH  66  91
ATOM     91  C   UNL A   1      44.820  32.842  31.481  1.00  0.00     0.058 A 
ATOM     92  C   UNL A   1      44.759  33.062  32.864  1.00  0.00     0.135 A 
ATOM     93  C   UNL A   1      45.163  33.927  30.658  1.00  0.00     0.135 A 
ATOM     94  F   UNL A   1      44.425  32.057  33.688  1.00  0.00    -0.206 F 
ATOM     95  C   UNL A   1      45.026  34.312  33.414  1.00  0.00     0.059 A 
ATOM     96  C   UNL A   1      45.454  35.180  31.186  1.00  0.00     0.059 A 
ATOM     97  F   UNL A   1      45.242  33.763  29.329  1.00  0.00    -0.206 F 
ATOM     98  C   UNL A   1      45.378  35.364  32.566  1.00  0.00     0.060 A 
BRANCH  98  99
ATOM     99  S   UNL A   1      45.793  36.965  33.292  1.00  0.00     0.124 S 
ATOM    100  O   UNL A   1      46.992  36.639  34.056  1.00  0.00    -0.237 OA
ATOM    101  O   UNL A   1      45.998  37.796  32.109  1.00  0.00    -0.237 OA
ATOM    102  O   UNL A   1      44.609  37.292  34.079  1.00  0.00    -0.744 OA
ENDBRANCH  98  99
ENDBRANCH  66  91
BRANCH  78 103
ATOM    103  C   UNL A   1      48.847  27.293  30.190  1.00  0.00     0.058 A 
ATOM    104  C   UNL A   1      49.360  26.858  31.421  1.00  0.00     0.135 A 
ATOM    105  C   UNL A   1      49.742  27.433  29.117  1.00  0.00     0.135 A 
ATOM    106  F   UNL A   1      48.546  26.714  32.479  1.00  0.00    -0.206 F 
ATOM    107  C   UNL A   1      50.714  26.587  31.588  1.00  0.00     0.059 A 
ATOM    108  C   UNL A   1      51.098  27.148  29.257  1.00  0.00     0.059 A 
ATOM    109  F   UNL A   1      49.300  27.838  27.916  1.00  0.00    -0.206 F 
ATOM    110  C   UNL A   1      51.576  26.736  30.500  1.00  0.00     0.060 A 
BRANCH 110 111
ATOM    111  S   UNL A   1      53.326  26.351  30.717  1.00  0.00     0.124 S 
ATOM    112  O   UNL A   1      53.808  27.548  31.399  1.00  0.00    -0.237 OA
ATOM    113  O   UNL A   1      53.286  25.136  31.524  1.00  0.00    -0.237 OA
ATOM    114  O   UNL A   1      53.806  26.171  29.350  1.00  0.00    -0.744 OA
ENDBRANCH 110 111
ENDBRANCH  78 103
ENDBRANCH  52  53
ENDBRANCH  45  47
ENDBRANCH  44  45
ENDBRANCH  43  44
ENDBRANCH  42  43
ENDBRANCH  41  42
ENDBRANCH  40  41
ENDBRANCH   1  40
TORSDOF 29
ENDMDL
