MODEL 1
REMARK VINA RESULT:     -10.4      0.000      0.000
REMARK SMILES COc1cccc([C@@]([NH3+])(C(=O)OCCOCCOC(=O)c2ccc(-c3c4nc(c(-c5c(F)cc(S(=O)(=O)[O-])cc5F)c5ccc([nH]5)c(-c5c(F)cc(S(=O)(=O)[O-])cc5F)c5nc(c(-c6c(F)cc(S(=O)(=O)[O-])cc6F)c6ccc3[nH]6)C=C5)C=C4)cc2)C(F)(F)F)c1
REMARK SMILES IDX 16 1 15 2 14 3 13 4 12 5 10 6 11 7 8 8 7 9 3 10 4 11 91 12
REMARK SMILES IDX 5 13 6 14 2 15 1 16 9 17 87 21 88 22 89 23 90 24 17 25 18 26
REMARK SMILES IDX 19 27 20 28 21 29 22 30 86 31 23 32 85 33 24 34 25 35 26 36
REMARK SMILES IDX 79 37 27 38 84 39 78 40 80 41 28 42 83 43 77 44 76 45 29 47
REMARK SMILES IDX 63 48 42 49 62 50 43 51 46 52 61 53 81 54 44 55 45 56 60 58
REMARK SMILES IDX 82 59 47 60 30 61 31 62 40 63 32 64 33 65 39 66 41 67 34 68
REMARK SMILES IDX 35 69 36 70 37 71 38 72 64 73 65 74 74 75 66 76 67 77 73 78
REMARK SMILES IDX 75 79 68 80 69 81 70 82 71 83 72 84 48 85 49 86 58 87 50 88
REMARK SMILES IDX 51 89 57 90 59 91 52 92 53 93 54 94 55 95 56 96
REMARK H PARENT 9 18 9 19 9 20 80 46 46 57
REMARK Flexibility Score: inf
ROOT
ATOM      1  C   UNL A   1      39.590  21.684  26.517  1.00  0.00     0.202 C 
ENDROOT
BRANCH   1   2
ATOM      2  O   UNL A   1      38.770  21.420  25.377  1.00  0.00    -0.374 OA
BRANCH   2   3
ATOM      3  C   UNL A   1      37.355  21.435  25.562  1.00  0.00     0.202 C 
BRANCH   3   4
ATOM      4  C   UNL A   1      36.612  22.656  25.018  1.00  0.00     0.261 C 
BRANCH   4   5
ATOM      5  O   UNL A   1      35.230  22.639  25.410  1.00  0.00    -0.458 OA
BRANCH   5   6
ATOM      6  C   UNL A   1      34.357  22.123  24.505  1.00  0.00     0.382 C 
ATOM      7  O   UNL A   1      34.334  22.473  23.326  1.00  0.00    -0.244 OA
BRANCH   6   8
ATOM      8  C   UNL A   1      33.346  21.105  25.090  1.00  0.00     0.314 C 
BRANCH   8   9
ATOM      9  C   UNL A   1      33.112  19.811  24.256  1.00  0.00     0.037 A 
ATOM     10  C   UNL A   1      33.561  17.443  23.758  1.00  0.00     0.119 A 
ATOM     11  C   UNL A   1      32.854  17.552  22.566  1.00  0.00     0.046 A 
ATOM     12  C   UNL A   1      33.683  18.560  24.596  1.00  0.00     0.057 A 
ATOM     13  C   UNL A   1      32.255  18.759  22.217  1.00  0.00     0.004 A 
ATOM     14  C   UNL A   1      32.393  19.876  23.045  1.00  0.00     0.011 A 
BRANCH  10  15
ATOM     15  O   UNL A   1      34.161  16.230  23.965  1.00  0.00    -0.497 OA
ATOM     16  C   UNL A   1      34.900  16.085  25.171  1.00  0.00     0.278 C 
ENDBRANCH  10  15
ENDBRANCH   8   9
BRANCH   8  17
ATOM     17  N   UNL A   1      33.900  20.673  26.432  1.00  0.00    -0.332 N 
ATOM     18  H   UNL A   1      33.459  19.800  26.718  1.00  0.00     0.346 HD
ATOM     19  H   UNL A   1      33.709  21.395  27.127  1.00  0.00     0.346 HD
ATOM     20  H   UNL A   1      34.908  20.534  26.355  1.00  0.00     0.346 HD
ENDBRANCH   8  17
BRANCH   8  21
ATOM     21  C   UNL A   1      32.059  21.984  25.230  1.00  0.00     0.460 C 
ATOM     22  F   UNL A   1      31.016  21.304  25.763  1.00  0.00    -0.164 F 
ATOM     23  F   UNL A   1      32.290  23.052  26.046  1.00  0.00    -0.164 F 
ATOM     24  F   UNL A   1      31.644  22.529  24.062  1.00  0.00    -0.164 F 
ENDBRANCH   8  21
ENDBRANCH   6   8
ENDBRANCH   5   6
ENDBRANCH   4   5
ENDBRANCH   3   4
ENDBRANCH   2   3
ENDBRANCH   1   2
BRANCH   1  25
ATOM     25  C   UNL A   1      40.535  22.890  26.447  1.00  0.00     0.261 C 
BRANCH  25  26
ATOM     26  O   UNL A   1      39.845  24.151  26.505  1.00  0.00    -0.460 OA
BRANCH  26  27
ATOM     27  C   UNL A   1      40.617  25.236  26.254  1.00  0.00     0.338 C 
ATOM     28  O   UNL A   1      41.069  25.584  25.170  1.00  0.00    -0.246 OA
BRANCH  27  29
ATOM     29  C   UNL A   1      40.703  26.089  27.453  1.00  0.00     0.060 A 
ATOM     30  C   UNL A   1      39.725  25.921  28.442  1.00  0.00     0.016 A 
ATOM     31  C   UNL A   1      41.679  27.080  27.582  1.00  0.00     0.016 A 
ATOM     32  C   UNL A   1      39.698  26.765  29.550  1.00  0.00     0.010 A 
ATOM     33  C   UNL A   1      41.642  27.936  28.690  1.00  0.00     0.010 A 
ATOM     34  C   UNL A   1      40.638  27.798  29.666  1.00  0.00    -0.014 A 
BRANCH  34  35
ATOM     35  C   UNL A   1      40.503  28.793  30.758  1.00  0.00     0.031 A 
ATOM     36  C   UNL A   1      41.379  28.678  31.974  1.00  0.00     0.074 A 
ATOM     37  C   UNL A   1      39.620  29.803  30.653  1.00  0.00     0.049 A 
ATOM     38  N   UNL A   1      41.401  29.418  33.052  1.00  0.00    -0.248 NA
ATOM     39  C   UNL A   1      42.364  27.584  31.975  1.00  0.00     0.031 C 
ATOM     40  C   UNL A   1      38.743  30.039  29.507  1.00  0.00     0.029 A 
ATOM     41  N   UNL A   1      39.310  30.813  31.527  1.00  0.00    -0.354 N 
ATOM     42  C   UNL A   1      42.396  28.883  33.860  1.00  0.00     0.074 A 
ATOM     43  C   UNL A   1      42.938  27.738  33.160  1.00  0.00     0.031 C 
ATOM     44  C   UNL A   1      37.982  31.119  29.755  1.00  0.00     0.029 A 
ATOM     45  C   UNL A   1      38.296  31.630  31.088  1.00  0.00     0.049 A 
ATOM     46  H   UNL A   1      39.771  30.942  32.388  1.00  0.00     0.167 HD
ATOM     47  C   UNL A   1      42.822  29.311  35.073  1.00  0.00     0.037 A 
ATOM     48  C   UNL A   1      37.672  32.655  31.703  1.00  0.00     0.037 A 
ATOM     49  C   UNL A   1      42.278  30.451  35.765  1.00  0.00     0.049 A 
ATOM     50  C   UNL A   1      38.107  33.061  33.086  1.00  0.00     0.074 A 
ATOM     51  C   UNL A   1      42.666  30.985  36.981  1.00  0.00     0.029 A 
ATOM     52  N   UNL A   1      41.218  31.222  35.311  1.00  0.00    -0.354 N 
ATOM     53  N   UNL A   1      39.073  32.568  33.825  1.00  0.00    -0.248 NA
ATOM     54  C   UNL A   1      37.366  34.160  33.722  1.00  0.00     0.031 C 
ATOM     55  C   UNL A   1      41.807  32.047  37.286  1.00  0.00     0.029 A 
ATOM     56  C   UNL A   1      40.914  32.204  36.239  1.00  0.00     0.049 A 
ATOM     57  H   UNL A   1      40.751  31.091  34.454  1.00  0.00     0.167 HD
ATOM     58  C   UNL A   1      39.061  33.301  35.006  1.00  0.00     0.074 A 
ATOM     59  C   UNL A   1      38.006  34.284  34.877  1.00  0.00     0.031 C 
ATOM     60  C   UNL A   1      39.852  33.170  36.102  1.00  0.00     0.037 A 
BRANCH  47  61
ATOM     61  C   UNL A   1      43.919  28.531  35.742  1.00  0.00     0.058 A 
ATOM     62  C   UNL A   1      43.641  27.472  36.622  1.00  0.00     0.135 A 
ATOM     63  C   UNL A   1      45.265  28.819  35.470  1.00  0.00     0.135 A 
ATOM     64  F   UNL A   1      42.372  27.164  36.930  1.00  0.00    -0.206 F 
ATOM     65  C   UNL A   1      44.661  26.744  37.227  1.00  0.00     0.059 A 
ATOM     66  C   UNL A   1      46.301  28.088  36.044  1.00  0.00     0.059 A 
ATOM     67  F   UNL A   1      45.587  29.821  34.636  1.00  0.00    -0.206 F 
ATOM     68  C   UNL A   1      45.988  27.060  36.932  1.00  0.00     0.060 A 
BRANCH  68  69
ATOM     69  S   UNL A   1      47.300  26.103  37.722  1.00  0.00     0.124 S 
ATOM     70  O   UNL A   1      48.154  27.162  38.249  1.00  0.00    -0.237 OA
ATOM     71  O   UNL A   1      46.566  25.327  38.716  1.00  0.00    -0.237 OA
ATOM     72  O   UNL A   1      47.867  25.329  36.622  1.00  0.00    -0.744 OA
ENDBRANCH  68  69
ENDBRANCH  47  61
BRANCH  48  73
ATOM     73  C   UNL A   1      36.546  33.350  31.025  1.00  0.00     0.058 A 
ATOM     74  C   UNL A   1      35.221  33.174  31.449  1.00  0.00     0.135 A 
ATOM     75  C   UNL A   1      36.777  34.213  29.941  1.00  0.00     0.135 A 
ATOM     76  F   UNL A   1      34.949  32.349  32.471  1.00  0.00    -0.206 F 
ATOM     77  C   UNL A   1      34.163  33.823  30.820  1.00  0.00     0.059 A 
ATOM     78  C   UNL A   1      35.738  34.891  29.312  1.00  0.00     0.059 A 
ATOM     79  F   UNL A   1      38.028  34.422  29.501  1.00  0.00    -0.206 F 
ATOM     80  C   UNL A   1      34.433  34.683  29.755  1.00  0.00     0.060 A 
BRANCH  80  81
ATOM     81  S   UNL A   1      33.060  35.566  28.983  1.00  0.00     0.124 S 
ATOM     82  O   UNL A   1      33.756  36.647  28.294  1.00  0.00    -0.237 OA
ATOM     83  O   UNL A   1      32.474  34.537  28.130  1.00  0.00    -0.237 OA
ATOM     84  O   UNL A   1      32.238  35.968  30.120  1.00  0.00    -0.744 OA
ENDBRANCH  80  81
ENDBRANCH  48  73
BRANCH  60  85
ATOM     85  C   UNL A   1      39.608  34.110  37.248  1.00  0.00     0.058 A 
ATOM     86  C   UNL A   1      38.863  33.717  38.372  1.00  0.00     0.135 A 
ATOM     87  C   UNL A   1      40.172  35.397  37.255  1.00  0.00     0.135 A 
ATOM     88  F   UNL A   1      38.295  32.501  38.413  1.00  0.00    -0.206 F 
ATOM     89  C   UNL A   1      38.673  34.571  39.453  1.00  0.00     0.059 A 
ATOM     90  C   UNL A   1      40.016  36.258  38.335  1.00  0.00     0.059 A 
ATOM     91  F   UNL A   1      40.901  35.819  36.208  1.00  0.00    -0.206 F 
ATOM     92  C   UNL A   1      39.256  35.839  39.427  1.00  0.00     0.060 A 
BRANCH  92  93
ATOM     93  S   UNL A   1      39.036  36.922  40.856  1.00  0.00     0.124 S 
ATOM     94  O   UNL A   1      38.443  38.105  40.240  1.00  0.00    -0.237 OA
ATOM     95  O   UNL A   1      38.148  36.138  41.709  1.00  0.00    -0.237 OA
ATOM     96  O   UNL A   1      40.394  37.093  41.365  1.00  0.00    -0.744 OA
ENDBRANCH  92  93
ENDBRANCH  60  85
ENDBRANCH  34  35
ENDBRANCH  27  29
ENDBRANCH  26  27
ENDBRANCH  25  26
ENDBRANCH   1  25
TORSDOF 21
ENDMDL
MODEL 2
REMARK VINA RESULT:     -10.4      7.295     12.730
REMARK SMILES COc1cccc([C@@]([NH3+])(C(=O)OCCOCCOC(=O)c2ccc(-c3c4nc(c(-c5c(F)cc(S(=O)(=O)[O-])cc5F)c5ccc([nH]5)c(-c5c(F)cc(S(=O)(=O)[O-])cc5F)c5nc(c(-c6c(F)cc(S(=O)(=O)[O-])cc6F)c6ccc3[nH]6)C=C5)C=C4)cc2)C(F)(F)F)c1
REMARK SMILES IDX 16 1 15 2 14 3 13 4 12 5 10 6 11 7 8 8 7 9 3 10 4 11 91 12
REMARK SMILES IDX 5 13 6 14 2 15 1 16 9 17 87 21 88 22 89 23 90 24 17 25 18 26
REMARK SMILES IDX 19 27 20 28 21 29 22 30 86 31 23 32 85 33 24 34 25 35 26 36
REMARK SMILES IDX 79 37 27 38 84 39 78 40 80 41 28 42 83 43 77 44 76 45 29 47
REMARK SMILES IDX 63 48 42 49 62 50 43 51 46 52 61 53 81 54 44 55 45 56 60 58
REMARK SMILES IDX 82 59 47 60 30 61 31 62 40 63 32 64 33 65 39 66 41 67 34 68
REMARK SMILES IDX 35 69 36 70 37 71 38 72 64 73 65 74 74 75 66 76 67 77 73 78
REMARK SMILES IDX 75 79 68 80 69 81 70 82 71 83 72 84 48 85 49 86 58 87 50 88
REMARK SMILES IDX 51 89 57 90 59 91 52 92 53 93 54 94 55 95 56 96
REMARK H PARENT 9 18 9 19 9 20 80 46 46 57
REMARK Flexibility Score: inf
ROOT
ATOM      1  C   UNL A   1      33.348  31.104  27.595  1.00  0.00     0.202 C 
ENDROOT
BRANCH   1   2
ATOM      2  O   UNL A   1      33.410  29.765  27.097  1.00  0.00    -0.374 OA
BRANCH   2   3
ATOM      3  C   UNL A   1      32.395  28.855  27.521  1.00  0.00     0.202 C 
BRANCH   3   4
ATOM      4  C   UNL A   1      31.670  28.086  26.415  1.00  0.00     0.261 C 
BRANCH   4   5
ATOM      5  O   UNL A   1      31.621  28.851  25.199  1.00  0.00    -0.458 OA
BRANCH   5   6
ATOM      6  C   UNL A   1      32.402  28.405  24.179  1.00  0.00     0.382 C 
ATOM      7  O   UNL A   1      33.598  28.152  24.316  1.00  0.00    -0.244 OA
BRANCH   6   8
ATOM      8  C   UNL A   1      31.682  28.301  22.811  1.00  0.00     0.314 C 
BRANCH   8   9
ATOM      9  C   UNL A   1      30.145  28.550  22.822  1.00  0.00     0.037 A 
ATOM     10  C   UNL A   1      28.187  30.024  22.603  1.00  0.00     0.119 A 
ATOM     11  C   UNL A   1      27.365  29.018  23.099  1.00  0.00     0.046 A 
ATOM     12  C   UNL A   1      29.561  29.789  22.460  1.00  0.00     0.057 A 
ATOM     13  C   UNL A   1      27.902  27.779  23.435  1.00  0.00     0.004 A 
ATOM     14  C   UNL A   1      29.276  27.553  23.309  1.00  0.00     0.011 A 
BRANCH  10  15
ATOM     15  O   UNL A   1      27.561  31.219  22.368  1.00  0.00    -0.497 OA
ATOM     16  C   UNL A   1      28.267  32.160  21.571  1.00  0.00     0.278 C 
ENDBRANCH  10  15
ENDBRANCH   8   9
BRANCH   8  17
ATOM     17  N   UNL A   1      32.297  29.363  21.922  1.00  0.00    -0.332 N 
ATOM     18  H   UNL A   1      32.313  30.254  22.417  1.00  0.00     0.346 HD
ATOM     19  H   UNL A   1      31.742  29.456  21.070  1.00  0.00     0.346 HD
ATOM     20  H   UNL A   1      33.250  29.092  21.678  1.00  0.00     0.346 HD
ENDBRANCH   8  17
BRANCH   8  21
ATOM     21  C   UNL A   1      32.065  26.851  22.363  1.00  0.00     0.460 C 
ATOM     22  F   UNL A   1      33.350  26.756  21.944  1.00  0.00    -0.164 F 
ATOM     23  F   UNL A   1      31.921  25.972  23.395  1.00  0.00    -0.164 F 
ATOM     24  F   UNL A   1      31.273  26.360  21.382  1.00  0.00    -0.164 F 
ENDBRANCH   8  21
ENDBRANCH   6   8
ENDBRANCH   5   6
ENDBRANCH   4   5
ENDBRANCH   3   4
ENDBRANCH   2   3
ENDBRANCH   1   2
BRANCH   1  25
ATOM     25  C   UNL A   1      34.620  31.686  28.224  1.00  0.00     0.261 C 
BRANCH  25  26
ATOM     26  O   UNL A   1      35.459  30.684  28.827  1.00  0.00    -0.460 OA
BRANCH  26  27
ATOM     27  C   UNL A   1      36.448  31.169  29.615  1.00  0.00     0.338 C 
ATOM     28  O   UNL A   1      36.330  31.957  30.545  1.00  0.00    -0.246 OA
BRANCH  27  29
ATOM     29  C   UNL A   1      37.714  30.469  29.333  1.00  0.00     0.060 A 
ATOM     30  C   UNL A   1      38.643  30.361  30.376  1.00  0.00     0.016 A 
ATOM     31  C   UNL A   1      38.020  29.986  28.059  1.00  0.00     0.016 A 
ATOM     32  C   UNL A   1      39.896  29.798  30.142  1.00  0.00     0.010 A 
ATOM     33  C   UNL A   1      39.285  29.433  27.822  1.00  0.00     0.010 A 
ATOM     34  C   UNL A   1      40.237  29.358  28.856  1.00  0.00    -0.014 A 
BRANCH  34  35
ATOM     35  C   UNL A   1      41.624  28.914  28.576  1.00  0.00     0.031 A 
ATOM     36  C   UNL A   1      42.742  29.919  28.613  1.00  0.00     0.074 A 
ATOM     37  C   UNL A   1      41.885  27.621  28.314  1.00  0.00     0.049 A 
ATOM     38  N   UNL A   1      44.016  29.750  28.368  1.00  0.00    -0.248 NA
ATOM     39  C   UNL A   1      42.377  31.298  28.976  1.00  0.00     0.031 C 
ATOM     40  C   UNL A   1      40.890  26.549  28.287  1.00  0.00     0.029 A 
ATOM     41  N   UNL A   1      43.065  26.991  28.012  1.00  0.00    -0.354 N 
ATOM     42  C   UNL A   1      44.605  30.996  28.544  1.00  0.00     0.074 A 
ATOM     43  C   UNL A   1      43.545  31.918  28.891  1.00  0.00     0.031 C 
ATOM     44  C   UNL A   1      41.501  25.395  27.971  1.00  0.00     0.029 A 
ATOM     45  C   UNL A   1      42.921  25.651  27.742  1.00  0.00     0.049 A 
ATOM     46  H   UNL A   1      43.934  27.455  27.992  1.00  0.00     0.167 HD
ATOM     47  C   UNL A   1      45.911  31.336  28.433  1.00  0.00     0.037 A 
ATOM     48  C   UNL A   1      43.826  24.742  27.329  1.00  0.00     0.037 A 
ATOM     49  C   UNL A   1      46.961  30.413  28.087  1.00  0.00     0.049 A 
ATOM     50  C   UNL A   1      45.259  25.163  27.131  1.00  0.00     0.074 A 
ATOM     51  C   UNL A   1      48.320  30.655  27.983  1.00  0.00     0.029 A 
ATOM     52  N   UNL A   1      46.769  29.076  27.771  1.00  0.00    -0.354 N 
ATOM     53  N   UNL A   1      45.809  26.336  27.335  1.00  0.00    -0.248 NA
ATOM     54  C   UNL A   1      46.193  24.138  26.643  1.00  0.00     0.031 C 
ATOM     55  C   UNL A   1      48.942  29.476  27.554  1.00  0.00     0.029 A 
ATOM     56  C   UNL A   1      47.978  28.489  27.436  1.00  0.00     0.049 A 
ATOM     57  H   UNL A   1      45.900  28.613  27.783  1.00  0.00     0.167 HD
ATOM     58  C   UNL A   1      47.152  26.189  27.010  1.00  0.00     0.074 A 
ATOM     59  C   UNL A   1      47.337  24.808  26.615  1.00  0.00     0.031 C 
ATOM     60  C   UNL A   1      48.144  27.115  27.033  1.00  0.00     0.037 A 
BRANCH  47  61
ATOM     61  C   UNL A   1      46.279  32.776  28.667  1.00  0.00     0.058 A 
ATOM     62  C   UNL A   1      46.647  33.247  29.937  1.00  0.00     0.135 A 
ATOM     63  C   UNL A   1      46.300  33.686  27.599  1.00  0.00     0.135 A 
ATOM     64  F   UNL A   1      46.629  32.423  30.996  1.00  0.00    -0.206 F 
ATOM     65  C   UNL A   1      47.000  34.577  30.143  1.00  0.00     0.059 A 
ATOM     66  C   UNL A   1      46.673  35.015  27.777  1.00  0.00     0.059 A 
ATOM     67  F   UNL A   1      45.955  33.288  26.364  1.00  0.00    -0.206 F 
ATOM     68  C   UNL A   1      47.009  35.454  29.058  1.00  0.00     0.060 A 
BRANCH  68  69
ATOM     69  S   UNL A   1      47.473  37.176  29.341  1.00  0.00     0.124 S 
ATOM     70  O   UNL A   1      48.601  37.326  28.428  1.00  0.00    -0.237 OA
ATOM     71  O   UNL A   1      46.257  37.893  28.969  1.00  0.00    -0.237 OA
ATOM     72  O   UNL A   1      47.807  37.210  30.761  1.00  0.00    -0.744 OA
ENDBRANCH  68  69
ENDBRANCH  47  61
BRANCH  48  73
ATOM     73  C   UNL A   1      43.397  23.346  27.045  1.00  0.00     0.058 A 
ATOM     74  C   UNL A   1      43.288  22.872  25.730  1.00  0.00     0.135 A 
ATOM     75  C   UNL A   1      43.096  22.456  28.089  1.00  0.00     0.135 A 
ATOM     76  F   UNL A   1      43.552  23.689  24.699  1.00  0.00    -0.206 F 
ATOM     77  C   UNL A   1      42.889  21.567  25.458  1.00  0.00     0.059 A 
ATOM     78  C   UNL A   1      42.719  21.141  27.842  1.00  0.00     0.059 A 
ATOM     79  F   UNL A   1      43.193  22.859  29.366  1.00  0.00    -0.206 F 
ATOM     80  C   UNL A   1      42.610  20.708  26.521  1.00  0.00     0.060 A 
BRANCH  80  81
ATOM     81  S   UNL A   1      42.150  18.999  26.160  1.00  0.00     0.124 S 
ATOM     82  O   UNL A   1      40.745  19.144  25.797  1.00  0.00    -0.237 OA
ATOM     83  O   UNL A   1      43.061  18.661  25.069  1.00  0.00    -0.237 OA
ATOM     84  O   UNL A   1      42.411  18.309  27.419  1.00  0.00    -0.744 OA
ENDBRANCH  80  81
ENDBRANCH  48  73
BRANCH  60  85
ATOM     85  C   UNL A   1      49.519  26.668  26.621  1.00  0.00     0.058 A 
ATOM     86  C   UNL A   1      50.390  26.048  27.530  1.00  0.00     0.135 A 
ATOM     87  C   UNL A   1      49.951  26.805  25.292  1.00  0.00     0.135 A 
ATOM     88  F   UNL A   1      50.030  25.899  28.815  1.00  0.00    -0.206 F 
ATOM     89  C   UNL A   1      51.646  25.594  27.141  1.00  0.00     0.059 A 
ATOM     90  C   UNL A   1      51.192  26.338  24.873  1.00  0.00     0.059 A 
ATOM     91  F   UNL A   1      49.152  27.384  24.379  1.00  0.00    -0.206 F 
ATOM     92  C   UNL A   1      52.037  25.741  25.809  1.00  0.00     0.060 A 
BRANCH  92  93
ATOM     93  S   UNL A   1      53.654  25.110  25.307  1.00  0.00     0.124 S 
ATOM     94  O   UNL A   1      53.396  23.676  25.220  1.00  0.00    -0.237 OA
ATOM     95  O   UNL A   1      53.876  25.793  24.037  1.00  0.00    -0.237 OA
ATOM     96  O   UNL A   1      54.532  25.525  26.397  1.00  0.00    -0.744 OA
ENDBRANCH  92  93
ENDBRANCH  60  85
ENDBRANCH  34  35
ENDBRANCH  27  29
ENDBRANCH  26  27
ENDBRANCH  25  26
ENDBRANCH   1  25
TORSDOF 21
ENDMDL
MODEL 3
REMARK VINA RESULT:     -10.1      1.746      3.259
REMARK SMILES COc1cccc([C@@]([NH3+])(C(=O)OCCOCCOC(=O)c2ccc(-c3c4nc(c(-c5c(F)cc(S(=O)(=O)[O-])cc5F)c5ccc([nH]5)c(-c5c(F)cc(S(=O)(=O)[O-])cc5F)c5nc(c(-c6c(F)cc(S(=O)(=O)[O-])cc6F)c6ccc3[nH]6)C=C5)C=C4)cc2)C(F)(F)F)c1
REMARK SMILES IDX 16 1 15 2 14 3 13 4 12 5 10 6 11 7 8 8 7 9 3 10 4 11 91 12
REMARK SMILES IDX 5 13 6 14 2 15 1 16 9 17 87 21 88 22 89 23 90 24 17 25 18 26
REMARK SMILES IDX 19 27 20 28 21 29 22 30 86 31 23 32 85 33 24 34 25 35 26 36
REMARK SMILES IDX 79 37 27 38 84 39 78 40 80 41 28 42 83 43 77 44 76 45 29 47
REMARK SMILES IDX 63 48 42 49 62 50 43 51 46 52 61 53 81 54 44 55 45 56 60 58
REMARK SMILES IDX 82 59 47 60 30 61 31 62 40 63 32 64 33 65 39 66 41 67 34 68
REMARK SMILES IDX 35 69 36 70 37 71 38 72 64 73 65 74 74 75 66 76 67 77 73 78
REMARK SMILES IDX 75 79 68 80 69 81 70 82 71 83 72 84 48 85 49 86 58 87 50 88
REMARK SMILES IDX 51 89 57 90 59 91 52 92 53 93 54 94 55 95 56 96
REMARK H PARENT 9 18 9 19 9 20 80 46 46 57
REMARK Flexibility Score: inf
ROOT
ATOM      1  C   UNL A   1      39.930  21.717  26.166  1.00  0.00     0.202 C 
ENDROOT
BRANCH   1   2
ATOM      2  O   UNL A   1      38.518  21.938  26.129  1.00  0.00    -0.374 OA
BRANCH   2   3
ATOM      3  C   UNL A   1      37.781  21.330  25.069  1.00  0.00     0.202 C 
BRANCH   3   4
ATOM      4  C   UNL A   1      36.259  21.329  25.215  1.00  0.00     0.261 C 
BRANCH   4   5
ATOM      5  O   UNL A   1      35.640  22.131  24.196  1.00  0.00    -0.458 OA
BRANCH   5   6
ATOM      6  C   UNL A   1      35.408  23.432  24.517  1.00  0.00     0.382 C 
ATOM      7  O   UNL A   1      36.233  24.132  25.101  1.00  0.00    -0.244 OA
BRANCH   6   8
ATOM      8  C   UNL A   1      33.994  23.947  24.148  1.00  0.00     0.314 C 
BRANCH   8   9
ATOM      9  C   UNL A   1      33.879  25.463  23.816  1.00  0.00     0.037 A 
ATOM     10  C   UNL A   1      33.678  27.821  24.495  1.00  0.00     0.119 A 
ATOM     11  C   UNL A   1      33.416  28.185  23.178  1.00  0.00     0.046 A 
ATOM     12  C   UNL A   1      33.913  26.475  24.808  1.00  0.00     0.057 A 
ATOM     13  C   UNL A   1      33.405  27.220  22.176  1.00  0.00     0.004 A 
ATOM     14  C   UNL A   1      33.621  25.876  22.493  1.00  0.00     0.011 A 
BRANCH  10  15
ATOM     15  O   UNL A   1      33.599  28.842  25.403  1.00  0.00    -0.497 OA
ATOM     16  C   UNL A   1      34.107  28.575  26.704  1.00  0.00     0.278 C 
ENDBRANCH  10  15
ENDBRANCH   8   9
BRANCH   8  17
ATOM     17  N   UNL A   1      33.572  23.188  22.906  1.00  0.00    -0.332 N 
ATOM     18  H   UNL A   1      32.603  22.888  23.003  1.00  0.00     0.346 HD
ATOM     19  H   UNL A   1      34.171  22.371  22.786  1.00  0.00     0.346 HD
ATOM     20  H   UNL A   1      33.660  23.795  22.091  1.00  0.00     0.346 HD
ENDBRANCH   8  17
BRANCH   8  21
ATOM     21  C   UNL A   1      33.168  23.531  25.411  1.00  0.00     0.460 C 
ATOM     22  F   UNL A   1      31.972  24.163  25.484  1.00  0.00    -0.164 F 
ATOM     23  F   UNL A   1      32.906  22.193  25.398  1.00  0.00    -0.164 F 
ATOM     24  F   UNL A   1      33.820  23.741  26.578  1.00  0.00    -0.164 F 
ENDBRANCH   8  21
ENDBRANCH   6   8
ENDBRANCH   5   6
ENDBRANCH   4   5
ENDBRANCH   3   4
ENDBRANCH   2   3
ENDBRANCH   1   2
BRANCH   1  25
ATOM     25  C   UNL A   1      40.824  22.908  26.535  1.00  0.00     0.261 C 
BRANCH  25  26
ATOM     26  O   UNL A   1      40.175  24.178  26.348  1.00  0.00    -0.460 OA
BRANCH  26  27
ATOM     27  C   UNL A   1      41.015  25.225  26.167  1.00  0.00     0.338 C 
ATOM     28  O   UNL A   1      41.560  25.561  25.122  1.00  0.00    -0.246 OA
BRANCH  27  29
ATOM     29  C   UNL A   1      41.058  26.061  27.380  1.00  0.00     0.060 A 
ATOM     30  C   UNL A   1      40.040  25.886  28.326  1.00  0.00     0.016 A 
ATOM     31  C   UNL A   1      42.033  27.045  27.561  1.00  0.00     0.016 A 
ATOM     32  C   UNL A   1      39.973  26.715  29.444  1.00  0.00     0.010 A 
ATOM     33  C   UNL A   1      41.956  27.886  28.679  1.00  0.00     0.010 A 
ATOM     34  C   UNL A   1      40.913  27.741  29.612  1.00  0.00    -0.014 A 
BRANCH  34  35
ATOM     35  C   UNL A   1      40.739  28.721  30.712  1.00  0.00     0.031 A 
ATOM     36  C   UNL A   1      41.592  28.606  31.945  1.00  0.00     0.074 A 
ATOM     37  C   UNL A   1      39.843  29.718  30.598  1.00  0.00     0.049 A 
ATOM     38  N   UNL A   1      41.579  29.335  33.030  1.00  0.00    -0.248 NA
ATOM     39  C   UNL A   1      42.594  27.528  31.954  1.00  0.00     0.031 C 
ATOM     40  C   UNL A   1      38.987  29.954  29.436  1.00  0.00     0.029 A 
ATOM     41  N   UNL A   1      39.499  30.714  31.477  1.00  0.00    -0.354 N 
ATOM     42  C   UNL A   1      42.565  28.806  33.854  1.00  0.00     0.074 A 
ATOM     43  C   UNL A   1      43.140  27.678  33.153  1.00  0.00     0.031 C 
ATOM     44  C   UNL A   1      38.204  31.019  29.680  1.00  0.00     0.029 A 
ATOM     45  C   UNL A   1      38.482  31.520  31.025  1.00  0.00     0.049 A 
ATOM     46  H   UNL A   1      39.940  30.840  32.349  1.00  0.00     0.167 HD
ATOM     47  C   UNL A   1      42.959  29.227  35.080  1.00  0.00     0.037 A 
ATOM     48  C   UNL A   1      37.829  32.528  31.638  1.00  0.00     0.037 A 
ATOM     49  C   UNL A   1      42.383  30.351  35.772  1.00  0.00     0.049 A 
ATOM     50  C   UNL A   1      38.229  32.925  33.034  1.00  0.00     0.074 A 
ATOM     51  C   UNL A   1      42.737  30.877  37.002  1.00  0.00     0.029 A 
ATOM     52  N   UNL A   1      41.320  31.110  35.304  1.00  0.00    -0.354 N 
ATOM     53  N   UNL A   1      39.186  32.439  33.788  1.00  0.00    -0.248 NA
ATOM     54  C   UNL A   1      37.457  34.005  33.666  1.00  0.00     0.031 C 
ATOM     55  C   UNL A   1      41.855  31.923  37.300  1.00  0.00     0.029 A 
ATOM     56  C   UNL A   1      40.982  32.077  36.237  1.00  0.00     0.049 A 
ATOM     57  H   UNL A   1      40.873  30.981  34.437  1.00  0.00     0.167 HD
ATOM     58  C   UNL A   1      39.138  33.158  34.977  1.00  0.00     0.074 A 
ATOM     59  C   UNL A   1      38.071  34.127  34.836  1.00  0.00     0.031 C 
ATOM     60  C   UNL A   1      39.907  33.027  36.087  1.00  0.00     0.037 A 
BRANCH  47  61
ATOM     61  C   UNL A   1      44.054  28.456  35.763  1.00  0.00     0.058 A 
ATOM     62  C   UNL A   1      45.409  28.770  35.572  1.00  0.00     0.135 A 
ATOM     63  C   UNL A   1      43.742  27.414  36.651  1.00  0.00     0.135 A 
ATOM     64  F   UNL A   1      45.764  29.746  34.723  1.00  0.00    -0.206 F 
ATOM     65  C   UNL A   1      46.417  28.062  36.220  1.00  0.00     0.059 A 
ATOM     66  C   UNL A   1      44.732  26.708  37.328  1.00  0.00     0.059 A 
ATOM     67  F   UNL A   1      42.462  27.072  36.869  1.00  0.00    -0.206 F 
ATOM     68  C   UNL A   1      46.069  27.032  37.095  1.00  0.00     0.060 A 
BRANCH  68  69
ATOM     69  S   UNL A   1      47.387  26.124  37.930  1.00  0.00     0.124 S 
ATOM     70  O   UNL A   1      47.480  26.846  39.195  1.00  0.00    -0.237 OA
ATOM     71  O   UNL A   1      46.836  24.775  38.010  1.00  0.00    -0.237 OA
ATOM     72  O   UNL A   1      48.529  26.280  37.035  1.00  0.00    -0.744 OA
ENDBRANCH  68  69
ENDBRANCH  47  61
BRANCH  48  73
ATOM     73  C   UNL A   1      36.707  33.213  30.943  1.00  0.00     0.058 A 
ATOM     74  C   UNL A   1      36.944  34.134  29.912  1.00  0.00     0.135 A 
ATOM     75  C   UNL A   1      35.372  32.953  31.295  1.00  0.00     0.135 A 
ATOM     76  F   UNL A   1      38.202  34.425  29.550  1.00  0.00    -0.206 F 
ATOM     77  C   UNL A   1      35.899  34.777  29.257  1.00  0.00     0.059 A 
ATOM     78  C   UNL A   1      34.311  33.566  30.638  1.00  0.00     0.059 A 
ATOM     79  F   UNL A   1      35.092  32.075  32.270  1.00  0.00    -0.206 F 
ATOM     80  C   UNL A   1      34.585  34.484  29.625  1.00  0.00     0.060 A 
BRANCH  80  81
ATOM     81  S   UNL A   1      33.234  35.280  28.730  1.00  0.00     0.124 S 
ATOM     82  O   UNL A   1      33.952  36.263  27.927  1.00  0.00    -0.237 OA
ATOM     83  O   UNL A   1      32.649  34.160  27.998  1.00  0.00    -0.237 OA
ATOM     84  O   UNL A   1      32.399  35.824  29.797  1.00  0.00    -0.744 OA
ENDBRANCH  80  81
ENDBRANCH  48  73
BRANCH  60  85
ATOM     85  C   UNL A   1      39.625  33.951  37.238  1.00  0.00     0.058 A 
ATOM     86  C   UNL A   1      38.913  33.517  38.367  1.00  0.00     0.135 A 
ATOM     87  C   UNL A   1      40.120  35.266  37.242  1.00  0.00     0.135 A 
ATOM     88  F   UNL A   1      38.411  32.273  38.411  1.00  0.00    -0.206 F 
ATOM     89  C   UNL A   1      38.688  34.358  39.453  1.00  0.00     0.059 A 
ATOM     90  C   UNL A   1      39.928  36.116  38.327  1.00  0.00     0.059 A 
ATOM     91  F   UNL A   1      40.815  35.729  36.190  1.00  0.00    -0.206 F 
ATOM     92  C   UNL A   1      39.203  35.655  39.425  1.00  0.00     0.060 A 
BRANCH  92  93
ATOM     93  S   UNL A   1      38.939  36.721  40.858  1.00  0.00     0.124 S 
ATOM     94  O   UNL A   1      38.374  37.915  40.237  1.00  0.00    -0.237 OA
ATOM     95  O   UNL A   1      38.017  35.932  41.670  1.00  0.00    -0.237 OA
ATOM     96  O   UNL A   1      40.279  36.878  41.416  1.00  0.00    -0.744 OA
ENDBRANCH  92  93
ENDBRANCH  60  85
ENDBRANCH  34  35
ENDBRANCH  27  29
ENDBRANCH  26  27
ENDBRANCH  25  26
ENDBRANCH   1  25
TORSDOF 21
ENDMDL
