MODEL 1
REMARK VINA RESULT:     -10.9      0.000      0.000
REMARK SMILES Cc1nc([C@]2(C)CCCO2)nc(C)c1C(=O)OCCOCCOC(=O)c1ccc(-c2c3nc(c(-c4c(F)cc(S(=O)(=O)[O-])cc4F)c4ccc([nH]4)c(-c4c(F)cc(S(=O)(=O)[O-])cc4F)c4nc(c(-c5c(F)cc(S(=O)(=O)[O-])cc5F)c5ccc2[nH]5)C=C4)C=C3)cc1
REMARK SMILES IDX 21 1 20 2 19 3 18 4 17 5 15 6 16 7 14 8 1 9 2 10 3 11 4 12
REMARK SMILES IDX 12 13 11 14 13 15 5 16 7 17 10 18 6 19 8 20 9 21 22 22 23 23
REMARK SMILES IDX 24 24 25 25 26 26 27 27 91 28 28 29 90 30 29 31 30 32 31 33
REMARK SMILES IDX 84 34 32 35 89 36 83 37 85 38 33 39 88 40 82 41 81 42 34 44
REMARK SMILES IDX 68 45 47 46 67 47 48 48 51 49 66 50 86 51 49 52 50 53 65 55
REMARK SMILES IDX 87 56 52 57 35 58 36 59 45 60 37 61 38 62 44 63 46 64 39 65
REMARK SMILES IDX 40 66 41 67 42 68 43 69 69 70 70 71 79 72 71 73 72 74 78 75
REMARK SMILES IDX 80 76 73 77 74 78 75 79 76 80 77 81 53 82 54 83 63 84 55 85
REMARK SMILES IDX 56 86 62 87 64 88 57 89 58 90 59 91 60 92 61 93
REMARK H PARENT 85 43 51 54
REMARK Flexibility Score: inf
ROOT
ATOM      1  C   UNL A   1      39.632  21.251  26.107  1.00  0.00     0.202 C 
ENDROOT
BRANCH   1   2
ATOM      2  O   UNL A   1      38.385  21.804  25.687  1.00  0.00    -0.374 OA
BRANCH   2   3
ATOM      3  C   UNL A   1      37.523  20.987  24.895  1.00  0.00     0.202 C 
BRANCH   3   4
ATOM      4  C   UNL A   1      36.103  20.775  25.421  1.00  0.00     0.261 C 
BRANCH   4   5
ATOM      5  O   UNL A   1      35.136  21.133  24.422  1.00  0.00    -0.460 OA
BRANCH   5   6
ATOM      6  C   UNL A   1      33.846  20.982  24.787  1.00  0.00     0.341 C 
ATOM      7  O   UNL A   1      33.353  19.997  25.323  1.00  0.00    -0.246 OA
BRANCH   6   8
ATOM      8  C   UNL A   1      33.085  22.222  24.574  1.00  0.00     0.102 A 
ATOM      9  C   UNL A   1      33.600  23.184  26.870  1.00  0.00     0.068 C 
ATOM     10  C   UNL A   1      33.054  23.276  25.475  1.00  0.00     0.056 A 
ATOM     11  N   UNL A   1      32.475  24.463  25.165  1.00  0.00    -0.234 NA
ATOM     12  C   UNL A   1      31.905  24.603  23.950  1.00  0.00     0.160 A 
ATOM     13  C   UNL A   1      32.384  22.409  23.387  1.00  0.00     0.056 A 
ATOM     14  N   UNL A   1      31.811  23.593  23.065  1.00  0.00    -0.234 NA
ATOM     15  C   UNL A   1      32.082  21.291  22.429  1.00  0.00     0.068 C 
BRANCH  12  16
ATOM     16  C   UNL A   1      31.401  25.993  23.527  1.00  0.00     0.125 C 
ATOM     17  C   UNL A   1      31.630  26.244  22.034  1.00  0.00     0.046 C 
ATOM     18  O   UNL A   1      32.147  27.036  24.195  1.00  0.00    -0.367 OA
ATOM     19  C   UNL A   1      29.922  26.186  23.882  1.00  0.00     0.051 C 
ATOM     20  C   UNL A   1      33.032  26.804  21.980  1.00  0.00     0.032 C 
ATOM     21  C   UNL A   1      33.213  27.462  23.334  1.00  0.00     0.161 C 
ENDBRANCH  12  16
ENDBRANCH   6   8
ENDBRANCH   5   6
ENDBRANCH   4   5
ENDBRANCH   3   4
ENDBRANCH   2   3
ENDBRANCH   1   2
BRANCH   1  22
ATOM     22  C   UNL A   1      40.559  22.121  26.964  1.00  0.00     0.261 C 
BRANCH  22  23
ATOM     23  O   UNL A   1      40.239  23.520  26.899  1.00  0.00    -0.460 OA
BRANCH  23  24
ATOM     24  C   UNL A   1      41.311  24.344  26.971  1.00  0.00     0.338 C 
ATOM     25  O   UNL A   1      42.355  24.254  26.336  1.00  0.00    -0.246 OA
BRANCH  24  26
ATOM     26  C   UNL A   1      40.989  25.516  27.800  1.00  0.00     0.060 A 
ATOM     27  C   UNL A   1      41.963  26.516  27.918  1.00  0.00     0.016 A 
ATOM     28  C   UNL A   1      39.789  25.604  28.508  1.00  0.00     0.016 A 
ATOM     29  C   UNL A   1      41.760  27.588  28.781  1.00  0.00     0.010 A 
ATOM     30  C   UNL A   1      39.591  26.677  29.382  1.00  0.00     0.010 A 
ATOM     31  C   UNL A   1      40.589  27.654  29.547  1.00  0.00    -0.014 A 
BRANCH  31  32
ATOM     32  C   UNL A   1      40.479  28.667  30.625  1.00  0.00     0.031 A 
ATOM     33  C   UNL A   1      41.373  28.548  31.829  1.00  0.00     0.074 A 
ATOM     34  C   UNL A   1      39.615  29.692  30.515  1.00  0.00     0.049 A 
ATOM     35  N   UNL A   1      41.415  29.287  32.906  1.00  0.00    -0.248 NA
ATOM     36  C   UNL A   1      42.351  27.447  31.816  1.00  0.00     0.031 C 
ATOM     37  C   UNL A   1      38.727  29.929  29.378  1.00  0.00     0.029 A 
ATOM     38  N   UNL A   1      39.337  30.720  31.380  1.00  0.00    -0.354 N 
ATOM     39  C   UNL A   1      42.416  28.741  33.700  1.00  0.00     0.074 A 
ATOM     40  C   UNL A   1      42.934  27.588  32.997  1.00  0.00     0.031 C 
ATOM     41  C   UNL A   1      37.990  31.026  29.622  1.00  0.00     0.029 A 
ATOM     42  C   UNL A   1      38.330  31.547  30.945  1.00  0.00     0.049 A 
ATOM     43  H   UNL A   1      39.814  30.853  32.230  1.00  0.00     0.167 HD
ATOM     44  C   UNL A   1      42.868  29.170  34.903  1.00  0.00     0.037 A 
ATOM     45  C   UNL A   1      37.732  32.589  31.557  1.00  0.00     0.037 A 
ATOM     46  C   UNL A   1      42.345  30.320  35.595  1.00  0.00     0.049 A 
ATOM     47  C   UNL A   1      38.208  33.008  32.924  1.00  0.00     0.074 A 
ATOM     48  C   UNL A   1      42.739  30.843  36.814  1.00  0.00     0.029 A 
ATOM     49  N   UNL A   1      41.312  31.123  35.132  1.00  0.00    -0.354 N 
ATOM     50  N   UNL A   1      39.166  32.493  33.658  1.00  0.00    -0.248 NA
ATOM     51  C   UNL A   1      37.526  34.152  33.545  1.00  0.00     0.031 C 
ATOM     52  C   UNL A   1      41.914  31.932  37.110  1.00  0.00     0.029 A 
ATOM     53  C   UNL A   1      41.042  32.123  36.050  1.00  0.00     0.049 A 
ATOM     54  H   UNL A   1      40.841  30.999  34.276  1.00  0.00     0.167 HD
ATOM     55  C   UNL A   1      39.220  33.267  34.814  1.00  0.00     0.074 A 
ATOM     56  C   UNL A   1      38.207  34.293  34.675  1.00  0.00     0.031 C 
ATOM     57  C   UNL A   1      40.035  33.142  35.891  1.00  0.00     0.037 A 
BRANCH  44  58
ATOM     58  C   UNL A   1      43.970  28.384  35.558  1.00  0.00     0.058 A 
ATOM     59  C   UNL A   1      43.699  27.358  36.477  1.00  0.00     0.135 A 
ATOM     60  C   UNL A   1      45.313  28.631  35.230  1.00  0.00     0.135 A 
ATOM     61  F   UNL A   1      42.435  27.092  36.843  1.00  0.00    -0.206 F 
ATOM     62  C   UNL A   1      44.722  26.616  37.060  1.00  0.00     0.059 A 
ATOM     63  C   UNL A   1      46.350  27.884  35.780  1.00  0.00     0.059 A 
ATOM     64  F   UNL A   1      45.628  29.605  34.362  1.00  0.00    -0.206 F 
ATOM     65  C   UNL A   1      46.044  26.885  36.702  1.00  0.00     0.060 A 
BRANCH  65  66
ATOM     66  S   UNL A   1      47.358  25.899  37.454  1.00  0.00     0.124 S 
ATOM     67  O   UNL A   1      46.713  25.442  38.681  1.00  0.00    -0.237 OA
ATOM     68  O   UNL A   1      47.595  24.875  36.444  1.00  0.00    -0.237 OA
ATOM     69  O   UNL A   1      48.442  26.859  37.636  1.00  0.00    -0.744 OA
ENDBRANCH  65  66
ENDBRANCH  44  58
BRANCH  45  70
ATOM     70  C   UNL A   1      36.605  33.296  30.894  1.00  0.00     0.058 A 
ATOM     71  C   UNL A   1      35.281  33.125  31.324  1.00  0.00     0.135 A 
ATOM     72  C   UNL A   1      36.830  34.155  29.806  1.00  0.00     0.135 A 
ATOM     73  F   UNL A   1      35.012  32.307  32.353  1.00  0.00    -0.206 F 
ATOM     74  C   UNL A   1      34.219  33.761  30.690  1.00  0.00     0.059 A 
ATOM     75  C   UNL A   1      35.789  34.825  29.172  1.00  0.00     0.059 A 
ATOM     76  F   UNL A   1      38.079  34.365  29.361  1.00  0.00    -0.206 F 
ATOM     77  C   UNL A   1      34.484  34.611  29.614  1.00  0.00     0.060 A 
BRANCH  77  78
ATOM     78  S   UNL A   1      33.103  35.463  28.821  1.00  0.00     0.124 S 
ATOM     79  O   UNL A   1      33.798  36.460  28.016  1.00  0.00    -0.237 OA
ATOM     80  O   UNL A   1      32.459  34.381  28.083  1.00  0.00    -0.237 OA
ATOM     81  O   UNL A   1      32.338  35.983  29.950  1.00  0.00    -0.744 OA
ENDBRANCH  77  78
ENDBRANCH  45  70
BRANCH  57  82
ATOM     82  C   UNL A   1      39.896  34.162  36.990  1.00  0.00     0.058 A 
ATOM     83  C   UNL A   1      40.517  35.418  36.918  1.00  0.00     0.135 A 
ATOM     84  C   UNL A   1      39.081  33.896  38.104  1.00  0.00     0.135 A 
ATOM     85  F   UNL A   1      41.311  35.721  35.879  1.00  0.00    -0.206 F 
ATOM     86  C   UNL A   1      40.357  36.366  37.924  1.00  0.00     0.059 A 
ATOM     87  C   UNL A   1      38.883  34.840  39.106  1.00  0.00     0.059 A 
ATOM     88  F   UNL A   1      38.453  32.715  38.217  1.00  0.00    -0.206 F 
ATOM     89  C   UNL A   1      39.536  36.068  39.013  1.00  0.00     0.060 A 
BRANCH  89  90
ATOM     90  S   UNL A   1      39.311  37.321  40.295  1.00  0.00     0.124 S 
ATOM     91  O   UNL A   1      38.593  36.568  41.318  1.00  0.00    -0.237 OA
ATOM     92  O   UNL A   1      40.686  37.684  40.622  1.00  0.00    -0.237 OA
ATOM     93  O   UNL A   1      38.538  38.360  39.622  1.00  0.00    -0.744 OA
ENDBRANCH  89  90
ENDBRANCH  57  82
ENDBRANCH  31  32
ENDBRANCH  24  26
ENDBRANCH  23  24
ENDBRANCH  22  23
ENDBRANCH   1  22
TORSDOF 18
ENDMDL
MODEL 2
REMARK VINA RESULT:     -10.8      6.328     12.048
REMARK SMILES Cc1nc([C@]2(C)CCCO2)nc(C)c1C(=O)OCCOCCOC(=O)c1ccc(-c2c3nc(c(-c4c(F)cc(S(=O)(=O)[O-])cc4F)c4ccc([nH]4)c(-c4c(F)cc(S(=O)(=O)[O-])cc4F)c4nc(c(-c5c(F)cc(S(=O)(=O)[O-])cc5F)c5ccc2[nH]5)C=C4)C=C3)cc1
REMARK SMILES IDX 21 1 20 2 19 3 18 4 17 5 15 6 16 7 14 8 1 9 2 10 3 11 4 12
REMARK SMILES IDX 12 13 11 14 13 15 5 16 7 17 10 18 6 19 8 20 9 21 22 22 23 23
REMARK SMILES IDX 24 24 25 25 26 26 27 27 91 28 28 29 90 30 29 31 30 32 31 33
REMARK SMILES IDX 84 34 32 35 89 36 83 37 85 38 33 39 88 40 82 41 81 42 34 44
REMARK SMILES IDX 68 45 47 46 67 47 48 48 51 49 66 50 86 51 49 52 50 53 65 55
REMARK SMILES IDX 87 56 52 57 35 58 36 59 45 60 37 61 38 62 44 63 46 64 39 65
REMARK SMILES IDX 40 66 41 67 42 68 43 69 69 70 70 71 79 72 71 73 72 74 78 75
REMARK SMILES IDX 80 76 73 77 74 78 75 79 76 80 77 81 53 82 54 83 63 84 55 85
REMARK SMILES IDX 56 86 62 87 64 88 57 89 58 90 59 91 60 92 61 93
REMARK H PARENT 85 43 51 54
REMARK Flexibility Score: inf
ROOT
ATOM      1  C   UNL A   1      33.808  31.875  27.975  1.00  0.00     0.202 C 
ENDROOT
BRANCH   1   2
ATOM      2  O   UNL A   1      34.436  30.817  27.251  1.00  0.00    -0.374 OA
BRANCH   2   3
ATOM      3  C   UNL A   1      33.625  29.718  26.835  1.00  0.00     0.202 C 
BRANCH   3   4
ATOM      4  C   UNL A   1      32.315  30.061  26.127  1.00  0.00     0.261 C 
BRANCH   4   5
ATOM      5  O   UNL A   1      31.505  28.885  25.967  1.00  0.00    -0.460 OA
BRANCH   5   6
ATOM      6  C   UNL A   1      31.349  28.460  24.696  1.00  0.00     0.341 C 
ATOM      7  O   UNL A   1      30.797  29.070  23.788  1.00  0.00    -0.246 OA
BRANCH   6   8
ATOM      8  C   UNL A   1      32.047  27.184  24.473  1.00  0.00     0.102 A 
ATOM      9  C   UNL A   1      30.448  25.817  25.900  1.00  0.00     0.068 C 
ATOM     10  C   UNL A   1      31.585  25.960  24.931  1.00  0.00     0.056 A 
ATOM     11  N   UNL A   1      32.171  24.793  24.562  1.00  0.00    -0.234 NA
ATOM     12  C   UNL A   1      33.240  24.842  23.740  1.00  0.00     0.160 A 
ATOM     13  C   UNL A   1      33.215  27.156  23.718  1.00  0.00     0.056 A 
ATOM     14  N   UNL A   1      33.801  25.997  23.338  1.00  0.00    -0.234 NA
ATOM     15  C   UNL A   1      34.000  28.392  23.378  1.00  0.00     0.068 C 
BRANCH  12  16
ATOM     16  C   UNL A   1      33.802  23.524  23.183  1.00  0.00     0.125 C 
ATOM     17  C   UNL A   1      33.858  22.436  24.259  1.00  0.00     0.046 C 
ATOM     18  O   UNL A   1      35.174  23.689  22.754  1.00  0.00    -0.367 OA
ATOM     19  C   UNL A   1      32.998  23.038  21.971  1.00  0.00     0.051 C 
ATOM     20  C   UNL A   1      35.199  22.658  24.918  1.00  0.00     0.032 C 
ATOM     21  C   UNL A   1      36.041  23.289  23.825  1.00  0.00     0.161 C 
ENDBRANCH  12  16
ENDBRANCH   6   8
ENDBRANCH   5   6
ENDBRANCH   4   5
ENDBRANCH   3   4
ENDBRANCH   2   3
ENDBRANCH   1   2
BRANCH   1  22
ATOM     22  C   UNL A   1      34.541  32.456  29.191  1.00  0.00     0.261 C 
BRANCH  22  23
ATOM     23  O   UNL A   1      35.951  32.182  29.182  1.00  0.00    -0.460 OA
BRANCH  23  24
ATOM     24  C   UNL A   1      36.378  31.416  30.214  1.00  0.00     0.338 C 
ATOM     25  O   UNL A   1      35.800  31.217  31.275  1.00  0.00    -0.246 OA
BRANCH  24  26
ATOM     26  C   UNL A   1      37.583  30.668  29.818  1.00  0.00     0.060 A 
ATOM     27  C   UNL A   1      38.517  30.366  30.818  1.00  0.00     0.016 A 
ATOM     28  C   UNL A   1      37.831  30.333  28.486  1.00  0.00     0.016 A 
ATOM     29  C   UNL A   1      39.727  29.766  30.481  1.00  0.00     0.010 A 
ATOM     30  C   UNL A   1      39.052  29.740  28.150  1.00  0.00     0.010 A 
ATOM     31  C   UNL A   1      40.017  29.485  29.141  1.00  0.00    -0.014 A 
BRANCH  31  32
ATOM     32  C   UNL A   1      41.387  29.061  28.764  1.00  0.00     0.031 A 
ATOM     33  C   UNL A   1      42.487  30.087  28.747  1.00  0.00     0.074 A 
ATOM     34  C   UNL A   1      41.649  27.775  28.470  1.00  0.00     0.049 A 
ATOM     35  N   UNL A   1      43.742  29.951  28.405  1.00  0.00    -0.248 NA
ATOM     36  C   UNL A   1      42.124  31.449  29.172  1.00  0.00     0.031 C 
ATOM     37  C   UNL A   1      40.671  26.688  28.492  1.00  0.00     0.029 A 
ATOM     38  N   UNL A   1      42.819  27.168  28.088  1.00  0.00    -0.354 N 
ATOM     39  C   UNL A   1      44.316  31.206  28.568  1.00  0.00     0.074 A 
ATOM     40  C   UNL A   1      43.266  32.099  29.008  1.00  0.00     0.031 C 
ATOM     41  C   UNL A   1      41.278  25.548  28.122  1.00  0.00     0.029 A 
ATOM     42  C   UNL A   1      42.677  25.831  27.805  1.00  0.00     0.049 A 
ATOM     43  H   UNL A   1      43.677  27.644  28.023  1.00  0.00     0.167 HD
ATOM     44  C   UNL A   1      45.604  31.577  28.377  1.00  0.00     0.037 A 
ATOM     45  C   UNL A   1      43.569  24.944  27.321  1.00  0.00     0.037 A 
ATOM     46  C   UNL A   1      46.643  30.680  27.939  1.00  0.00     0.049 A 
ATOM     47  C   UNL A   1      44.982  25.394  27.054  1.00  0.00     0.074 A 
ATOM     48  C   UNL A   1      47.982  30.953  27.724  1.00  0.00     0.029 A 
ATOM     49  N   UNL A   1      46.458  29.336  27.645  1.00  0.00    -0.354 N 
ATOM     50  N   UNL A   1      45.517  26.580  27.228  1.00  0.00    -0.248 NA
ATOM     51  C   UNL A   1      45.915  24.387  26.531  1.00  0.00     0.031 C 
ATOM     52  C   UNL A   1      48.596  29.789  27.254  1.00  0.00     0.029 A 
ATOM     53  C   UNL A   1      47.653  28.773  27.230  1.00  0.00     0.049 A 
ATOM     54  H   UNL A   1      45.603  28.854  27.720  1.00  0.00     0.167 HD
ATOM     55  C   UNL A   1      46.854  26.454  26.862  1.00  0.00     0.074 A 
ATOM     56  C   UNL A   1      47.049  25.073  26.470  1.00  0.00     0.031 C 
ATOM     57  C   UNL A   1      47.832  27.394  26.853  1.00  0.00     0.037 A 
BRANCH  44  58
ATOM     58  C   UNL A   1      45.964  33.016  28.623  1.00  0.00     0.058 A 
ATOM     59  C   UNL A   1      45.887  33.980  27.606  1.00  0.00     0.135 A 
ATOM     60  C   UNL A   1      46.347  33.445  29.904  1.00  0.00     0.135 A 
ATOM     61  F   UNL A   1      45.545  33.623  26.358  1.00  0.00    -0.206 F 
ATOM     62  C   UNL A   1      46.195  35.316  27.846  1.00  0.00     0.059 A 
ATOM     63  C   UNL A   1      46.633  34.781  30.173  1.00  0.00     0.059 A 
ATOM     64  F   UNL A   1      46.443  32.565  30.912  1.00  0.00    -0.206 F 
ATOM     65  C   UNL A   1      46.564  35.707  29.134  1.00  0.00     0.060 A 
BRANCH  65  66
ATOM     66  S   UNL A   1      46.941  37.448  29.431  1.00  0.00     0.124 S 
ATOM     67  O   UNL A   1      47.625  37.813  28.195  1.00  0.00    -0.237 OA
ATOM     68  O   UNL A   1      45.615  38.026  29.617  1.00  0.00    -0.237 OA
ATOM     69  O   UNL A   1      47.780  37.415  30.626  1.00  0.00    -0.744 OA
ENDBRANCH  65  66
ENDBRANCH  44  58
BRANCH  45  70
ATOM     70  C   UNL A   1      43.150  23.545  27.036  1.00  0.00     0.058 A 
ATOM     71  C   UNL A   1      43.028  22.597  28.062  1.00  0.00     0.135 A 
ATOM     72  C   UNL A   1      42.870  23.128  25.725  1.00  0.00     0.135 A 
ATOM     73  F   UNL A   1      43.294  22.944  29.330  1.00  0.00    -0.206 F 
ATOM     74  C   UNL A   1      42.664  21.280  27.799  1.00  0.00     0.059 A 
ATOM     75  C   UNL A   1      42.477  21.824  25.439  1.00  0.00     0.059 A 
ATOM     76  F   UNL A   1      42.958  23.998  24.708  1.00  0.00    -0.206 F 
ATOM     77  C   UNL A   1      42.389  20.903  26.482  1.00  0.00     0.060 A 
BRANCH  77  78
ATOM     78  S   UNL A   1      41.880  19.202  26.154  1.00  0.00     0.124 S 
ATOM     79  O   UNL A   1      42.692  18.873  24.989  1.00  0.00    -0.237 OA
ATOM     80  O   UNL A   1      42.242  18.529  27.398  1.00  0.00    -0.237 OA
ATOM     81  O   UNL A   1      40.445  19.324  25.911  1.00  0.00    -0.744 OA
ENDBRANCH  77  78
ENDBRANCH  45  70
BRANCH  57  82
ATOM     82  C   UNL A   1      49.212  26.956  26.444  1.00  0.00     0.058 A 
ATOM     83  C   UNL A   1      50.156  26.510  27.382  1.00  0.00     0.135 A 
ATOM     84  C   UNL A   1      49.575  26.931  25.087  1.00  0.00     0.135 A 
ATOM     85  F   UNL A   1      49.863  26.519  28.692  1.00  0.00    -0.206 F 
ATOM     86  C   UNL A   1      51.420  26.077  26.992  1.00  0.00     0.059 A 
ATOM     87  C   UNL A   1      50.822  26.474  24.671  1.00  0.00     0.059 A 
ATOM     88  F   UNL A   1      48.706  27.336  24.146  1.00  0.00    -0.206 F 
ATOM     89  C   UNL A   1      51.742  26.061  25.634  1.00  0.00     0.060 A 
BRANCH  89  90
ATOM     90  S   UNL A   1      53.374  25.466  25.138  1.00  0.00     0.124 S 
ATOM     91  O   UNL A   1      53.242  24.029  25.361  1.00  0.00    -0.237 OA
ATOM     92  O   UNL A   1      53.450  25.887  23.743  1.00  0.00    -0.237 OA
ATOM     93  O   UNL A   1      54.280  26.161  26.047  1.00  0.00    -0.744 OA
ENDBRANCH  89  90
ENDBRANCH  57  82
ENDBRANCH  31  32
ENDBRANCH  24  26
ENDBRANCH  23  24
ENDBRANCH  22  23
ENDBRANCH   1  22
TORSDOF 18
ENDMDL
MODEL 3
REMARK VINA RESULT:     -10.7      6.726     12.309
REMARK SMILES Cc1nc([C@]2(C)CCCO2)nc(C)c1C(=O)OCCOCCOC(=O)c1ccc(-c2c3nc(c(-c4c(F)cc(S(=O)(=O)[O-])cc4F)c4ccc([nH]4)c(-c4c(F)cc(S(=O)(=O)[O-])cc4F)c4nc(c(-c5c(F)cc(S(=O)(=O)[O-])cc5F)c5ccc2[nH]5)C=C4)C=C3)cc1
REMARK SMILES IDX 21 1 20 2 19 3 18 4 17 5 15 6 16 7 14 8 1 9 2 10 3 11 4 12
REMARK SMILES IDX 12 13 11 14 13 15 5 16 7 17 10 18 6 19 8 20 9 21 22 22 23 23
REMARK SMILES IDX 24 24 25 25 26 26 27 27 91 28 28 29 90 30 29 31 30 32 31 33
REMARK SMILES IDX 84 34 32 35 89 36 83 37 85 38 33 39 88 40 82 41 81 42 34 44
REMARK SMILES IDX 68 45 47 46 67 47 48 48 51 49 66 50 86 51 49 52 50 53 65 55
REMARK SMILES IDX 87 56 52 57 35 58 36 59 45 60 37 61 38 62 44 63 46 64 39 65
REMARK SMILES IDX 40 66 41 67 42 68 43 69 69 70 70 71 79 72 71 73 72 74 78 75
REMARK SMILES IDX 80 76 73 77 74 78 75 79 76 80 77 81 53 82 54 83 63 84 55 85
REMARK SMILES IDX 56 86 62 87 64 88 57 89 58 90 59 91 60 92 61 93
REMARK H PARENT 85 43 51 54
REMARK Flexibility Score: inf
ROOT
ATOM      1  C   UNL A   1      35.195  32.703  32.849  1.00  0.00     0.202 C 
ENDROOT
BRANCH   1   2
ATOM      2  O   UNL A   1      34.089  33.023  32.005  1.00  0.00    -0.374 OA
BRANCH   2   3
ATOM      3  C   UNL A   1      34.154  34.231  31.248  1.00  0.00     0.202 C 
BRANCH   3   4
ATOM      4  C   UNL A   1      34.128  34.089  29.726  1.00  0.00     0.261 C 
BRANCH   4   5
ATOM      5  O   UNL A   1      34.071  32.704  29.349  1.00  0.00    -0.460 OA
BRANCH   5   6
ATOM      6  C   UNL A   1      34.557  32.420  28.123  1.00  0.00     0.341 C 
ATOM      7  O   UNL A   1      35.519  32.951  27.581  1.00  0.00    -0.246 OA
BRANCH   6   8
ATOM      8  C   UNL A   1      33.855  31.274  27.525  1.00  0.00     0.102 A 
ATOM      9  C   UNL A   1      31.770  32.595  26.918  1.00  0.00     0.068 C 
ATOM     10  C   UNL A   1      32.631  31.367  26.881  1.00  0.00     0.056 A 
ATOM     11  N   UNL A   1      32.100  30.318  26.202  1.00  0.00    -0.234 NA
ATOM     12  C   UNL A   1      32.786  29.156  26.176  1.00  0.00     0.160 A 
ATOM     13  C   UNL A   1      34.446  30.014  27.541  1.00  0.00     0.056 A 
ATOM     14  N   UNL A   1      33.929  28.965  26.860  1.00  0.00    -0.234 NA
ATOM     15  C   UNL A   1      35.619  29.671  28.415  1.00  0.00     0.068 C 
BRANCH  12  16
ATOM     16  C   UNL A   1      32.278  28.021  25.271  1.00  0.00     0.125 C 
ATOM     17  C   UNL A   1      33.274  27.706  24.152  1.00  0.00     0.046 C 
ATOM     18  O   UNL A   1      31.066  28.411  24.586  1.00  0.00    -0.367 OA
ATOM     19  C   UNL A   1      31.963  26.756  26.079  1.00  0.00     0.051 C 
ATOM     20  C   UNL A   1      32.890  28.670  23.054  1.00  0.00     0.032 C 
ATOM     21  C   UNL A   1      31.413  28.920  23.291  1.00  0.00     0.161 C 
ENDBRANCH  12  16
ENDBRANCH   6   8
ENDBRANCH   5   6
ENDBRANCH   4   5
ENDBRANCH   3   4
ENDBRANCH   2   3
ENDBRANCH   1   2
BRANCH   1  22
ATOM     22  C   UNL A   1      36.563  32.474  32.195  1.00  0.00     0.261 C 
BRANCH  22  23
ATOM     23  O   UNL A   1      36.561  31.397  31.246  1.00  0.00    -0.460 OA
BRANCH  23  24
ATOM     24  C   UNL A   1      37.169  30.267  31.679  1.00  0.00     0.338 C 
ATOM     25  O   UNL A   1      36.648  29.326  32.266  1.00  0.00    -0.246 OA
BRANCH  24  26
ATOM     26  C   UNL A   1      38.552  30.216  31.176  1.00  0.00     0.060 A 
ATOM     27  C   UNL A   1      38.763  30.533  29.828  1.00  0.00     0.016 A 
ATOM     28  C   UNL A   1      39.609  29.796  31.984  1.00  0.00     0.016 A 
ATOM     29  C   UNL A   1      40.030  30.388  29.269  1.00  0.00     0.010 A 
ATOM     30  C   UNL A   1      40.878  29.642  31.418  1.00  0.00     0.010 A 
ATOM     31  C   UNL A   1      41.085  29.904  30.052  1.00  0.00    -0.014 A 
BRANCH  31  32
ATOM     32  C   UNL A   1      42.367  29.536  29.401  1.00  0.00     0.031 A 
ATOM     33  C   UNL A   1      42.530  28.146  28.852  1.00  0.00     0.074 A 
ATOM     34  C   UNL A   1      43.356  30.439  29.279  1.00  0.00     0.049 A 
ATOM     35  N   UNL A   1      43.573  27.594  28.289  1.00  0.00    -0.248 NA
ATOM     36  C   UNL A   1      41.360  27.257  28.950  1.00  0.00     0.031 C 
ATOM     37  C   UNL A   1      43.295  31.826  29.739  1.00  0.00     0.029 A 
ATOM     38  N   UNL A   1      44.610  30.319  28.737  1.00  0.00    -0.354 N 
ATOM     39  C   UNL A   1      43.190  26.297  27.971  1.00  0.00     0.074 A 
ATOM     40  C   UNL A   1      41.829  26.132  28.433  1.00  0.00     0.031 C 
ATOM     41  C   UNL A   1      44.468  32.425  29.474  1.00  0.00     0.029 A 
ATOM     42  C   UNL A   1      45.372  31.456  28.857  1.00  0.00     0.049 A 
ATOM     43  H   UNL A   1      44.933  29.498  28.302  1.00  0.00     0.167 HD
ATOM     44  C   UNL A   1      43.906  25.335  27.342  1.00  0.00     0.037 A 
ATOM     45  C   UNL A   1      46.661  31.680  28.530  1.00  0.00     0.037 A 
ATOM     46  C   UNL A   1      45.261  25.510  26.885  1.00  0.00     0.049 A 
ATOM     47  C   UNL A   1      47.459  30.573  27.890  1.00  0.00     0.074 A 
ATOM     48  C   UNL A   1      46.072  24.601  26.229  1.00  0.00     0.029 A 
ATOM     49  N   UNL A   1      46.007  26.670  27.041  1.00  0.00    -0.354 N 
ATOM     50  N   UNL A   1      47.080  29.356  27.580  1.00  0.00    -0.248 NA
ATOM     51  C   UNL A   1      48.857  30.871  27.550  1.00  0.00     0.031 C 
ATOM     52  C   UNL A   1      47.322  25.194  26.031  1.00  0.00     0.029 A 
ATOM     53  C   UNL A   1      47.275  26.492  26.513  1.00  0.00     0.049 A 
ATOM     54  H   UNL A   1      45.683  27.497  27.465  1.00  0.00     0.167 HD
ATOM     55  C   UNL A   1      48.184  28.753  26.984  1.00  0.00     0.074 A 
ATOM     56  C   UNL A   1      49.240  29.744  26.965  1.00  0.00     0.031 C 
ATOM     57  C   UNL A   1      48.311  27.494  26.495  1.00  0.00     0.037 A 
BRANCH  44  58
ATOM     58  C   UNL A   1      43.248  24.001  27.124  1.00  0.00     0.058 A 
ATOM     59  C   UNL A   1      43.184  23.034  28.140  1.00  0.00     0.135 A 
ATOM     60  C   UNL A   1      42.635  23.701  25.897  1.00  0.00     0.135 A 
ATOM     61  F   UNL A   1      43.770  23.260  29.327  1.00  0.00    -0.206 F 
ATOM     62  C   UNL A   1      42.550  21.812  27.942  1.00  0.00     0.059 A 
ATOM     63  C   UNL A   1      41.972  22.496  25.686  1.00  0.00     0.059 A 
ATOM     64  F   UNL A   1      42.671  24.586  24.889  1.00  0.00    -0.206 F 
ATOM     65  C   UNL A   1      41.944  21.553  26.711  1.00  0.00     0.060 A 
BRANCH  65  66
ATOM     66  S   UNL A   1      41.109  19.969  26.478  1.00  0.00     0.124 S 
ATOM     67  O   UNL A   1      41.964  19.333  25.481  1.00  0.00    -0.237 OA
ATOM     68  O   UNL A   1      41.158  19.391  27.817  1.00  0.00    -0.237 OA
ATOM     69  O   UNL A   1      39.779  20.351  26.012  1.00  0.00    -0.744 OA
ENDBRANCH  65  66
ENDBRANCH  44  58
BRANCH  45  70
ATOM     70  C   UNL A   1      47.286  32.998  28.822  1.00  0.00     0.058 A 
ATOM     71  C   UNL A   1      47.900  33.258  30.055  1.00  0.00     0.135 A 
ATOM     72  C   UNL A   1      47.272  34.030  27.870  1.00  0.00     0.135 A 
ATOM     73  F   UNL A   1      47.930  32.308  31.002  1.00  0.00    -0.206 F 
ATOM     74  C   UNL A   1      48.460  34.498  30.345  1.00  0.00     0.059 A 
ATOM     75  C   UNL A   1      47.851  35.270  28.124  1.00  0.00     0.059 A 
ATOM     76  F   UNL A   1      46.709  33.831  26.668  1.00  0.00    -0.206 F 
ATOM     77  C   UNL A   1      48.431  35.498  29.371  1.00  0.00     0.060 A 
BRANCH  77  78
ATOM     78  S   UNL A   1      49.195  37.092  29.740  1.00  0.00     0.124 S 
ATOM     79  O   UNL A   1      50.576  36.703  29.997  1.00  0.00    -0.237 OA
ATOM     80  O   UNL A   1      48.959  37.838  28.508  1.00  0.00    -0.237 OA
ATOM     81  O   UNL A   1      48.444  37.562  30.901  1.00  0.00    -0.744 OA
ENDBRANCH  77  78
ENDBRANCH  45  70
BRANCH  57  82
ATOM     82  C   UNL A   1      49.625  27.125  25.860  1.00  0.00     0.058 A 
ATOM     83  C   UNL A   1      49.872  27.331  24.494  1.00  0.00     0.135 A 
ATOM     84  C   UNL A   1      50.671  26.609  26.644  1.00  0.00     0.135 A 
ATOM     85  F   UNL A   1      48.906  27.816  23.698  1.00  0.00    -0.206 F 
ATOM     86  C   UNL A   1      51.101  27.017  23.922  1.00  0.00     0.059 A 
ATOM     87  C   UNL A   1      51.917  26.315  26.100  1.00  0.00     0.059 A 
ATOM     88  F   UNL A   1      50.493  26.403  27.959  1.00  0.00    -0.206 F 
ATOM     89  C   UNL A   1      52.118  26.511  24.734  1.00  0.00     0.060 A 
BRANCH  89  90
ATOM     90  S   UNL A   1      53.719  26.138  23.985  1.00  0.00     0.124 S 
ATOM     91  O   UNL A   1      54.100  24.923  24.697  1.00  0.00    -0.237 OA
ATOM     92  O   UNL A   1      53.372  25.967  22.578  1.00  0.00    -0.237 OA
ATOM     93  O   UNL A   1      54.519  27.320  24.288  1.00  0.00    -0.744 OA
ENDBRANCH  89  90
ENDBRANCH  57  82
ENDBRANCH  31  32
ENDBRANCH  24  26
ENDBRANCH  23  24
ENDBRANCH  22  23
ENDBRANCH   1  22
TORSDOF 18
ENDMDL
