MODEL 1
REMARK VINA RESULT:     -10.6      0.000      0.000
REMARK SMILES C[C@@H](C(=O)OCCOCCOC(=O)c1ccc(-c2c3nc(c(-c4c(F)cc(S(=O)(=O)[O-])cc4F)c4ccc([nH]4)c(-c4c(F)cc(S(=O)(=O)[O-])cc4F)c4nc(c(-c5c(F)cc(S(=O)(=O)[O-])cc5F)c5ccc2[nH]5)C=C4)C=C3)cc1)c1ccc(C[C@@H]2CCC[C@@H]2O)cc1F
REMARK SMILES IDX 7 1 6 2 5 3 3 4 4 5 2 6 1 7 80 8 81 9 92 10 82 11 91 12
REMARK SMILES IDX 93 13 83 14 84 15 85 16 86 17 89 18 87 19 88 20 90 21 8 23
REMARK SMILES IDX 9 24 10 25 11 26 12 27 13 28 14 29 15 30 79 31 16 32 78 33
REMARK SMILES IDX 17 34 18 35 19 36 72 37 20 38 77 39 71 40 73 41 21 42 76 43
REMARK SMILES IDX 70 44 69 45 22 47 56 48 35 49 55 50 36 51 39 52 54 53 74 54
REMARK SMILES IDX 37 55 38 56 53 58 75 59 40 60 23 61 24 62 33 63 25 64 26 65
REMARK SMILES IDX 32 66 34 67 27 68 28 69 29 70 30 71 31 72 57 73 58 74 67 75
REMARK SMILES IDX 59 76 60 77 66 78 68 79 61 80 62 81 63 82 64 83 65 84 41 85
REMARK SMILES IDX 42 86 51 87 43 88 44 89 50 90 52 91 45 92 46 93 47 94 48 95
REMARK SMILES IDX 49 96
REMARK H PARENT 90 22 73 46 39 57
REMARK Flexibility Score: inf
ROOT
ATOM      1  C   UNL A   1      32.229  28.986  26.874  1.00  0.00     0.202 C 
ENDROOT
BRANCH   1   2
ATOM      2  C   UNL A   1      31.458  29.091  25.555  1.00  0.00     0.261 C 
BRANCH   2   3
ATOM      3  O   UNL A   1      31.218  27.812  24.950  1.00  0.00    -0.463 OA
BRANCH   3   4
ATOM      4  C   UNL A   1      31.640  27.689  23.657  1.00  0.00     0.313 C 
ATOM      5  O   UNL A   1      30.869  27.666  22.706  1.00  0.00    -0.252 OA
BRANCH   4   6
ATOM      6  C   UNL A   1      33.176  27.575  23.531  1.00  0.00     0.129 C 
ATOM      7  C   UNL A   1      33.684  28.229  22.230  1.00  0.00     0.025 C 
BRANCH   6   8
ATOM      8  C   UNL A   1      33.709  26.151  23.759  1.00  0.00     0.002 A 
ATOM      9  C   UNL A   1      33.769  25.190  22.735  1.00  0.00     0.008 A 
ATOM     10  C   UNL A   1      34.245  25.761  24.994  1.00  0.00     0.127 A 
ATOM     11  C   UNL A   1      34.264  23.895  22.967  1.00  0.00     0.004 A 
ATOM     12  C   UNL A   1      34.674  24.455  25.248  1.00  0.00     0.043 A 
ATOM     13  F   UNL A   1      34.420  26.649  25.979  1.00  0.00    -0.207 F 
ATOM     14  C   UNL A   1      34.659  23.487  24.243  1.00  0.00    -0.045 A 
BRANCH  14  15
ATOM     15  C   UNL A   1      35.145  22.086  24.532  1.00  0.00     0.041 C 
BRANCH  15  16
ATOM     16  C   UNL A   1      34.157  21.017  25.055  1.00  0.00     0.022 C 
ATOM     17  C   UNL A   1      32.811  20.952  24.326  1.00  0.00     0.007 C 
ATOM     18  C   UNL A   1      33.739  21.094  26.526  1.00  0.00     0.117 C 
ATOM     19  C   UNL A   1      31.790  21.662  25.223  1.00  0.00     0.003 C 
ATOM     20  C   UNL A   1      32.503  21.983  26.533  1.00  0.00     0.032 C 
BRANCH  18  21
ATOM     21  O   UNL A   1      34.764  21.541  27.386  1.00  0.00    -0.393 OA
ATOM     22  H   UNL A   1      35.620  21.213  27.069  1.00  0.00     0.210 HD
ENDBRANCH  18  21
ENDBRANCH  15  16
ENDBRANCH  14  15
ENDBRANCH   6   8
ENDBRANCH   4   6
ENDBRANCH   3   4
ENDBRANCH   2   3
ENDBRANCH   1   2
BRANCH   1  23
ATOM     23  O   UNL A   1      32.694  30.197  27.465  1.00  0.00    -0.374 OA
BRANCH  23  24
ATOM     24  C   UNL A   1      34.104  30.421  27.510  1.00  0.00     0.202 C 
BRANCH  24  25
ATOM     25  C   UNL A   1      34.604  31.678  28.235  1.00  0.00     0.261 C 
BRANCH  25  26
ATOM     26  O   UNL A   1      36.040  31.783  28.236  1.00  0.00    -0.460 OA
BRANCH  26  27
ATOM     27  C   UNL A   1      36.631  31.444  29.408  1.00  0.00     0.338 C 
ATOM     28  O   UNL A   1      36.190  31.632  30.536  1.00  0.00    -0.246 OA
BRANCH  27  29
ATOM     29  C   UNL A   1      37.828  30.621  29.162  1.00  0.00     0.060 A 
ATOM     30  C   UNL A   1      38.824  30.611  30.148  1.00  0.00     0.016 A 
ATOM     31  C   UNL A   1      38.022  29.952  27.952  1.00  0.00     0.016 A 
ATOM     32  C   UNL A   1      40.038  29.972  29.908  1.00  0.00     0.010 A 
ATOM     33  C   UNL A   1      39.246  29.319  27.710  1.00  0.00     0.010 A 
ATOM     34  C   UNL A   1      40.273  29.358  28.672  1.00  0.00    -0.014 A 
BRANCH  34  35
ATOM     35  C   UNL A   1      41.642  28.894  28.337  1.00  0.00     0.031 A 
ATOM     36  C   UNL A   1      42.763  29.899  28.302  1.00  0.00     0.074 A 
ATOM     37  C   UNL A   1      41.891  27.594  28.104  1.00  0.00     0.049 A 
ATOM     38  N   UNL A   1      44.026  29.722  28.010  1.00  0.00    -0.248 NA
ATOM     39  C   UNL A   1      42.412  31.287  28.642  1.00  0.00     0.031 C 
ATOM     40  C   UNL A   1      40.897  26.523  28.149  1.00  0.00     0.029 A 
ATOM     41  N   UNL A   1      43.061  26.954  27.780  1.00  0.00    -0.354 N 
ATOM     42  C   UNL A   1      44.620  30.973  28.129  1.00  0.00     0.074 A 
ATOM     43  C   UNL A   1      43.573  31.906  28.488  1.00  0.00     0.031 C 
ATOM     44  C   UNL A   1      41.497  25.358  27.846  1.00  0.00     0.029 A 
ATOM     45  C   UNL A   1      42.910  25.606  27.561  1.00  0.00     0.049 A 
ATOM     46  H   UNL A   1      43.928  27.417  27.710  1.00  0.00     0.167 HD
ATOM     47  C   UNL A   1      45.920  31.312  27.963  1.00  0.00     0.037 A 
ATOM     48  C   UNL A   1      43.803  24.682  27.155  1.00  0.00     0.037 A 
ATOM     49  C   UNL A   1      46.958  30.382  27.603  1.00  0.00     0.049 A 
ATOM     50  C   UNL A   1      45.233  25.092  26.916  1.00  0.00     0.074 A 
ATOM     51  C   UNL A   1      48.308  30.625  27.419  1.00  0.00     0.029 A 
ATOM     52  N   UNL A   1      46.761  29.029  27.368  1.00  0.00    -0.354 N 
ATOM     53  N   UNL A   1      45.785  26.276  27.046  1.00  0.00    -0.248 NA
ATOM     54  C   UNL A   1      46.164  24.041  26.480  1.00  0.00     0.031 C 
ATOM     55  C   UNL A   1      48.919  29.428  27.030  1.00  0.00     0.029 A 
ATOM     56  C   UNL A   1      47.959  28.428  27.018  1.00  0.00     0.049 A 
ATOM     57  H   UNL A   1      45.897  28.564  27.437  1.00  0.00     0.167 HD
ATOM     58  C   UNL A   1      47.130  26.107  26.732  1.00  0.00     0.074 A 
ATOM     59  C   UNL A   1      47.311  24.705  26.415  1.00  0.00     0.031 C 
ATOM     60  C   UNL A   1      48.125  27.029  26.710  1.00  0.00     0.037 A 
BRANCH  47  61
ATOM     61  C   UNL A   1      46.289  32.758  28.148  1.00  0.00     0.058 A 
ATOM     62  C   UNL A   1      46.139  33.696  27.114  1.00  0.00     0.135 A 
ATOM     63  C   UNL A   1      46.780  33.218  29.380  1.00  0.00     0.135 A 
ATOM     64  F   UNL A   1      45.691  33.308  25.909  1.00  0.00    -0.206 F 
ATOM     65  C   UNL A   1      46.488  35.032  27.287  1.00  0.00     0.059 A 
ATOM     66  C   UNL A   1      47.111  34.554  29.584  1.00  0.00     0.059 A 
ATOM     67  F   UNL A   1      46.945  32.363  30.403  1.00  0.00    -0.206 F 
ATOM     68  C   UNL A   1      46.976  35.451  28.526  1.00  0.00     0.060 A 
BRANCH  68  69
ATOM     69  S   UNL A   1      47.430  37.185  28.734  1.00  0.00     0.124 S 
ATOM     70  O   UNL A   1      47.107  37.730  27.419  1.00  0.00    -0.237 OA
ATOM     71  O   UNL A   1      46.560  37.609  29.826  1.00  0.00    -0.237 OA
ATOM     72  O   UNL A   1      48.852  37.128  29.056  1.00  0.00    -0.744 OA
ENDBRANCH  68  69
ENDBRANCH  47  61
BRANCH  48  73
ATOM     73  C   UNL A   1      43.366  23.278  26.934  1.00  0.00     0.058 A 
ATOM     74  C   UNL A   1      43.066  22.803  25.649  1.00  0.00     0.135 A 
ATOM     75  C   UNL A   1      43.249  22.382  28.007  1.00  0.00     0.135 A 
ATOM     76  F   UNL A   1      43.151  23.625  24.593  1.00  0.00    -0.206 F 
ATOM     77  C   UNL A   1      42.657  21.490  25.436  1.00  0.00     0.059 A 
ATOM     78  C   UNL A   1      42.865  21.058  27.816  1.00  0.00     0.059 A 
ATOM     79  F   UNL A   1      43.533  22.785  29.255  1.00  0.00    -0.206 F 
ATOM     80  C   UNL A   1      42.563  20.624  26.527  1.00  0.00     0.060 A 
BRANCH  80  81
ATOM     81  S   UNL A   1      42.087  18.906  26.234  1.00  0.00     0.124 S 
ATOM     82  O   UNL A   1      43.050  18.505  25.215  1.00  0.00    -0.237 OA
ATOM     83  O   UNL A   1      42.265  18.309  27.553  1.00  0.00    -0.237 OA
ATOM     84  O   UNL A   1      40.701  19.016  25.786  1.00  0.00    -0.744 OA
ENDBRANCH  80  81
ENDBRANCH  48  73
BRANCH  60  85
ATOM     85  C   UNL A   1      49.508  26.551  26.360  1.00  0.00     0.058 A 
ATOM     86  C   UNL A   1      50.041  26.709  25.072  1.00  0.00     0.135 A 
ATOM     87  C   UNL A   1      50.330  25.976  27.344  1.00  0.00     0.135 A 
ATOM     88  F   UNL A   1      49.295  27.248  24.094  1.00  0.00    -0.206 F 
ATOM     89  C   UNL A   1      51.333  26.296  24.765  1.00  0.00     0.059 A 
ATOM     90  C   UNL A   1      51.634  25.579  27.066  1.00  0.00     0.059 A 
ATOM     91  F   UNL A   1      49.874  25.812  28.596  1.00  0.00    -0.206 F 
ATOM     92  C   UNL A   1      52.123  25.732  25.769  1.00  0.00     0.060 A 
BRANCH  92  93
ATOM     93  S   UNL A   1      53.811  25.232  25.366  1.00  0.00     0.124 S 
ATOM     94  O   UNL A   1      53.741  23.787  25.556  1.00  0.00    -0.237 OA
ATOM     95  O   UNL A   1      53.951  25.684  23.986  1.00  0.00    -0.237 OA
ATOM     96  O   UNL A   1      54.621  25.955  26.341  1.00  0.00    -0.744 OA
ENDBRANCH  92  93
ENDBRANCH  60  85
ENDBRANCH  34  35
ENDBRANCH  27  29
ENDBRANCH  26  27
ENDBRANCH  25  26
ENDBRANCH  24  25
ENDBRANCH  23  24
ENDBRANCH   1  23
TORSDOF 21
ENDMDL
MODEL 2
REMARK VINA RESULT:     -10.6      6.542     12.257
REMARK SMILES C[C@@H](C(=O)OCCOCCOC(=O)c1ccc(-c2c3nc(c(-c4c(F)cc(S(=O)(=O)[O-])cc4F)c4ccc([nH]4)c(-c4c(F)cc(S(=O)(=O)[O-])cc4F)c4nc(c(-c5c(F)cc(S(=O)(=O)[O-])cc5F)c5ccc2[nH]5)C=C4)C=C3)cc1)c1ccc(C[C@@H]2CCC[C@@H]2O)cc1F
REMARK SMILES IDX 7 1 6 2 5 3 3 4 4 5 2 6 1 7 80 8 81 9 92 10 82 11 91 12
REMARK SMILES IDX 93 13 83 14 84 15 85 16 86 17 89 18 87 19 88 20 90 21 8 23
REMARK SMILES IDX 9 24 10 25 11 26 12 27 13 28 14 29 15 30 79 31 16 32 78 33
REMARK SMILES IDX 17 34 18 35 19 36 72 37 20 38 77 39 71 40 73 41 21 42 76 43
REMARK SMILES IDX 70 44 69 45 22 47 56 48 35 49 55 50 36 51 39 52 54 53 74 54
REMARK SMILES IDX 37 55 38 56 53 58 75 59 40 60 23 61 24 62 33 63 25 64 26 65
REMARK SMILES IDX 32 66 34 67 27 68 28 69 29 70 30 71 31 72 57 73 58 74 67 75
REMARK SMILES IDX 59 76 60 77 66 78 68 79 61 80 62 81 63 82 64 83 65 84 41 85
REMARK SMILES IDX 42 86 51 87 43 88 44 89 50 90 52 91 45 92 46 93 47 94 48 95
REMARK SMILES IDX 49 96
REMARK H PARENT 90 22 73 46 39 57
REMARK Flexibility Score: inf
ROOT
ATOM      1  C   UNL A   1      36.689  22.209  24.928  1.00  0.00     0.202 C 
ENDROOT
BRANCH   1   2
ATOM      2  C   UNL A   1      36.261  22.895  23.627  1.00  0.00     0.261 C 
BRANCH   2   3
ATOM      3  O   UNL A   1      35.436  24.047  23.854  1.00  0.00    -0.463 OA
BRANCH   3   4
ATOM      4  C   UNL A   1      34.188  23.990  23.301  1.00  0.00     0.313 C 
ATOM      5  O   UNL A   1      33.980  23.559  22.174  1.00  0.00    -0.252 OA
BRANCH   4   6
ATOM      6  C   UNL A   1      33.087  24.531  24.240  1.00  0.00     0.129 C 
ATOM      7  C   UNL A   1      32.105  23.416  24.656  1.00  0.00     0.025 C 
BRANCH   6   8
ATOM      8  C   UNL A   1      32.397  25.800  23.715  1.00  0.00     0.002 A 
ATOM      9  C   UNL A   1      31.051  25.821  23.308  1.00  0.00     0.008 A 
ATOM     10  C   UNL A   1      33.060  27.035  23.691  1.00  0.00     0.127 A 
ATOM     11  C   UNL A   1      30.442  26.995  22.833  1.00  0.00     0.004 A 
ATOM     12  C   UNL A   1      32.480  28.189  23.157  1.00  0.00     0.043 A 
ATOM     13  F   UNL A   1      34.272  27.175  24.238  1.00  0.00    -0.207 F 
ATOM     14  C   UNL A   1      31.166  28.180  22.686  1.00  0.00    -0.045 A 
BRANCH  14  15
ATOM     15  C   UNL A   1      30.551  29.443  22.130  1.00  0.00     0.041 C 
BRANCH  15  16
ATOM     16  C   UNL A   1      29.125  29.862  22.559  1.00  0.00     0.022 C 
ATOM     17  C   UNL A   1      28.166  30.207  21.416  1.00  0.00     0.007 C 
ATOM     18  C   UNL A   1      28.990  31.073  23.487  1.00  0.00     0.117 C 
ATOM     19  C   UNL A   1      28.092  31.737  21.349  1.00  0.00     0.003 C 
ATOM     20  C   UNL A   1      28.866  32.268  22.552  1.00  0.00     0.032 C 
BRANCH  18  21
ATOM     21  O   UNL A   1      30.038  31.193  24.423  1.00  0.00    -0.393 OA
ATOM     22  H   UNL A   1      30.539  32.005  24.245  1.00  0.00     0.210 HD
ENDBRANCH  18  21
ENDBRANCH  15  16
ENDBRANCH  14  15
ENDBRANCH   6   8
ENDBRANCH   4   6
ENDBRANCH   3   4
ENDBRANCH   2   3
ENDBRANCH   1   2
BRANCH   1  23
ATOM     23  O   UNL A   1      38.080  21.970  25.120  1.00  0.00    -0.374 OA
BRANCH  23  24
ATOM     24  C   UNL A   1      38.691  22.486  26.304  1.00  0.00     0.202 C 
BRANCH  24  25
ATOM     25  C   UNL A   1      40.199  22.266  26.484  1.00  0.00     0.261 C 
BRANCH  25  26
ATOM     26  O   UNL A   1      40.762  23.102  27.512  1.00  0.00    -0.460 OA
BRANCH  26  27
ATOM     27  C   UNL A   1      41.438  24.184  27.055  1.00  0.00     0.338 C 
ATOM     28  O   UNL A   1      42.126  24.249  26.043  1.00  0.00    -0.246 OA
BRANCH  27  29
ATOM     29  C   UNL A   1      41.087  25.381  27.840  1.00  0.00     0.060 A 
ATOM     30  C   UNL A   1      42.068  26.370  27.991  1.00  0.00     0.016 A 
ATOM     31  C   UNL A   1      39.862  25.490  28.501  1.00  0.00     0.016 A 
ATOM     32  C   UNL A   1      41.846  27.451  28.842  1.00  0.00     0.010 A 
ATOM     33  C   UNL A   1      39.645  26.571  29.363  1.00  0.00     0.010 A 
ATOM     34  C   UNL A   1      40.650  27.536  29.566  1.00  0.00    -0.014 A 
BRANCH  34  35
ATOM     35  C   UNL A   1      40.521  28.549  30.643  1.00  0.00     0.031 A 
ATOM     36  C   UNL A   1      41.410  28.444  31.852  1.00  0.00     0.074 A 
ATOM     37  C   UNL A   1      39.652  29.569  30.528  1.00  0.00     0.049 A 
ATOM     38  N   UNL A   1      41.451  29.199  32.920  1.00  0.00    -0.248 NA
ATOM     39  C   UNL A   1      42.382  27.339  31.859  1.00  0.00     0.031 C 
ATOM     40  C   UNL A   1      38.767  29.800  29.387  1.00  0.00     0.029 A 
ATOM     41  N   UNL A   1      39.369  30.600  31.388  1.00  0.00    -0.354 N 
ATOM     42  C   UNL A   1      42.449  28.663  33.725  1.00  0.00     0.074 A 
ATOM     43  C   UNL A   1      42.966  27.498  33.037  1.00  0.00     0.031 C 
ATOM     44  C   UNL A   1      38.027  30.896  29.625  1.00  0.00     0.029 A 
ATOM     45  C   UNL A   1      38.367  31.428  30.943  1.00  0.00     0.049 A 
ATOM     46  H   UNL A   1      39.840  30.735  32.242  1.00  0.00     0.167 HD
ATOM     47  C   UNL A   1      42.900  29.105  34.922  1.00  0.00     0.037 A 
ATOM     48  C   UNL A   1      37.775  32.481  31.542  1.00  0.00     0.037 A 
ATOM     49  C   UNL A   1      42.381  30.262  35.604  1.00  0.00     0.049 A 
ATOM     50  C   UNL A   1      38.250  32.920  32.903  1.00  0.00     0.074 A 
ATOM     51  C   UNL A   1      42.776  30.797  36.818  1.00  0.00     0.029 A 
ATOM     52  N   UNL A   1      41.350  31.061  35.132  1.00  0.00    -0.354 N 
ATOM     53  N   UNL A   1      39.204  32.412  33.647  1.00  0.00    -0.248 NA
ATOM     54  C   UNL A   1      37.572  34.077  33.505  1.00  0.00     0.031 C 
ATOM     55  C   UNL A   1      41.955  31.893  37.101  1.00  0.00     0.029 A 
ATOM     56  C   UNL A   1      41.080  32.072  36.040  1.00  0.00     0.049 A 
ATOM     57  H   UNL A   1      40.879  30.930  34.278  1.00  0.00     0.167 HD
ATOM     58  C   UNL A   1      39.258  33.201  34.792  1.00  0.00     0.074 A 
ATOM     59  C   UNL A   1      38.246  34.227  34.638  1.00  0.00     0.031 C 
ATOM     60  C   UNL A   1      40.071  33.089  35.872  1.00  0.00     0.037 A 
BRANCH  47  61
ATOM     61  C   UNL A   1      43.998  28.318  35.584  1.00  0.00     0.058 A 
ATOM     62  C   UNL A   1      43.720  27.284  36.493  1.00  0.00     0.135 A 
ATOM     63  C   UNL A   1      45.344  28.585  35.291  1.00  0.00     0.135 A 
ATOM     64  F   UNL A   1      42.450  26.997  36.823  1.00  0.00    -0.206 F 
ATOM     65  C   UNL A   1      44.738  26.563  37.107  1.00  0.00     0.059 A 
ATOM     66  C   UNL A   1      46.378  27.860  35.874  1.00  0.00     0.059 A 
ATOM     67  F   UNL A   1      45.666  29.565  34.430  1.00  0.00    -0.206 F 
ATOM     68  C   UNL A   1      46.066  26.860  36.794  1.00  0.00     0.060 A 
BRANCH  68  69
ATOM     69  S   UNL A   1      47.377  25.921  37.604  1.00  0.00     0.124 S 
ATOM     70  O   UNL A   1      48.448  26.911  37.665  1.00  0.00    -0.237 OA
ATOM     71  O   UNL A   1      46.767  25.568  38.881  1.00  0.00    -0.237 OA
ATOM     72  O   UNL A   1      47.608  24.805  36.693  1.00  0.00    -0.744 OA
ENDBRANCH  68  69
ENDBRANCH  47  61
BRANCH  48  73
ATOM     73  C   UNL A   1      36.655  33.185  30.863  1.00  0.00     0.058 A 
ATOM     74  C   UNL A   1      36.892  34.114  29.840  1.00  0.00     0.135 A 
ATOM     75  C   UNL A   1      35.322  32.932  31.220  1.00  0.00     0.135 A 
ATOM     76  F   UNL A   1      38.150  34.399  29.471  1.00  0.00    -0.206 F 
ATOM     77  C   UNL A   1      35.848  34.775  29.200  1.00  0.00     0.059 A 
ATOM     78  C   UNL A   1      34.260  33.562  30.580  1.00  0.00     0.059 A 
ATOM     79  F   UNL A   1      35.041  32.044  32.187  1.00  0.00    -0.206 F 
ATOM     80  C   UNL A   1      34.534  34.489  29.575  1.00  0.00     0.060 A 
BRANCH  80  81
ATOM     81  S   UNL A   1      33.183  35.309  28.700  1.00  0.00     0.124 S 
ATOM     82  O   UNL A   1      32.535  34.181  28.040  1.00  0.00    -0.237 OA
ATOM     83  O   UNL A   1      32.438  35.924  29.793  1.00  0.00    -0.237 OA
ATOM     84  O   UNL A   1      33.876  36.245  27.819  1.00  0.00    -0.744 OA
ENDBRANCH  80  81
ENDBRANCH  48  73
BRANCH  60  85
ATOM     85  C   UNL A   1      39.926  34.116  36.961  1.00  0.00     0.058 A 
ATOM     86  C   UNL A   1      40.521  35.383  36.866  1.00  0.00     0.135 A 
ATOM     87  C   UNL A   1      39.134  33.846  38.090  1.00  0.00     0.135 A 
ATOM     88  F   UNL A   1      41.292  35.690  35.810  1.00  0.00    -0.206 F 
ATOM     89  C   UNL A   1      40.354  36.340  37.862  1.00  0.00     0.059 A 
ATOM     90  C   UNL A   1      38.933  34.797  39.085  1.00  0.00     0.059 A 
ATOM     91  F   UNL A   1      38.533  32.653  38.225  1.00  0.00    -0.206 F 
ATOM     92  C   UNL A   1      39.557  36.038  38.968  1.00  0.00     0.060 A 
BRANCH  92  93
ATOM     93  S   UNL A   1      39.319  37.302  40.236  1.00  0.00     0.124 S 
ATOM     94  O   UNL A   1      38.488  38.272  39.532  1.00  0.00    -0.237 OA
ATOM     95  O   UNL A   1      38.657  36.555  41.302  1.00  0.00    -0.237 OA
ATOM     96  O   UNL A   1      40.679  37.739  40.538  1.00  0.00    -0.744 OA
ENDBRANCH  92  93
ENDBRANCH  60  85
ENDBRANCH  34  35
ENDBRANCH  27  29
ENDBRANCH  26  27
ENDBRANCH  25  26
ENDBRANCH  24  25
ENDBRANCH  23  24
ENDBRANCH   1  23
TORSDOF 21
ENDMDL
MODEL 3
REMARK VINA RESULT:     -10.5      6.392     12.117
REMARK SMILES C[C@@H](C(=O)OCCOCCOC(=O)c1ccc(-c2c3nc(c(-c4c(F)cc(S(=O)(=O)[O-])cc4F)c4ccc([nH]4)c(-c4c(F)cc(S(=O)(=O)[O-])cc4F)c4nc(c(-c5c(F)cc(S(=O)(=O)[O-])cc5F)c5ccc2[nH]5)C=C4)C=C3)cc1)c1ccc(C[C@@H]2CCC[C@@H]2O)cc1F
REMARK SMILES IDX 7 1 6 2 5 3 3 4 4 5 2 6 1 7 80 8 81 9 92 10 82 11 91 12
REMARK SMILES IDX 93 13 83 14 84 15 85 16 86 17 89 18 87 19 88 20 90 21 8 23
REMARK SMILES IDX 9 24 10 25 11 26 12 27 13 28 14 29 15 30 79 31 16 32 78 33
REMARK SMILES IDX 17 34 18 35 19 36 72 37 20 38 77 39 71 40 73 41 21 42 76 43
REMARK SMILES IDX 70 44 69 45 22 47 56 48 35 49 55 50 36 51 39 52 54 53 74 54
REMARK SMILES IDX 37 55 38 56 53 58 75 59 40 60 23 61 24 62 33 63 25 64 26 65
REMARK SMILES IDX 32 66 34 67 27 68 28 69 29 70 30 71 31 72 57 73 58 74 67 75
REMARK SMILES IDX 59 76 60 77 66 78 68 79 61 80 62 81 63 82 64 83 65 84 41 85
REMARK SMILES IDX 42 86 51 87 43 88 44 89 50 90 52 91 45 92 46 93 47 94 48 95
REMARK SMILES IDX 49 96
REMARK H PARENT 90 22 73 46 39 57
REMARK Flexibility Score: inf
ROOT
ATOM      1  C   UNL A   1      37.713  22.822  25.347  1.00  0.00     0.202 C 
ENDROOT
BRANCH   1   2
ATOM      2  C   UNL A   1      36.203  22.910  25.591  1.00  0.00     0.261 C 
BRANCH   2   3
ATOM      3  O   UNL A   1      35.702  21.810  26.365  1.00  0.00    -0.463 OA
BRANCH   3   4
ATOM      4  C   UNL A   1      35.014  20.865  25.660  1.00  0.00     0.313 C 
ATOM      5  O   UNL A   1      35.517  20.215  24.752  1.00  0.00    -0.252 OA
BRANCH   4   6
ATOM      6  C   UNL A   1      33.547  20.716  26.123  1.00  0.00     0.129 C 
ATOM      7  C   UNL A   1      32.928  19.397  25.616  1.00  0.00     0.025 C 
BRANCH   6   8
ATOM      8  C   UNL A   1      32.682  21.955  25.841  1.00  0.00     0.002 A 
ATOM      9  C   UNL A   1      32.087  22.198  24.591  1.00  0.00     0.008 A 
ATOM     10  C   UNL A   1      32.373  22.875  26.853  1.00  0.00     0.127 A 
ATOM     11  C   UNL A   1      31.298  23.337  24.359  1.00  0.00     0.004 A 
ATOM     12  C   UNL A   1      31.647  24.044  26.609  1.00  0.00     0.043 A 
ATOM     13  F   UNL A   1      32.719  22.642  28.123  1.00  0.00    -0.207 F 
ATOM     14  C   UNL A   1      31.123  24.312  25.343  1.00  0.00    -0.045 A 
BRANCH  14  15
ATOM     15  C   UNL A   1      30.323  25.572  25.105  1.00  0.00     0.041 C 
BRANCH  15  16
ATOM     16  C   UNL A   1      29.897  25.957  23.669  1.00  0.00     0.022 C 
ATOM     17  C   UNL A   1      30.861  26.884  22.921  1.00  0.00     0.007 C 
ATOM     18  C   UNL A   1      28.549  26.660  23.492  1.00  0.00     0.117 C 
ATOM     19  C   UNL A   1      30.251  28.290  22.978  1.00  0.00     0.003 C 
ATOM     20  C   UNL A   1      28.867  28.145  23.603  1.00  0.00     0.032 C 
BRANCH  18  21
ATOM     21  O   UNL A   1      27.557  26.225  24.395  1.00  0.00    -0.393 OA
ATOM     22  H   UNL A   1      27.059  26.990  24.723  1.00  0.00     0.210 HD
ENDBRANCH  18  21
ENDBRANCH  15  16
ENDBRANCH  14  15
ENDBRANCH   6   8
ENDBRANCH   4   6
ENDBRANCH   3   4
ENDBRANCH   2   3
ENDBRANCH   1   2
BRANCH   1  23
ATOM     23  O   UNL A   1      38.536  22.426  26.441  1.00  0.00    -0.374 OA
BRANCH  23  24
ATOM     24  C   UNL A   1      39.625  21.543  26.174  1.00  0.00     0.202 C 
BRANCH  24  25
ATOM     25  C   UNL A   1      41.047  22.112  26.271  1.00  0.00     0.261 C 
BRANCH  25  26
ATOM     26  O   UNL A   1      41.154  23.177  27.234  1.00  0.00    -0.460 OA
BRANCH  26  27
ATOM     27  C   UNL A   1      41.722  24.313  26.761  1.00  0.00     0.338 C 
ATOM     28  O   UNL A   1      42.351  24.442  25.718  1.00  0.00    -0.246 OA
BRANCH  27  29
ATOM     29  C   UNL A   1      41.321  25.469  27.581  1.00  0.00     0.060 A 
ATOM     30  C   UNL A   1      42.234  26.526  27.705  1.00  0.00     0.016 A 
ATOM     31  C   UNL A   1      40.123  25.480  28.298  1.00  0.00     0.016 A 
ATOM     32  C   UNL A   1      41.973  27.575  28.584  1.00  0.00     0.010 A 
ATOM     33  C   UNL A   1      39.868  26.530  29.187  1.00  0.00     0.010 A 
ATOM     34  C   UNL A   1      40.808  27.563  29.361  1.00  0.00    -0.014 A 
BRANCH  34  35
ATOM     35  C   UNL A   1      40.655  28.549  30.460  1.00  0.00     0.031 A 
ATOM     36  C   UNL A   1      41.546  28.438  31.668  1.00  0.00     0.074 A 
ATOM     37  C   UNL A   1      39.764  29.551  30.366  1.00  0.00     0.049 A 
ATOM     38  N   UNL A   1      41.569  29.170  32.751  1.00  0.00    -0.248 NA
ATOM     39  C   UNL A   1      42.543  27.355  31.651  1.00  0.00     0.031 C 
ATOM     40  C   UNL A   1      38.875  29.787  29.229  1.00  0.00     0.029 A 
ATOM     41  N   UNL A   1      39.457  30.557  31.248  1.00  0.00    -0.354 N 
ATOM     42  C   UNL A   1      42.578  28.639  33.546  1.00  0.00     0.074 A 
ATOM     43  C   UNL A   1      43.122  27.502  32.834  1.00  0.00     0.031 C 
ATOM     44  C   UNL A   1      38.110  30.861  29.490  1.00  0.00     0.029 A 
ATOM     45  C   UNL A   1      38.437  31.372  30.821  1.00  0.00     0.049 A 
ATOM     46  H   UNL A   1      39.924  30.683  32.106  1.00  0.00     0.167 HD
ATOM     47  C   UNL A   1      43.018  29.065  34.753  1.00  0.00     0.037 A 
ATOM     48  C   UNL A   1      37.821  32.397  31.442  1.00  0.00     0.037 A 
ATOM     49  C   UNL A   1      42.473  30.194  35.460  1.00  0.00     0.049 A 
ATOM     50  C   UNL A   1      38.285  32.817  32.812  1.00  0.00     0.074 A 
ATOM     51  C   UNL A   1      42.855  30.711  36.685  1.00  0.00     0.029 A 
ATOM     52  N   UNL A   1      41.424  30.980  35.004  1.00  0.00    -0.354 N 
ATOM     53  N   UNL A   1      39.250  32.315  33.546  1.00  0.00    -0.248 NA
ATOM     54  C   UNL A   1      37.580  33.945  33.439  1.00  0.00     0.031 C 
ATOM     55  C   UNL A   1      42.009  31.783  36.991  1.00  0.00     0.029 A 
ATOM     56  C   UNL A   1      41.130  31.964  35.934  1.00  0.00     0.049 A 
ATOM     57  H   UNL A   1      40.957  30.857  34.147  1.00  0.00     0.167 HD
ATOM     58  C   UNL A   1      39.284  33.080  34.708  1.00  0.00     0.074 A 
ATOM     59  C   UNL A   1      38.249  34.085  34.576  1.00  0.00     0.031 C 
ATOM     60  C   UNL A   1      40.099  32.962  35.786  1.00  0.00     0.037 A 
BRANCH  47  61
ATOM     61  C   UNL A   1      44.133  28.288  35.399  1.00  0.00     0.058 A 
ATOM     62  C   UNL A   1      45.482  28.576  35.137  1.00  0.00     0.135 A 
ATOM     63  C   UNL A   1      43.850  27.257  36.308  1.00  0.00     0.135 A 
ATOM     64  F   UNL A   1      45.810  29.541  34.263  1.00  0.00    -0.206 F 
ATOM     65  C   UNL A   1      46.509  27.851  35.732  1.00  0.00     0.059 A 
ATOM     66  C   UNL A   1      44.861  26.535  36.934  1.00  0.00     0.059 A 
ATOM     67  F   UNL A   1      42.577  26.938  36.593  1.00  0.00    -0.206 F 
ATOM     68  C   UNL A   1      46.189  26.829  36.627  1.00  0.00     0.060 A 
BRANCH  68  69
ATOM     69  S   UNL A   1      47.532  25.892  37.387  1.00  0.00     0.124 S 
ATOM     70  O   UNL A   1      48.698  26.465  36.721  1.00  0.00    -0.237 OA
ATOM     71  O   UNL A   1      47.384  26.222  38.800  1.00  0.00    -0.237 OA
ATOM     72  O   UNL A   1      47.224  24.510  37.033  1.00  0.00    -0.744 OA
ENDBRANCH  68  69
ENDBRANCH  47  61
BRANCH  48  73
ATOM     73  C   UNL A   1      36.686  33.090  30.776  1.00  0.00     0.058 A 
ATOM     74  C   UNL A   1      35.359  32.851  31.163  1.00  0.00     0.135 A 
ATOM     75  C   UNL A   1      36.910  34.014  29.744  1.00  0.00     0.135 A 
ATOM     76  F   UNL A   1      35.093  31.968  32.136  1.00  0.00    -0.206 F 
ATOM     77  C   UNL A   1      34.293  33.497  30.544  1.00  0.00     0.059 A 
ATOM     78  C   UNL A   1      35.863  34.690  29.126  1.00  0.00     0.059 A 
ATOM     79  F   UNL A   1      38.162  34.285  29.343  1.00  0.00    -0.206 F 
ATOM     80  C   UNL A   1      34.556  34.418  29.528  1.00  0.00     0.060 A 
BRANCH  80  81
ATOM     81  S   UNL A   1      33.170  35.294  28.770  1.00  0.00     0.124 S 
ATOM     82  O   UNL A   1      32.535  34.229  28.002  1.00  0.00    -0.237 OA
ATOM     83  O   UNL A   1      32.433  35.769  29.936  1.00  0.00    -0.237 OA
ATOM     84  O   UNL A   1      33.824  36.337  27.984  1.00  0.00    -0.744 OA
ENDBRANCH  80  81
ENDBRANCH  48  73
BRANCH  60  85
ATOM     85  C   UNL A   1      39.930  33.961  36.898  1.00  0.00     0.058 A 
ATOM     86  C   UNL A   1      40.559  35.215  36.866  1.00  0.00     0.135 A 
ATOM     87  C   UNL A   1      39.082  33.680  37.982  1.00  0.00     0.135 A 
ATOM     88  F   UNL A   1      41.384  35.531  35.855  1.00  0.00    -0.206 F 
ATOM     89  C   UNL A   1      40.370  36.148  37.882  1.00  0.00     0.059 A 
ATOM     90  C   UNL A   1      38.859  34.607  38.994  1.00  0.00     0.059 A 
ATOM     91  F   UNL A   1      38.446  32.499  38.055  1.00  0.00    -0.206 F 
ATOM     92  C   UNL A   1      39.517  35.835  38.941  1.00  0.00     0.060 A 
BRANCH  92  93
ATOM     93  S   UNL A   1      39.253  37.068  40.235  1.00  0.00     0.124 S 
ATOM     94  O   UNL A   1      38.510  38.095  39.513  1.00  0.00    -0.237 OA
ATOM     95  O   UNL A   1      38.495  36.318  41.231  1.00  0.00    -0.237 OA
ATOM     96  O   UNL A   1      40.608  37.436  40.634  1.00  0.00    -0.744 OA
ENDBRANCH  92  93
ENDBRANCH  60  85
ENDBRANCH  34  35
ENDBRANCH  27  29
ENDBRANCH  26  27
ENDBRANCH  25  26
ENDBRANCH  24  25
ENDBRANCH  23  24
ENDBRANCH   1  23
TORSDOF 21
ENDMDL
