MODEL 1
REMARK VINA RESULT:     -10.5      0.000      0.000
REMARK SMILES CCc1cccc2c3c([nH]c12)[C@](CC)(CC(=O)OCCOCCOC(=O)c1ccc(-c2c4nc(c(-c5c(F)cc(S(=O)(=O)[O-])cc5F)c5ccc([nH]5)c(-c5c(F)cc(S(=O)(=O)[O-])cc5F)c5nc(c(-c6c(F)cc(S(=O)(=O)[O-])cc6F)c6ccc2[nH]6)C=C5)C=C4)cc1)OCC3
REMARK SMILES IDX 22 1 21 2 20 3 19 4 18 5 16 6 17 7 15 8 12 9 3 10 4 11 11 12
REMARK SMILES IDX 5 13 7 14 10 15 6 16 8 17 9 18 95 20 94 21 93 22 2 23 1 24
REMARK SMILES IDX 13 25 14 26 23 27 24 28 25 29 26 30 27 31 28 32 92 33 29 34
REMARK SMILES IDX 91 35 30 36 31 37 32 38 85 39 33 40 90 41 84 42 86 43 34 44
REMARK SMILES IDX 89 45 83 46 82 47 35 49 69 50 48 51 68 52 49 53 52 54 67 55
REMARK SMILES IDX 87 56 50 57 51 58 66 60 88 61 53 62 36 63 37 64 46 65 38 66
REMARK SMILES IDX 39 67 45 68 47 69 40 70 41 71 42 72 43 73 44 74 70 75 71 76
REMARK SMILES IDX 80 77 72 78 73 79 79 80 81 81 74 82 75 83 76 84 77 85 78 86
REMARK SMILES IDX 54 87 55 88 64 89 56 90 57 91 63 92 65 93 58 94 59 95 60 96
REMARK SMILES IDX 61 97 62 98
REMARK H PARENT 10 19 86 48 52 59
REMARK Flexibility Score: inf
ROOT
ATOM      1  C   UNL A   1      33.234  34.789  28.441  1.00  0.00     0.202 C 
ENDROOT
BRANCH   1   2
ATOM      2  O   UNL A   1      32.821  34.831  29.807  1.00  0.00    -0.374 OA
BRANCH   2   3
ATOM      3  C   UNL A   1      32.766  36.100  30.448  1.00  0.00     0.202 C 
BRANCH   3   4
ATOM      4  C   UNL A   1      33.637  36.339  31.691  1.00  0.00     0.261 C 
BRANCH   4   5
ATOM      5  O   UNL A   1      33.332  35.539  32.853  1.00  0.00    -0.463 OA
BRANCH   5   6
ATOM      6  C   UNL A   1      33.788  34.266  32.797  1.00  0.00     0.309 C 
ATOM      7  O   UNL A   1      33.135  33.289  33.164  1.00  0.00    -0.252 OA
BRANCH   6   8
ATOM      8  C   UNL A   1      35.241  34.099  32.427  1.00  0.00     0.164 C 
BRANCH   8   9
ATOM      9  C   UNL A   1      36.291  33.211  33.121  1.00  0.00     0.118 C 
ATOM     10  C   UNL A   1      40.935  34.397  31.450  1.00  0.00    -0.024 A 
ATOM     11  C   UNL A   1      42.043  34.992  32.091  1.00  0.00     0.006 A 
ATOM     12  C   UNL A   1      39.798  34.166  32.254  1.00  0.00     0.049 A 
ATOM     13  C   UNL A   1      42.061  35.235  33.460  1.00  0.00     0.001 A 
ATOM     14  C   UNL A   1      39.818  34.342  33.642  1.00  0.00     0.003 A 
ATOM     15  N   UNL A   1      38.518  33.748  31.923  1.00  0.00    -0.356 N 
ATOM     16  C   UNL A   1      40.975  34.863  34.254  1.00  0.00     0.010 A 
ATOM     17  C   UNL A   1      38.559  33.910  34.126  1.00  0.00    -0.014 A 
ATOM     18  C   UNL A   1      37.734  33.659  33.048  1.00  0.00     0.052 A 
ATOM     19  H   UNL A   1      38.213  33.544  31.010  1.00  0.00     0.166 HD
ATOM     20  C   UNL A   1      38.067  33.718  35.510  1.00  0.00     0.066 C 
ATOM     21  C   UNL A   1      36.538  33.802  35.495  1.00  0.00     0.166 C 
ATOM     22  O   UNL A   1      35.948  32.953  34.508  1.00  0.00    -0.368 OA
BRANCH  10  23
ATOM     23  C   UNL A   1      41.050  34.000  29.998  1.00  0.00     0.034 C 
ATOM     24  C   UNL A   1      40.393  35.042  29.093  1.00  0.00     0.009 C 
ENDBRANCH  10  23
BRANCH   9  25
ATOM     25  C   UNL A   1      36.203  31.789  32.467  1.00  0.00     0.039 C 
ATOM     26  C   UNL A   1      37.006  30.705  33.185  1.00  0.00     0.007 C 
ENDBRANCH   9  25
ENDBRANCH   8   9
ENDBRANCH   6   8
ENDBRANCH   5   6
ENDBRANCH   4   5
ENDBRANCH   3   4
ENDBRANCH   2   3
ENDBRANCH   1   2
BRANCH   1  27
ATOM     27  C   UNL A   1      34.568  34.099  28.135  1.00  0.00     0.261 C 
BRANCH  27  28
ATOM     28  O   UNL A   1      34.809  33.034  29.064  1.00  0.00    -0.460 OA
BRANCH  28  29
ATOM     29  C   UNL A   1      34.709  31.792  28.517  1.00  0.00     0.338 C 
ATOM     30  O   UNL A   1      33.751  31.294  27.977  1.00  0.00    -0.246 OA
BRANCH  29  31
ATOM     31  C   UNL A   1      36.110  31.367  28.347  1.00  0.00     0.060 A 
ATOM     32  C   UNL A   1      36.435  30.065  27.962  1.00  0.00     0.016 A 
ATOM     33  C   UNL A   1      37.071  32.227  28.891  1.00  0.00     0.016 A 
ATOM     34  C   UNL A   1      37.711  29.586  28.223  1.00  0.00     0.010 A 
ATOM     35  C   UNL A   1      38.342  31.742  29.162  1.00  0.00     0.010 A 
ATOM     36  C   UNL A   1      38.646  30.411  28.865  1.00  0.00    -0.014 A 
BRANCH  36  37
ATOM     37  C   UNL A   1      40.006  29.897  29.027  1.00  0.00     0.031 A 
ATOM     38  C   UNL A   1      40.466  29.862  30.443  1.00  0.00     0.074 A 
ATOM     39  C   UNL A   1      40.735  29.319  28.052  1.00  0.00     0.049 A 
ATOM     40  N   UNL A   1      41.513  30.405  30.973  1.00  0.00    -0.248 NA
ATOM     41  C   UNL A   1      39.570  29.208  31.412  1.00  0.00     0.031 C 
ATOM     42  C   UNL A   1      40.295  28.974  26.699  1.00  0.00     0.029 A 
ATOM     43  N   UNL A   1      41.997  28.799  28.111  1.00  0.00    -0.354 N 
ATOM     44  C   UNL A   1      41.510  29.998  32.305  1.00  0.00     0.074 A 
ATOM     45  C   UNL A   1      40.224  29.402  32.555  1.00  0.00     0.031 C 
ATOM     46  C   UNL A   1      41.187  28.122  26.148  1.00  0.00     0.029 A 
ATOM     47  C   UNL A   1      42.305  27.942  27.062  1.00  0.00     0.049 A 
ATOM     48  H   UNL A   1      42.633  29.013  28.833  1.00  0.00     0.167 HD
ATOM     49  C   UNL A   1      42.636  29.972  33.065  1.00  0.00     0.037 A 
ATOM     50  C   UNL A   1      43.351  27.079  26.994  1.00  0.00     0.037 A 
ATOM     51  C   UNL A   1      43.679  30.793  32.518  1.00  0.00     0.049 A 
ATOM     52  C   UNL A   1      44.372  27.524  27.976  1.00  0.00     0.074 A 
ATOM     53  C   UNL A   1      43.819  32.137  32.243  1.00  0.00     0.029 A 
ATOM     54  N   UNL A   1      44.714  30.160  31.878  1.00  0.00    -0.354 N 
ATOM     55  N   UNL A   1      45.077  28.617  27.877  1.00  0.00    -0.248 NA
ATOM     56  C   UNL A   1      44.401  26.883  29.284  1.00  0.00     0.031 C 
ATOM     57  C   UNL A   1      44.685  32.206  31.115  1.00  0.00     0.029 A 
ATOM     58  C   UNL A   1      45.036  30.899  30.770  1.00  0.00     0.049 A 
ATOM     59  H   UNL A   1      45.148  29.324  32.164  1.00  0.00     0.167 HD
ATOM     60  C   UNL A   1      45.307  29.011  29.185  1.00  0.00     0.074 A 
ATOM     61  C   UNL A   1      44.993  27.843  29.996  1.00  0.00     0.031 C 
ATOM     62  C   UNL A   1      45.459  30.327  29.509  1.00  0.00     0.037 A 
BRANCH  49  63
ATOM     63  C   UNL A   1      42.896  28.928  34.125  1.00  0.00     0.058 A 
ATOM     64  C   UNL A   1      42.903  27.564  33.777  1.00  0.00     0.135 A 
ATOM     65  C   UNL A   1      42.864  29.207  35.511  1.00  0.00     0.135 A 
ATOM     66  F   UNL A   1      42.906  27.187  32.489  1.00  0.00    -0.206 F 
ATOM     67  C   UNL A   1      42.829  26.551  34.735  1.00  0.00     0.059 A 
ATOM     68  C   UNL A   1      42.853  28.214  36.482  1.00  0.00     0.059 A 
ATOM     69  F   UNL A   1      42.740  30.453  35.984  1.00  0.00    -0.206 F 
ATOM     70  C   UNL A   1      42.790  26.890  36.085  1.00  0.00     0.060 A 
BRANCH  70  71
ATOM     71  S   UNL A   1      42.576  25.597  37.320  1.00  0.00     0.124 S 
ATOM     72  O   UNL A   1      41.203  25.832  37.749  1.00  0.00    -0.237 OA
ATOM     73  O   UNL A   1      42.805  24.386  36.536  1.00  0.00    -0.237 OA
ATOM     74  O   UNL A   1      43.610  25.901  38.305  1.00  0.00    -0.744 OA
ENDBRANCH  70  71
ENDBRANCH  49  63
BRANCH  50  75
ATOM     75  C   UNL A   1      43.414  25.734  26.354  1.00  0.00     0.058 A 
ATOM     76  C   UNL A   1      44.332  25.470  25.320  1.00  0.00     0.135 A 
ATOM     77  C   UNL A   1      42.786  24.608  26.921  1.00  0.00     0.135 A 
ATOM     78  F   UNL A   1      44.993  26.478  24.727  1.00  0.00    -0.206 F 
ATOM     79  C   UNL A   1      44.659  24.170  24.921  1.00  0.00     0.059 A 
ATOM     80  C   UNL A   1      43.079  23.303  26.526  1.00  0.00     0.059 A 
ATOM     81  F   UNL A   1      41.936  24.728  27.951  1.00  0.00    -0.206 F 
ATOM     82  C   UNL A   1      44.042  23.090  25.550  1.00  0.00     0.060 A 
BRANCH  82  83
ATOM     83  S   UNL A   1      44.602  21.410  25.182  1.00  0.00     0.124 S 
ATOM     84  O   UNL A   1      45.925  21.391  25.794  1.00  0.00    -0.237 OA
ATOM     85  O   UNL A   1      43.583  20.599  25.839  1.00  0.00    -0.237 OA
ATOM     86  O   UNL A   1      44.588  21.362  23.722  1.00  0.00    -0.744 OA
ENDBRANCH  82  83
ENDBRANCH  50  75
BRANCH  62  87
ATOM     87  C   UNL A   1      45.826  31.298  28.420  1.00  0.00     0.058 A 
ATOM     88  C   UNL A   1      44.907  31.872  27.526  1.00  0.00     0.135 A 
ATOM     89  C   UNL A   1      47.140  31.792  28.403  1.00  0.00     0.135 A 
ATOM     90  F   UNL A   1      43.613  31.522  27.544  1.00  0.00    -0.206 F 
ATOM     91  C   UNL A   1      45.287  32.882  26.640  1.00  0.00     0.059 A 
ATOM     92  C   UNL A   1      47.531  32.820  27.552  1.00  0.00     0.059 A 
ATOM     93  F   UNL A   1      48.049  31.318  29.272  1.00  0.00    -0.206 F 
ATOM     94  C   UNL A   1      46.598  33.359  26.669  1.00  0.00     0.060 A 
BRANCH  94  95
ATOM     95  S   UNL A   1      47.046  34.759  25.620  1.00  0.00     0.124 S 
ATOM     96  O   UNL A   1      47.011  35.873  26.562  1.00  0.00    -0.237 OA
ATOM     97  O   UNL A   1      48.370  34.380  25.134  1.00  0.00    -0.237 OA
ATOM     98  O   UNL A   1      45.999  34.771  24.600  1.00  0.00    -0.744 OA
ENDBRANCH  94  95
ENDBRANCH  62  87
ENDBRANCH  36  37
ENDBRANCH  29  31
ENDBRANCH  28  29
ENDBRANCH  27  28
ENDBRANCH   1  27
TORSDOF 20
ENDMDL
MODEL 2
REMARK VINA RESULT:     -10.3      1.105      2.309
REMARK SMILES CCc1cccc2c3c([nH]c12)[C@](CC)(CC(=O)OCCOCCOC(=O)c1ccc(-c2c4nc(c(-c5c(F)cc(S(=O)(=O)[O-])cc5F)c5ccc([nH]5)c(-c5c(F)cc(S(=O)(=O)[O-])cc5F)c5nc(c(-c6c(F)cc(S(=O)(=O)[O-])cc6F)c6ccc2[nH]6)C=C5)C=C4)cc1)OCC3
REMARK SMILES IDX 22 1 21 2 20 3 19 4 18 5 16 6 17 7 15 8 12 9 3 10 4 11 11 12
REMARK SMILES IDX 5 13 7 14 10 15 6 16 8 17 9 18 95 20 94 21 93 22 2 23 1 24
REMARK SMILES IDX 13 25 14 26 23 27 24 28 25 29 26 30 27 31 28 32 92 33 29 34
REMARK SMILES IDX 91 35 30 36 31 37 32 38 85 39 33 40 90 41 84 42 86 43 34 44
REMARK SMILES IDX 89 45 83 46 82 47 35 49 69 50 48 51 68 52 49 53 52 54 67 55
REMARK SMILES IDX 87 56 50 57 51 58 66 60 88 61 53 62 36 63 37 64 46 65 38 66
REMARK SMILES IDX 39 67 45 68 47 69 40 70 41 71 42 72 43 73 44 74 70 75 71 76
REMARK SMILES IDX 80 77 72 78 73 79 79 80 81 81 74 82 75 83 76 84 77 85 78 86
REMARK SMILES IDX 54 87 55 88 64 89 56 90 57 91 63 92 65 93 58 94 59 95 60 96
REMARK SMILES IDX 61 97 62 98
REMARK H PARENT 10 19 86 48 52 59
REMARK Flexibility Score: inf
ROOT
ATOM      1  C   UNL A   1      33.105  35.208  28.973  1.00  0.00     0.202 C 
ENDROOT
BRANCH   1   2
ATOM      2  O   UNL A   1      33.102  35.076  30.395  1.00  0.00    -0.374 OA
BRANCH   2   3
ATOM      3  C   UNL A   1      32.946  36.257  31.174  1.00  0.00     0.202 C 
BRANCH   3   4
ATOM      4  C   UNL A   1      33.182  36.179  32.690  1.00  0.00     0.261 C 
BRANCH   4   5
ATOM      5  O   UNL A   1      34.554  36.261  33.131  1.00  0.00    -0.463 OA
BRANCH   5   6
ATOM      6  C   UNL A   1      35.171  35.065  33.279  1.00  0.00     0.309 C 
ATOM      7  O   UNL A   1      34.782  34.186  34.048  1.00  0.00    -0.252 OA
BRANCH   6   8
ATOM      8  C   UNL A   1      36.500  34.915  32.581  1.00  0.00     0.164 C 
BRANCH   8   9
ATOM      9  C   UNL A   1      37.653  33.964  32.950  1.00  0.00     0.118 C 
ATOM     10  C   UNL A   1      39.225  34.911  37.683  1.00  0.00    -0.024 A 
ATOM     11  C   UNL A   1      39.152  34.151  38.870  1.00  0.00     0.006 A 
ATOM     12  C   UNL A   1      38.720  34.298  36.516  1.00  0.00     0.049 A 
ATOM     13  C   UNL A   1      38.715  32.830  38.874  1.00  0.00     0.001 A 
ATOM     14  C   UNL A   1      38.337  32.953  36.486  1.00  0.00     0.003 A 
ATOM     15  N   UNL A   1      38.503  34.803  35.243  1.00  0.00    -0.356 N 
ATOM     16  C   UNL A   1      38.358  32.204  37.680  1.00  0.00     0.010 A 
ATOM     17  C   UNL A   1      38.000  32.655  35.143  1.00  0.00    -0.014 A 
ATOM     18  C   UNL A   1      37.996  33.829  34.418  1.00  0.00     0.052 A 
ATOM     19  H   UNL A   1      38.686  35.731  34.969  1.00  0.00     0.166 HD
ATOM     20  C   UNL A   1      37.679  31.365  34.489  1.00  0.00     0.066 C 
ATOM     21  C   UNL A   1      36.856  31.654  33.231  1.00  0.00     0.166 C 
ATOM     22  O   UNL A   1      37.460  32.640  32.389  1.00  0.00    -0.368 OA
BRANCH  10  23
ATOM     23  C   UNL A   1      39.874  36.274  37.721  1.00  0.00     0.034 C 
ATOM     24  C   UNL A   1      41.138  36.302  36.863  1.00  0.00     0.009 C 
ENDBRANCH  10  23
BRANCH   9  25
ATOM     25  C   UNL A   1      38.935  34.478  32.210  1.00  0.00     0.039 C 
ATOM     26  C   UNL A   1      40.046  33.437  32.060  1.00  0.00     0.007 C 
ENDBRANCH   9  25
ENDBRANCH   8   9
ENDBRANCH   6   8
ENDBRANCH   5   6
ENDBRANCH   4   5
ENDBRANCH   3   4
ENDBRANCH   2   3
ENDBRANCH   1   2
BRANCH   1  27
ATOM     27  C   UNL A   1      33.440  33.956  28.155  1.00  0.00     0.261 C 
BRANCH  27  28
ATOM     28  O   UNL A   1      34.370  33.126  28.863  1.00  0.00    -0.460 OA
BRANCH  28  29
ATOM     29  C   UNL A   1      34.476  31.865  28.361  1.00  0.00     0.338 C 
ATOM     30  O   UNL A   1      33.852  31.374  27.452  1.00  0.00    -0.246 OA
BRANCH  29  31
ATOM     31  C   UNL A   1      35.777  31.392  28.868  1.00  0.00     0.060 A 
ATOM     32  C   UNL A   1      36.840  32.272  29.077  1.00  0.00     0.016 A 
ATOM     33  C   UNL A   1      35.976  30.007  28.818  1.00  0.00     0.016 A 
ATOM     34  C   UNL A   1      38.131  31.765  29.133  1.00  0.00     0.010 A 
ATOM     35  C   UNL A   1      37.267  29.504  28.862  1.00  0.00     0.010 A 
ATOM     36  C   UNL A   1      38.345  30.387  28.978  1.00  0.00    -0.014 A 
BRANCH  36  37
ATOM     37  C   UNL A   1      39.710  29.888  29.144  1.00  0.00     0.031 A 
ATOM     38  C   UNL A   1      40.183  29.903  30.555  1.00  0.00     0.074 A 
ATOM     39  C   UNL A   1      40.433  29.283  28.181  1.00  0.00     0.049 A 
ATOM     40  N   UNL A   1      41.232  30.470  31.057  1.00  0.00    -0.248 NA
ATOM     41  C   UNL A   1      39.301  29.276  31.555  1.00  0.00     0.031 C 
ATOM     42  C   UNL A   1      39.982  28.891  26.845  1.00  0.00     0.029 A 
ATOM     43  N   UNL A   1      41.700  28.774  28.245  1.00  0.00    -0.354 N 
ATOM     44  C   UNL A   1      41.244  30.108  32.402  1.00  0.00     0.074 A 
ATOM     45  C   UNL A   1      39.965  29.513  32.684  1.00  0.00     0.031 C 
ATOM     46  C   UNL A   1      40.875  28.027  26.314  1.00  0.00     0.029 A 
ATOM     47  C   UNL A   1      42.003  27.885  27.222  1.00  0.00     0.049 A 
ATOM     48  H   UNL A   1      42.340  29.016  28.953  1.00  0.00     0.167 HD
ATOM     49  C   UNL A   1      42.377  30.115  33.151  1.00  0.00     0.037 A 
ATOM     50  C   UNL A   1      43.055  27.027  27.172  1.00  0.00     0.037 A 
ATOM     51  C   UNL A   1      43.409  30.924  32.567  1.00  0.00     0.049 A 
ATOM     52  C   UNL A   1      44.082  27.512  28.129  1.00  0.00     0.074 A 
ATOM     53  C   UNL A   1      43.537  32.260  32.246  1.00  0.00     0.029 A 
ATOM     54  N   UNL A   1      44.442  30.278  31.938  1.00  0.00    -0.354 N 
ATOM     55  N   UNL A   1      44.778  28.605  27.987  1.00  0.00    -0.248 NA
ATOM     56  C   UNL A   1      44.127  26.914  29.457  1.00  0.00     0.031 C 
ATOM     57  C   UNL A   1      44.391  32.297  31.108  1.00  0.00     0.029 A 
ATOM     58  C   UNL A   1      44.748  30.982  30.803  1.00  0.00     0.049 A 
ATOM     59  H   UNL A   1      44.885  29.455  32.247  1.00  0.00     0.167 HD
ATOM     60  C   UNL A   1      45.018  29.043  29.278  1.00  0.00     0.074 A 
ATOM     61  C   UNL A   1      44.720  27.901  30.131  1.00  0.00     0.031 C 
ATOM     62  C   UNL A   1      45.164  30.371  29.557  1.00  0.00     0.037 A 
BRANCH  49  63
ATOM     63  C   UNL A   1      42.655  29.109  34.242  1.00  0.00     0.058 A 
ATOM     64  C   UNL A   1      42.758  27.741  33.924  1.00  0.00     0.135 A 
ATOM     65  C   UNL A   1      42.549  29.411  35.620  1.00  0.00     0.135 A 
ATOM     66  F   UNL A   1      42.837  27.341  32.645  1.00  0.00    -0.206 F 
ATOM     67  C   UNL A   1      42.705  26.744  34.899  1.00  0.00     0.059 A 
ATOM     68  C   UNL A   1      42.556  28.437  36.610  1.00  0.00     0.059 A 
ATOM     69  F   UNL A   1      42.332  30.656  36.061  1.00  0.00    -0.206 F 
ATOM     70  C   UNL A   1      42.589  27.105  36.239  1.00  0.00     0.060 A 
BRANCH  70  71
ATOM     71  S   UNL A   1      42.402  25.824  37.491  1.00  0.00     0.124 S 
ATOM     72  O   UNL A   1      43.299  26.307  38.534  1.00  0.00    -0.237 OA
ATOM     73  O   UNL A   1      40.975  25.895  37.789  1.00  0.00    -0.237 OA
ATOM     74  O   UNL A   1      42.831  24.613  36.797  1.00  0.00    -0.744 OA
ENDBRANCH  70  71
ENDBRANCH  49  63
BRANCH  50  75
ATOM     75  C   UNL A   1      43.121  25.662  26.576  1.00  0.00     0.058 A 
ATOM     76  C   UNL A   1      43.812  25.434  25.371  1.00  0.00     0.135 A 
ATOM     77  C   UNL A   1      42.759  24.512  27.305  1.00  0.00     0.135 A 
ATOM     78  F   UNL A   1      44.212  26.469  24.614  1.00  0.00    -0.206 F 
ATOM     79  C   UNL A   1      44.182  24.154  24.950  1.00  0.00     0.059 A 
ATOM     80  C   UNL A   1      43.098  23.223  26.895  1.00  0.00     0.059 A 
ATOM     81  F   UNL A   1      42.149  24.603  28.495  1.00  0.00    -0.206 F 
ATOM     82  C   UNL A   1      43.841  23.053  25.734  1.00  0.00     0.060 A 
BRANCH  82  83
ATOM     83  S   UNL A   1      44.485  21.420  25.302  1.00  0.00     0.124 S 
ATOM     84  O   UNL A   1      43.451  20.537  25.832  1.00  0.00    -0.237 OA
ATOM     85  O   UNL A   1      44.570  21.502  23.848  1.00  0.00    -0.237 OA
ATOM     86  O   UNL A   1      45.767  21.367  25.997  1.00  0.00    -0.744 OA
ENDBRANCH  82  83
ENDBRANCH  50  75
BRANCH  62  87
ATOM     87  C   UNL A   1      45.513  31.307  28.434  1.00  0.00     0.058 A 
ATOM     88  C   UNL A   1      44.590  31.806  27.499  1.00  0.00     0.135 A 
ATOM     89  C   UNL A   1      46.808  31.852  28.418  1.00  0.00     0.135 A 
ATOM     90  F   UNL A   1      43.310  31.406  27.511  1.00  0.00    -0.206 F 
ATOM     91  C   UNL A   1      44.947  32.791  26.576  1.00  0.00     0.059 A 
ATOM     92  C   UNL A   1      47.174  32.857  27.529  1.00  0.00     0.059 A 
ATOM     93  F   UNL A   1      47.717  31.452  29.322  1.00  0.00    -0.206 F 
ATOM     94  C   UNL A   1      46.238  33.320  26.608  1.00  0.00     0.060 A 
BRANCH  94  95
ATOM     95  S   UNL A   1      46.651  34.690  25.506  1.00  0.00     0.124 S 
ATOM     96  O   UNL A   1      48.035  34.391  25.148  1.00  0.00    -0.237 OA
ATOM     97  O   UNL A   1      45.672  34.541  24.433  1.00  0.00    -0.237 OA
ATOM     98  O   UNL A   1      46.466  35.872  26.345  1.00  0.00    -0.744 OA
ENDBRANCH  94  95
ENDBRANCH  62  87
ENDBRANCH  36  37
ENDBRANCH  29  31
ENDBRANCH  28  29
ENDBRANCH  27  28
ENDBRANCH   1  27
TORSDOF 20
ENDMDL
MODEL 3
REMARK VINA RESULT:     -10.3      4.349     11.606
REMARK SMILES CCc1cccc2c3c([nH]c12)[C@](CC)(CC(=O)OCCOCCOC(=O)c1ccc(-c2c4nc(c(-c5c(F)cc(S(=O)(=O)[O-])cc5F)c5ccc([nH]5)c(-c5c(F)cc(S(=O)(=O)[O-])cc5F)c5nc(c(-c6c(F)cc(S(=O)(=O)[O-])cc6F)c6ccc2[nH]6)C=C5)C=C4)cc1)OCC3
REMARK SMILES IDX 22 1 21 2 20 3 19 4 18 5 16 6 17 7 15 8 12 9 3 10 4 11 11 12
REMARK SMILES IDX 5 13 7 14 10 15 6 16 8 17 9 18 95 20 94 21 93 22 2 23 1 24
REMARK SMILES IDX 13 25 14 26 23 27 24 28 25 29 26 30 27 31 28 32 92 33 29 34
REMARK SMILES IDX 91 35 30 36 31 37 32 38 85 39 33 40 90 41 84 42 86 43 34 44
REMARK SMILES IDX 89 45 83 46 82 47 35 49 69 50 48 51 68 52 49 53 52 54 67 55
REMARK SMILES IDX 87 56 50 57 51 58 66 60 88 61 53 62 36 63 37 64 46 65 38 66
REMARK SMILES IDX 39 67 45 68 47 69 40 70 41 71 42 72 43 73 44 74 70 75 71 76
REMARK SMILES IDX 80 77 72 78 73 79 79 80 81 81 74 82 75 83 76 84 77 85 78 86
REMARK SMILES IDX 54 87 55 88 64 89 56 90 57 91 63 92 65 93 58 94 59 95 60 96
REMARK SMILES IDX 61 97 62 98
REMARK H PARENT 10 19 86 48 52 59
REMARK Flexibility Score: inf
ROOT
ATOM      1  C   UNL A   1      41.962  20.175  27.233  1.00  0.00     0.202 C 
ENDROOT
BRANCH   1   2
ATOM      2  O   UNL A   1      41.337  21.430  26.962  1.00  0.00    -0.374 OA
BRANCH   2   3
ATOM      3  C   UNL A   1      40.136  21.426  26.199  1.00  0.00     0.202 C 
BRANCH   3   4
ATOM      4  C   UNL A   1      39.084  22.513  26.470  1.00  0.00     0.261 C 
BRANCH   4   5
ATOM      5  O   UNL A   1      38.141  22.773  25.409  1.00  0.00    -0.463 OA
BRANCH   5   6
ATOM      6  C   UNL A   1      37.109  21.901  25.345  1.00  0.00     0.309 C 
ATOM      7  O   UNL A   1      36.975  21.064  24.452  1.00  0.00    -0.252 OA
BRANCH   6   8
ATOM      8  C   UNL A   1      35.995  22.119  26.338  1.00  0.00     0.164 C 
BRANCH   8   9
ATOM      9  C   UNL A   1      34.486  22.218  26.051  1.00  0.00     0.118 C 
ATOM     10  C   UNL A   1      33.528  26.329  23.232  1.00  0.00    -0.024 A 
ATOM     11  C   UNL A   1      33.076  26.475  21.902  1.00  0.00     0.006 A 
ATOM     12  C   UNL A   1      33.635  25.006  23.713  1.00  0.00     0.049 A 
ATOM     13  C   UNL A   1      32.651  25.389  21.144  1.00  0.00     0.001 A 
ATOM     14  C   UNL A   1      33.153  23.909  22.992  1.00  0.00     0.003 A 
ATOM     15  N   UNL A   1      34.174  24.506  24.888  1.00  0.00    -0.356 N 
ATOM     16  C   UNL A   1      32.633  24.109  21.698  1.00  0.00     0.010 A 
ATOM     17  C   UNL A   1      33.319  22.771  23.820  1.00  0.00    -0.014 A 
ATOM     18  C   UNL A   1      34.053  23.138  24.930  1.00  0.00     0.052 A 
ATOM     19  H   UNL A   1      34.587  25.054  25.594  1.00  0.00     0.166 HD
ATOM     20  C   UNL A   1      32.853  21.375  23.654  1.00  0.00     0.066 C 
ATOM     21  C   UNL A   1      33.753  20.463  24.491  1.00  0.00     0.166 C 
ATOM     22  O   UNL A   1      33.890  20.911  25.843  1.00  0.00    -0.368 OA
BRANCH  10  23
ATOM     23  C   UNL A   1      33.805  27.564  24.054  1.00  0.00     0.034 C 
ATOM     24  C   UNL A   1      34.187  28.743  23.159  1.00  0.00     0.009 C 
ENDBRANCH  10  23
BRANCH   9  25
ATOM     25  C   UNL A   1      33.793  22.715  27.366  1.00  0.00     0.039 C 
ATOM     26  C   UNL A   1      32.279  22.905  27.258  1.00  0.00     0.007 C 
ENDBRANCH   9  25
ENDBRANCH   8   9
ENDBRANCH   6   8
ENDBRANCH   5   6
ENDBRANCH   4   5
ENDBRANCH   3   4
ENDBRANCH   2   3
ENDBRANCH   1   2
BRANCH   1  27
ATOM     27  C   UNL A   1      42.669  19.479  26.065  1.00  0.00     0.261 C 
BRANCH  27  28
ATOM     28  O   UNL A   1      42.982  20.422  25.032  1.00  0.00    -0.460 OA
BRANCH  28  29
ATOM     29  C   UNL A   1      44.300  20.755  24.970  1.00  0.00     0.338 C 
ATOM     30  O   UNL A   1      45.168  20.229  24.315  1.00  0.00    -0.246 OA
BRANCH  29  31
ATOM     31  C   UNL A   1      44.345  22.121  25.521  1.00  0.00     0.060 A 
ATOM     32  C   UNL A   1      45.012  22.403  26.715  1.00  0.00     0.016 A 
ATOM     33  C   UNL A   1      43.435  23.027  24.963  1.00  0.00     0.016 A 
ATOM     34  C   UNL A   1      44.684  23.558  27.410  1.00  0.00     0.010 A 
ATOM     35  C   UNL A   1      43.100  24.174  25.666  1.00  0.00     0.010 A 
ATOM     36  C   UNL A   1      43.695  24.417  26.908  1.00  0.00    -0.014 A 
BRANCH  36  37
ATOM     37  C   UNL A   1      43.456  25.670  27.623  1.00  0.00     0.031 A 
ATOM     38  C   UNL A   1      44.520  26.691  27.412  1.00  0.00     0.074 A 
ATOM     39  C   UNL A   1      42.312  25.990  28.259  1.00  0.00     0.049 A 
ATOM     40  N   UNL A   1      45.240  27.310  28.290  1.00  0.00    -0.248 NA
ATOM     41  C   UNL A   1      44.891  26.979  26.016  1.00  0.00     0.031 C 
ATOM     42  C   UNL A   1      41.058  25.235  28.265  1.00  0.00     0.029 A 
ATOM     43  N   UNL A   1      41.991  27.133  28.936  1.00  0.00    -0.354 N 
ATOM     44  C   UNL A   1      46.020  28.208  27.565  1.00  0.00     0.074 A 
ATOM     45  C   UNL A   1      45.881  27.855  26.178  1.00  0.00     0.031 C 
ATOM     46  C   UNL A   1      40.066  26.031  28.722  1.00  0.00     0.029 A 
ATOM     47  C   UNL A   1      40.627  27.308  29.134  1.00  0.00     0.049 A 
ATOM     48  H   UNL A   1      42.666  27.775  29.255  1.00  0.00     0.167 HD
ATOM     49  C   UNL A   1      46.559  29.324  28.123  1.00  0.00     0.037 A 
ATOM     50  C   UNL A   1      40.000  28.449  29.518  1.00  0.00     0.037 A 
ATOM     51  C   UNL A   1      46.616  29.242  29.554  1.00  0.00     0.049 A 
ATOM     52  C   UNL A   1      41.010  29.334  30.151  1.00  0.00     0.074 A 
ATOM     53  C   UNL A   1      47.243  28.410  30.460  1.00  0.00     0.029 A 
ATOM     54  N   UNL A   1      45.689  29.957  30.268  1.00  0.00    -0.354 N 
ATOM     55  N   UNL A   1      41.597  29.099  31.292  1.00  0.00    -0.248 NA
ATOM     56  C   UNL A   1      41.623  30.377  29.340  1.00  0.00     0.031 C 
ATOM     57  C   UNL A   1      46.382  28.365  31.592  1.00  0.00     0.029 A 
ATOM     58  C   UNL A   1      45.282  29.181  31.322  1.00  0.00     0.049 A 
ATOM     59  H   UNL A   1      45.372  30.866  30.061  1.00  0.00     0.167 HD
ATOM     60  C   UNL A   1      42.854  29.668  31.168  1.00  0.00     0.074 A 
ATOM     61  C   UNL A   1      42.760  30.551  30.014  1.00  0.00     0.031 C 
ATOM     62  C   UNL A   1      43.928  29.159  31.837  1.00  0.00     0.037 A 
BRANCH  49  63
ATOM     63  C   UNL A   1      46.718  30.627  27.377  1.00  0.00     0.058 A 
ATOM     64  C   UNL A   1      47.980  31.250  27.315  1.00  0.00     0.135 A 
ATOM     65  C   UNL A   1      45.623  31.419  26.961  1.00  0.00     0.135 A 
ATOM     66  F   UNL A   1      49.084  30.597  27.712  1.00  0.00    -0.206 F 
ATOM     67  C   UNL A   1      48.135  32.579  26.919  1.00  0.00     0.059 A 
ATOM     68  C   UNL A   1      45.763  32.724  26.505  1.00  0.00     0.059 A 
ATOM     69  F   UNL A   1      44.357  31.000  27.072  1.00  0.00    -0.206 F 
ATOM     70  C   UNL A   1      47.016  33.311  26.530  1.00  0.00     0.060 A 
BRANCH  70  71
ATOM     71  S   UNL A   1      47.192  35.058  26.131  1.00  0.00     0.124 S 
ATOM     72  O   UNL A   1      45.800  35.457  25.966  1.00  0.00    -0.237 OA
ATOM     73  O   UNL A   1      47.871  35.574  27.315  1.00  0.00    -0.237 OA
ATOM     74  O   UNL A   1      47.996  35.043  24.912  1.00  0.00    -0.744 OA
ENDBRANCH  70  71
ENDBRANCH  49  63
BRANCH  50  75
ATOM     75  C   UNL A   1      38.654  28.955  29.120  1.00  0.00     0.058 A 
ATOM     76  C   UNL A   1      37.649  29.164  30.083  1.00  0.00     0.135 A 
ATOM     77  C   UNL A   1      38.413  29.512  27.848  1.00  0.00     0.135 A 
ATOM     78  F   UNL A   1      37.795  28.685  31.329  1.00  0.00    -0.206 F 
ATOM     79  C   UNL A   1      36.510  29.932  29.823  1.00  0.00     0.059 A 
ATOM     80  C   UNL A   1      37.275  30.264  27.558  1.00  0.00     0.059 A 
ATOM     81  F   UNL A   1      39.323  29.429  26.867  1.00  0.00    -0.206 F 
ATOM     82  C   UNL A   1      36.345  30.500  28.561  1.00  0.00     0.060 A 
BRANCH  82  83
ATOM     83  S   UNL A   1      34.981  31.654  28.277  1.00  0.00     0.124 S 
ATOM     84  O   UNL A   1      34.581  31.989  29.639  1.00  0.00    -0.237 OA
ATOM     85  O   UNL A   1      35.636  32.718  27.524  1.00  0.00    -0.237 OA
ATOM     86  O   UNL A   1      34.018  30.859  27.521  1.00  0.00    -0.744 OA
ENDBRANCH  82  83
ENDBRANCH  50  75
BRANCH  62  87
ATOM     87  C   UNL A   1      43.680  28.286  33.036  1.00  0.00     0.058 A 
ATOM     88  C   UNL A   1      43.416  28.769  34.329  1.00  0.00     0.135 A 
ATOM     89  C   UNL A   1      43.534  26.906  32.819  1.00  0.00     0.135 A 
ATOM     90  F   UNL A   1      43.442  30.083  34.595  1.00  0.00    -0.206 F 
ATOM     91  C   UNL A   1      43.042  27.911  35.365  1.00  0.00     0.059 A 
ATOM     92  C   UNL A   1      43.129  26.039  33.828  1.00  0.00     0.059 A 
ATOM     93  F   UNL A   1      43.721  26.394  31.591  1.00  0.00    -0.206 F 
ATOM     94  C   UNL A   1      42.888  26.549  35.102  1.00  0.00     0.060 A 
BRANCH  94  95
ATOM     95  S   UNL A   1      42.269  25.467  36.409  1.00  0.00     0.124 S 
ATOM     96  O   UNL A   1      42.720  24.154  35.960  1.00  0.00    -0.237 OA
ATOM     97  O   UNL A   1      42.933  25.994  37.598  1.00  0.00    -0.237 OA
ATOM     98  O   UNL A   1      40.823  25.677  36.371  1.00  0.00    -0.744 OA
ENDBRANCH  94  95
ENDBRANCH  62  87
ENDBRANCH  36  37
ENDBRANCH  29  31
ENDBRANCH  28  29
ENDBRANCH  27  28
ENDBRANCH   1  27
TORSDOF 20
ENDMDL
