MODEL 1
REMARK VINA RESULT:     -11.2      0.000      0.000
REMARK SMILES CC1=C2C(=O)CC(C)(C)CC2=N[C@@H]1C(=O)OCCOCCOC(=O)c1ccc(-c2c3nc(c(-c4c(F)cc(S(=O)(=O)[O-])cc4F)c4ccc([nH]4)c(-c4c(F)cc(S(=O)(=O)[O-])cc4F)c4nc(c(-c5c(F)cc(S(=O)(=O)[O-])cc5F)c5ccc2[nH]5)C=C4)C=C3)cc1
REMARK SMILES IDX 20 1 19 2 18 3 17 4 16 5 14 6 15 7 13 8 1 9 2 10 3 11 4 12
REMARK SMILES IDX 11 13 12 14 5 15 6 16 10 17 7 18 8 19 9 20 21 21 22 22 23 23
REMARK SMILES IDX 24 24 25 25 26 26 90 27 27 28 89 29 28 30 29 31 30 32 83 33
REMARK SMILES IDX 31 34 88 35 82 36 84 37 32 38 87 39 81 40 80 41 33 43 67 44
REMARK SMILES IDX 46 45 66 46 47 47 50 48 65 49 85 50 48 51 49 52 64 54 86 55
REMARK SMILES IDX 51 56 34 57 35 58 44 59 36 60 37 61 43 62 45 63 38 64 39 65
REMARK SMILES IDX 40 66 41 67 42 68 68 69 69 70 78 71 70 72 71 73 77 74 79 75
REMARK SMILES IDX 72 76 73 77 74 78 75 79 76 80 52 81 53 82 62 83 54 84 55 85
REMARK SMILES IDX 61 86 63 87 56 88 57 89 58 90 59 91 60 92
REMARK H PARENT 84 42 50 53
REMARK Flexibility Score: inf
ROOT
ATOM      1  C   UNL A   1      42.310  20.276  26.202  1.00  0.00     0.202 C 
ENDROOT
BRANCH   1   2
ATOM      2  O   UNL A   1      42.519  19.207  25.281  1.00  0.00    -0.374 OA
BRANCH   2   3
ATOM      3  C   UNL A   1      43.864  18.827  24.977  1.00  0.00     0.202 C 
BRANCH   3   4
ATOM      4  C   UNL A   1      44.907  19.939  25.064  1.00  0.00     0.261 C 
BRANCH   4   5
ATOM      5  O   UNL A   1      44.789  20.814  23.931  1.00  0.00    -0.461 OA
BRANCH   5   6
ATOM      6  C   UNL A   1      44.748  22.148  24.199  1.00  0.00     0.335 C 
ATOM      7  O   UNL A   1      43.816  22.892  23.907  1.00  0.00    -0.249 OA
BRANCH   6   8
ATOM      8  C   UNL A   1      46.027  22.642  24.897  1.00  0.00     0.242 C 
ATOM      9  C   UNL A   1      44.657  22.906  27.118  1.00  0.00     0.043 C 
ATOM     10  C   UNL A   1      45.800  23.272  26.241  1.00  0.00    -0.025 C 
ATOM     11  C   UNL A   1      46.586  24.343  26.390  1.00  0.00     0.040 C 
ATOM     12  C   UNL A   1      46.712  25.349  27.457  1.00  0.00     0.165 C 
ATOM     13  C   UNL A   1      46.819  24.664  24.986  1.00  0.00     0.048 C 
ATOM     14  N   UNL A   1      46.681  23.727  24.098  1.00  0.00    -0.269 NA
ATOM     15  O   UNL A   1      46.902  25.004  28.620  1.00  0.00    -0.294 OA
ATOM     16  C   UNL A   1      46.666  26.809  27.031  1.00  0.00     0.088 C 
ATOM     17  C   UNL A   1      46.982  26.109  24.632  1.00  0.00     0.063 C 
ATOM     18  C   UNL A   1      46.129  26.991  25.590  1.00  0.00    -0.023 C 
ATOM     19  C   UNL A   1      44.614  26.649  25.555  1.00  0.00     0.012 C 
ATOM     20  C   UNL A   1      46.257  28.458  25.150  1.00  0.00     0.012 C 
ENDBRANCH   6   8
ENDBRANCH   5   6
ENDBRANCH   4   5
ENDBRANCH   3   4
ENDBRANCH   2   3
ENDBRANCH   1   2
BRANCH   1  21
ATOM     21  C   UNL A   1      40.868  20.622  26.554  1.00  0.00     0.261 C 
BRANCH  21  22
ATOM     22  O   UNL A   1      40.760  21.820  27.309  1.00  0.00    -0.460 OA
BRANCH  22  23
ATOM     23  C   UNL A   1      39.873  22.731  26.857  1.00  0.00     0.338 C 
ATOM     24  O   UNL A   1      38.791  22.511  26.310  1.00  0.00    -0.246 OA
BRANCH  23  25
ATOM     25  C   UNL A   1      40.498  24.051  26.967  1.00  0.00     0.060 A 
ATOM     26  C   UNL A   1      41.564  24.187  27.852  1.00  0.00     0.016 A 
ATOM     27  C   UNL A   1      39.828  25.167  26.450  1.00  0.00     0.016 A 
ATOM     28  C   UNL A   1      41.780  25.426  28.411  1.00  0.00     0.010 A 
ATOM     29  C   UNL A   1      40.004  26.392  27.040  1.00  0.00     0.010 A 
ATOM     30  C   UNL A   1      40.921  26.480  28.076  1.00  0.00    -0.014 A 
BRANCH  30  31
ATOM     31  C   UNL A   1      41.046  27.714  28.812  1.00  0.00     0.031 A 
ATOM     32  C   UNL A   1      42.147  28.563  28.326  1.00  0.00     0.074 A 
ATOM     33  C   UNL A   1      40.181  28.079  29.773  1.00  0.00     0.049 A 
ATOM     34  N   UNL A   1      43.299  28.753  28.875  1.00  0.00    -0.248 NA
ATOM     35  C   UNL A   1      42.030  29.097  26.960  1.00  0.00     0.031 C 
ATOM     36  C   UNL A   1      38.879  27.494  30.100  1.00  0.00     0.029 A 
ATOM     37  N   UNL A   1      40.262  29.141  30.611  1.00  0.00    -0.354 N 
ATOM     38  C   UNL A   1      43.964  29.631  28.029  1.00  0.00     0.074 A 
ATOM     39  C   UNL A   1      43.249  29.606  26.782  1.00  0.00     0.031 C 
ATOM     40  C   UNL A   1      38.208  28.343  30.913  1.00  0.00     0.029 A 
ATOM     41  C   UNL A   1      39.078  29.455  31.259  1.00  0.00     0.049 A 
ATOM     42  H   UNL A   1      41.096  29.648  30.749  1.00  0.00     0.167 HD
ATOM     43  C   UNL A   1      44.876  30.516  28.516  1.00  0.00     0.037 A 
ATOM     44  C   UNL A   1      38.834  30.603  31.941  1.00  0.00     0.037 A 
ATOM     45  C   UNL A   1      45.311  30.135  29.839  1.00  0.00     0.049 A 
ATOM     46  C   UNL A   1      40.157  31.205  32.277  1.00  0.00     0.074 A 
ATOM     47  C   UNL A   1      45.910  29.010  30.375  1.00  0.00     0.029 A 
ATOM     48  N   UNL A   1      44.794  30.830  30.908  1.00  0.00    -0.354 N 
ATOM     49  N   UNL A   1      41.015  30.672  33.105  1.00  0.00    -0.248 NA
ATOM     50  C   UNL A   1      40.721  32.171  31.344  1.00  0.00     0.031 C 
ATOM     51  C   UNL A   1      45.324  28.854  31.665  1.00  0.00     0.029 A 
ATOM     52  C   UNL A   1      44.441  29.917  31.868  1.00  0.00     0.049 A 
ATOM     53  H   UNL A   1      44.696  31.808  30.973  1.00  0.00     0.167 HD
ATOM     54  C   UNL A   1      42.262  30.914  32.542  1.00  0.00     0.074 A 
ATOM     55  C   UNL A   1      42.023  31.918  31.510  1.00  0.00     0.031 C 
ATOM     56  C   UNL A   1      43.318  30.076  32.767  1.00  0.00     0.037 A 
BRANCH  43  57
ATOM     57  C   UNL A   1      45.062  31.916  27.973  1.00  0.00     0.058 A 
ATOM     58  C   UNL A   1      46.355  32.322  27.581  1.00  0.00     0.135 A 
ATOM     59  C   UNL A   1      44.111  32.955  28.091  1.00  0.00     0.135 A 
ATOM     60  F   UNL A   1      47.335  31.419  27.419  1.00  0.00    -0.206 F 
ATOM     61  C   UNL A   1      46.703  33.664  27.435  1.00  0.00     0.059 A 
ATOM     62  C   UNL A   1      44.422  34.293  27.892  1.00  0.00     0.059 A 
ATOM     63  F   UNL A   1      42.855  32.754  28.502  1.00  0.00    -0.206 F 
ATOM     64  C   UNL A   1      45.732  34.643  27.621  1.00  0.00     0.060 A 
BRANCH  64  65
ATOM     65  S   UNL A   1      46.201  36.378  27.592  1.00  0.00     0.124 S 
ATOM     66  O   UNL A   1      46.636  36.579  28.969  1.00  0.00    -0.237 OA
ATOM     67  O   UNL A   1      47.251  36.390  26.578  1.00  0.00    -0.237 OA
ATOM     68  O   UNL A   1      44.963  37.053  27.214  1.00  0.00    -0.744 OA
ENDBRANCH  64  65
ENDBRANCH  43  57
BRANCH  44  69
ATOM     69  C   UNL A   1      37.562  31.374  31.981  1.00  0.00     0.058 A 
ATOM     70  C   UNL A   1      36.979  31.752  33.203  1.00  0.00     0.135 A 
ATOM     71  C   UNL A   1      37.034  31.991  30.827  1.00  0.00     0.135 A 
ATOM     72  F   UNL A   1      37.433  31.234  34.355  1.00  0.00    -0.206 F 
ATOM     73  C   UNL A   1      35.968  32.717  33.282  1.00  0.00     0.059 A 
ATOM     74  C   UNL A   1      36.017  32.941  30.880  1.00  0.00     0.059 A 
ATOM     75  F   UNL A   1      37.554  31.759  29.613  1.00  0.00    -0.206 F 
ATOM     76  C   UNL A   1      35.507  33.321  32.113  1.00  0.00     0.060 A 
BRANCH  76  77
ATOM     77  S   UNL A   1      34.331  34.690  32.218  1.00  0.00     0.124 S 
ATOM     78  O   UNL A   1      34.148  35.037  30.813  1.00  0.00    -0.237 OA
ATOM     79  O   UNL A   1      33.189  34.066  32.877  1.00  0.00    -0.237 OA
ATOM     80  O   UNL A   1      35.041  35.685  33.018  1.00  0.00    -0.744 OA
ENDBRANCH  76  77
ENDBRANCH  44  69
BRANCH  56  81
ATOM     81  C   UNL A   1      43.211  29.075  33.889  1.00  0.00     0.058 A 
ATOM     82  C   UNL A   1      43.599  29.329  35.217  1.00  0.00     0.135 A 
ATOM     83  C   UNL A   1      42.532  27.873  33.637  1.00  0.00     0.135 A 
ATOM     84  F   UNL A   1      44.159  30.498  35.560  1.00  0.00    -0.206 F 
ATOM     85  C   UNL A   1      43.352  28.413  36.240  1.00  0.00     0.059 A 
ATOM     86  C   UNL A   1      42.247  26.960  34.649  1.00  0.00     0.059 A 
ATOM     87  F   UNL A   1      42.081  27.602  32.402  1.00  0.00    -0.206 F 
ATOM     88  C   UNL A   1      42.669  27.231  35.948  1.00  0.00     0.060 A 
BRANCH  88  89
ATOM     89  S   UNL A   1      42.263  26.092  37.289  1.00  0.00     0.124 S 
ATOM     90  O   UNL A   1      40.826  26.295  37.439  1.00  0.00    -0.237 OA
ATOM     91  O   UNL A   1      42.668  24.800  36.742  1.00  0.00    -0.237 OA
ATOM     92  O   UNL A   1      43.080  26.571  38.402  1.00  0.00    -0.744 OA
ENDBRANCH  88  89
ENDBRANCH  56  81
ENDBRANCH  30  31
ENDBRANCH  23  25
ENDBRANCH  22  23
ENDBRANCH  21  22
ENDBRANCH   1  21
TORSDOF 17
ENDMDL
MODEL 2
REMARK VINA RESULT:     -10.9      3.601      6.542
REMARK SMILES CC1=C2C(=O)CC(C)(C)CC2=N[C@@H]1C(=O)OCCOCCOC(=O)c1ccc(-c2c3nc(c(-c4c(F)cc(S(=O)(=O)[O-])cc4F)c4ccc([nH]4)c(-c4c(F)cc(S(=O)(=O)[O-])cc4F)c4nc(c(-c5c(F)cc(S(=O)(=O)[O-])cc5F)c5ccc2[nH]5)C=C4)C=C3)cc1
REMARK SMILES IDX 20 1 19 2 18 3 17 4 16 5 14 6 15 7 13 8 1 9 2 10 3 11 4 12
REMARK SMILES IDX 11 13 12 14 5 15 6 16 10 17 7 18 8 19 9 20 21 21 22 22 23 23
REMARK SMILES IDX 24 24 25 25 26 26 90 27 27 28 89 29 28 30 29 31 30 32 83 33
REMARK SMILES IDX 31 34 88 35 82 36 84 37 32 38 87 39 81 40 80 41 33 43 67 44
REMARK SMILES IDX 46 45 66 46 47 47 50 48 65 49 85 50 48 51 49 52 64 54 86 55
REMARK SMILES IDX 51 56 34 57 35 58 44 59 36 60 37 61 43 62 45 63 38 64 39 65
REMARK SMILES IDX 40 66 41 67 42 68 68 69 69 70 78 71 70 72 71 73 77 74 79 75
REMARK SMILES IDX 72 76 73 77 74 78 75 79 76 80 52 81 53 82 62 83 54 84 55 85
REMARK SMILES IDX 61 86 63 87 56 88 57 89 58 90 59 91 60 92
REMARK H PARENT 84 42 50 53
REMARK Flexibility Score: inf
ROOT
ATOM      1  C   UNL A   1      42.059  20.380  26.818  1.00  0.00     0.202 C 
ENDROOT
BRANCH   1   2
ATOM      2  O   UNL A   1      41.132  21.208  26.117  1.00  0.00    -0.374 OA
BRANCH   2   3
ATOM      3  C   UNL A   1      39.963  21.654  26.811  1.00  0.00     0.202 C 
BRANCH   3   4
ATOM      4  C   UNL A   1      38.929  22.396  25.966  1.00  0.00     0.261 C 
BRANCH   4   5
ATOM      5  O   UNL A   1      37.648  21.760  26.085  1.00  0.00    -0.461 OA
BRANCH   5   6
ATOM      6  C   UNL A   1      36.650  22.259  25.305  1.00  0.00     0.335 C 
ATOM      7  O   UNL A   1      36.428  21.916  24.147  1.00  0.00    -0.249 OA
BRANCH   6   8
ATOM      8  C   UNL A   1      35.825  23.336  26.032  1.00  0.00     0.242 C 
ATOM      9  C   UNL A   1      34.160  21.467  26.815  1.00  0.00     0.043 C 
ATOM     10  C   UNL A   1      34.466  22.883  26.481  1.00  0.00    -0.025 C 
ATOM     11  C   UNL A   1      33.565  23.849  26.281  1.00  0.00     0.040 C 
ATOM     12  C   UNL A   1      32.106  23.909  26.468  1.00  0.00     0.165 C 
ATOM     13  C   UNL A   1      34.246  24.595  25.228  1.00  0.00     0.048 C 
ATOM     14  N   UNL A   1      35.535  24.486  25.118  1.00  0.00    -0.269 NA
ATOM     15  O   UNL A   1      31.603  23.616  27.549  1.00  0.00    -0.294 OA
ATOM     16  C   UNL A   1      31.285  24.414  25.290  1.00  0.00     0.088 C 
ATOM     17  C   UNL A   1      33.390  25.262  24.197  1.00  0.00     0.063 C 
ATOM     18  C   UNL A   1      32.092  24.434  23.969  1.00  0.00    -0.023 C 
ATOM     19  C   UNL A   1      32.365  22.977  23.505  1.00  0.00     0.012 C 
ATOM     20  C   UNL A   1      31.275  25.102  22.851  1.00  0.00     0.012 C 
ENDBRANCH   6   8
ENDBRANCH   5   6
ENDBRANCH   4   5
ENDBRANCH   3   4
ENDBRANCH   2   3
ENDBRANCH   1   2
BRANCH   1  21
ATOM     21  C   UNL A   1      42.919  19.437  25.985  1.00  0.00     0.261 C 
BRANCH  21  22
ATOM     22  O   UNL A   1      43.326  20.011  24.752  1.00  0.00    -0.460 OA
BRANCH  22  23
ATOM     23  C   UNL A   1      44.650  20.223  24.601  1.00  0.00     0.338 C 
ATOM     24  O   UNL A   1      45.533  19.372  24.482  1.00  0.00    -0.246 OA
BRANCH  23  25
ATOM     25  C   UNL A   1      44.893  21.657  24.782  1.00  0.00     0.060 A 
ATOM     26  C   UNL A   1      45.814  22.036  25.753  1.00  0.00     0.016 A 
ATOM     27  C   UNL A   1      43.991  22.575  24.228  1.00  0.00     0.016 A 
ATOM     28  C   UNL A   1      45.651  23.267  26.347  1.00  0.00     0.010 A 
ATOM     29  C   UNL A   1      43.791  23.780  24.849  1.00  0.00     0.010 A 
ATOM     30  C   UNL A   1      44.571  24.068  25.959  1.00  0.00    -0.014 A 
BRANCH  30  31
ATOM     31  C   UNL A   1      44.308  25.264  26.721  1.00  0.00     0.031 A 
ATOM     32  C   UNL A   1      45.336  26.303  26.532  1.00  0.00     0.074 A 
ATOM     33  C   UNL A   1      43.190  25.434  27.446  1.00  0.00     0.049 A 
ATOM     34  N   UNL A   1      46.274  26.643  27.350  1.00  0.00    -0.248 NA
ATOM     35  C   UNL A   1      45.461  26.886  25.188  1.00  0.00     0.031 C 
ATOM     36  C   UNL A   1      41.964  24.632  27.435  1.00  0.00     0.029 A 
ATOM     37  N   UNL A   1      42.890  26.448  28.295  1.00  0.00    -0.354 N 
ATOM     38  C   UNL A   1      46.965  27.661  26.706  1.00  0.00     0.074 A 
ATOM     39  C   UNL A   1      46.584  27.591  25.321  1.00  0.00     0.031 C 
ATOM     40  C   UNL A   1      40.986  25.318  28.072  1.00  0.00     0.029 A 
ATOM     41  C   UNL A   1      41.550  26.534  28.637  1.00  0.00     0.049 A 
ATOM     42  H   UNL A   1      43.569  27.072  28.640  1.00  0.00     0.167 HD
ATOM     43  C   UNL A   1      47.574  28.651  27.414  1.00  0.00     0.037 A 
ATOM     44  C   UNL A   1      40.961  27.589  29.255  1.00  0.00     0.037 A 
ATOM     45  C   UNL A   1      47.737  28.271  28.798  1.00  0.00     0.049 A 
ATOM     46  C   UNL A   1      42.045  28.374  29.914  1.00  0.00     0.074 A 
ATOM     47  C   UNL A   1      48.370  27.228  29.447  1.00  0.00     0.029 A 
ATOM     48  N   UNL A   1      46.871  28.815  29.717  1.00  0.00    -0.354 N 
ATOM     49  N   UNL A   1      42.758  27.938  30.919  1.00  0.00    -0.248 NA
ATOM     50  C   UNL A   1      42.647  29.467  29.163  1.00  0.00     0.031 C 
ATOM     51  C   UNL A   1      47.527  26.909  30.552  1.00  0.00     0.029 A 
ATOM     52  C   UNL A   1      46.457  27.806  30.548  1.00  0.00     0.049 A 
ATOM     53  H   UNL A   1      46.598  29.760  29.771  1.00  0.00     0.167 HD
ATOM     54  C   UNL A   1      44.044  28.406  30.682  1.00  0.00     0.074 A 
ATOM     55  C   UNL A   1      43.894  29.415  29.639  1.00  0.00     0.031 C 
ATOM     56  C   UNL A   1      45.140  27.735  31.147  1.00  0.00     0.037 A 
BRANCH  43  57
ATOM     57  C   UNL A   1      47.647  30.090  26.954  1.00  0.00     0.058 A 
ATOM     58  C   UNL A   1      48.882  30.765  27.044  1.00  0.00     0.135 A 
ATOM     59  C   UNL A   1      46.523  30.913  26.710  1.00  0.00     0.135 A 
ATOM     60  F   UNL A   1      50.020  30.085  27.255  1.00  0.00    -0.206 F 
ATOM     61  C   UNL A   1      48.975  32.156  27.014  1.00  0.00     0.059 A 
ATOM     62  C   UNL A   1      46.603  32.295  26.617  1.00  0.00     0.059 A 
ATOM     63  F   UNL A   1      45.274  30.444  26.648  1.00  0.00    -0.206 F 
ATOM     64  C   UNL A   1      47.822  32.911  26.827  1.00  0.00     0.060 A 
BRANCH  64  65
ATOM     65  S   UNL A   1      47.905  34.704  26.943  1.00  0.00     0.124 S 
ATOM     66  O   UNL A   1      48.049  35.074  25.541  1.00  0.00    -0.237 OA
ATOM     67  O   UNL A   1      46.625  35.025  27.566  1.00  0.00    -0.237 OA
ATOM     68  O   UNL A   1      49.078  34.930  27.783  1.00  0.00    -0.744 OA
ENDBRANCH  64  65
ENDBRANCH  43  57
BRANCH  44  69
ATOM     69  C   UNL A   1      39.606  28.145  28.994  1.00  0.00     0.058 A 
ATOM     70  C   UNL A   1      38.617  28.150  29.994  1.00  0.00     0.135 A 
ATOM     71  C   UNL A   1      39.335  28.927  27.852  1.00  0.00     0.135 A 
ATOM     72  F   UNL A   1      38.800  27.453  31.126  1.00  0.00    -0.206 F 
ATOM     73  C   UNL A   1      37.454  28.921  29.889  1.00  0.00     0.059 A 
ATOM     74  C   UNL A   1      38.177  29.689  27.719  1.00  0.00     0.059 A 
ATOM     75  F   UNL A   1      40.233  29.053  26.864  1.00  0.00    -0.206 F 
ATOM     76  C   UNL A   1      37.252  29.704  28.754  1.00  0.00     0.060 A 
BRANCH  76  77
ATOM     77  S   UNL A   1      35.843  30.835  28.686  1.00  0.00     0.124 S 
ATOM     78  O   UNL A   1      34.803  29.986  28.115  1.00  0.00    -0.237 OA
ATOM     79  O   UNL A   1      35.672  31.200  30.088  1.00  0.00    -0.237 OA
ATOM     80  O   UNL A   1      36.315  31.911  27.818  1.00  0.00    -0.744 OA
ENDBRANCH  76  77
ENDBRANCH  44  69
BRANCH  56  81
ATOM     81  C   UNL A   1      44.938  26.670  32.193  1.00  0.00     0.058 A 
ATOM     82  C   UNL A   1      44.855  26.921  33.575  1.00  0.00     0.135 A 
ATOM     83  C   UNL A   1      44.647  25.366  31.760  1.00  0.00     0.135 A 
ATOM     84  F   UNL A   1      45.016  28.161  34.060  1.00  0.00    -0.206 F 
ATOM     85  C   UNL A   1      44.531  25.913  34.485  1.00  0.00     0.059 A 
ATOM     86  C   UNL A   1      44.291  24.355  32.647  1.00  0.00     0.059 A 
ATOM     87  F   UNL A   1      44.648  25.079  30.448  1.00  0.00    -0.206 F 
ATOM     88  C   UNL A   1      44.245  24.633  34.011  1.00  0.00     0.060 A 
BRANCH  88  89
ATOM     89  S   UNL A   1      43.731  23.355  35.179  1.00  0.00     0.124 S 
ATOM     90  O   UNL A   1      44.407  23.769  36.404  1.00  0.00    -0.237 OA
ATOM     91  O   UNL A   1      42.276  23.492  35.180  1.00  0.00    -0.237 OA
ATOM     92  O   UNL A   1      44.230  22.121  34.578  1.00  0.00    -0.744 OA
ENDBRANCH  88  89
ENDBRANCH  56  81
ENDBRANCH  30  31
ENDBRANCH  23  25
ENDBRANCH  22  23
ENDBRANCH  21  22
ENDBRANCH   1  21
TORSDOF 17
ENDMDL
MODEL 3
REMARK VINA RESULT:     -10.8      3.830      6.427
REMARK SMILES CC1=C2C(=O)CC(C)(C)CC2=N[C@@H]1C(=O)OCCOCCOC(=O)c1ccc(-c2c3nc(c(-c4c(F)cc(S(=O)(=O)[O-])cc4F)c4ccc([nH]4)c(-c4c(F)cc(S(=O)(=O)[O-])cc4F)c4nc(c(-c5c(F)cc(S(=O)(=O)[O-])cc5F)c5ccc2[nH]5)C=C4)C=C3)cc1
REMARK SMILES IDX 20 1 19 2 18 3 17 4 16 5 14 6 15 7 13 8 1 9 2 10 3 11 4 12
REMARK SMILES IDX 11 13 12 14 5 15 6 16 10 17 7 18 8 19 9 20 21 21 22 22 23 23
REMARK SMILES IDX 24 24 25 25 26 26 90 27 27 28 89 29 28 30 29 31 30 32 83 33
REMARK SMILES IDX 31 34 88 35 82 36 84 37 32 38 87 39 81 40 80 41 33 43 67 44
REMARK SMILES IDX 46 45 66 46 47 47 50 48 65 49 85 50 48 51 49 52 64 54 86 55
REMARK SMILES IDX 51 56 34 57 35 58 44 59 36 60 37 61 43 62 45 63 38 64 39 65
REMARK SMILES IDX 40 66 41 67 42 68 68 69 69 70 78 71 70 72 71 73 77 74 79 75
REMARK SMILES IDX 72 76 73 77 74 78 75 79 76 80 52 81 53 82 62 83 54 84 55 85
REMARK SMILES IDX 61 86 63 87 56 88 57 89 58 90 59 91 60 92
REMARK H PARENT 84 42 50 53
REMARK Flexibility Score: inf
ROOT
ATOM      1  C   UNL A   1      37.115  21.837  24.500  1.00  0.00     0.202 C 
ENDROOT
BRANCH   1   2
ATOM      2  O   UNL A   1      35.729  21.931  24.825  1.00  0.00    -0.374 OA
BRANCH   2   3
ATOM      3  C   UNL A   1      35.219  21.098  25.870  1.00  0.00     0.202 C 
BRANCH   3   4
ATOM      4  C   UNL A   1      33.763  21.337  26.263  1.00  0.00     0.261 C 
BRANCH   4   5
ATOM      5  O   UNL A   1      33.634  22.603  26.927  1.00  0.00    -0.461 OA
BRANCH   5   6
ATOM      6  C   UNL A   1      32.587  23.384  26.543  1.00  0.00     0.335 C 
ATOM      7  O   UNL A   1      31.854  24.000  27.312  1.00  0.00    -0.249 OA
BRANCH   6   8
ATOM      8  C   UNL A   1      32.399  23.397  25.015  1.00  0.00     0.242 C 
ATOM      9  C   UNL A   1      34.396  25.087  24.830  1.00  0.00     0.043 C 
ATOM     10  C   UNL A   1      33.138  24.494  24.306  1.00  0.00    -0.025 C 
ATOM     11  C   UNL A   1      32.382  25.008  23.331  1.00  0.00     0.040 C 
ATOM     12  C   UNL A   1      32.580  26.128  22.397  1.00  0.00     0.165 C 
ATOM     13  C   UNL A   1      31.063  24.638  23.832  1.00  0.00     0.048 C 
ATOM     14  N   UNL A   1      30.964  23.643  24.661  1.00  0.00    -0.269 NA
ATOM     15  O   UNL A   1      33.586  26.183  21.694  1.00  0.00    -0.294 OA
ATOM     16  C   UNL A   1      31.458  27.151  22.305  1.00  0.00     0.088 C 
ATOM     17  C   UNL A   1      29.931  25.572  23.538  1.00  0.00     0.063 C 
ATOM     18  C   UNL A   1      30.453  27.037  23.478  1.00  0.00    -0.023 C 
ATOM     19  C   UNL A   1      31.137  27.502  24.793  1.00  0.00     0.012 C 
ATOM     20  C   UNL A   1      29.257  27.975  23.253  1.00  0.00     0.012 C 
ENDBRANCH   6   8
ENDBRANCH   5   6
ENDBRANCH   4   5
ENDBRANCH   3   4
ENDBRANCH   2   3
ENDBRANCH   1   2
BRANCH   1  21
ATOM     21  C   UNL A   1      38.082  21.554  25.644  1.00  0.00     0.261 C 
BRANCH  21  22
ATOM     22  O   UNL A   1      38.633  22.739  26.201  1.00  0.00    -0.460 OA
BRANCH  22  23
ATOM     23  C   UNL A   1      39.767  22.590  26.917  1.00  0.00     0.338 C 
ATOM     24  O   UNL A   1      40.135  21.588  27.532  1.00  0.00    -0.246 OA
BRANCH  23  25
ATOM     25  C   UNL A   1      40.420  23.899  26.990  1.00  0.00     0.060 A 
ATOM     26  C   UNL A   1      41.483  24.040  27.877  1.00  0.00     0.016 A 
ATOM     27  C   UNL A   1      39.776  25.013  26.435  1.00  0.00     0.016 A 
ATOM     28  C   UNL A   1      41.723  25.290  28.399  1.00  0.00     0.010 A 
ATOM     29  C   UNL A   1      39.975  26.251  26.989  1.00  0.00     0.010 A 
ATOM     30  C   UNL A   1      40.888  26.351  28.027  1.00  0.00    -0.014 A 
BRANCH  30  31
ATOM     31  C   UNL A   1      41.035  27.604  28.726  1.00  0.00     0.031 A 
ATOM     32  C   UNL A   1      42.145  28.423  28.209  1.00  0.00     0.074 A 
ATOM     33  C   UNL A   1      40.181  28.009  29.681  1.00  0.00     0.049 A 
ATOM     34  N   UNL A   1      43.303  28.612  28.746  1.00  0.00    -0.248 NA
ATOM     35  C   UNL A   1      42.027  28.918  26.829  1.00  0.00     0.031 C 
ATOM     36  C   UNL A   1      38.873  27.453  30.033  1.00  0.00     0.029 A 
ATOM     37  N   UNL A   1      40.284  29.094  30.487  1.00  0.00    -0.354 N 
ATOM     38  C   UNL A   1      43.975  29.456  27.870  1.00  0.00     0.074 A 
ATOM     39  C   UNL A   1      43.251  29.405  26.628  1.00  0.00     0.031 C 
ATOM     40  C   UNL A   1      38.220  28.334  30.824  1.00  0.00     0.029 A 
ATOM     41  C   UNL A   1      39.108  29.444  31.133  1.00  0.00     0.049 A 
ATOM     42  H   UNL A   1      41.125  29.593  30.606  1.00  0.00     0.167 HD
ATOM     43  C   UNL A   1      44.903  30.341  28.325  1.00  0.00     0.037 A 
ATOM     44  C   UNL A   1      38.884  30.614  31.782  1.00  0.00     0.037 A 
ATOM     45  C   UNL A   1      45.341  29.993  29.656  1.00  0.00     0.049 A 
ATOM     46  C   UNL A   1      40.218  31.208  32.093  1.00  0.00     0.074 A 
ATOM     47  C   UNL A   1      45.927  28.876  30.221  1.00  0.00     0.029 A 
ATOM     48  N   UNL A   1      44.841  30.726  30.707  1.00  0.00    -0.354 N 
ATOM     49  N   UNL A   1      41.074  30.686  32.931  1.00  0.00    -0.248 NA
ATOM     50  C   UNL A   1      40.790  32.138  31.129  1.00  0.00     0.031 C 
ATOM     51  C   UNL A   1      45.347  28.765  31.519  1.00  0.00     0.029 A 
ATOM     52  C   UNL A   1      44.481  29.846  31.696  1.00  0.00     0.049 A 
ATOM     53  H   UNL A   1      44.757  31.707  30.744  1.00  0.00     0.167 HD
ATOM     54  C   UNL A   1      42.320  30.894  32.353  1.00  0.00     0.074 A 
ATOM     55  C   UNL A   1      42.089  31.871  31.294  1.00  0.00     0.031 C 
ATOM     56  C   UNL A   1      43.366  30.048  32.596  1.00  0.00     0.037 A 
BRANCH  43  57
ATOM     57  C   UNL A   1      45.105  31.722  27.740  1.00  0.00     0.058 A 
ATOM     58  C   UNL A   1      46.339  32.021  27.126  1.00  0.00     0.135 A 
ATOM     59  C   UNL A   1      44.276  32.836  28.008  1.00  0.00     0.135 A 
ATOM     60  F   UNL A   1      47.200  31.041  26.808  1.00  0.00    -0.206 F 
ATOM     61  C   UNL A   1      46.764  33.330  26.905  1.00  0.00     0.059 A 
ATOM     62  C   UNL A   1      44.656  34.144  27.741  1.00  0.00     0.059 A 
ATOM     63  F   UNL A   1      43.099  32.738  28.632  1.00  0.00    -0.206 F 
ATOM     64  C   UNL A   1      45.923  34.385  27.243  1.00  0.00     0.060 A 
BRANCH  64  65
ATOM     65  S   UNL A   1      46.520  36.076  27.112  1.00  0.00     0.124 S 
ATOM     66  O   UNL A   1      45.267  36.815  27.026  1.00  0.00    -0.237 OA
ATOM     67  O   UNL A   1      47.273  36.227  28.352  1.00  0.00    -0.237 OA
ATOM     68  O   UNL A   1      47.326  36.051  25.894  1.00  0.00    -0.744 OA
ENDBRANCH  64  65
ENDBRANCH  43  57
BRANCH  44  69
ATOM     69  C   UNL A   1      37.625  31.405  31.808  1.00  0.00     0.058 A 
ATOM     70  C   UNL A   1      36.942  31.647  33.013  1.00  0.00     0.135 A 
ATOM     71  C   UNL A   1      37.206  32.167  30.696  1.00  0.00     0.135 A 
ATOM     72  F   UNL A   1      37.287  30.985  34.128  1.00  0.00    -0.206 F 
ATOM     73  C   UNL A   1      35.941  32.619  33.122  1.00  0.00     0.059 A 
ATOM     74  C   UNL A   1      36.201  33.128  30.778  1.00  0.00     0.059 A 
ATOM     75  F   UNL A   1      37.828  32.071  29.512  1.00  0.00    -0.206 F 
ATOM     76  C   UNL A   1      35.590  33.369  32.000  1.00  0.00     0.060 A 
BRANCH  76  77
ATOM     77  S   UNL A   1      34.427  34.743  32.170  1.00  0.00     0.124 S 
ATOM     78  O   UNL A   1      35.229  35.728  32.887  1.00  0.00    -0.237 OA
ATOM     79  O   UNL A   1      34.118  35.059  30.780  1.00  0.00    -0.237 OA
ATOM     80  O   UNL A   1      33.326  34.161  32.934  1.00  0.00    -0.744 OA
ENDBRANCH  76  77
ENDBRANCH  44  69
BRANCH  56  81
ATOM     81  C   UNL A   1      43.253  29.082  33.748  1.00  0.00     0.058 A 
ATOM     82  C   UNL A   1      43.593  29.389  35.077  1.00  0.00     0.135 A 
ATOM     83  C   UNL A   1      42.614  27.853  33.517  1.00  0.00     0.135 A 
ATOM     84  F   UNL A   1      44.111  30.584  35.397  1.00  0.00    -0.206 F 
ATOM     85  C   UNL A   1      43.339  28.501  36.123  1.00  0.00     0.059 A 
ATOM     86  C   UNL A   1      42.323  26.966  34.549  1.00  0.00     0.059 A 
ATOM     87  F   UNL A   1      42.208  27.529  32.278  1.00  0.00    -0.206 F 
ATOM     88  C   UNL A   1      42.698  27.292  35.851  1.00  0.00     0.060 A 
BRANCH  88  89
ATOM     89  S   UNL A   1      42.283  26.187  37.217  1.00  0.00     0.124 S 
ATOM     90  O   UNL A   1      42.491  24.871  36.622  1.00  0.00    -0.237 OA
ATOM     91  O   UNL A   1      43.243  26.577  38.246  1.00  0.00    -0.237 OA
ATOM     92  O   UNL A   1      40.892  26.522  37.517  1.00  0.00    -0.744 OA
ENDBRANCH  88  89
ENDBRANCH  56  81
ENDBRANCH  30  31
ENDBRANCH  23  25
ENDBRANCH  22  23
ENDBRANCH  21  22
ENDBRANCH   1  21
TORSDOF 17
ENDMDL
