MODEL 1
REMARK VINA RESULT:     -11.8      0.000      0.000
REMARK SMILES Cc1ccccc1C(=O)Nc1cc(C(=O)OCCOCCOC(=O)c2ccc(-c3c4nc(c(-c5c(F)cc(S(=O)(=O)[O-])cc5F)c5ccc([nH]5)c(-c5c(F)cc(S(=O)(=O)[O-])cc5F)c5nc(c(-c6c(F)cc(S(=O)(=O)[O-])cc6F)c6ccc3[nH]6)C=C5)C=C4)cc2)ccc1N1CC[NH+](CC(=O)Nc2ccc(F)cc2)CC1
REMARK SMILES IDX 18 1 17 2 16 3 14 4 15 5 13 6 11 7 12 8 93 9 92 10 91 11
REMARK SMILES IDX 10 12 8 13 9 14 7 16 1 17 2 18 3 19 4 20 6 21 5 22 94 23
REMARK SMILES IDX 95 24 110 25 96 26 109 27 97 28 98 30 99 31 100 32 101 33
REMARK SMILES IDX 102 35 103 36 108 37 104 38 107 39 105 40 106 41 19 42 20 43
REMARK SMILES IDX 21 44 22 45 23 46 24 47 25 48 26 49 90 50 27 51 89 52 28 53
REMARK SMILES IDX 29 54 30 55 83 56 31 57 88 58 82 59 84 60 32 61 87 62 81 63
REMARK SMILES IDX 80 64 33 66 67 67 46 68 66 69 47 70 50 71 65 72 85 73 48 74
REMARK SMILES IDX 49 75 64 77 86 78 51 79 34 80 35 81 44 82 36 83 37 84 43 85
REMARK SMILES IDX 45 86 38 87 39 88 40 89 41 90 42 91 68 92 69 93 78 94 70 95
REMARK SMILES IDX 71 96 77 97 79 98 72 99 73 100 74 101 75 102 76 103 52 104
REMARK SMILES IDX 53 105 62 106 54 107 55 108 61 109 63 110 56 111 57 112
REMARK SMILES IDX 58 113 59 114 60 115
REMARK H PARENT 10 15 97 29 101 34 84 65 50 76
REMARK Flexibility Score: inf
ROOT
ATOM      1  C   UNL A   1      37.521  20.968  24.762  1.00  0.00     0.202 C 
ENDROOT
BRANCH   1   2
ATOM      2  C   UNL A   1      36.165  20.469  25.175  1.00  0.00     0.261 C 
BRANCH   2   3
ATOM      3  O   UNL A   1      35.392  21.258  26.125  1.00  0.00    -0.460 OA
BRANCH   3   4
ATOM      4  C   UNL A   1      34.084  21.524  25.933  1.00  0.00     0.338 C 
ATOM      5  O   UNL A   1      33.215  20.666  25.764  1.00  0.00    -0.246 OA
BRANCH   4   6
ATOM      6  C   UNL A   1      33.851  22.941  25.588  1.00  0.00     0.062 A 
ATOM      7  C   UNL A   1      32.292  24.748  25.636  1.00  0.00     0.065 A 
ATOM      8  C   UNL A   1      32.544  23.397  25.564  1.00  0.00     0.044 A 
ATOM      9  C   UNL A   1      33.327  25.730  25.595  1.00  0.00     0.061 A 
ATOM     10  C   UNL A   1      34.641  25.239  25.484  1.00  0.00     0.029 A 
ATOM     11  C   UNL A   1      34.905  23.859  25.526  1.00  0.00     0.018 A 
BRANCH   7  12
ATOM     12  N   UNL A   1      30.966  25.096  25.881  1.00  0.00    -0.320 N 
ATOM     13  C   UNL A   1      30.175  26.007  25.197  1.00  0.00     0.255 C 
ATOM     14  O   UNL A   1      28.974  25.990  25.509  1.00  0.00    -0.269 OA
ATOM     15  H   UNL A   1      30.535  24.635  26.637  1.00  0.00     0.170 HD
BRANCH  13  16
ATOM     16  C   UNL A   1      30.578  26.922  24.047  1.00  0.00     0.043 A 
ATOM     17  C   UNL A   1      31.674  25.360  22.225  1.00  0.00     0.045 C 
ATOM     18  C   UNL A   1      31.201  26.661  22.799  1.00  0.00    -0.038 A 
ATOM     19  C   UNL A   1      31.392  27.728  21.883  1.00  0.00     0.004 A 
ATOM     20  C   UNL A   1      30.868  28.992  22.102  1.00  0.00     0.000 A 
ATOM     21  C   UNL A   1      30.079  28.233  24.240  1.00  0.00     0.014 A 
ATOM     22  C   UNL A   1      30.193  29.242  23.279  1.00  0.00     0.001 A 
ENDBRANCH  13  16
ENDBRANCH   7  12
BRANCH   9  23
ATOM     23  N   UNL A   1      33.060  27.085  25.844  1.00  0.00    -0.359 N 
ATOM     24  C   UNL A   1      33.789  28.195  25.175  1.00  0.00     0.178 C 
ATOM     25  C   UNL A   1      32.817  27.425  27.249  1.00  0.00     0.178 C 
ATOM     26  C   UNL A   1      33.205  29.609  25.572  1.00  0.00     0.284 C 
ATOM     27  C   UNL A   1      31.904  28.641  27.303  1.00  0.00     0.284 C 
ATOM     28  N   UNL A   1      32.667  29.825  26.940  1.00  0.00    -0.324 N 
ATOM     29  H   UNL A   1      32.099  30.668  26.856  1.00  0.00     0.348 HD
BRANCH  28  30
ATOM     30  C   UNL A   1      33.563  30.283  28.036  1.00  0.00     0.364 C 
BRANCH  30  31
ATOM     31  C   UNL A   1      34.836  31.075  27.714  1.00  0.00     0.279 C 
ATOM     32  O   UNL A   1      35.800  30.470  27.219  1.00  0.00    -0.268 OA
ATOM     33  N   UNL A   1      34.990  32.435  27.827  1.00  0.00    -0.321 N 
ATOM     34  H   UNL A   1      35.726  32.740  27.249  1.00  0.00     0.170 HD
BRANCH  33  35
ATOM     35  C   UNL A   1      34.423  33.539  28.515  1.00  0.00     0.041 A 
ATOM     36  C   UNL A   1      34.816  33.701  29.859  1.00  0.00     0.029 A 
ATOM     37  C   UNL A   1      33.431  34.395  28.049  1.00  0.00     0.029 A 
ATOM     38  C   UNL A   1      34.232  34.669  30.693  1.00  0.00     0.041 A 
ATOM     39  C   UNL A   1      32.796  35.326  28.893  1.00  0.00     0.041 A 
ATOM     40  C   UNL A   1      33.210  35.464  30.206  1.00  0.00     0.123 A 
ATOM     41  F   UNL A   1      32.630  36.372  31.001  1.00  0.00    -0.207 F 
ENDBRANCH  33  35
ENDBRANCH  30  31
ENDBRANCH  28  30
ENDBRANCH   9  23
ENDBRANCH   4   6
ENDBRANCH   3   4
ENDBRANCH   2   3
ENDBRANCH   1   2
BRANCH   1  42
ATOM     42  O   UNL A   1      38.473  19.978  25.124  1.00  0.00    -0.374 OA
BRANCH  42  43
ATOM     43  C   UNL A   1      39.573  20.446  25.877  1.00  0.00     0.202 C 
BRANCH  43  44
ATOM     44  C   UNL A   1      39.453  21.927  26.246  1.00  0.00     0.261 C 
BRANCH  44  45
ATOM     45  O   UNL A   1      40.696  22.625  26.007  1.00  0.00    -0.460 OA
BRANCH  45  46
ATOM     46  C   UNL A   1      41.449  22.920  27.103  1.00  0.00     0.338 C 
ATOM     47  O   UNL A   1      42.211  22.113  27.635  1.00  0.00    -0.246 OA
BRANCH  46  48
ATOM     48  C   UNL A   1      41.316  24.350  27.491  1.00  0.00     0.060 A 
ATOM     49  C   UNL A   1      40.895  25.334  26.580  1.00  0.00     0.016 A 
ATOM     50  C   UNL A   1      41.761  24.729  28.752  1.00  0.00     0.016 A 
ATOM     51  C   UNL A   1      41.054  26.700  26.884  1.00  0.00     0.010 A 
ATOM     52  C   UNL A   1      42.023  26.059  28.998  1.00  0.00     0.010 A 
ATOM     53  C   UNL A   1      41.691  27.059  28.067  1.00  0.00    -0.014 A 
BRANCH  53  54
ATOM     54  C   UNL A   1      42.143  28.391  28.483  1.00  0.00     0.031 A 
ATOM     55  C   UNL A   1      41.085  29.396  28.759  1.00  0.00     0.074 A 
ATOM     56  C   UNL A   1      43.385  28.574  28.996  1.00  0.00     0.049 A 
ATOM     57  N   UNL A   1      41.277  30.480  29.412  1.00  0.00    -0.248 NA
ATOM     58  C   UNL A   1      39.688  29.242  28.355  1.00  0.00     0.031 C 
ATOM     59  C   UNL A   1      43.810  29.556  29.993  1.00  0.00     0.029 A 
ATOM     60  N   UNL A   1      44.590  27.926  28.692  1.00  0.00    -0.354 N 
ATOM     61  C   UNL A   1      40.066  31.009  29.776  1.00  0.00     0.074 A 
ATOM     62  C   UNL A   1      39.103  30.233  29.040  1.00  0.00     0.031 C 
ATOM     63  C   UNL A   1      45.140  29.708  29.937  1.00  0.00     0.029 A 
ATOM     64  C   UNL A   1      45.610  28.875  28.850  1.00  0.00     0.049 A 
ATOM     65  H   UNL A   1      44.699  26.985  28.420  1.00  0.00     0.167 HD
ATOM     66  C   UNL A   1      40.087  31.987  30.726  1.00  0.00     0.037 A 
ATOM     67  C   UNL A   1      46.369  29.265  27.796  1.00  0.00     0.037 A 
ATOM     68  C   UNL A   1      41.465  32.510  30.851  1.00  0.00     0.049 A 
ATOM     69  C   UNL A   1      46.127  30.734  27.619  1.00  0.00     0.074 A 
ATOM     70  C   UNL A   1      42.460  32.433  31.810  1.00  0.00     0.029 A 
ATOM     71  N   UNL A   1      42.094  32.967  29.684  1.00  0.00    -0.354 N 
ATOM     72  N   UNL A   1      44.965  31.303  27.852  1.00  0.00    -0.248 NA
ATOM     73  C   UNL A   1      47.226  31.690  27.517  1.00  0.00     0.031 C 
ATOM     74  C   UNL A   1      43.706  32.737  31.167  1.00  0.00     0.029 A 
ATOM     75  C   UNL A   1      43.468  33.008  29.824  1.00  0.00     0.049 A 
ATOM     76  H   UNL A   1      41.615  33.227  28.865  1.00  0.00     0.167 HD
ATOM     77  C   UNL A   1      45.183  32.627  28.121  1.00  0.00     0.074 A 
ATOM     78  C   UNL A   1      46.602  32.832  27.845  1.00  0.00     0.031 C 
ATOM     79  C   UNL A   1      44.315  33.489  28.733  1.00  0.00     0.037 A 
BRANCH  66  80
ATOM     80  C   UNL A   1      38.918  32.417  31.602  1.00  0.00     0.058 A 
ATOM     81  C   UNL A   1      38.485  33.764  31.613  1.00  0.00     0.135 A 
ATOM     82  C   UNL A   1      38.229  31.590  32.520  1.00  0.00     0.135 A 
ATOM     83  F   UNL A   1      39.071  34.689  30.839  1.00  0.00    -0.206 F 
ATOM     84  C   UNL A   1      37.452  34.237  32.436  1.00  0.00     0.059 A 
ATOM     85  C   UNL A   1      37.176  32.031  33.329  1.00  0.00     0.059 A 
ATOM     86  F   UNL A   1      38.564  30.314  32.723  1.00  0.00    -0.206 F 
ATOM     87  C   UNL A   1      36.793  33.360  33.287  1.00  0.00     0.060 A 
BRANCH  87  88
ATOM     88  S   UNL A   1      35.456  33.967  34.334  1.00  0.00     0.124 S 
ATOM     89  O   UNL A   1      35.967  33.692  35.673  1.00  0.00    -0.237 OA
ATOM     90  O   UNL A   1      35.384  35.375  33.958  1.00  0.00    -0.237 OA
ATOM     91  O   UNL A   1      34.308  33.158  33.931  1.00  0.00    -0.744 OA
ENDBRANCH  87  88
ENDBRANCH  66  80
BRANCH  67  92
ATOM     92  C   UNL A   1      46.656  28.120  26.874  1.00  0.00     0.058 A 
ATOM     93  C   UNL A   1      45.840  28.087  25.715  1.00  0.00     0.135 A 
ATOM     94  C   UNL A   1      47.940  27.563  26.746  1.00  0.00     0.135 A 
ATOM     95  F   UNL A   1      44.589  28.574  25.770  1.00  0.00    -0.206 F 
ATOM     96  C   UNL A   1      46.340  27.743  24.457  1.00  0.00     0.059 A 
ATOM     97  C   UNL A   1      48.454  27.192  25.490  1.00  0.00     0.059 A 
ATOM     98  F   UNL A   1      48.773  27.539  27.797  1.00  0.00    -0.206 F 
ATOM     99  C   UNL A   1      47.673  27.365  24.344  1.00  0.00     0.060 A 
BRANCH  99 100
ATOM    100  S   UNL A   1      48.415  27.331  22.686  1.00  0.00     0.124 S 
ATOM    101  O   UNL A   1      49.673  28.035  22.897  1.00  0.00    -0.237 OA
ATOM    102  O   UNL A   1      48.532  25.897  22.421  1.00  0.00    -0.237 OA
ATOM    103  O   UNL A   1      47.430  28.022  21.861  1.00  0.00    -0.744 OA
ENDBRANCH  99 100
ENDBRANCH  67  92
BRANCH  79 104
ATOM    104  C   UNL A   1      44.276  34.947  28.343  1.00  0.00     0.058 A 
ATOM    105  C   UNL A   1      43.697  35.401  27.141  1.00  0.00     0.135 A 
ATOM    106  C   UNL A   1      44.653  35.959  29.257  1.00  0.00     0.135 A 
ATOM    107  F   UNL A   1      43.176  34.558  26.238  1.00  0.00    -0.206 F 
ATOM    108  C   UNL A   1      43.587  36.747  26.828  1.00  0.00     0.059 A 
ATOM    109  C   UNL A   1      44.485  37.313  28.991  1.00  0.00     0.059 A 
ATOM    110  F   UNL A   1      45.172  35.674  30.460  1.00  0.00    -0.206 F 
ATOM    111  C   UNL A   1      43.982  37.697  27.759  1.00  0.00     0.060 A 
BRANCH 111 112
ATOM    112  S   UNL A   1      43.792  39.434  27.352  1.00  0.00     0.124 S 
ATOM    113  O   UNL A   1      42.423  39.458  26.846  1.00  0.00    -0.237 OA
ATOM    114  O   UNL A   1      44.000  40.085  28.643  1.00  0.00    -0.237 OA
ATOM    115  O   UNL A   1      44.839  39.667  26.364  1.00  0.00    -0.744 OA
ENDBRANCH 111 112
ENDBRANCH  79 104
ENDBRANCH  53  54
ENDBRANCH  46  48
ENDBRANCH  45  46
ENDBRANCH  44  45
ENDBRANCH  43  44
ENDBRANCH  42  43
ENDBRANCH   1  42
TORSDOF 23
ENDMDL
MODEL 2
REMARK VINA RESULT:     -10.6      1.862      2.397
REMARK SMILES Cc1ccccc1C(=O)Nc1cc(C(=O)OCCOCCOC(=O)c2ccc(-c3c4nc(c(-c5c(F)cc(S(=O)(=O)[O-])cc5F)c5ccc([nH]5)c(-c5c(F)cc(S(=O)(=O)[O-])cc5F)c5nc(c(-c6c(F)cc(S(=O)(=O)[O-])cc6F)c6ccc3[nH]6)C=C5)C=C4)cc2)ccc1N1CC[NH+](CC(=O)Nc2ccc(F)cc2)CC1
REMARK SMILES IDX 18 1 17 2 16 3 14 4 15 5 13 6 11 7 12 8 93 9 92 10 91 11
REMARK SMILES IDX 10 12 8 13 9 14 7 16 1 17 2 18 3 19 4 20 6 21 5 22 94 23
REMARK SMILES IDX 95 24 110 25 96 26 109 27 97 28 98 30 99 31 100 32 101 33
REMARK SMILES IDX 102 35 103 36 108 37 104 38 107 39 105 40 106 41 19 42 20 43
REMARK SMILES IDX 21 44 22 45 23 46 24 47 25 48 26 49 90 50 27 51 89 52 28 53
REMARK SMILES IDX 29 54 30 55 83 56 31 57 88 58 82 59 84 60 32 61 87 62 81 63
REMARK SMILES IDX 80 64 33 66 67 67 46 68 66 69 47 70 50 71 65 72 85 73 48 74
REMARK SMILES IDX 49 75 64 77 86 78 51 79 34 80 35 81 44 82 36 83 37 84 43 85
REMARK SMILES IDX 45 86 38 87 39 88 40 89 41 90 42 91 68 92 69 93 78 94 70 95
REMARK SMILES IDX 71 96 77 97 79 98 72 99 73 100 74 101 75 102 76 103 52 104
REMARK SMILES IDX 53 105 62 106 54 107 55 108 61 109 63 110 56 111 57 112
REMARK SMILES IDX 58 113 59 114 60 115
REMARK H PARENT 10 15 97 29 101 34 84 65 50 76
REMARK Flexibility Score: inf
ROOT
ATOM      1  C   UNL A   1      37.572  21.269  24.553  1.00  0.00     0.202 C 
ENDROOT
BRANCH   1   2
ATOM      2  C   UNL A   1      36.229  20.859  25.086  1.00  0.00     0.261 C 
BRANCH   2   3
ATOM      3  O   UNL A   1      35.786  21.413  26.360  1.00  0.00    -0.460 OA
BRANCH   3   4
ATOM      4  C   UNL A   1      34.492  21.709  26.597  1.00  0.00     0.338 C 
ATOM      5  O   UNL A   1      33.630  20.881  26.898  1.00  0.00    -0.246 OA
BRANCH   4   6
ATOM      6  C   UNL A   1      34.134  23.058  26.112  1.00  0.00     0.062 A 
ATOM      7  C   UNL A   1      32.481  24.780  26.125  1.00  0.00     0.065 A 
ATOM      8  C   UNL A   1      32.807  23.445  26.189  1.00  0.00     0.044 A 
ATOM      9  C   UNL A   1      33.442  25.797  25.841  1.00  0.00     0.061 A 
ATOM     10  C   UNL A   1      34.763  25.359  25.634  1.00  0.00     0.029 A 
ATOM     11  C   UNL A   1      35.115  24.009  25.812  1.00  0.00     0.018 A 
BRANCH   7  12
ATOM     12  N   UNL A   1      31.173  25.093  26.482  1.00  0.00    -0.320 N 
ATOM     13  C   UNL A   1      30.240  25.836  25.772  1.00  0.00     0.255 C 
ATOM     14  O   UNL A   1      29.090  25.807  26.236  1.00  0.00    -0.269 OA
ATOM     15  H   UNL A   1      30.870  24.741  27.350  1.00  0.00     0.170 HD
BRANCH  13  16
ATOM     16  C   UNL A   1      30.435  26.567  24.450  1.00  0.00     0.043 A 
ATOM     17  C   UNL A   1      31.424  24.788  22.772  1.00  0.00     0.045 C 
ATOM     18  C   UNL A   1      30.925  26.138  23.189  1.00  0.00    -0.038 A 
ATOM     19  C   UNL A   1      30.925  27.047  22.099  1.00  0.00     0.004 A 
ATOM     20  C   UNL A   1      30.336  28.299  22.181  1.00  0.00     0.000 A 
ATOM     21  C   UNL A   1      29.864  27.862  24.496  1.00  0.00     0.014 A 
ATOM     22  C   UNL A   1      29.788  28.703  23.381  1.00  0.00     0.001 A 
ENDBRANCH  13  16
ENDBRANCH   7  12
BRANCH   9  23
ATOM     23  N   UNL A   1      33.121  27.158  25.953  1.00  0.00    -0.359 N 
ATOM     24  C   UNL A   1      33.637  28.196  25.021  1.00  0.00     0.178 C 
ATOM     25  C   UNL A   1      33.101  27.684  27.322  1.00  0.00     0.178 C 
ATOM     26  C   UNL A   1      33.026  29.621  25.328  1.00  0.00     0.284 C 
ATOM     27  C   UNL A   1      32.122  28.848  27.380  1.00  0.00     0.284 C 
ATOM     28  N   UNL A   1      32.719  30.004  26.730  1.00  0.00    -0.324 N 
ATOM     29  H   UNL A   1      32.083  30.796  26.640  1.00  0.00     0.348 HD
BRANCH  28  30
ATOM     30  C   UNL A   1      33.755  30.660  27.574  1.00  0.00     0.364 C 
BRANCH  30  31
ATOM     31  C   UNL A   1      33.688  32.166  27.849  1.00  0.00     0.279 C 
ATOM     32  O   UNL A   1      32.736  32.811  27.382  1.00  0.00    -0.268 OA
ATOM     33  N   UNL A   1      34.538  32.876  28.660  1.00  0.00    -0.321 N 
ATOM     34  H   UNL A   1      34.104  33.708  28.958  1.00  0.00     0.170 HD
BRANCH  33  35
ATOM     35  C   UNL A   1      35.845  32.790  29.205  1.00  0.00     0.041 A 
ATOM     36  C   UNL A   1      36.733  33.828  28.857  1.00  0.00     0.029 A 
ATOM     37  C   UNL A   1      36.380  31.733  29.934  1.00  0.00     0.029 A 
ATOM     38  C   UNL A   1      38.090  33.797  29.215  1.00  0.00     0.041 A 
ATOM     39  C   UNL A   1      37.751  31.662  30.245  1.00  0.00     0.041 A 
ATOM     40  C   UNL A   1      38.594  32.702  29.893  1.00  0.00     0.123 A 
ATOM     41  F   UNL A   1      39.892  32.652  30.218  1.00  0.00    -0.207 F 
ENDBRANCH  33  35
ENDBRANCH  30  31
ENDBRANCH  28  30
ENDBRANCH   9  23
ENDBRANCH   4   6
ENDBRANCH   3   4
ENDBRANCH   2   3
ENDBRANCH   1   2
BRANCH   1  42
ATOM     42  O   UNL A   1      38.504  20.258  24.908  1.00  0.00    -0.374 OA
BRANCH  42  43
ATOM     43  C   UNL A   1      39.219  20.489  26.104  1.00  0.00     0.202 C 
BRANCH  43  44
ATOM     44  C   UNL A   1      39.683  21.942  26.247  1.00  0.00     0.261 C 
BRANCH  44  45
ATOM     45  O   UNL A   1      41.069  22.085  25.858  1.00  0.00    -0.460 OA
BRANCH  45  46
ATOM     46  C   UNL A   1      41.966  22.279  26.864  1.00  0.00     0.338 C 
ATOM     47  O   UNL A   1      42.695  21.387  27.299  1.00  0.00    -0.246 OA
BRANCH  46  48
ATOM     48  C   UNL A   1      42.026  23.705  27.279  1.00  0.00     0.060 A 
ATOM     49  C   UNL A   1      42.056  24.754  26.342  1.00  0.00     0.016 A 
ATOM     50  C   UNL A   1      42.201  23.988  28.628  1.00  0.00     0.016 A 
ATOM     51  C   UNL A   1      42.400  26.058  26.745  1.00  0.00     0.010 A 
ATOM     52  C   UNL A   1      42.651  25.236  28.999  1.00  0.00     0.010 A 
ATOM     53  C   UNL A   1      42.772  26.281  28.067  1.00  0.00    -0.014 A 
BRANCH  53  54
ATOM     54  C   UNL A   1      43.360  27.493  28.649  1.00  0.00     0.031 A 
ATOM     55  C   UNL A   1      42.420  28.441  29.299  1.00  0.00     0.074 A 
ATOM     56  C   UNL A   1      44.679  27.544  28.960  1.00  0.00     0.049 A 
ATOM     57  N   UNL A   1      42.778  29.367  30.107  1.00  0.00    -0.248 NA
ATOM     58  C   UNL A   1      40.969  28.399  29.125  1.00  0.00     0.031 C 
ATOM     59  C   UNL A   1      45.318  28.295  30.040  1.00  0.00     0.029 A 
ATOM     60  N   UNL A   1      45.778  26.948  28.328  1.00  0.00    -0.354 N 
ATOM     61  C   UNL A   1      41.676  29.835  30.775  1.00  0.00     0.074 A 
ATOM     62  C   UNL A   1      40.562  29.242  30.083  1.00  0.00     0.031 C 
ATOM     63  C   UNL A   1      46.626  28.430  29.781  1.00  0.00     0.029 A 
ATOM     64  C   UNL A   1      46.860  27.826  28.487  1.00  0.00     0.049 A 
ATOM     65  H   UNL A   1      45.789  26.080  27.863  1.00  0.00     0.167 HD
ATOM     66  C   UNL A   1      41.910  30.600  31.879  1.00  0.00     0.037 A 
ATOM     67  C   UNL A   1      47.451  28.406  27.413  1.00  0.00     0.037 A 
ATOM     68  C   UNL A   1      43.315  31.059  31.859  1.00  0.00     0.049 A 
ATOM     69  C   UNL A   1      47.262  29.885  27.573  1.00  0.00     0.074 A 
ATOM     70  C   UNL A   1      44.452  30.771  32.594  1.00  0.00     0.029 A 
ATOM     71  N   UNL A   1      43.762  31.731  30.713  1.00  0.00    -0.354 N 
ATOM     72  N   UNL A   1      46.189  30.417  28.114  1.00  0.00    -0.248 NA
ATOM     73  C   UNL A   1      48.378  30.820  27.469  1.00  0.00     0.031 C 
ATOM     74  C   UNL A   1      45.586  31.174  31.815  1.00  0.00     0.029 A 
ATOM     75  C   UNL A   1      45.141  31.716  30.613  1.00  0.00     0.049 A 
ATOM     76  H   UNL A   1      43.167  32.160  30.058  1.00  0.00     0.167 HD
ATOM     77  C   UNL A   1      46.521  31.655  28.594  1.00  0.00     0.074 A 
ATOM     78  C   UNL A   1      47.882  31.884  28.119  1.00  0.00     0.031 C 
ATOM     79  C   UNL A   1      45.816  32.391  29.506  1.00  0.00     0.037 A 
BRANCH  66  80
ATOM     80  C   UNL A   1      40.930  30.866  33.014  1.00  0.00     0.058 A 
ATOM     81  C   UNL A   1      40.698  32.185  33.469  1.00  0.00     0.135 A 
ATOM     82  C   UNL A   1      40.249  29.878  33.763  1.00  0.00     0.135 A 
ATOM     83  F   UNL A   1      41.310  33.234  32.901  1.00  0.00    -0.206 F 
ATOM     84  C   UNL A   1      39.852  32.494  34.545  1.00  0.00     0.059 A 
ATOM     85  C   UNL A   1      39.376  30.163  34.819  1.00  0.00     0.059 A 
ATOM     86  F   UNL A   1      40.421  28.571  33.546  1.00  0.00    -0.206 F 
ATOM     87  C   UNL A   1      39.184  31.475  35.210  1.00  0.00     0.060 A 
BRANCH  87  88
ATOM     88  S   UNL A   1      38.086  31.876  36.584  1.00  0.00     0.124 S 
ATOM     89  O   UNL A   1      38.970  32.619  37.476  1.00  0.00    -0.237 OA
ATOM     90  O   UNL A   1      37.042  32.656  35.928  1.00  0.00    -0.237 OA
ATOM     91  O   UNL A   1      37.663  30.568  37.079  1.00  0.00    -0.744 OA
ENDBRANCH  87  88
ENDBRANCH  66  80
BRANCH  67  92
ATOM     92  C   UNL A   1      47.516  27.466  26.249  1.00  0.00     0.058 A 
ATOM     93  C   UNL A   1      46.715  27.851  25.144  1.00  0.00     0.135 A 
ATOM     94  C   UNL A   1      48.668  26.720  25.951  1.00  0.00     0.135 A 
ATOM     95  F   UNL A   1      45.581  28.541  25.355  1.00  0.00    -0.206 F 
ATOM     96  C   UNL A   1      47.145  27.713  23.823  1.00  0.00     0.059 A 
ATOM     97  C   UNL A   1      49.107  26.551  24.624  1.00  0.00     0.059 A 
ATOM     98  F   UNL A   1      49.475  26.301  26.937  1.00  0.00    -0.206 F 
ATOM     99  C   UNL A   1      48.381  27.123  23.577  1.00  0.00     0.060 A 
BRANCH  99 100
ATOM    100  S   UNL A   1      49.111  27.325  21.925  1.00  0.00     0.124 S 
ATOM    101  O   UNL A   1      50.519  27.540  22.235  1.00  0.00    -0.237 OA
ATOM    102  O   UNL A   1      48.795  26.051  21.282  1.00  0.00    -0.237 OA
ATOM    103  O   UNL A   1      48.398  28.474  21.379  1.00  0.00    -0.744 OA
ENDBRANCH  99 100
ENDBRANCH  67  92
BRANCH  79 104
ATOM    104  C   UNL A   1      45.791  33.899  29.422  1.00  0.00     0.058 A 
ATOM    105  C   UNL A   1      46.795  34.712  29.984  1.00  0.00     0.135 A 
ATOM    106  C   UNL A   1      44.852  34.571  28.605  1.00  0.00     0.135 A 
ATOM    107  F   UNL A   1      47.825  34.199  30.674  1.00  0.00    -0.206 F 
ATOM    108  C   UNL A   1      46.813  36.090  29.830  1.00  0.00     0.059 A 
ATOM    109  C   UNL A   1      44.895  35.941  28.380  1.00  0.00     0.059 A 
ATOM    110  F   UNL A   1      43.870  33.918  27.965  1.00  0.00    -0.206 F 
ATOM    111  C   UNL A   1      45.860  36.697  29.026  1.00  0.00     0.060 A 
BRANCH 111 112
ATOM    112  S   UNL A   1      45.925  38.476  28.804  1.00  0.00     0.124 S 
ATOM    113  O   UNL A   1      44.540  38.847  29.079  1.00  0.00    -0.237 OA
ATOM    114  O   UNL A   1      46.901  38.885  29.811  1.00  0.00    -0.237 OA
ATOM    115  O   UNL A   1      46.360  38.629  27.420  1.00  0.00    -0.744 OA
ENDBRANCH 111 112
ENDBRANCH  79 104
ENDBRANCH  53  54
ENDBRANCH  46  48
ENDBRANCH  45  46
ENDBRANCH  44  45
ENDBRANCH  43  44
ENDBRANCH  42  43
ENDBRANCH   1  42
TORSDOF 23
ENDMDL
MODEL 3
REMARK VINA RESULT:     -10.5      4.623     13.833
REMARK SMILES Cc1ccccc1C(=O)Nc1cc(C(=O)OCCOCCOC(=O)c2ccc(-c3c4nc(c(-c5c(F)cc(S(=O)(=O)[O-])cc5F)c5ccc([nH]5)c(-c5c(F)cc(S(=O)(=O)[O-])cc5F)c5nc(c(-c6c(F)cc(S(=O)(=O)[O-])cc6F)c6ccc3[nH]6)C=C5)C=C4)cc2)ccc1N1CC[NH+](CC(=O)Nc2ccc(F)cc2)CC1
REMARK SMILES IDX 18 1 17 2 16 3 14 4 15 5 13 6 11 7 12 8 93 9 92 10 91 11
REMARK SMILES IDX 10 12 8 13 9 14 7 16 1 17 2 18 3 19 4 20 6 21 5 22 94 23
REMARK SMILES IDX 95 24 110 25 96 26 109 27 97 28 98 30 99 31 100 32 101 33
REMARK SMILES IDX 102 35 103 36 108 37 104 38 107 39 105 40 106 41 19 42 20 43
REMARK SMILES IDX 21 44 22 45 23 46 24 47 25 48 26 49 90 50 27 51 89 52 28 53
REMARK SMILES IDX 29 54 30 55 83 56 31 57 88 58 82 59 84 60 32 61 87 62 81 63
REMARK SMILES IDX 80 64 33 66 67 67 46 68 66 69 47 70 50 71 65 72 85 73 48 74
REMARK SMILES IDX 49 75 64 77 86 78 51 79 34 80 35 81 44 82 36 83 37 84 43 85
REMARK SMILES IDX 45 86 38 87 39 88 40 89 41 90 42 91 68 92 69 93 78 94 70 95
REMARK SMILES IDX 71 96 77 97 79 98 72 99 73 100 74 101 75 102 76 103 52 104
REMARK SMILES IDX 53 105 62 106 54 107 55 108 61 109 63 110 56 111 57 112
REMARK SMILES IDX 58 113 59 114 60 115
REMARK H PARENT 10 15 97 29 101 34 84 65 50 76
REMARK Flexibility Score: inf
ROOT
ATOM      1  C   UNL A   1      37.586  33.665  28.960  1.00  0.00     0.202 C 
ENDROOT
BRANCH   1   2
ATOM      2  C   UNL A   1      38.514  33.631  30.141  1.00  0.00     0.261 C 
BRANCH   2   3
ATOM      3  O   UNL A   1      39.952  33.653  29.899  1.00  0.00    -0.460 OA
BRANCH   3   4
ATOM      4  C   UNL A   1      40.587  34.765  29.475  1.00  0.00     0.338 C 
ATOM      5  O   UNL A   1      40.048  35.681  28.850  1.00  0.00    -0.246 OA
BRANCH   4   6
ATOM      6  C   UNL A   1      42.056  34.615  29.518  1.00  0.00     0.062 A 
ATOM      7  C   UNL A   1      43.903  33.657  30.686  1.00  0.00     0.065 A 
ATOM      8  C   UNL A   1      42.629  34.177  30.699  1.00  0.00     0.044 A 
ATOM      9  C   UNL A   1      44.731  33.669  29.524  1.00  0.00     0.061 A 
ATOM     10  C   UNL A   1      44.167  34.243  28.370  1.00  0.00     0.029 A 
ATOM     11  C   UNL A   1      42.828  34.670  28.353  1.00  0.00     0.018 A 
BRANCH   7  12
ATOM     12  N   UNL A   1      44.290  32.998  31.850  1.00  0.00    -0.320 N 
ATOM     13  C   UNL A   1      44.826  33.541  33.010  1.00  0.00     0.255 C 
ATOM     14  O   UNL A   1      44.910  32.751  33.963  1.00  0.00    -0.269 OA
ATOM     15  H   UNL A   1      44.167  32.021  31.851  1.00  0.00     0.170 HD
BRANCH  13  16
ATOM     16  C   UNL A   1      45.202  34.993  33.277  1.00  0.00     0.043 A 
ATOM     17  C   UNL A   1      43.494  35.866  35.089  1.00  0.00     0.045 C 
ATOM     18  C   UNL A   1      44.655  35.971  34.147  1.00  0.00    -0.038 A 
ATOM     19  C   UNL A   1      45.274  37.246  34.234  1.00  0.00     0.004 A 
ATOM     20  C   UNL A   1      46.476  37.527  33.605  1.00  0.00     0.000 A 
ATOM     21  C   UNL A   1      46.418  35.330  32.635  1.00  0.00     0.014 A 
ATOM     22  C   UNL A   1      47.060  36.559  32.814  1.00  0.00     0.001 A 
ENDBRANCH  13  16
ENDBRANCH   7  12
BRANCH   9  23
ATOM     23  N   UNL A   1      45.952  32.980  29.489  1.00  0.00    -0.359 N 
ATOM     24  C   UNL A   1      47.256  33.645  29.222  1.00  0.00     0.178 C 
ATOM     25  C   UNL A   1      45.914  31.676  28.820  1.00  0.00     0.178 C 
ATOM     26  C   UNL A   1      48.468  32.640  29.348  1.00  0.00     0.284 C 
ATOM     27  C   UNL A   1      46.990  30.787  29.428  1.00  0.00     0.284 C 
ATOM     28  N   UNL A   1      48.292  31.220  28.947  1.00  0.00    -0.324 N 
ATOM     29  H   UNL A   1      49.073  30.736  29.390  1.00  0.00     0.348 HD
BRANCH  28  30
ATOM     30  C   UNL A   1      48.549  30.798  27.543  1.00  0.00     0.364 C 
BRANCH  30  31
ATOM     31  C   UNL A   1      49.727  29.873  27.218  1.00  0.00     0.279 C 
ATOM     32  O   UNL A   1      50.812  30.386  26.898  1.00  0.00    -0.268 OA
ATOM     33  N   UNL A   1      49.737  28.506  27.342  1.00  0.00    -0.321 N 
ATOM     34  H   UNL A   1      50.663  28.181  27.424  1.00  0.00     0.170 HD
BRANCH  33  35
ATOM     35  C   UNL A   1      48.834  27.413  27.389  1.00  0.00     0.041 A 
ATOM     36  C   UNL A   1      48.980  26.532  28.479  1.00  0.00     0.029 A 
ATOM     37  C   UNL A   1      47.911  27.048  26.415  1.00  0.00     0.029 A 
ATOM     38  C   UNL A   1      48.244  25.340  28.578  1.00  0.00     0.041 A 
ATOM     39  C   UNL A   1      47.212  25.827  26.472  1.00  0.00     0.041 A 
ATOM     40  C   UNL A   1      47.376  24.987  27.560  1.00  0.00     0.123 A 
ATOM     41  F   UNL A   1      46.688  23.840  27.633  1.00  0.00    -0.207 F 
ENDBRANCH  33  35
ENDBRANCH  30  31
ENDBRANCH  28  30
ENDBRANCH   9  23
ENDBRANCH   4   6
ENDBRANCH   3   4
ENDBRANCH   2   3
ENDBRANCH   1   2
BRANCH   1  42
ATOM     42  O   UNL A   1      36.340  33.127  29.376  1.00  0.00    -0.374 OA
BRANCH  42  43
ATOM     43  C   UNL A   1      35.307  33.183  28.413  1.00  0.00     0.202 C 
BRANCH  43  44
ATOM     44  C   UNL A   1      34.278  32.062  28.582  1.00  0.00     0.261 C 
BRANCH  44  45
ATOM     45  O   UNL A   1      34.373  31.102  27.504  1.00  0.00    -0.460 OA
BRANCH  45  46
ATOM     46  C   UNL A   1      34.799  29.852  27.838  1.00  0.00     0.338 C 
ATOM     47  O   UNL A   1      34.125  28.839  27.655  1.00  0.00    -0.246 OA
BRANCH  46  48
ATOM     48  C   UNL A   1      36.200  29.865  28.336  1.00  0.00     0.060 A 
ATOM     49  C   UNL A   1      37.294  30.085  27.481  1.00  0.00     0.016 A 
ATOM     50  C   UNL A   1      36.427  29.506  29.660  1.00  0.00     0.016 A 
ATOM     51  C   UNL A   1      38.605  29.809  27.916  1.00  0.00     0.010 A 
ATOM     52  C   UNL A   1      37.695  29.125  30.043  1.00  0.00     0.010 A 
ATOM     53  C   UNL A   1      38.794  29.255  29.178  1.00  0.00    -0.014 A 
BRANCH  53  54
ATOM     54  C   UNL A   1      40.029  28.702  29.746  1.00  0.00     0.031 A 
ATOM     55  C   UNL A   1      40.403  27.331  29.313  1.00  0.00     0.074 A 
ATOM     56  C   UNL A   1      40.978  29.516  30.271  1.00  0.00     0.049 A 
ATOM     57  N   UNL A   1      41.571  26.826  29.458  1.00  0.00    -0.248 NA
ATOM     58  C   UNL A   1      39.492  26.413  28.631  1.00  0.00     0.031 C 
ATOM     59  C   UNL A   1      42.426  29.311  30.294  1.00  0.00     0.029 A 
ATOM     60  N   UNL A   1      40.843  30.728  30.961  1.00  0.00    -0.354 N 
ATOM     61  C   UNL A   1      41.679  25.706  28.675  1.00  0.00     0.074 A 
ATOM     62  C   UNL A   1      40.334  25.455  28.225  1.00  0.00     0.031 C 
ATOM     63  C   UNL A   1      42.975  30.091  31.235  1.00  0.00     0.029 A 
ATOM     64  C   UNL A   1      41.887  30.778  31.897  1.00  0.00     0.049 A 
ATOM     65  H   UNL A   1      40.150  31.413  30.817  1.00  0.00     0.167 HD
ATOM     66  C   UNL A   1      42.937  25.220  28.473  1.00  0.00     0.037 A 
ATOM     67  C   UNL A   1      41.629  30.801  33.228  1.00  0.00     0.037 A 
ATOM     68  C   UNL A   1      43.848  25.808  29.479  1.00  0.00     0.049 A 
ATOM     69  C   UNL A   1      42.247  29.560  33.801  1.00  0.00     0.074 A 
ATOM     70  C   UNL A   1      44.880  26.730  29.448  1.00  0.00     0.029 A 
ATOM     71  N   UNL A   1      43.497  25.672  30.830  1.00  0.00    -0.354 N 
ATOM     72  N   UNL A   1      42.301  28.420  33.151  1.00  0.00    -0.248 NA
ATOM     73  C   UNL A   1      43.135  29.606  34.959  1.00  0.00     0.031 C 
ATOM     74  C   UNL A   1      45.057  27.226  30.782  1.00  0.00     0.029 A 
ATOM     75  C   UNL A   1      44.143  26.601  31.624  1.00  0.00     0.049 A 
ATOM     76  H   UNL A   1      42.868  24.997  31.171  1.00  0.00     0.167 HD
ATOM     77  C   UNL A   1      43.335  27.684  33.663  1.00  0.00     0.074 A 
ATOM     78  C   UNL A   1      43.789  28.442  34.825  1.00  0.00     0.031 C 
ATOM     79  C   UNL A   1      43.944  26.611  33.072  1.00  0.00     0.037 A 
BRANCH  66  80
ATOM     80  C   UNL A   1      43.377  24.304  27.340  1.00  0.00     0.058 A 
ATOM     81  C   UNL A   1      43.628  22.932  27.580  1.00  0.00     0.135 A 
ATOM     82  C   UNL A   1      43.659  24.709  26.014  1.00  0.00     0.135 A 
ATOM     83  F   UNL A   1      43.462  22.399  28.799  1.00  0.00    -0.206 F 
ATOM     84  C   UNL A   1      44.088  22.046  26.595  1.00  0.00     0.059 A 
ATOM     85  C   UNL A   1      44.089  23.839  25.006  1.00  0.00     0.059 A 
ATOM     86  F   UNL A   1      43.577  25.984  25.624  1.00  0.00    -0.206 F 
ATOM     87  C   UNL A   1      44.307  22.506  25.304  1.00  0.00     0.060 A 
BRANCH  87  88
ATOM     88  S   UNL A   1      44.886  21.361  24.034  1.00  0.00     0.124 S 
ATOM     89  O   UNL A   1      46.325  21.340  24.276  1.00  0.00    -0.237 OA
ATOM     90  O   UNL A   1      44.166  20.138  24.371  1.00  0.00    -0.237 OA
ATOM     91  O   UNL A   1      44.476  21.998  22.785  1.00  0.00    -0.744 OA
ENDBRANCH  87  88
ENDBRANCH  66  80
BRANCH  67  92
ATOM     92  C   UNL A   1      40.413  31.618  33.537  1.00  0.00     0.058 A 
ATOM     93  C   UNL A   1      39.292  30.859  33.955  1.00  0.00     0.135 A 
ATOM     94  C   UNL A   1      40.497  32.929  34.036  1.00  0.00     0.135 A 
ATOM     95  F   UNL A   1      39.128  29.607  33.495  1.00  0.00    -0.206 F 
ATOM     96  C   UNL A   1      38.440  31.281  34.979  1.00  0.00     0.059 A 
ATOM     97  C   UNL A   1      39.635  33.380  35.053  1.00  0.00     0.059 A 
ATOM     98  F   UNL A   1      41.517  33.723  33.680  1.00  0.00    -0.206 F 
ATOM     99  C   UNL A   1      38.666  32.518  35.573  1.00  0.00     0.060 A 
BRANCH  99 100
ATOM    100  S   UNL A   1      37.841  32.872  37.153  1.00  0.00     0.124 S 
ATOM    101  O   UNL A   1      38.680  33.926  37.709  1.00  0.00    -0.237 OA
ATOM    102  O   UNL A   1      36.506  33.288  36.726  1.00  0.00    -0.237 OA
ATOM    103  O   UNL A   1      37.884  31.591  37.849  1.00  0.00    -0.744 OA
ENDBRANCH  99 100
ENDBRANCH  67  92
BRANCH  79 104
ATOM    104  C   UNL A   1      44.478  25.473  33.909  1.00  0.00     0.058 A 
ATOM    105  C   UNL A   1      43.641  24.592  34.623  1.00  0.00     0.135 A 
ATOM    106  C   UNL A   1      45.845  25.112  33.866  1.00  0.00     0.135 A 
ATOM    107  F   UNL A   1      42.308  24.735  34.643  1.00  0.00    -0.206 F 
ATOM    108  C   UNL A   1      44.131  23.498  35.319  1.00  0.00     0.059 A 
ATOM    109  C   UNL A   1      46.344  23.980  34.499  1.00  0.00     0.059 A 
ATOM    110  F   UNL A   1      46.749  25.829  33.183  1.00  0.00    -0.206 F 
ATOM    111  C   UNL A   1      45.483  23.198  35.252  1.00  0.00     0.060 A 
BRANCH 111 112
ATOM    112  S   UNL A   1      46.091  21.753  36.124  1.00  0.00     0.124 S 
ATOM    113  O   UNL A   1      45.750  22.090  37.503  1.00  0.00    -0.237 OA
ATOM    114  O   UNL A   1      45.311  20.672  35.528  1.00  0.00    -0.237 OA
ATOM    115  O   UNL A   1      47.514  21.739  35.807  1.00  0.00    -0.744 OA
ENDBRANCH 111 112
ENDBRANCH  79 104
ENDBRANCH  53  54
ENDBRANCH  46  48
ENDBRANCH  45  46
ENDBRANCH  44  45
ENDBRANCH  43  44
ENDBRANCH  42  43
ENDBRANCH   1  42
TORSDOF 23
ENDMDL
