MODEL 1
REMARK VINA RESULT:      -9.9      0.000      0.000
REMARK SMILES Cc1cc2c(c(C)c1Br)C=C(C(=O)OCCOCCOC(=O)c1ccc(-c3c4nc(c(-c5c(F)cc(S(=O)(=O)[O-])cc5F)c5ccc([nH]5)c(-c5c(F)cc(S(=O)(=O)[O-])cc5F)c5nc(c(-c6c(F)cc(S(=O)(=O)[O-])cc6F)c6ccc3[nH]6)C=C5)C=C4)cc1)[C@@H](C(F)(F)F)O2
REMARK SMILES IDX 18 1 17 2 16 3 15 4 14 5 12 6 13 7 11 8 1 9 2 10 3 11 8 12
REMARK SMILES IDX 4 13 6 14 9 15 5 16 94 17 7 18 10 19 89 20 90 21 91 22 92 23
REMARK SMILES IDX 93 24 19 25 20 26 21 27 22 28 23 29 24 30 88 31 25 32 87 33
REMARK SMILES IDX 26 34 27 35 28 36 81 37 29 38 86 39 80 40 82 41 30 42 85 43
REMARK SMILES IDX 79 44 78 45 31 47 65 48 44 49 64 50 45 51 48 52 63 53 83 54
REMARK SMILES IDX 46 55 47 56 62 58 84 59 49 60 32 61 33 62 42 63 34 64 35 65
REMARK SMILES IDX 41 66 43 67 36 68 37 69 38 70 39 71 40 72 66 73 67 74 76 75
REMARK SMILES IDX 68 76 69 77 75 78 77 79 70 80 71 81 72 82 73 83 74 84 50 85
REMARK SMILES IDX 51 86 60 87 52 88 53 89 59 90 61 91 54 92 55 93 56 94 57 95
REMARK SMILES IDX 58 96
REMARK H PARENT 82 46 48 57
REMARK Flexibility Score: inf
ROOT
ATOM      1  C   UNL A   1      34.475  35.185  28.161  1.00  0.00     0.202 C 
ENDROOT
BRANCH   1   2
ATOM      2  O   UNL A   1      33.782  36.120  28.988  1.00  0.00    -0.374 OA
BRANCH   2   3
ATOM      3  C   UNL A   1      32.635  35.653  29.698  1.00  0.00     0.202 C 
BRANCH   3   4
ATOM      4  C   UNL A   1      32.788  35.490  31.213  1.00  0.00     0.261 C 
BRANCH   4   5
ATOM      5  O   UNL A   1      34.165  35.563  31.614  1.00  0.00    -0.460 OA
BRANCH   5   6
ATOM      6  C   UNL A   1      34.768  34.366  31.783  1.00  0.00     0.338 C 
ATOM      7  O   UNL A   1      34.325  33.268  31.472  1.00  0.00    -0.246 OA
BRANCH   6   8
ATOM      8  C   UNL A   1      36.141  34.561  32.283  1.00  0.00     0.087 C 
ATOM      9  C   UNL A   1      42.500  34.119  33.320  1.00  0.00     0.046 C 
ATOM     10  C   UNL A   1      41.135  34.351  32.728  1.00  0.00    -0.033 A 
ATOM     11  C   UNL A   1      40.067  34.582  33.606  1.00  0.00     0.051 A 
ATOM     12  C   UNL A   1      40.877  34.281  31.342  1.00  0.00     0.024 A 
ATOM     13  C   UNL A   1      38.760  34.684  33.135  1.00  0.00     0.128 A 
ATOM     14  C   UNL A   1      39.562  34.436  30.841  1.00  0.00    -0.026 A 
ATOM     15  Br  UNL A   1      42.335  33.918  30.155  1.00  0.00    -0.050 Br
ATOM     16  C   UNL A   1      38.496  34.578  31.766  1.00  0.00     0.021 A 
ATOM     17  O   UNL A   1      37.808  34.891  34.093  1.00  0.00    -0.475 OA
ATOM     18  C   UNL A   1      39.252  34.429  29.361  1.00  0.00     0.046 C 
ATOM     19  C   UNL A   1      37.098  34.536  31.348  1.00  0.00     0.027 C 
ATOM     20  C   UNL A   1      36.404  34.738  33.749  1.00  0.00     0.316 C 
BRANCH  20  21
ATOM     21  C   UNL A   1      35.816  33.603  34.599  1.00  0.00     0.430 C 
ATOM     22  F   UNL A   1      36.298  32.399  34.208  1.00  0.00    -0.167 F 
ATOM     23  F   UNL A   1      36.128  33.743  35.908  1.00  0.00    -0.167 F 
ATOM     24  F   UNL A   1      34.468  33.550  34.505  1.00  0.00    -0.167 F 
ENDBRANCH  20  21
ENDBRANCH   6   8
ENDBRANCH   5   6
ENDBRANCH   4   5
ENDBRANCH   3   4
ENDBRANCH   2   3
ENDBRANCH   1   2
BRANCH   1  25
ATOM     25  C   UNL A   1      33.877  33.779  28.032  1.00  0.00     0.261 C 
BRANCH  25  26
ATOM     26  O   UNL A   1      34.748  32.880  27.321  1.00  0.00    -0.460 OA
BRANCH  26  27
ATOM     27  C   UNL A   1      34.585  31.573  27.630  1.00  0.00     0.338 C 
ATOM     28  O   UNL A   1      33.593  30.884  27.420  1.00  0.00    -0.246 OA
BRANCH  27  29
ATOM     29  C   UNL A   1      35.854  30.998  28.105  1.00  0.00     0.060 A 
ATOM     30  C   UNL A   1      35.816  29.707  28.650  1.00  0.00     0.016 A 
ATOM     31  C   UNL A   1      37.037  31.739  28.110  1.00  0.00     0.016 A 
ATOM     32  C   UNL A   1      36.949  29.173  29.256  1.00  0.00     0.010 A 
ATOM     33  C   UNL A   1      38.171  31.205  28.733  1.00  0.00     0.010 A 
ATOM     34  C   UNL A   1      38.118  29.939  29.343  1.00  0.00    -0.014 A 
BRANCH  34  35
ATOM     35  C   UNL A   1      39.217  29.490  30.231  1.00  0.00     0.031 A 
ATOM     36  C   UNL A   1      40.197  28.476  29.708  1.00  0.00     0.074 A 
ATOM     37  C   UNL A   1      39.368  30.010  31.462  1.00  0.00     0.049 A 
ATOM     38  N   UNL A   1      41.203  27.903  30.317  1.00  0.00    -0.248 NA
ATOM     39  C   UNL A   1      40.021  28.053  28.308  1.00  0.00     0.031 C 
ATOM     40  C   UNL A   1      38.522  31.047  32.051  1.00  0.00     0.029 A 
ATOM     41  N   UNL A   1      40.292  29.733  32.437  1.00  0.00    -0.354 N 
ATOM     42  C   UNL A   1      41.780  27.057  29.378  1.00  0.00     0.074 A 
ATOM     43  C   UNL A   1      40.997  27.167  28.167  1.00  0.00     0.031 C 
ATOM     44  C   UNL A   1      38.964  31.314  33.292  1.00  0.00     0.029 A 
ATOM     45  C   UNL A   1      40.100  30.447  33.595  1.00  0.00     0.049 A 
ATOM     46  H   UNL A   1      41.023  29.086  32.318  1.00  0.00     0.167 HD
ATOM     47  C   UNL A   1      42.872  26.267  29.510  1.00  0.00     0.037 A 
ATOM     48  C   UNL A   1      40.755  30.388  34.772  1.00  0.00     0.037 A 
ATOM     49  C   UNL A   1      43.644  26.153  30.719  1.00  0.00     0.049 A 
ATOM     50  C   UNL A   1      41.907  29.429  34.927  1.00  0.00     0.074 A 
ATOM     51  C   UNL A   1      44.758  25.370  30.961  1.00  0.00     0.029 A 
ATOM     52  N   UNL A   1      43.380  26.845  31.893  1.00  0.00    -0.354 N 
ATOM     53  N   UNL A   1      42.430  28.616  34.039  1.00  0.00    -0.248 NA
ATOM     54  C   UNL A   1      42.553  29.374  36.246  1.00  0.00     0.031 C 
ATOM     55  C   UNL A   1      45.144  25.556  32.292  1.00  0.00     0.029 A 
ATOM     56  C   UNL A   1      44.296  26.490  32.868  1.00  0.00     0.049 A 
ATOM     57  H   UNL A   1      42.648  27.492  32.015  1.00  0.00     0.167 HD
ATOM     58  C   UNL A   1      43.474  27.965  34.688  1.00  0.00     0.074 A 
ATOM     59  C   UNL A   1      43.519  28.491  36.036  1.00  0.00     0.031 C 
ATOM     60  C   UNL A   1      44.320  27.017  34.210  1.00  0.00     0.037 A 
BRANCH  47  61
ATOM     61  C   UNL A   1      43.283  25.447  28.320  1.00  0.00     0.058 A 
ATOM     62  C   UNL A   1      44.138  25.960  27.333  1.00  0.00     0.135 A 
ATOM     63  C   UNL A   1      42.843  24.121  28.180  1.00  0.00     0.135 A 
ATOM     64  F   UNL A   1      44.570  27.229  27.407  1.00  0.00    -0.206 F 
ATOM     65  C   UNL A   1      44.530  25.195  26.239  1.00  0.00     0.059 A 
ATOM     66  C   UNL A   1      43.240  23.329  27.106  1.00  0.00     0.059 A 
ATOM     67  F   UNL A   1      42.017  23.584  29.092  1.00  0.00    -0.206 F 
ATOM     68  C   UNL A   1      44.075  23.879  26.136  1.00  0.00     0.060 A 
BRANCH  68  69
ATOM     69  S   UNL A   1      44.602  22.896  24.716  1.00  0.00     0.124 S 
ATOM     70  O   UNL A   1      45.691  23.710  24.186  1.00  0.00    -0.237 OA
ATOM     71  O   UNL A   1      44.995  21.636  25.339  1.00  0.00    -0.237 OA
ATOM     72  O   UNL A   1      43.405  22.832  23.883  1.00  0.00    -0.744 OA
ENDBRANCH  68  69
ENDBRANCH  47  61
BRANCH  48  73
ATOM     73  C   UNL A   1      40.330  31.255  35.902  1.00  0.00     0.058 A 
ATOM     74  C   UNL A   1      41.187  32.237  36.420  1.00  0.00     0.135 A 
ATOM     75  C   UNL A   1      39.057  31.126  36.478  1.00  0.00     0.135 A 
ATOM     76  F   UNL A   1      42.419  32.387  35.912  1.00  0.00    -0.206 F 
ATOM     77  C   UNL A   1      40.799  33.059  37.474  1.00  0.00     0.059 A 
ATOM     78  C   UNL A   1      38.637  31.951  37.517  1.00  0.00     0.059 A 
ATOM     79  F   UNL A   1      38.199  30.205  36.013  1.00  0.00    -0.206 F 
ATOM     80  C   UNL A   1      39.518  32.913  38.011  1.00  0.00     0.060 A 
BRANCH  80  81
ATOM     81  S   UNL A   1      39.004  34.027  39.336  1.00  0.00     0.124 S 
ATOM     82  O   UNL A   1      38.597  35.209  38.585  1.00  0.00    -0.237 OA
ATOM     83  O   UNL A   1      37.928  33.270  39.968  1.00  0.00    -0.237 OA
ATOM     84  O   UNL A   1      40.214  34.174  40.139  1.00  0.00    -0.744 OA
ENDBRANCH  80  81
ENDBRANCH  48  73
BRANCH  60  85
ATOM     85  C   UNL A   1      45.371  26.494  35.149  1.00  0.00     0.058 A 
ATOM     86  C   UNL A   1      46.625  27.112  35.263  1.00  0.00     0.135 A 
ATOM     87  C   UNL A   1      45.104  25.389  35.976  1.00  0.00     0.135 A 
ATOM     88  F   UNL A   1      46.931  28.167  34.493  1.00  0.00    -0.206 F 
ATOM     89  C   UNL A   1      47.590  26.637  36.146  1.00  0.00     0.059 A 
ATOM     90  C   UNL A   1      46.045  24.914  36.884  1.00  0.00     0.059 A 
ATOM     91  F   UNL A   1      43.915  24.770  35.915  1.00  0.00    -0.206 F 
ATOM     92  C   UNL A   1      47.291  25.538  36.952  1.00  0.00     0.060 A 
BRANCH  92  93
ATOM     93  S   UNL A   1      48.547  24.944  38.107  1.00  0.00     0.124 S 
ATOM     94  O   UNL A   1      47.781  24.839  39.345  1.00  0.00    -0.237 OA
ATOM     95  O   UNL A   1      48.953  23.679  37.502  1.00  0.00    -0.237 OA
ATOM     96  O   UNL A   1      49.558  25.997  38.080  1.00  0.00    -0.744 OA
ENDBRANCH  92  93
ENDBRANCH  60  85
ENDBRANCH  34  35
ENDBRANCH  27  29
ENDBRANCH  26  27
ENDBRANCH  25  26
ENDBRANCH   1  25
TORSDOF 18
ENDMDL
MODEL 2
REMARK VINA RESULT:      -9.8      4.463     10.793
REMARK SMILES Cc1cc2c(c(C)c1Br)C=C(C(=O)OCCOCCOC(=O)c1ccc(-c3c4nc(c(-c5c(F)cc(S(=O)(=O)[O-])cc5F)c5ccc([nH]5)c(-c5c(F)cc(S(=O)(=O)[O-])cc5F)c5nc(c(-c6c(F)cc(S(=O)(=O)[O-])cc6F)c6ccc3[nH]6)C=C5)C=C4)cc1)[C@@H](C(F)(F)F)O2
REMARK SMILES IDX 18 1 17 2 16 3 15 4 14 5 12 6 13 7 11 8 1 9 2 10 3 11 8 12
REMARK SMILES IDX 4 13 6 14 9 15 5 16 94 17 7 18 10 19 89 20 90 21 91 22 92 23
REMARK SMILES IDX 93 24 19 25 20 26 21 27 22 28 23 29 24 30 88 31 25 32 87 33
REMARK SMILES IDX 26 34 27 35 28 36 81 37 29 38 86 39 80 40 82 41 30 42 85 43
REMARK SMILES IDX 79 44 78 45 31 47 65 48 44 49 64 50 45 51 48 52 63 53 83 54
REMARK SMILES IDX 46 55 47 56 62 58 84 59 49 60 32 61 33 62 42 63 34 64 35 65
REMARK SMILES IDX 41 66 43 67 36 68 37 69 38 70 39 71 40 72 66 73 67 74 76 75
REMARK SMILES IDX 68 76 69 77 75 78 77 79 70 80 71 81 72 82 73 83 74 84 50 85
REMARK SMILES IDX 51 86 60 87 52 88 53 89 59 90 61 91 54 92 55 93 56 94 57 95
REMARK SMILES IDX 58 96
REMARK H PARENT 82 46 48 57
REMARK Flexibility Score: inf
ROOT
ATOM      1  C   UNL A   1      39.527  21.269  26.134  1.00  0.00     0.202 C 
ENDROOT
BRANCH   1   2
ATOM      2  O   UNL A   1      38.343  21.891  25.634  1.00  0.00    -0.374 OA
BRANCH   2   3
ATOM      3  C   UNL A   1      37.564  21.163  24.684  1.00  0.00     0.202 C 
BRANCH   3   4
ATOM      4  C   UNL A   1      36.108  20.880  25.067  1.00  0.00     0.261 C 
BRANCH   4   5
ATOM      5  O   UNL A   1      35.194  21.614  24.238  1.00  0.00    -0.460 OA
BRANCH   5   6
ATOM      6  C   UNL A   1      33.888  21.365  24.481  1.00  0.00     0.338 C 
ATOM      7  O   UNL A   1      33.321  20.282  24.422  1.00  0.00    -0.246 OA
BRANCH   6   8
ATOM      8  C   UNL A   1      33.230  22.585  24.982  1.00  0.00     0.087 C 
ATOM      9  C   UNL A   1      31.832  28.684  26.579  1.00  0.00     0.046 C 
ATOM     10  C   UNL A   1      32.127  27.405  25.843  1.00  0.00    -0.033 A 
ATOM     11  C   UNL A   1      31.875  26.193  26.502  1.00  0.00     0.051 A 
ATOM     12  C   UNL A   1      32.702  27.374  24.555  1.00  0.00     0.024 A 
ATOM     13  C   UNL A   1      32.236  24.976  25.930  1.00  0.00     0.128 A 
ATOM     14  C   UNL A   1      33.027  26.144  23.935  1.00  0.00    -0.026 A 
ATOM     15  Br  UNL A   1      33.087  29.035  23.683  1.00  0.00    -0.050 Br
ATOM     16  C   UNL A   1      32.840  24.944  24.669  1.00  0.00     0.021 A 
ATOM     17  O   UNL A   1      31.953  23.870  26.680  1.00  0.00    -0.475 OA
ATOM     18  C   UNL A   1      33.588  26.065  22.533  1.00  0.00     0.046 C 
ATOM     19  C   UNL A   1      33.337  23.658  24.189  1.00  0.00     0.027 C 
ATOM     20  C   UNL A   1      32.529  22.588  26.307  1.00  0.00     0.316 C 
BRANCH  20  21
ATOM     21  C   UNL A   1      33.428  22.107  27.455  1.00  0.00     0.430 C 
ATOM     22  F   UNL A   1      34.639  22.712  27.415  1.00  0.00    -0.167 F 
ATOM     23  F   UNL A   1      32.890  22.387  28.665  1.00  0.00    -0.167 F 
ATOM     24  F   UNL A   1      33.639  20.773  27.404  1.00  0.00    -0.167 F 
ENDBRANCH  20  21
ENDBRANCH   6   8
ENDBRANCH   5   6
ENDBRANCH   4   5
ENDBRANCH   3   4
ENDBRANCH   2   3
ENDBRANCH   1   2
BRANCH   1  25
ATOM     25  C   UNL A   1      40.388  22.079  27.112  1.00  0.00     0.261 C 
BRANCH  25  26
ATOM     26  O   UNL A   1      40.316  23.493  26.856  1.00  0.00    -0.460 OA
BRANCH  26  27
ATOM     27  C   UNL A   1      41.430  24.185  27.192  1.00  0.00     0.338 C 
ATOM     28  O   UNL A   1      42.578  23.952  26.834  1.00  0.00    -0.246 OA
BRANCH  27  29
ATOM     29  C   UNL A   1      41.068  25.411  27.923  1.00  0.00     0.060 A 
ATOM     30  C   UNL A   1      42.063  26.385  28.084  1.00  0.00     0.016 A 
ATOM     31  C   UNL A   1      39.817  25.564  28.522  1.00  0.00     0.016 A 
ATOM     32  C   UNL A   1      41.830  27.491  28.896  1.00  0.00     0.010 A 
ATOM     33  C   UNL A   1      39.590  26.670  29.349  1.00  0.00     0.010 A 
ATOM     34  C   UNL A   1      40.609  27.614  29.571  1.00  0.00    -0.014 A 
BRANCH  34  35
ATOM     35  C   UNL A   1      40.471  28.624  30.646  1.00  0.00     0.031 A 
ATOM     36  C   UNL A   1      41.388  28.540  31.836  1.00  0.00     0.074 A 
ATOM     37  C   UNL A   1      39.580  29.625  30.545  1.00  0.00     0.049 A 
ATOM     38  N   UNL A   1      41.418  29.279  32.915  1.00  0.00    -0.248 NA
ATOM     39  C   UNL A   1      42.411  27.481  31.803  1.00  0.00     0.031 C 
ATOM     40  C   UNL A   1      38.686  29.849  29.409  1.00  0.00     0.029 A 
ATOM     41  N   UNL A   1      39.282  30.644  31.415  1.00  0.00    -0.354 N 
ATOM     42  C   UNL A   1      42.460  28.779  33.686  1.00  0.00     0.074 A 
ATOM     43  C   UNL A   1      43.020  27.655  32.967  1.00  0.00     0.031 C 
ATOM     44  C   UNL A   1      37.933  30.935  29.657  1.00  0.00     0.029 A 
ATOM     45  C   UNL A   1      38.269  31.462  30.978  1.00  0.00     0.049 A 
ATOM     46  H   UNL A   1      39.750  30.775  32.270  1.00  0.00     0.167 HD
ATOM     47  C   UNL A   1      42.917  29.223  34.880  1.00  0.00     0.037 A 
ATOM     48  C   UNL A   1      37.669  32.504  31.588  1.00  0.00     0.037 A 
ATOM     49  C   UNL A   1      42.351  30.337  35.596  1.00  0.00     0.049 A 
ATOM     50  C   UNL A   1      38.128  32.920  32.960  1.00  0.00     0.074 A 
ATOM     51  C   UNL A   1      42.732  30.857  36.820  1.00  0.00     0.029 A 
ATOM     52  N   UNL A   1      41.284  31.102  35.150  1.00  0.00    -0.354 N 
ATOM     53  N   UNL A   1      39.100  32.424  33.691  1.00  0.00    -0.248 NA
ATOM     54  C   UNL A   1      37.406  34.031  33.595  1.00  0.00     0.031 C 
ATOM     55  C   UNL A   1      41.867  31.911  37.134  1.00  0.00     0.029 A 
ATOM     56  C   UNL A   1      40.976  32.077  36.085  1.00  0.00     0.049 A 
ATOM     57  H   UNL A   1      40.813  30.972  34.296  1.00  0.00     0.167 HD
ATOM     58  C   UNL A   1      39.114  33.172  34.864  1.00  0.00     0.074 A 
ATOM     59  C   UNL A   1      38.066  34.164  34.738  1.00  0.00     0.031 C 
ATOM     60  C   UNL A   1      39.922  33.050  35.947  1.00  0.00     0.037 A 
BRANCH  47  61
ATOM     61  C   UNL A   1      44.072  28.489  35.498  1.00  0.00     0.058 A 
ATOM     62  C   UNL A   1      45.402  28.856  35.236  1.00  0.00     0.135 A 
ATOM     63  C   UNL A   1      43.850  27.426  36.388  1.00  0.00     0.135 A 
ATOM     64  F   UNL A   1      45.671  29.851  34.376  1.00  0.00    -0.206 F 
ATOM     65  C   UNL A   1      46.471  28.184  35.821  1.00  0.00     0.059 A 
ATOM     66  C   UNL A   1      44.903  26.754  37.002  1.00  0.00     0.059 A 
ATOM     67  F   UNL A   1      42.598  27.030  36.667  1.00  0.00    -0.206 F 
ATOM     68  C   UNL A   1      46.211  27.135  36.704  1.00  0.00     0.060 A 
BRANCH  68  69
ATOM     69  S   UNL A   1      47.609  26.282  37.462  1.00  0.00     0.124 S 
ATOM     70  O   UNL A   1      47.791  27.053  38.688  1.00  0.00    -0.237 OA
ATOM     71  O   UNL A   1      47.091  24.928  37.634  1.00  0.00    -0.237 OA
ATOM     72  O   UNL A   1      48.672  26.422  36.471  1.00  0.00    -0.744 OA
ENDBRANCH  68  69
ENDBRANCH  47  61
BRANCH  48  73
ATOM     73  C   UNL A   1      36.557  33.220  30.908  1.00  0.00     0.058 A 
ATOM     74  C   UNL A   1      35.226  33.033  31.307  1.00  0.00     0.135 A 
ATOM     75  C   UNL A   1      36.805  34.113  29.853  1.00  0.00     0.135 A 
ATOM     76  F   UNL A   1      34.938  32.178  32.300  1.00  0.00    -0.206 F 
ATOM     77  C   UNL A   1      34.177  33.702  30.683  1.00  0.00     0.059 A 
ATOM     78  C   UNL A   1      35.776  34.811  29.229  1.00  0.00     0.059 A 
ATOM     79  F   UNL A   1      38.063  34.330  29.438  1.00  0.00    -0.206 F 
ATOM     80  C   UNL A   1      34.464  34.595  29.649  1.00  0.00     0.060 A 
BRANCH  80  81
ATOM     81  S   UNL A   1      33.102  35.504  28.890  1.00  0.00     0.124 S 
ATOM     82  O   UNL A   1      32.434  34.454  28.129  1.00  0.00    -0.237 OA
ATOM     83  O   UNL A   1      32.381  36.003  30.057  1.00  0.00    -0.237 OA
ATOM     84  O   UNL A   1      33.779  36.524  28.096  1.00  0.00    -0.744 OA
ENDBRANCH  80  81
ENDBRANCH  48  73
BRANCH  60  85
ATOM     85  C   UNL A   1      39.710  34.017  37.079  1.00  0.00     0.058 A 
ATOM     86  C   UNL A   1      38.922  33.683  38.191  1.00  0.00     0.135 A 
ATOM     87  C   UNL A   1      40.338  35.274  37.072  1.00  0.00     0.135 A 
ATOM     88  F   UNL A   1      38.298  32.496  38.244  1.00  0.00    -0.206 F 
ATOM     89  C   UNL A   1      38.742  34.572  39.246  1.00  0.00     0.059 A 
ATOM     90  C   UNL A   1      40.192  36.168  38.127  1.00  0.00     0.059 A 
ATOM     91  F   UNL A   1      41.112  35.638  36.037  1.00  0.00    -0.206 F 
ATOM     92  C   UNL A   1      39.381  35.812  39.205  1.00  0.00     0.060 A 
BRANCH  92  93
ATOM     93  S   UNL A   1      39.154  36.949  40.590  1.00  0.00     0.124 S 
ATOM     94  O   UNL A   1      40.525  37.370  40.853  1.00  0.00    -0.237 OA
ATOM     95  O   UNL A   1      38.276  37.966  40.017  1.00  0.00    -0.237 OA
ATOM     96  O   UNL A   1      38.544  36.112  41.619  1.00  0.00    -0.744 OA
ENDBRANCH  92  93
ENDBRANCH  60  85
ENDBRANCH  34  35
ENDBRANCH  27  29
ENDBRANCH  26  27
ENDBRANCH  25  26
ENDBRANCH   1  25
TORSDOF 18
ENDMDL
MODEL 3
REMARK VINA RESULT:      -9.7      4.361     10.246
REMARK SMILES Cc1cc2c(c(C)c1Br)C=C(C(=O)OCCOCCOC(=O)c1ccc(-c3c4nc(c(-c5c(F)cc(S(=O)(=O)[O-])cc5F)c5ccc([nH]5)c(-c5c(F)cc(S(=O)(=O)[O-])cc5F)c5nc(c(-c6c(F)cc(S(=O)(=O)[O-])cc6F)c6ccc3[nH]6)C=C5)C=C4)cc1)[C@@H](C(F)(F)F)O2
REMARK SMILES IDX 18 1 17 2 16 3 15 4 14 5 12 6 13 7 11 8 1 9 2 10 3 11 8 12
REMARK SMILES IDX 4 13 6 14 9 15 5 16 94 17 7 18 10 19 89 20 90 21 91 22 92 23
REMARK SMILES IDX 93 24 19 25 20 26 21 27 22 28 23 29 24 30 88 31 25 32 87 33
REMARK SMILES IDX 26 34 27 35 28 36 81 37 29 38 86 39 80 40 82 41 30 42 85 43
REMARK SMILES IDX 79 44 78 45 31 47 65 48 44 49 64 50 45 51 48 52 63 53 83 54
REMARK SMILES IDX 46 55 47 56 62 58 84 59 49 60 32 61 33 62 42 63 34 64 35 65
REMARK SMILES IDX 41 66 43 67 36 68 37 69 38 70 39 71 40 72 66 73 67 74 76 75
REMARK SMILES IDX 68 76 69 77 75 78 77 79 70 80 71 81 72 82 73 83 74 84 50 85
REMARK SMILES IDX 51 86 60 87 52 88 53 89 59 90 61 91 54 92 55 93 56 94 57 95
REMARK SMILES IDX 58 96
REMARK H PARENT 82 46 48 57
REMARK Flexibility Score: inf
ROOT
ATOM      1  C   UNL A   1      37.091  23.038  25.388  1.00  0.00     0.202 C 
ENDROOT
BRANCH   1   2
ATOM      2  O   UNL A   1      36.285  21.969  25.882  1.00  0.00    -0.374 OA
BRANCH   2   3
ATOM      3  C   UNL A   1      35.066  22.308  26.543  1.00  0.00     0.202 C 
BRANCH   3   4
ATOM      4  C   UNL A   1      33.884  22.685  25.645  1.00  0.00     0.261 C 
BRANCH   4   5
ATOM      5  O   UNL A   1      33.671  24.105  25.624  1.00  0.00    -0.460 OA
BRANCH   5   6
ATOM      6  C   UNL A   1      33.570  24.643  24.389  1.00  0.00     0.338 C 
ATOM      7  O   UNL A   1      33.766  24.076  23.322  1.00  0.00    -0.246 OA
BRANCH   6   8
ATOM      8  C   UNL A   1      33.040  26.015  24.480  1.00  0.00     0.087 C 
ATOM      9  C   UNL A   1      31.228  31.852  26.564  1.00  0.00     0.046 C 
ATOM     10  C   UNL A   1      32.008  30.634  26.149  1.00  0.00    -0.033 A 
ATOM     11  C   UNL A   1      31.412  29.748  25.241  1.00  0.00     0.051 A 
ATOM     12  C   UNL A   1      33.276  30.315  26.681  1.00  0.00     0.024 A 
ATOM     13  C   UNL A   1      32.024  28.542  24.907  1.00  0.00     0.128 A 
ATOM     14  C   UNL A   1      33.938  29.120  26.311  1.00  0.00    -0.026 A 
ATOM     15  Br  UNL A   1      34.061  31.508  27.956  1.00  0.00    -0.050 Br
ATOM     16  C   UNL A   1      33.263  28.206  25.461  1.00  0.00     0.021 A 
ATOM     17  O   UNL A   1      31.332  27.759  24.027  1.00  0.00    -0.475 OA
ATOM     18  C   UNL A   1      35.321  28.771  26.811  1.00  0.00     0.046 C 
ATOM     19  C   UNL A   1      33.781  26.867  25.198  1.00  0.00     0.027 C 
ATOM     20  C   UNL A   1      31.740  26.378  23.826  1.00  0.00     0.316 C 
BRANCH  20  21
ATOM     21  C   UNL A   1      30.584  25.463  24.254  1.00  0.00     0.430 C 
ATOM     22  F   UNL A   1      29.386  26.058  24.041  1.00  0.00    -0.167 F 
ATOM     23  F   UNL A   1      30.576  24.305  23.556  1.00  0.00    -0.167 F 
ATOM     24  F   UNL A   1      30.652  25.147  25.567  1.00  0.00    -0.167 F 
ENDBRANCH  20  21
ENDBRANCH   6   8
ENDBRANCH   5   6
ENDBRANCH   4   5
ENDBRANCH   3   4
ENDBRANCH   2   3
ENDBRANCH   1   2
BRANCH   1  25
ATOM     25  C   UNL A   1      38.427  23.299  26.094  1.00  0.00     0.261 C 
BRANCH  25  26
ATOM     26  O   UNL A   1      38.538  24.655  26.564  1.00  0.00    -0.460 OA
BRANCH  26  27
ATOM     27  C   UNL A   1      39.792  25.163  26.529  1.00  0.00     0.338 C 
ATOM     28  O   UNL A   1      40.576  25.130  25.587  1.00  0.00    -0.246 OA
BRANCH  27  29
ATOM     29  C   UNL A   1      40.056  25.953  27.743  1.00  0.00     0.060 A 
ATOM     30  C   UNL A   1      39.181  25.790  28.825  1.00  0.00     0.016 A 
ATOM     31  C   UNL A   1      41.076  26.905  27.789  1.00  0.00     0.016 A 
ATOM     32  C   UNL A   1      39.285  26.619  29.938  1.00  0.00     0.010 A 
ATOM     33  C   UNL A   1      41.170  27.748  28.903  1.00  0.00     0.010 A 
ATOM     34  C   UNL A   1      40.249  27.634  29.961  1.00  0.00    -0.014 A 
BRANCH  34  35
ATOM     35  C   UNL A   1      40.173  28.687  31.001  1.00  0.00     0.031 A 
ATOM     36  C   UNL A   1      41.112  28.612  32.173  1.00  0.00     0.074 A 
ATOM     37  C   UNL A   1      39.315  29.716  30.882  1.00  0.00     0.049 A 
ATOM     38  N   UNL A   1      41.194  29.388  33.223  1.00  0.00    -0.248 NA
ATOM     39  C   UNL A   1      42.096  27.516  32.157  1.00  0.00     0.031 C 
ATOM     40  C   UNL A   1      38.404  29.931  29.759  1.00  0.00     0.029 A 
ATOM     41  N   UNL A   1      39.074  30.775  31.720  1.00  0.00    -0.354 N 
ATOM     42  C   UNL A   1      42.235  28.878  33.989  1.00  0.00     0.074 A 
ATOM     43  C   UNL A   1      42.737  27.709  33.301  1.00  0.00     0.031 C 
ATOM     44  C   UNL A   1      37.696  31.052  29.983  1.00  0.00     0.029 A 
ATOM     45  C   UNL A   1      38.081  31.614  31.276  1.00  0.00     0.049 A 
ATOM     46  H   UNL A   1      39.566  30.920  32.560  1.00  0.00     0.167 HD
ATOM     47  C   UNL A   1      42.735  29.348  35.156  1.00  0.00     0.037 A 
ATOM     48  C   UNL A   1      37.533  32.697  31.860  1.00  0.00     0.037 A 
ATOM     49  C   UNL A   1      42.227  30.507  35.842  1.00  0.00     0.049 A 
ATOM     50  C   UNL A   1      38.039  33.146  33.206  1.00  0.00     0.074 A 
ATOM     51  C   UNL A   1      42.653  31.057  37.038  1.00  0.00     0.029 A 
ATOM     52  N   UNL A   1      41.177  31.294  35.392  1.00  0.00    -0.354 N 
ATOM     53  N   UNL A   1      39.009  32.641  33.933  1.00  0.00    -0.248 NA
ATOM     54  C   UNL A   1      37.371  34.304  33.815  1.00  0.00     0.031 C 
ATOM     55  C   UNL A   1      41.835  32.152  37.332  1.00  0.00     0.029 A 
ATOM     56  C   UNL A   1      40.926  32.313  36.297  1.00  0.00     0.049 A 
ATOM     57  H   UNL A   1      40.682  31.150  34.553  1.00  0.00     0.167 HD
ATOM     58  C   UNL A   1      39.077  33.431  35.077  1.00  0.00     0.074 A 
ATOM     59  C   UNL A   1      38.062  34.454  34.937  1.00  0.00     0.031 C 
ATOM     60  C   UNL A   1      39.904  33.318  36.146  1.00  0.00     0.037 A 
BRANCH  47  61
ATOM     61  C   UNL A   1      43.877  28.595  35.775  1.00  0.00     0.058 A 
ATOM     62  C   UNL A   1      43.660  27.524  36.657  1.00  0.00     0.135 A 
ATOM     63  C   UNL A   1      45.205  28.925  35.461  1.00  0.00     0.135 A 
ATOM     64  F   UNL A   1      42.411  27.181  37.008  1.00  0.00    -0.206 F 
ATOM     65  C   UNL A   1      44.720  26.818  37.219  1.00  0.00     0.059 A 
ATOM     66  C   UNL A   1      46.280  28.218  35.993  1.00  0.00     0.059 A 
ATOM     67  F   UNL A   1      45.468  29.946  34.630  1.00  0.00    -0.206 F 
ATOM     68  C   UNL A   1      46.026  27.173  36.879  1.00  0.00     0.060 A 
BRANCH  68  69
ATOM     69  S   UNL A   1      47.389  26.239  37.608  1.00  0.00     0.124 S 
ATOM     70  O   UNL A   1      47.893  27.186  38.599  1.00  0.00    -0.237 OA
ATOM     71  O   UNL A   1      46.709  25.064  38.143  1.00  0.00    -0.237 OA
ATOM     72  O   UNL A   1      48.274  25.987  36.476  1.00  0.00    -0.744 OA
ENDBRANCH  68  69
ENDBRANCH  47  61
BRANCH  48  73
ATOM     73  C   UNL A   1      36.432  33.429  31.179  1.00  0.00     0.058 A 
ATOM     74  C   UNL A   1      36.677  34.200  30.034  1.00  0.00     0.135 A 
ATOM     75  C   UNL A   1      35.113  33.365  31.655  1.00  0.00     0.135 A 
ATOM     76  F   UNL A   1      37.924  34.304  29.551  1.00  0.00    -0.206 F 
ATOM     77  C   UNL A   1      35.655  34.885  29.384  1.00  0.00     0.059 A 
ATOM     78  C   UNL A   1      34.070  34.022  31.010  1.00  0.00     0.059 A 
ATOM     79  F   UNL A   1      34.826  32.636  32.746  1.00  0.00    -0.206 F 
ATOM     80  C   UNL A   1      34.352  34.784  29.877  1.00  0.00     0.060 A 
BRANCH  80  81
ATOM     81  S   UNL A   1      33.025  35.626  28.990  1.00  0.00     0.124 S 
ATOM     82  O   UNL A   1      32.484  34.546  28.173  1.00  0.00    -0.237 OA
ATOM     83  O   UNL A   1      32.174  36.089  30.082  1.00  0.00    -0.237 OA
ATOM     84  O   UNL A   1      33.724  36.680  28.261  1.00  0.00    -0.744 OA
ENDBRANCH  80  81
ENDBRANCH  48  73
BRANCH  60  85
ATOM     85  C   UNL A   1      39.753  34.332  37.246  1.00  0.00     0.058 A 
ATOM     86  C   UNL A   1      38.972  34.071  38.381  1.00  0.00     0.135 A 
ATOM     87  C   UNL A   1      40.433  35.560  37.183  1.00  0.00     0.135 A 
ATOM     88  F   UNL A   1      38.299  32.915  38.487  1.00  0.00    -0.206 F 
ATOM     89  C   UNL A   1      38.848  35.004  39.407  1.00  0.00     0.059 A 
ATOM     90  C   UNL A   1      40.344  36.496  38.208  1.00  0.00     0.059 A 
ATOM     91  F   UNL A   1      41.204  35.854  36.124  1.00  0.00    -0.206 F 
ATOM     92  C   UNL A   1      39.538  36.214  39.311  1.00  0.00     0.060 A 
BRANCH  92  93
ATOM     93  S   UNL A   1      39.383  37.406  40.658  1.00  0.00     0.124 S 
ATOM     94  O   UNL A   1      38.879  36.566  41.739  1.00  0.00    -0.237 OA
ATOM     95  O   UNL A   1      40.755  37.883  40.812  1.00  0.00    -0.237 OA
ATOM     96  O   UNL A   1      38.440  38.390  40.134  1.00  0.00    -0.744 OA
ENDBRANCH  92  93
ENDBRANCH  60  85
ENDBRANCH  34  35
ENDBRANCH  27  29
ENDBRANCH  26  27
ENDBRANCH  25  26
ENDBRANCH   1  25
TORSDOF 18
ENDMDL
