MODEL 1
REMARK VINA RESULT:     -16.0      0.000      0.000
REMARK SMILES Cc1ccc(NC(=O)c2cnn3c2NC2=C(C(=O)CCC2)[C@H]3c2ccc(C(=O)OCCOCCOC(=O)c3ccc(-c4c5nc(c(-c6c(F)cc(S(=O)(=O)[O-])cc6F)c6ccc([nH]6)c(-c6c(F)cc(S(=O)(=O)[O-])cc6F)c6nc(c(-c7c(F)cc(S(=O)(=O)[O-])cc7F)c7ccc4[nH]7)C=C6)C=C5)cc3)cc2)cc1
REMARK SMILES IDX 32 1 31 2 30 3 29 4 27 5 28 6 26 7 23 8 24 9 105 10 25 11
REMARK SMILES IDX 104 12 22 13 9 14 10 15 13 16 11 17 12 18 14 19 15 20 16 22
REMARK SMILES IDX 21 23 17 24 20 25 18 26 19 27 7 28 6 29 8 31 5 32 1 33 2 34
REMARK SMILES IDX 3 35 107 36 4 37 106 38 33 39 34 40 35 41 36 42 37 43 38 44
REMARK SMILES IDX 39 45 103 46 40 47 102 48 41 49 42 50 43 51 96 52 44 53
REMARK SMILES IDX 101 54 95 55 97 56 45 57 100 58 94 59 93 60 46 62 80 63
REMARK SMILES IDX 59 64 79 65 60 66 63 67 78 68 98 69 61 70 62 71 77 73 99 74
REMARK SMILES IDX 64 75 47 76 48 77 57 78 49 79 50 80 56 81 58 82 51 83 52 84
REMARK SMILES IDX 53 85 54 86 55 87 81 88 82 89 91 90 83 91 84 92 90 93 92 94
REMARK SMILES IDX 85 95 86 96 87 97 88 98 89 99 65 100 66 101 75 102 67 103
REMARK SMILES IDX 68 104 74 105 76 106 69 107 70 108 71 109 72 110 73 111
REMARK H PARENT 14 21 6 30 97 61 63 72
REMARK Flexibility Score: inf
ROOT
ATOM      1  O   UNL A   1      39.185  26.379  27.071  1.00  0.00    -0.374 OA
ENDROOT
BRANCH   1   2
ATOM      2  C   UNL A   1      39.321  24.810  28.168  1.00  0.00     0.202 C 
BRANCH   2   3
ATOM      3  C   UNL A   1      40.930  23.699  27.601  1.00  0.00     0.261 C 
BRANCH   3   4
ATOM      4  O   UNL A   1      40.083  21.941  26.968  1.00  0.00    -0.460 OA
BRANCH   4   5
ATOM      5  C   UNL A   1      39.038  21.404  26.018  1.00  0.00     0.338 C 
ATOM      6  O   UNL A   1      39.018  20.247  25.559  1.00  0.00    -0.246 OA
BRANCH   5   7
ATOM      7  C   UNL A   1      37.793  22.038  25.583  1.00  0.00     0.060 A 
ATOM      8  C   UNL A   1      35.321  22.753  24.479  1.00  0.00    -0.019 A 
ATOM      9  C   UNL A   1      35.386  21.585  25.224  1.00  0.00     0.007 A 
ATOM     10  C   UNL A   1      36.408  23.665  24.582  1.00  0.00     0.007 A 
ATOM     11  C   UNL A   1      36.615  21.236  25.751  1.00  0.00     0.016 A 
ATOM     12  C   UNL A   1      37.674  23.292  25.056  1.00  0.00     0.016 A 
BRANCH   8  13
ATOM     13  C   UNL A   1      34.280  22.868  23.309  1.00  0.00     0.175 C 
ATOM     14  C   UNL A   1      31.427  23.148  25.405  1.00  0.00     0.102 A 
ATOM     15  C   UNL A   1      31.188  21.966  24.638  1.00  0.00     0.151 A 
ATOM     16  C   UNL A   1      32.459  23.775  24.725  1.00  0.00     0.142 A 
ATOM     17  N   UNL A   1      32.144  21.705  23.749  1.00  0.00    -0.178 NA
ATOM     18  N   UNL A   1      32.948  22.762  23.902  1.00  0.00    -0.237 N 
ATOM     19  N   UNL A   1      33.134  24.984  24.690  1.00  0.00    -0.343 N 
ATOM     20  C   UNL A   1      34.001  25.278  23.605  1.00  0.00     0.026 C 
ATOM     21  H   UNL A   1      33.014  25.637  25.417  1.00  0.00     0.168 HD
ATOM     22  C   UNL A   1      34.244  24.275  22.726  1.00  0.00     0.044 C 
ATOM     23  C   UNL A   1      34.266  26.675  23.107  1.00  0.00     0.055 C 
ATOM     24  C   UNL A   1      33.319  24.494  21.547  1.00  0.00     0.163 C 
ATOM     25  C   UNL A   1      33.397  26.973  21.881  1.00  0.00     0.014 C 
ATOM     26  O   UNL A   1      33.128  23.598  20.729  1.00  0.00    -0.294 OA
ATOM     27  C   UNL A   1      32.494  25.791  21.538  1.00  0.00     0.081 C 
BRANCH  14  28
ATOM     28  C   UNL A   1      30.682  23.560  26.573  1.00  0.00     0.261 C 
ATOM     29  N   UNL A   1      30.437  24.918  26.776  1.00  0.00    -0.322 N 
ATOM     30  H   UNL A   1      30.255  25.156  27.713  1.00  0.00     0.170 HD
ATOM     31  O   UNL A   1      30.339  22.754  27.437  1.00  0.00    -0.269 OA
BRANCH  29  32
ATOM     32  C   UNL A   1      30.402  26.020  25.884  1.00  0.00     0.041 A 
ATOM     33  C   UNL A   1      30.202  29.376  23.131  1.00  0.00     0.044 C 
ATOM     34  C   UNL A   1      30.266  28.201  24.063  1.00  0.00    -0.051 A 
ATOM     35  C   UNL A   1      31.122  28.243  25.160  1.00  0.00     0.005 A 
ATOM     36  C   UNL A   1      29.491  27.052  23.870  1.00  0.00     0.005 A 
ATOM     37  C   UNL A   1      31.206  27.146  26.024  1.00  0.00     0.026 A 
ATOM     38  C   UNL A   1      29.562  25.972  24.770  1.00  0.00     0.026 A 
ENDBRANCH  29  32
ENDBRANCH  14  28
ENDBRANCH   8  13
ENDBRANCH   5   7
ENDBRANCH   4   5
ENDBRANCH   3   4
ENDBRANCH   2   3
ENDBRANCH   1   2
BRANCH   1  39
ATOM     39  C   UNL A   1      39.615  28.012  27.813  1.00  0.00     0.202 C 
BRANCH  39  40
ATOM     40  C   UNL A   1      38.062  29.051  28.433  1.00  0.00     0.261 C 
BRANCH  40  41
ATOM     41  O   UNL A   1      37.635  29.243  30.255  1.00  0.00    -0.460 OA
BRANCH  41  42
ATOM     42  C   UNL A   1      37.899  29.489  31.893  1.00  0.00     0.338 C 
ATOM     43  O   UNL A   1      36.820  29.459  32.517  1.00  0.00    -0.246 OA
BRANCH  42  44
ATOM     44  C   UNL A   1      39.210  30.207  32.988  1.00  0.00     0.060 A 
ATOM     45  C   UNL A   1      40.105  31.192  32.521  1.00  0.00     0.016 A 
ATOM     46  C   UNL A   1      39.818  29.760  34.211  1.00  0.00     0.016 A 
ATOM     47  C   UNL A   1      41.613  31.097  32.734  1.00  0.00     0.010 A 
ATOM     48  C   UNL A   1      41.351  29.632  34.393  1.00  0.00     0.010 A 
ATOM     49  C   UNL A   1      42.275  30.015  33.397  1.00  0.00    -0.014 A 
BRANCH  49  50
ATOM     50  C   UNL A   1      43.818  29.211  32.941  1.00  0.00     0.031 A 
ATOM     51  C   UNL A   1      43.618  28.189  31.931  1.00  0.00     0.074 A 
ATOM     52  C   UNL A   1      45.289  29.374  33.046  1.00  0.00     0.049 A 
ATOM     53  N   UNL A   1      43.704  26.916  32.096  1.00  0.00    -0.248 NA
ATOM     54  C   UNL A   1      43.360  28.632  30.565  1.00  0.00     0.031 C 
ATOM     55  C   UNL A   1      46.536  28.569  33.003  1.00  0.00     0.029 A 
ATOM     56  N   UNL A   1      46.128  30.411  33.493  1.00  0.00    -0.354 N 
ATOM     57  C   UNL A   1      43.963  26.453  30.823  1.00  0.00     0.074 A 
ATOM     58  C   UNL A   1      43.398  27.458  29.934  1.00  0.00     0.031 C 
ATOM     59  C   UNL A   1      47.437  28.967  34.003  1.00  0.00     0.029 A 
ATOM     60  C   UNL A   1      46.901  30.180  34.633  1.00  0.00     0.049 A 
ATOM     61  H   UNL A   1      46.168  31.272  33.018  1.00  0.00     0.167 HD
ATOM     62  C   UNL A   1      45.053  25.656  30.569  1.00  0.00     0.037 A 
ATOM     63  C   UNL A   1      46.373  30.559  35.904  1.00  0.00     0.037 A 
ATOM     64  C   UNL A   1      46.005  25.592  31.716  1.00  0.00     0.049 A 
ATOM     65  C   UNL A   1      45.916  29.053  36.404  1.00  0.00     0.074 A 
ATOM     66  C   UNL A   1      47.378  25.773  31.869  1.00  0.00     0.029 A 
ATOM     67  N   UNL A   1      45.523  25.581  33.030  1.00  0.00    -0.354 N 
ATOM     68  N   UNL A   1      45.699  28.066  35.554  1.00  0.00    -0.248 NA
ATOM     69  C   UNL A   1      45.852  28.504  37.769  1.00  0.00     0.031 C 
ATOM     70  C   UNL A   1      47.695  25.826  33.268  1.00  0.00     0.029 A 
ATOM     71  C   UNL A   1      46.505  25.774  33.983  1.00  0.00     0.049 A 
ATOM     72  H   UNL A   1      44.573  25.447  33.254  1.00  0.00     0.167 HD
ATOM     73  C   UNL A   1      45.854  26.836  36.128  1.00  0.00     0.074 A 
ATOM     74  C   UNL A   1      45.732  27.168  37.542  1.00  0.00     0.031 C 
ATOM     75  C   UNL A   1      46.161  25.693  35.410  1.00  0.00     0.037 A 
BRANCH  62  76
ATOM     76  C   UNL A   1      45.361  25.143  29.159  1.00  0.00     0.058 A 
ATOM     77  C   UNL A   1      44.924  23.882  28.700  1.00  0.00     0.135 A 
ATOM     78  C   UNL A   1      45.992  25.921  28.155  1.00  0.00     0.135 A 
ATOM     79  F   UNL A   1      44.184  23.068  29.460  1.00  0.00    -0.206 F 
ATOM     80  C   UNL A   1      45.158  23.408  27.406  1.00  0.00     0.059 A 
ATOM     81  C   UNL A   1      46.290  25.450  26.873  1.00  0.00     0.059 A 
ATOM     82  F   UNL A   1      46.268  27.220  28.345  1.00  0.00    -0.206 F 
ATOM     83  C   UNL A   1      45.851  24.193  26.498  1.00  0.00     0.060 A 
BRANCH  83  84
ATOM     84  S   UNL A   1      46.050  23.603  24.807  1.00  0.00     0.124 S 
ATOM     85  O   UNL A   1      46.458  22.218  25.011  1.00  0.00    -0.237 OA
ATOM     86  O   UNL A   1      44.710  23.796  24.261  1.00  0.00    -0.237 OA
ATOM     87  O   UNL A   1      47.078  24.481  24.256  1.00  0.00    -0.744 OA
ENDBRANCH  83  84
ENDBRANCH  62  76
BRANCH  63  88
ATOM     88  C   UNL A   1      45.289  31.958  35.778  1.00  0.00     0.058 A 
ATOM     89  C   UNL A   1      44.143  32.758  34.755  1.00  0.00     0.135 A 
ATOM     90  C   UNL A   1      44.775  31.722  37.150  1.00  0.00     0.135 A 
ATOM     91  F   UNL A   1      44.478  32.935  33.463  1.00  0.00    -0.206 F 
ATOM     92  C   UNL A   1      42.428  33.189  35.181  1.00  0.00     0.059 A 
ATOM     93  C   UNL A   1      43.058  31.590  37.759  1.00  0.00     0.059 A 
ATOM     94  F   UNL A   1      45.844  31.876  37.949  1.00  0.00    -0.206 F 
ATOM     95  C   UNL A   1      41.748  32.662  36.816  1.00  0.00     0.060 A 
BRANCH  95  96
ATOM     96  S   UNL A   1      40.007  33.779  38.240  1.00  0.00     0.124 S 
ATOM     97  O   UNL A   1      40.650  34.693  39.181  1.00  0.00    -0.237 OA
ATOM     98  O   UNL A   1      39.033  34.505  37.407  1.00  0.00    -0.237 OA
ATOM     99  O   UNL A   1      39.267  32.775  39.044  1.00  0.00    -0.744 OA
ENDBRANCH  95  96
ENDBRANCH  63  88
BRANCH  75 100
ATOM    100  C   UNL A   1      46.201  24.284  35.955  1.00  0.00     0.058 A 
ATOM    101  C   UNL A   1      45.111  23.418  36.003  1.00  0.00     0.135 A 
ATOM    102  C   UNL A   1      47.415  23.766  36.493  1.00  0.00     0.135 A 
ATOM    103  F   UNL A   1      43.868  23.852  35.752  1.00  0.00    -0.206 F 
ATOM    104  C   UNL A   1      45.261  22.076  36.352  1.00  0.00     0.059 A 
ATOM    105  C   UNL A   1      47.576  22.456  36.893  1.00  0.00     0.059 A 
ATOM    106  F   UNL A   1      48.522  24.502  36.647  1.00  0.00    -0.206 F 
ATOM    107  C   UNL A   1      46.509  21.598  36.754  1.00  0.00     0.060 A 
BRANCH 107 108
ATOM    108  S   UNL A   1      46.734  19.854  37.098  1.00  0.00     0.124 S 
ATOM    109  O   UNL A   1      48.177  19.764  37.290  1.00  0.00    -0.237 OA
ATOM    110  O   UNL A   1      45.919  19.691  38.297  1.00  0.00    -0.237 OA
ATOM    111  O   UNL A   1      46.224  19.197  35.898  1.00  0.00    -0.744 OA
ENDBRANCH 107 108
ENDBRANCH  75 100
ENDBRANCH  49  50
ENDBRANCH  42  44
ENDBRANCH  41  42
ENDBRANCH  40  41
ENDBRANCH  39  40
ENDBRANCH   1  39
TORSDOF 20
ENDMDL
MODEL 2
REMARK VINA RESULT:     -15.7      5.234     11.220
REMARK SMILES Cc1ccc(NC(=O)c2cnn3c2NC2=C(C(=O)CCC2)[C@H]3c2ccc(C(=O)OCCOCCOC(=O)c3ccc(-c4c5nc(c(-c6c(F)cc(S(=O)(=O)[O-])cc6F)c6ccc([nH]6)c(-c6c(F)cc(S(=O)(=O)[O-])cc6F)c6nc(c(-c7c(F)cc(S(=O)(=O)[O-])cc7F)c7ccc4[nH]7)C=C6)C=C5)cc3)cc2)cc1
REMARK SMILES IDX 32 1 31 2 30 3 29 4 27 5 28 6 26 7 23 8 24 9 105 10 25 11
REMARK SMILES IDX 104 12 22 13 9 14 10 15 13 16 11 17 12 18 14 19 15 20 16 22
REMARK SMILES IDX 21 23 17 24 20 25 18 26 19 27 7 28 6 29 8 31 5 32 1 33 2 34
REMARK SMILES IDX 3 35 107 36 4 37 106 38 33 39 34 40 35 41 36 42 37 43 38 44
REMARK SMILES IDX 39 45 103 46 40 47 102 48 41 49 42 50 43 51 96 52 44 53
REMARK SMILES IDX 101 54 95 55 97 56 45 57 100 58 94 59 93 60 46 62 80 63
REMARK SMILES IDX 59 64 79 65 60 66 63 67 78 68 98 69 61 70 62 71 77 73 99 74
REMARK SMILES IDX 64 75 47 76 48 77 57 78 49 79 50 80 56 81 58 82 51 83 52 84
REMARK SMILES IDX 53 85 54 86 55 87 81 88 82 89 91 90 83 91 84 92 90 93 92 94
REMARK SMILES IDX 85 95 86 96 87 97 88 98 89 99 65 100 66 101 75 102 67 103
REMARK SMILES IDX 68 104 74 105 76 106 69 107 70 108 71 109 72 110 73 111
REMARK H PARENT 14 21 6 30 97 61 63 72
REMARK Flexibility Score: inf
ROOT
ATOM      1  O   UNL A   1      38.073  27.879  29.842  1.00  0.00    -0.374 OA
ENDROOT
BRANCH   1   2
ATOM      2  C   UNL A   1      38.162  29.614  30.659  1.00  0.00     0.202 C 
BRANCH   2   3
ATOM      3  C   UNL A   1      38.293  31.054  29.225  1.00  0.00     0.261 C 
BRANCH   3   4
ATOM      4  O   UNL A   1      36.516  32.063  29.414  1.00  0.00    -0.460 OA
BRANCH   4   5
ATOM      5  C   UNL A   1      35.066  31.995  28.997  1.00  0.00     0.338 C 
ATOM      6  O   UNL A   1      34.209  32.864  29.246  1.00  0.00    -0.246 OA
BRANCH   5   7
ATOM      7  C   UNL A   1      34.419  31.027  28.110  1.00  0.00     0.060 A 
ATOM      8  C   UNL A   1      33.712  29.099  26.207  1.00  0.00    -0.019 A 
ATOM      9  C   UNL A   1      34.724  28.787  27.102  1.00  0.00     0.007 A 
ATOM     10  C   UNL A   1      32.892  30.224  26.500  1.00  0.00     0.007 A 
ATOM     11  C   UNL A   1      35.073  29.752  28.027  1.00  0.00     0.016 A 
ATOM     12  C   UNL A   1      33.278  31.237  27.390  1.00  0.00     0.016 A 
BRANCH   8  13
ATOM     13  C   UNL A   1      33.726  28.464  24.770  1.00  0.00     0.175 C 
ATOM     14  C   UNL A   1      32.592  25.259  25.792  1.00  0.00     0.102 A 
ATOM     15  C   UNL A   1      33.875  25.011  25.210  1.00  0.00     0.151 A 
ATOM     16  C   UNL A   1      32.282  26.540  25.367  1.00  0.00     0.142 A 
ATOM     17  N   UNL A   1      34.458  26.104  24.722  1.00  0.00    -0.178 NA
ATOM     18  N   UNL A   1      33.512  27.028  24.929  1.00  0.00    -0.237 N 
ATOM     19  N   UNL A   1      31.215  27.424  25.331  1.00  0.00    -0.343 N 
ATOM     20  C   UNL A   1      31.296  28.596  24.535  1.00  0.00     0.026 C 
ATOM     21  H   UNL A   1      30.404  27.238  25.857  1.00  0.00     0.168 HD
ATOM     22  C   UNL A   1      32.497  28.869  23.966  1.00  0.00     0.044 C 
ATOM     23  C   UNL A   1      30.098  29.258  23.905  1.00  0.00     0.055 C 
ATOM     24  C   UNL A   1      32.428  28.368  22.539  1.00  0.00     0.163 C 
ATOM     25  C   UNL A   1      29.972  28.838  22.437  1.00  0.00     0.014 C 
ATOM     26  O   UNL A   1      33.452  28.236  21.874  1.00  0.00    -0.294 OA
ATOM     27  C   UNL A   1      31.067  27.849  22.046  1.00  0.00     0.081 C 
BRANCH  14  28
ATOM     28  C   UNL A   1      31.828  24.316  26.578  1.00  0.00     0.261 C 
ATOM     29  N   UNL A   1      32.111  22.956  26.468  1.00  0.00    -0.322 N 
ATOM     30  H   UNL A   1      31.367  22.369  26.731  1.00  0.00     0.170 HD
ATOM     31  O   UNL A   1      30.875  24.676  27.270  1.00  0.00    -0.269 OA
BRANCH  29  32
ATOM     32  C   UNL A   1      33.273  22.259  26.047  1.00  0.00     0.041 A 
ATOM     33  C   UNL A   1      36.860  20.117  24.852  1.00  0.00     0.044 C 
ATOM     34  C   UNL A   1      35.636  20.875  25.275  1.00  0.00    -0.051 A 
ATOM     35  C   UNL A   1      34.476  20.784  24.511  1.00  0.00     0.005 A 
ATOM     36  C   UNL A   1      35.613  21.679  26.420  1.00  0.00     0.005 A 
ATOM     37  C   UNL A   1      33.334  21.501  24.883  1.00  0.00     0.026 A 
ATOM     38  C   UNL A   1      34.445  22.367  26.799  1.00  0.00     0.026 A 
ENDBRANCH  29  32
ENDBRANCH  14  28
ENDBRANCH   8  13
ENDBRANCH   5   7
ENDBRANCH   4   5
ENDBRANCH   3   4
ENDBRANCH   2   3
ENDBRANCH   1   2
BRANCH   1  39
ATOM     39  C   UNL A   1      39.649  27.049  29.366  1.00  0.00     0.202 C 
BRANCH  39  40
ATOM     40  C   UNL A   1      39.765  26.570  27.460  1.00  0.00     0.261 C 
BRANCH  40  41
ATOM     41  O   UNL A   1      41.064  27.297  26.311  1.00  0.00    -0.460 OA
BRANCH  41  42
ATOM     42  C   UNL A   1      42.535  27.962  25.855  1.00  0.00     0.338 C 
ATOM     43  O   UNL A   1      42.716  27.821  24.629  1.00  0.00    -0.246 OA
BRANCH  42  44
ATOM     44  C   UNL A   1      44.139  28.443  26.649  1.00  0.00     0.060 A 
ATOM     45  C   UNL A   1      44.497  27.976  27.932  1.00  0.00     0.016 A 
ATOM     46  C   UNL A   1      45.064  29.518  26.417  1.00  0.00     0.016 A 
ATOM     47  C   UNL A   1      45.012  28.906  29.027  1.00  0.00     0.010 A 
ATOM     48  C   UNL A   1      45.543  30.476  27.536  1.00  0.00     0.010 A 
ATOM     49  C   UNL A   1      45.166  30.322  28.887  1.00  0.00    -0.014 A 
BRANCH  49  50
ATOM     50  C   UNL A   1      44.777  31.604  30.088  1.00  0.00     0.031 A 
ATOM     51  C   UNL A   1      43.352  31.868  30.156  1.00  0.00     0.074 A 
ATOM     52  C   UNL A   1      45.366  32.343  31.232  1.00  0.00     0.049 A 
ATOM     53  N   UNL A   1      42.743  32.920  29.735  1.00  0.00    -0.248 NA
ATOM     54  C   UNL A   1      42.515  30.881  30.829  1.00  0.00     0.031 C 
ATOM     55  C   UNL A   1      45.204  33.616  31.978  1.00  0.00     0.029 A 
ATOM     56  N   UNL A   1      46.555  32.211  31.972  1.00  0.00    -0.354 N 
ATOM     57  C   UNL A   1      41.581  32.926  30.479  1.00  0.00     0.074 A 
ATOM     58  C   UNL A   1      41.352  31.532  30.832  1.00  0.00     0.031 C 
ATOM     59  C   UNL A   1      46.447  34.201  32.268  1.00  0.00     0.029 A 
ATOM     60  C   UNL A   1      47.493  33.243  31.889  1.00  0.00     0.049 A 
ATOM     61  H   UNL A   1      46.722  31.417  32.529  1.00  0.00     0.167 HD
ATOM     62  C   UNL A   1      41.221  34.028  31.218  1.00  0.00     0.037 A 
ATOM     63  C   UNL A   1      48.528  33.148  30.910  1.00  0.00     0.037 A 
ATOM     64  C   UNL A   1      42.315  35.038  31.324  1.00  0.00     0.049 A 
ATOM     65  C   UNL A   1      47.879  34.196  29.811  1.00  0.00     0.074 A 
ATOM     66  C   UNL A   1      42.923  35.726  32.372  1.00  0.00     0.029 A 
ATOM     67  N   UNL A   1      43.161  35.273  30.235  1.00  0.00    -0.354 N 
ATOM     68  N   UNL A   1      46.591  34.485  29.790  1.00  0.00    -0.248 NA
ATOM     69  C   UNL A   1      48.562  35.082  28.853  1.00  0.00     0.031 C 
ATOM     70  C   UNL A   1      44.096  36.391  31.880  1.00  0.00     0.029 A 
ATOM     71  C   UNL A   1      44.270  36.037  30.549  1.00  0.00     0.049 A 
ATOM     72  H   UNL A   1      42.984  34.928  29.330  1.00  0.00     0.167 HD
ATOM     73  C   UNL A   1      46.334  35.697  29.216  1.00  0.00     0.074 A 
ATOM     74  C   UNL A   1      47.562  35.918  28.462  1.00  0.00     0.031 C 
ATOM     75  C   UNL A   1      45.199  36.444  29.486  1.00  0.00     0.037 A 
BRANCH  62  76
ATOM     76  C   UNL A   1      39.940  34.046  32.058  1.00  0.00     0.058 A 
ATOM     77  C   UNL A   1      38.682  34.376  31.513  1.00  0.00     0.135 A 
ATOM     78  C   UNL A   1      39.876  33.620  33.409  1.00  0.00     0.135 A 
ATOM     79  F   UNL A   1      38.524  34.662  30.216  1.00  0.00    -0.206 F 
ATOM     80  C   UNL A   1      37.494  34.362  32.248  1.00  0.00     0.059 A 
ATOM     81  C   UNL A   1      38.712  33.652  34.184  1.00  0.00     0.059 A 
ATOM     82  F   UNL A   1      40.930  33.057  34.019  1.00  0.00    -0.206 F 
ATOM     83  C   UNL A   1      37.516  34.008  33.589  1.00  0.00     0.060 A 
BRANCH  83  84
ATOM     84  S   UNL A   1      35.959  33.899  34.488  1.00  0.00     0.124 S 
ATOM     85  O   UNL A   1      35.295  32.785  33.819  1.00  0.00    -0.237 OA
ATOM     86  O   UNL A   1      36.415  33.639  35.850  1.00  0.00    -0.237 OA
ATOM     87  O   UNL A   1      35.347  35.207  34.275  1.00  0.00    -0.744 OA
ENDBRANCH  83  84
ENDBRANCH  62  76
BRANCH  63  88
ATOM     88  C   UNL A   1      48.961  31.462  30.569  1.00  0.00     0.058 A 
ATOM     89  C   UNL A   1      48.325  29.867  30.343  1.00  0.00     0.135 A 
ATOM     90  C   UNL A   1      49.868  31.884  29.473  1.00  0.00     0.135 A 
ATOM     91  F   UNL A   1      47.418  29.425  31.234  1.00  0.00    -0.206 F 
ATOM     92  C   UNL A   1      48.577  28.796  28.894  1.00  0.00     0.059 A 
ATOM     93  C   UNL A   1      49.971  31.312  27.741  1.00  0.00     0.059 A 
ATOM     94  F   UNL A   1      50.813  32.625  30.075  1.00  0.00    -0.206 F 
ATOM     95  C   UNL A   1      49.514  29.453  27.443  1.00  0.00     0.060 A 
BRANCH  95  96
ATOM     96  S   UNL A   1      50.949  28.215  25.795  1.00  0.00     0.124 S 
ATOM     97  O   UNL A   1      52.347  28.272  26.216  1.00  0.00    -0.237 OA
ATOM     98  O   UNL A   1      50.511  26.815  25.664  1.00  0.00    -0.237 OA
ATOM     99  O   UNL A   1      50.872  28.850  24.455  1.00  0.00    -0.744 OA
ENDBRANCH  95  96
ENDBRANCH  63  88
BRANCH  75 100
ATOM    100  C   UNL A   1      44.782  37.714  28.781  1.00  0.00     0.058 A 
ATOM    101  C   UNL A   1      45.079  39.002  29.221  1.00  0.00     0.135 A 
ATOM    102  C   UNL A   1      44.007  37.640  27.587  1.00  0.00     0.135 A 
ATOM    103  F   UNL A   1      45.592  39.220  30.440  1.00  0.00    -0.206 F 
ATOM    104  C   UNL A   1      44.819  40.121  28.428  1.00  0.00     0.059 A 
ATOM    105  C   UNL A   1      43.692  38.737  26.812  1.00  0.00     0.059 A 
ATOM    106  F   UNL A   1      43.522  36.493  27.097  1.00  0.00    -0.206 F 
ATOM    107  C   UNL A   1      44.163  39.969  27.206  1.00  0.00     0.060 A 
BRANCH 107 108
ATOM    108  S   UNL A   1      43.923  41.385  26.134  1.00  0.00     0.124 S 
ATOM    109  O   UNL A   1      44.763  41.048  24.990  1.00  0.00    -0.237 OA
ATOM    110  O   UNL A   1      42.483  41.330  25.906  1.00  0.00    -0.237 OA
ATOM    111  O   UNL A   1      44.389  42.509  26.939  1.00  0.00    -0.744 OA
ENDBRANCH 107 108
ENDBRANCH  75 100
ENDBRANCH  49  50
ENDBRANCH  42  44
ENDBRANCH  41  42
ENDBRANCH  40  41
ENDBRANCH  39  40
ENDBRANCH   1  39
TORSDOF 20
ENDMDL
MODEL 3
REMARK VINA RESULT:     -15.7      2.960      8.227
REMARK SMILES Cc1ccc(NC(=O)c2cnn3c2NC2=C(C(=O)CCC2)[C@H]3c2ccc(C(=O)OCCOCCOC(=O)c3ccc(-c4c5nc(c(-c6c(F)cc(S(=O)(=O)[O-])cc6F)c6ccc([nH]6)c(-c6c(F)cc(S(=O)(=O)[O-])cc6F)c6nc(c(-c7c(F)cc(S(=O)(=O)[O-])cc7F)c7ccc4[nH]7)C=C6)C=C5)cc3)cc2)cc1
REMARK SMILES IDX 32 1 31 2 30 3 29 4 27 5 28 6 26 7 23 8 24 9 105 10 25 11
REMARK SMILES IDX 104 12 22 13 9 14 10 15 13 16 11 17 12 18 14 19 15 20 16 22
REMARK SMILES IDX 21 23 17 24 20 25 18 26 19 27 7 28 6 29 8 31 5 32 1 33 2 34
REMARK SMILES IDX 3 35 107 36 4 37 106 38 33 39 34 40 35 41 36 42 37 43 38 44
REMARK SMILES IDX 39 45 103 46 40 47 102 48 41 49 42 50 43 51 96 52 44 53
REMARK SMILES IDX 101 54 95 55 97 56 45 57 100 58 94 59 93 60 46 62 80 63
REMARK SMILES IDX 59 64 79 65 60 66 63 67 78 68 98 69 61 70 62 71 77 73 99 74
REMARK SMILES IDX 64 75 47 76 48 77 57 78 49 79 50 80 56 81 58 82 51 83 52 84
REMARK SMILES IDX 53 85 54 86 55 87 81 88 82 89 91 90 83 91 84 92 90 93 92 94
REMARK SMILES IDX 85 95 86 96 87 97 88 98 89 99 65 100 66 101 75 102 67 103
REMARK SMILES IDX 68 104 74 105 76 106 69 107 70 108 71 109 72 110 73 111
REMARK H PARENT 14 21 6 30 97 61 63 72
REMARK Flexibility Score: inf
ROOT
ATOM      1  O   UNL A   1      39.525  27.460  26.938  1.00  0.00    -0.374 OA
ENDROOT
BRANCH   1   2
ATOM      2  C   UNL A   1      39.430  25.984  28.162  1.00  0.00     0.202 C 
BRANCH   2   3
ATOM      3  C   UNL A   1      41.076  24.803  27.960  1.00  0.00     0.261 C 
BRANCH   3   4
ATOM      4  O   UNL A   1      40.477  23.397  26.591  1.00  0.00    -0.460 OA
BRANCH   4   5
ATOM      5  C   UNL A   1      39.347  22.438  26.297  1.00  0.00     0.338 C 
ATOM      6  O   UNL A   1      39.383  21.209  26.498  1.00  0.00    -0.246 OA
BRANCH   5   7
ATOM      7  C   UNL A   1      37.976  22.745  25.889  1.00  0.00     0.060 A 
ATOM      8  C   UNL A   1      35.412  22.872  24.770  1.00  0.00    -0.019 A 
ATOM      9  C   UNL A   1      35.804  21.680  25.360  1.00  0.00     0.007 A 
ATOM     10  C   UNL A   1      36.189  24.033  25.042  1.00  0.00     0.007 A 
ATOM     11  C   UNL A   1      37.077  21.626  25.895  1.00  0.00     0.016 A 
ATOM     12  C   UNL A   1      37.504  23.974  25.523  1.00  0.00     0.016 A 
BRANCH   8  13
ATOM     13  C   UNL A   1      34.391  22.846  23.577  1.00  0.00     0.175 C 
ATOM     14  C   UNL A   1      31.484  23.122  25.596  1.00  0.00     0.102 A 
ATOM     15  C   UNL A   1      31.323  21.876  24.913  1.00  0.00     0.151 A 
ATOM     16  C   UNL A   1      32.495  23.753  24.891  1.00  0.00     0.142 A 
ATOM     17  N   UNL A   1      32.311  21.604  24.062  1.00  0.00    -0.178 NA
ATOM     18  N   UNL A   1      33.055  22.712  24.152  1.00  0.00    -0.237 N 
ATOM     19  N   UNL A   1      33.106  24.992  24.780  1.00  0.00    -0.343 N 
ATOM     20  C   UNL A   1      33.980  25.253  23.692  1.00  0.00     0.026 C 
ATOM     21  H   UNL A   1      32.936  25.687  25.455  1.00  0.00     0.168 HD
ATOM     22  C   UNL A   1      34.294  24.204  22.892  1.00  0.00     0.044 C 
ATOM     23  C   UNL A   1      34.181  26.623  23.098  1.00  0.00     0.055 C 
ATOM     24  C   UNL A   1      33.385  24.287  21.684  1.00  0.00     0.163 C 
ATOM     25  C   UNL A   1      33.325  26.785  21.838  1.00  0.00     0.014 C 
ATOM     26  O   UNL A   1      33.258  23.326  20.931  1.00  0.00    -0.294 OA
ATOM     27  C   UNL A   1      32.493  25.534  21.567  1.00  0.00     0.081 C 
BRANCH  14  28
ATOM     28  C   UNL A   1      30.692  23.576  26.718  1.00  0.00     0.261 C 
ATOM     29  N   UNL A   1      30.390  24.932  26.828  1.00  0.00    -0.322 N 
ATOM     30  H   UNL A   1      30.174  25.221  27.744  1.00  0.00     0.170 HD
ATOM     31  O   UNL A   1      30.359  22.812  27.624  1.00  0.00    -0.269 OA
BRANCH  29  32
ATOM     32  C   UNL A   1      30.335  25.974  25.867  1.00  0.00     0.041 A 
ATOM     33  C   UNL A   1      30.258  29.190  22.945  1.00  0.00     0.044 C 
ATOM     34  C   UNL A   1      30.289  28.096  23.973  1.00  0.00    -0.051 A 
ATOM     35  C   UNL A   1      29.503  26.962  23.790  1.00  0.00     0.005 A 
ATOM     36  C   UNL A   1      31.086  28.172  25.120  1.00  0.00     0.005 A 
ATOM     37  C   UNL A   1      29.507  25.945  24.750  1.00  0.00     0.026 A 
ATOM     38  C   UNL A   1      31.105  27.123  26.059  1.00  0.00     0.026 A 
ENDBRANCH  29  32
ENDBRANCH  14  28
ENDBRANCH   8  13
ENDBRANCH   5   7
ENDBRANCH   4   5
ENDBRANCH   3   4
ENDBRANCH   2   3
ENDBRANCH   1   2
BRANCH   1  39
ATOM     39  C   UNL A   1      41.126  28.360  26.768  1.00  0.00     0.202 C 
BRANCH  39  40
ATOM     40  C   UNL A   1      42.456  27.438  25.647  1.00  0.00     0.261 C 
BRANCH  40  41
ATOM     41  O   UNL A   1      44.153  26.944  26.290  1.00  0.00    -0.460 OA
BRANCH  41  42
ATOM     42  C   UNL A   1      45.296  26.390  27.385  1.00  0.00     0.338 C 
ATOM     43  O   UNL A   1      46.216  25.793  26.790  1.00  0.00    -0.246 OA
BRANCH  42  44
ATOM     44  C   UNL A   1      45.406  26.013  29.197  1.00  0.00     0.060 A 
ATOM     45  C   UNL A   1      44.484  25.153  29.829  1.00  0.00     0.016 A 
ATOM     46  C   UNL A   1      46.052  26.674  30.297  1.00  0.00     0.016 A 
ATOM     47  C   UNL A   1      43.779  25.522  31.131  1.00  0.00     0.010 A 
ATOM     48  C   UNL A   1      45.308  27.076  31.594  1.00  0.00     0.010 A 
ATOM     49  C   UNL A   1      43.953  26.760  31.828  1.00  0.00    -0.014 A 
BRANCH  49  50
ATOM     50  C   UNL A   1      42.697  27.764  32.636  1.00  0.00     0.031 A 
ATOM     51  C   UNL A   1      41.981  28.598  31.689  1.00  0.00     0.074 A 
ATOM     52  C   UNL A   1      41.945  27.884  33.909  1.00  0.00     0.049 A 
ATOM     53  N   UNL A   1      42.067  29.876  31.570  1.00  0.00    -0.248 NA
ATOM     54  C   UNL A   1      41.007  27.948  30.820  1.00  0.00     0.031 C 
ATOM     55  C   UNL A   1      41.198  28.888  34.708  1.00  0.00     0.029 A 
ATOM     56  N   UNL A   1      41.835  27.079  35.057  1.00  0.00    -0.354 N 
ATOM     57  C   UNL A   1      40.873  30.215  30.968  1.00  0.00     0.074 A 
ATOM     58  C   UNL A   1      40.465  29.021  30.242  1.00  0.00     0.031 C 
ATOM     59  C   UNL A   1      41.506  28.788  36.073  1.00  0.00     0.029 A 
ATOM     60  C   UNL A   1      42.331  27.587  36.261  1.00  0.00     0.049 A 
ATOM     61  H   UNL A   1      41.423  26.187  35.015  1.00  0.00     0.167 HD
ATOM     62  C   UNL A   1      40.042  31.157  31.526  1.00  0.00     0.037 A 
ATOM     63  C   UNL A   1      43.676  27.282  36.628  1.00  0.00     0.037 A 
ATOM     64  C   UNL A   1      40.442  31.535  32.913  1.00  0.00     0.049 A 
ATOM     65  C   UNL A   1      44.347  28.732  36.208  1.00  0.00     0.074 A 
ATOM     66  C   UNL A   1      39.785  31.625  34.138  1.00  0.00     0.029 A 
ATOM     67  N   UNL A   1      41.796  31.624  33.254  1.00  0.00    -0.354 N 
ATOM     68  N   UNL A   1      43.771  29.549  35.344  1.00  0.00    -0.248 NA
ATOM     69  C   UNL A   1      45.504  29.428  36.795  1.00  0.00     0.031 C 
ATOM     70  C   UNL A   1      40.754  31.806  35.181  1.00  0.00     0.029 A 
ATOM     71  C   UNL A   1      42.020  31.732  34.614  1.00  0.00     0.049 A 
ATOM     72  H   UNL A   1      42.521  31.612  32.588  1.00  0.00     0.167 HD
ATOM     73  C   UNL A   1      44.154  30.848  35.518  1.00  0.00     0.074 A 
ATOM     74  C   UNL A   1      45.385  30.681  36.279  1.00  0.00     0.031 C 
ATOM     75  C   UNL A   1      43.388  31.929  35.114  1.00  0.00     0.037 A 
BRANCH  62  76
ATOM     76  C   UNL A   1      38.708  31.536  30.875  1.00  0.00     0.058 A 
ATOM     77  C   UNL A   1      38.600  32.557  29.908  1.00  0.00     0.135 A 
ATOM     78  C   UNL A   1      37.498  30.826  31.085  1.00  0.00     0.135 A 
ATOM     79  F   UNL A   1      39.666  33.238  29.474  1.00  0.00    -0.206 F 
ATOM     80  C   UNL A   1      37.402  32.894  29.272  1.00  0.00     0.059 A 
ATOM     81  C   UNL A   1      36.274  31.179  30.507  1.00  0.00     0.059 A 
ATOM     82  F   UNL A   1      37.465  29.688  31.794  1.00  0.00    -0.206 F 
ATOM     83  C   UNL A   1      36.238  32.208  29.582  1.00  0.00     0.060 A 
BRANCH  83  84
ATOM     84  S   UNL A   1      34.730  32.592  28.675  1.00  0.00     0.124 S 
ATOM     85  O   UNL A   1      34.302  31.274  28.219  1.00  0.00    -0.237 OA
ATOM     86  O   UNL A   1      33.903  33.205  29.710  1.00  0.00    -0.237 OA
ATOM     87  O   UNL A   1      35.184  33.498  27.624  1.00  0.00    -0.744 OA
ENDBRANCH  83  84
ENDBRANCH  62  76
BRANCH  63  88
ATOM     88  C   UNL A   1      44.191  25.706  35.996  1.00  0.00     0.058 A 
ATOM     89  C   UNL A   1      44.143  24.665  34.613  1.00  0.00     0.135 A 
ATOM     90  C   UNL A   1      45.566  25.911  36.518  1.00  0.00     0.135 A 
ATOM     91  F   UNL A   1      42.954  24.488  34.007  1.00  0.00    -0.206 F 
ATOM     92  C   UNL A   1      45.573  23.952  33.744  1.00  0.00     0.059 A 
ATOM     93  C   UNL A   1      47.181  25.761  35.678  1.00  0.00     0.059 A 
ATOM     94  F   UNL A   1      45.418  25.991  37.851  1.00  0.00    -0.206 F 
ATOM     95  C   UNL A   1      47.277  24.426  34.278  1.00  0.00     0.060 A 
BRANCH  95  96
ATOM     96  S   UNL A   1      49.397  23.083  34.179  1.00  0.00     0.124 S 
ATOM     97  O   UNL A   1      49.093  21.665  34.349  1.00  0.00    -0.237 OA
ATOM     98  O   UNL A   1      50.102  23.306  32.905  1.00  0.00    -0.237 OA
ATOM     99  O   UNL A   1      50.312  23.467  35.284  1.00  0.00    -0.744 OA
ENDBRANCH  95  96
ENDBRANCH  63  88
BRANCH  75 100
ATOM    100  C   UNL A   1      43.812  33.379  35.140  1.00  0.00     0.058 A 
ATOM    101  C   UNL A   1      43.816  34.188  36.274  1.00  0.00     0.135 A 
ATOM    102  C   UNL A   1      44.226  34.018  33.934  1.00  0.00     0.135 A 
ATOM    103  F   UNL A   1      43.234  33.789  37.414  1.00  0.00    -0.206 F 
ATOM    104  C   UNL A   1      44.389  35.459  36.261  1.00  0.00     0.059 A 
ATOM    105  C   UNL A   1      44.748  35.294  33.886  1.00  0.00     0.059 A 
ATOM    106  F   UNL A   1      44.159  33.432  32.733  1.00  0.00    -0.206 F 
ATOM    107  C   UNL A   1      44.890  35.983  35.069  1.00  0.00     0.060 A 
BRANCH 107 108
ATOM    108  S   UNL A   1      45.725  37.569  35.066  1.00  0.00     0.124 S 
ATOM    109  O   UNL A   1      46.021  37.756  33.649  1.00  0.00    -0.237 OA
ATOM    110  O   UNL A   1      44.692  38.438  35.621  1.00  0.00    -0.237 OA
ATOM    111  O   UNL A   1      46.887  37.349  35.920  1.00  0.00    -0.744 OA
ENDBRANCH 107 108
ENDBRANCH  75 100
ENDBRANCH  49  50
ENDBRANCH  42  44
ENDBRANCH  41  42
ENDBRANCH  40  41
ENDBRANCH  39  40
ENDBRANCH   1  39
TORSDOF 20
ENDMDL
