MODEL 1
REMARK VINA RESULT:     -11.7      0.000      0.000
REMARK SMILES O=C(C[C@H](NC(=O)[C@]12C[C@H]3C[C@H](C[C@H](C3)C1)C2)c1cccc([N+](=O)[O-])c1)OCCOCCOC(=O)c1ccc(-c2c3nc(c(-c4c(F)cc(S(=O)(=O)[O-])cc4F)c4ccc([nH]4)c(-c4c(F)cc(S(=O)(=O)[O-])cc4F)c4nc(c(-c5c(F)cc(S(=O)(=O)[O-])cc5F)c5ccc2[nH]5)C=C4)C=C3)cc1
REMARK SMILES IDX 30 1 29 2 28 3 27 4 2 5 1 6 3 7 4 8 18 9 19 10 26 11 20 12
REMARK SMILES IDX 22 13 21 14 23 15 24 16 25 17 5 18 6 19 7 21 8 22 9 23 16 24
REMARK SMILES IDX 17 25 10 26 14 27 12 28 11 29 15 30 13 31 31 32 32 33 33 34
REMARK SMILES IDX 34 35 35 36 36 37 37 38 101 39 38 40 100 41 39 42 40 43
REMARK SMILES IDX 41 44 94 45 42 46 99 47 93 48 95 49 43 50 98 51 92 52 91 53
REMARK SMILES IDX 44 55 78 56 57 57 77 58 58 59 61 60 76 61 96 62 59 63 60 64
REMARK SMILES IDX 75 66 97 67 62 68 45 69 46 70 55 71 47 72 48 73 54 74 56 75
REMARK SMILES IDX 49 76 50 77 51 78 52 79 53 80 79 81 80 82 89 83 81 84 82 85
REMARK SMILES IDX 88 86 90 87 83 88 84 89 85 90 86 91 87 92 63 93 64 94 73 95
REMARK SMILES IDX 65 96 66 97 72 98 74 99 67 100 68 101 69 102 70 103 71 104
REMARK H PARENT 5 20 95 54 61 65
REMARK Flexibility Score: inf
ROOT
ATOM      1  O   UNL A   1      35.227  33.096  27.688  1.00  0.00    -0.374 OA
ENDROOT
BRANCH   1   2
ATOM      2  C   UNL A   1      34.058  32.326  27.995  1.00  0.00     0.202 C 
BRANCH   2   3
ATOM      3  C   UNL A   1      34.156  30.824  27.696  1.00  0.00     0.261 C 
BRANCH   3   4
ATOM      4  O   UNL A   1      32.991  30.156  27.218  1.00  0.00    -0.463 OA
BRANCH   4   5
ATOM      5  C   UNL A   1      33.170  29.461  26.088  1.00  0.00     0.308 C 
ATOM      6  O   UNL A   1      34.226  28.886  25.849  1.00  0.00    -0.252 OA
BRANCH   5   7
ATOM      7  C   UNL A   1      31.986  29.434  25.155  1.00  0.00     0.152 C 
BRANCH   7   8
ATOM      8  C   UNL A   1      31.721  28.146  24.382  1.00  0.00     0.123 C 
BRANCH   8   9
ATOM      9  C   UNL A   1      30.333  28.297  23.704  1.00  0.00    -0.018 A 
ATOM     10  C   UNL A   1      29.383  27.263  23.767  1.00  0.00     0.006 A 
ATOM     11  C   UNL A   1      29.905  29.552  23.216  1.00  0.00     0.091 A 
ATOM     12  C   UNL A   1      28.026  27.516  23.501  1.00  0.00     0.007 A 
ATOM     13  C   UNL A   1      28.539  29.816  23.015  1.00  0.00     0.269 A 
ATOM     14  C   UNL A   1      27.593  28.801  23.166  1.00  0.00     0.085 A 
BRANCH  13  15
ATOM     15  N   UNL A   1      28.098  31.191  22.724  1.00  0.00     0.062 N 
ATOM     16  O   UNL A   1      28.625  31.775  21.767  1.00  0.00    -0.258 OA
ATOM     17  O   UNL A   1      27.253  31.696  23.482  1.00  0.00    -0.258 OA
ENDBRANCH  13  15
ENDBRANCH   8   9
BRANCH   8  18
ATOM     18  N   UNL A   1      32.753  27.765  23.393  1.00  0.00    -0.348 N 
ATOM     19  C   UNL A   1      33.098  26.595  22.755  1.00  0.00     0.226 C 
ATOM     20  H   UNL A   1      33.325  28.522  23.130  1.00  0.00     0.164 HD
ATOM     21  O   UNL A   1      33.644  26.724  21.654  1.00  0.00    -0.274 OA
BRANCH  19  22
ATOM     22  C   UNL A   1      32.989  25.189  23.402  1.00  0.00     0.050 C 
ATOM     23  C   UNL A   1      31.595  24.620  22.988  1.00  0.00     0.020 C 
ATOM     24  C   UNL A   1      32.936  25.198  24.967  1.00  0.00     0.020 C 
ATOM     25  C   UNL A   1      34.225  24.297  23.143  1.00  0.00     0.020 C 
ATOM     26  C   UNL A   1      31.419  23.178  23.462  1.00  0.00    -0.010 C 
ATOM     27  C   UNL A   1      32.744  23.744  25.516  1.00  0.00    -0.010 C 
ATOM     28  C   UNL A   1      33.930  22.832  23.505  1.00  0.00    -0.010 C 
ATOM     29  C   UNL A   1      32.583  22.323  22.945  1.00  0.00     0.007 C 
ATOM     30  C   UNL A   1      31.413  23.176  24.997  1.00  0.00     0.007 C 
ATOM     31  C   UNL A   1      33.864  22.796  25.036  1.00  0.00     0.007 C 
ENDBRANCH  19  22
ENDBRANCH   8  18
ENDBRANCH   7   8
ENDBRANCH   5   7
ENDBRANCH   4   5
ENDBRANCH   3   4
ENDBRANCH   2   3
ENDBRANCH   1   2
BRANCH   1  32
ATOM     32  C   UNL A   1      35.572  34.108  28.660  1.00  0.00     0.202 C 
BRANCH  32  33
ATOM     33  C   UNL A   1      35.476  33.711  30.131  1.00  0.00     0.261 C 
BRANCH  33  34
ATOM     34  O   UNL A   1      36.678  33.105  30.579  1.00  0.00    -0.460 OA
BRANCH  34  35
ATOM     35  C   UNL A   1      36.530  31.793  30.902  1.00  0.00     0.338 C 
ATOM     36  O   UNL A   1      35.525  31.240  31.299  1.00  0.00    -0.246 OA
BRANCH  35  37
ATOM     37  C   UNL A   1      37.730  31.086  30.409  1.00  0.00     0.060 A 
ATOM     38  C   UNL A   1      38.551  30.468  31.368  1.00  0.00     0.016 A 
ATOM     39  C   UNL A   1      37.944  30.888  29.041  1.00  0.00     0.016 A 
ATOM     40  C   UNL A   1      39.600  29.659  30.957  1.00  0.00     0.010 A 
ATOM     41  C   UNL A   1      39.016  30.112  28.627  1.00  0.00     0.010 A 
ATOM     42  C   UNL A   1      39.864  29.539  29.589  1.00  0.00    -0.014 A 
BRANCH  42  43
ATOM     43  C   UNL A   1      41.213  29.135  29.168  1.00  0.00     0.031 A 
ATOM     44  C   UNL A   1      42.247  30.223  29.141  1.00  0.00     0.074 A 
ATOM     45  C   UNL A   1      41.485  27.870  28.819  1.00  0.00     0.049 A 
ATOM     46  N   UNL A   1      43.479  30.184  28.721  1.00  0.00    -0.248 NA
ATOM     47  C   UNL A   1      41.822  31.544  29.646  1.00  0.00     0.031 C 
ATOM     48  C   UNL A   1      40.539  26.755  28.856  1.00  0.00     0.029 A 
ATOM     49  N   UNL A   1      42.644  27.319  28.346  1.00  0.00    -0.354 N 
ATOM     50  C   UNL A   1      43.969  31.472  28.901  1.00  0.00     0.074 A 
ATOM     51  C   UNL A   1      42.899  32.279  29.433  1.00  0.00     0.031 C 
ATOM     52  C   UNL A   1      41.156  25.650  28.400  1.00  0.00     0.029 A 
ATOM     53  C   UNL A   1      42.521  25.994  28.009  1.00  0.00     0.049 A 
ATOM     54  H   UNL A   1      43.485  27.823  28.256  1.00  0.00     0.167 HD
ATOM     55  C   UNL A   1      45.212  31.935  28.645  1.00  0.00     0.037 A 
ATOM     56  C   UNL A   1      43.414  25.176  27.421  1.00  0.00     0.037 A 
ATOM     57  C   UNL A   1      46.252  31.108  28.100  1.00  0.00     0.049 A 
ATOM     58  C   UNL A   1      44.776  25.729  27.084  1.00  0.00     0.074 A 
ATOM     59  C   UNL A   1      47.555  31.450  27.801  1.00  0.00     0.029 A 
ATOM     60  N   UNL A   1      46.093  29.769  27.763  1.00  0.00    -0.354 N 
ATOM     61  N   UNL A   1      45.245  26.942  27.277  1.00  0.00    -0.248 NA
ATOM     62  C   UNL A   1      45.730  24.808  26.456  1.00  0.00     0.031 C 
ATOM     63  C   UNL A   1      48.171  30.331  27.231  1.00  0.00     0.029 A 
ATOM     64  C   UNL A   1      47.271  29.276  27.235  1.00  0.00     0.049 A 
ATOM     65  H   UNL A   1      45.265  29.251  27.882  1.00  0.00     0.167 HD
ATOM     66  C   UNL A   1      46.559  26.921  26.821  1.00  0.00     0.074 A 
ATOM     67  C   UNL A   1      46.810  25.571  26.355  1.00  0.00     0.031 C 
ATOM     68  C   UNL A   1      47.478  27.919  26.789  1.00  0.00     0.037 A 
BRANCH  55  69
ATOM     69  C   UNL A   1      45.483  33.386  28.916  1.00  0.00     0.058 A 
ATOM     70  C   UNL A   1      45.261  34.378  27.946  1.00  0.00     0.135 A 
ATOM     71  C   UNL A   1      45.974  33.794  30.166  1.00  0.00     0.135 A 
ATOM     72  F   UNL A   1      44.826  34.041  26.720  1.00  0.00    -0.206 F 
ATOM     73  C   UNL A   1      45.533  35.718  28.198  1.00  0.00     0.059 A 
ATOM     74  C   UNL A   1      46.224  35.132  30.452  1.00  0.00     0.059 A 
ATOM     75  F   UNL A   1      46.225  32.886  31.122  1.00  0.00    -0.206 F 
ATOM     76  C   UNL A   1      46.010  36.086  29.458  1.00  0.00     0.060 A 
BRANCH  76  77
ATOM     77  S   UNL A   1      46.336  37.831  29.779  1.00  0.00     0.124 S 
ATOM     78  O   UNL A   1      47.006  38.235  28.547  1.00  0.00    -0.237 OA
ATOM     79  O   UNL A   1      44.992  38.366  29.973  1.00  0.00    -0.237 OA
ATOM     80  O   UNL A   1      47.177  37.807  30.971  1.00  0.00    -0.744 OA
ENDBRANCH  76  77
ENDBRANCH  55  69
BRANCH  56  81
ATOM     81  C   UNL A   1      43.048  23.769  27.111  1.00  0.00     0.058 A 
ATOM     82  C   UNL A   1      43.007  22.793  28.117  1.00  0.00     0.135 A 
ATOM     83  C   UNL A   1      42.714  23.374  25.805  1.00  0.00     0.135 A 
ATOM     84  F   UNL A   1      43.322  23.118  29.379  1.00  0.00    -0.206 F 
ATOM     85  C   UNL A   1      42.665  21.473  27.839  1.00  0.00     0.059 A 
ATOM     86  C   UNL A   1      42.342  22.067  25.507  1.00  0.00     0.059 A 
ATOM     87  F   UNL A   1      42.723  24.271  24.807  1.00  0.00    -0.206 F 
ATOM     88  C   UNL A   1      42.329  21.121  26.531  1.00  0.00     0.060 A 
BRANCH  88  89
ATOM     89  S   UNL A   1      41.836  19.417  26.194  1.00  0.00     0.124 S 
ATOM     90  O   UNL A   1      42.637  19.105  25.017  1.00  0.00    -0.237 OA
ATOM     91  O   UNL A   1      42.223  18.740  27.429  1.00  0.00    -0.237 OA
ATOM     92  O   UNL A   1      40.397  19.522  25.970  1.00  0.00    -0.744 OA
ENDBRANCH  88  89
ENDBRANCH  56  81
BRANCH  68  93
ATOM     93  C   UNL A   1      48.848  27.576  26.275  1.00  0.00     0.058 A 
ATOM     94  C   UNL A   1      49.897  27.230  27.140  1.00  0.00     0.135 A 
ATOM     95  C   UNL A   1      49.090  27.527  24.892  1.00  0.00     0.135 A 
ATOM     96  F   UNL A   1      49.717  27.264  28.470  1.00  0.00    -0.206 F 
ATOM     97  C   UNL A   1      51.150  26.875  26.651  1.00  0.00     0.059 A 
ATOM     98  C   UNL A   1      50.324  27.141  24.382  1.00  0.00     0.059 A 
ATOM     99  F   UNL A   1      48.114  27.833  24.023  1.00  0.00    -0.206 F 
ATOM    100  C   UNL A   1      51.351  26.830  25.270  1.00  0.00     0.060 A 
BRANCH 100 101
ATOM    101  S   UNL A   1      52.971  26.335  24.650  1.00  0.00     0.124 S 
ATOM    102  O   UNL A   1      52.858  26.670  23.235  1.00  0.00    -0.237 OA
ATOM    103  O   UNL A   1      53.873  27.177  25.432  1.00  0.00    -0.237 OA
ATOM    104  O   UNL A   1      53.032  24.909  24.955  1.00  0.00    -0.744 OA
ENDBRANCH 100 101
ENDBRANCH  68  93
ENDBRANCH  42  43
ENDBRANCH  35  37
ENDBRANCH  34  35
ENDBRANCH  33  34
ENDBRANCH  32  33
ENDBRANCH   1  32
TORSDOF 22
ENDMDL
MODEL 2
REMARK VINA RESULT:     -11.6      1.345      2.391
REMARK SMILES O=C(C[C@H](NC(=O)[C@]12C[C@H]3C[C@H](C[C@H](C3)C1)C2)c1cccc([N+](=O)[O-])c1)OCCOCCOC(=O)c1ccc(-c2c3nc(c(-c4c(F)cc(S(=O)(=O)[O-])cc4F)c4ccc([nH]4)c(-c4c(F)cc(S(=O)(=O)[O-])cc4F)c4nc(c(-c5c(F)cc(S(=O)(=O)[O-])cc5F)c5ccc2[nH]5)C=C4)C=C3)cc1
REMARK SMILES IDX 30 1 29 2 28 3 27 4 2 5 1 6 3 7 4 8 18 9 19 10 26 11 20 12
REMARK SMILES IDX 22 13 21 14 23 15 24 16 25 17 5 18 6 19 7 21 8 22 9 23 16 24
REMARK SMILES IDX 17 25 10 26 14 27 12 28 11 29 15 30 13 31 31 32 32 33 33 34
REMARK SMILES IDX 34 35 35 36 36 37 37 38 101 39 38 40 100 41 39 42 40 43
REMARK SMILES IDX 41 44 94 45 42 46 99 47 93 48 95 49 43 50 98 51 92 52 91 53
REMARK SMILES IDX 44 55 78 56 57 57 77 58 58 59 61 60 76 61 96 62 59 63 60 64
REMARK SMILES IDX 75 66 97 67 62 68 45 69 46 70 55 71 47 72 48 73 54 74 56 75
REMARK SMILES IDX 49 76 50 77 51 78 52 79 53 80 79 81 80 82 89 83 81 84 82 85
REMARK SMILES IDX 88 86 90 87 83 88 84 89 85 90 86 91 87 92 63 93 64 94 73 95
REMARK SMILES IDX 65 96 66 97 72 98 74 99 67 100 68 101 69 102 70 103 71 104
REMARK H PARENT 5 20 95 54 61 65
REMARK Flexibility Score: inf
ROOT
ATOM      1  O   UNL A   1      34.479  33.634  27.631  1.00  0.00    -0.374 OA
ENDROOT
BRANCH   1   2
ATOM      2  C   UNL A   1      33.576  32.583  27.996  1.00  0.00     0.202 C 
BRANCH   2   3
ATOM      3  C   UNL A   1      33.917  31.192  27.442  1.00  0.00     0.261 C 
BRANCH   3   4
ATOM      4  O   UNL A   1      32.840  30.328  27.088  1.00  0.00    -0.463 OA
BRANCH   4   5
ATOM      5  C   UNL A   1      33.130  29.438  26.130  1.00  0.00     0.308 C 
ATOM      6  O   UNL A   1      34.211  28.860  26.098  1.00  0.00    -0.252 OA
BRANCH   5   7
ATOM      7  C   UNL A   1      32.037  29.202  25.120  1.00  0.00     0.152 C 
BRANCH   7   8
ATOM      8  C   UNL A   1      31.938  27.815  24.492  1.00  0.00     0.123 C 
BRANCH   8   9
ATOM      9  C   UNL A   1      30.539  27.712  23.830  1.00  0.00    -0.018 A 
ATOM     10  C   UNL A   1      29.643  26.689  24.190  1.00  0.00     0.006 A 
ATOM     11  C   UNL A   1      30.042  28.766  23.030  1.00  0.00     0.091 A 
ATOM     12  C   UNL A   1      28.273  26.797  23.897  1.00  0.00     0.007 A 
ATOM     13  C   UNL A   1      28.663  28.901  22.797  1.00  0.00     0.269 A 
ATOM     14  C   UNL A   1      27.771  27.921  23.237  1.00  0.00     0.085 A 
BRANCH  13  15
ATOM     15  N   UNL A   1      28.148  30.123  22.155  1.00  0.00     0.062 N 
ATOM     16  O   UNL A   1      27.883  31.089  22.885  1.00  0.00    -0.258 OA
ATOM     17  O   UNL A   1      27.971  30.096  20.927  1.00  0.00    -0.258 OA
ENDBRANCH  13  15
ENDBRANCH   8   9
BRANCH   8  18
ATOM     18  N   UNL A   1      33.006  27.468  23.528  1.00  0.00    -0.348 N 
ATOM     19  C   UNL A   1      33.474  26.295  22.982  1.00  0.00     0.226 C 
ATOM     20  H   UNL A   1      33.493  28.259  23.201  1.00  0.00     0.164 HD
ATOM     21  O   UNL A   1      34.003  26.393  21.870  1.00  0.00    -0.274 OA
BRANCH  19  22
ATOM     22  C   UNL A   1      33.516  24.942  23.740  1.00  0.00     0.050 C 
ATOM     23  C   UNL A   1      34.123  25.243  25.147  1.00  0.00     0.020 C 
ATOM     24  C   UNL A   1      34.499  23.886  23.130  1.00  0.00     0.020 C 
ATOM     25  C   UNL A   1      32.175  24.173  23.696  1.00  0.00     0.020 C 
ATOM     26  C   UNL A   1      34.100  24.003  26.040  1.00  0.00    -0.010 C 
ATOM     27  C   UNL A   1      34.528  22.592  24.011  1.00  0.00    -0.010 C 
ATOM     28  C   UNL A   1      32.164  23.029  24.724  1.00  0.00    -0.010 C 
ATOM     29  C   UNL A   1      32.668  23.457  26.120  1.00  0.00     0.007 C 
ATOM     30  C   UNL A   1      35.026  22.949  25.421  1.00  0.00     0.007 C 
ATOM     31  C   UNL A   1      33.123  21.971  24.165  1.00  0.00     0.007 C 
ENDBRANCH  19  22
ENDBRANCH   8  18
ENDBRANCH   7   8
ENDBRANCH   5   7
ENDBRANCH   4   5
ENDBRANCH   3   4
ENDBRANCH   2   3
ENDBRANCH   1   2
BRANCH   1  32
ATOM     32  C   UNL A   1      34.512  34.761  28.534  1.00  0.00     0.202 C 
BRANCH  32  33
ATOM     33  C   UNL A   1      34.228  34.473  30.005  1.00  0.00     0.261 C 
BRANCH  33  34
ATOM     34  O   UNL A   1      35.408  34.083  30.690  1.00  0.00    -0.460 OA
BRANCH  34  35
ATOM     35  C   UNL A   1      35.330  32.837  31.230  1.00  0.00     0.338 C 
ATOM     36  O   UNL A   1      34.361  32.314  31.738  1.00  0.00    -0.246 OA
BRANCH  35  37
ATOM     37  C   UNL A   1      36.554  32.114  30.829  1.00  0.00     0.060 A 
ATOM     38  C   UNL A   1      37.247  31.418  31.836  1.00  0.00     0.016 A 
ATOM     39  C   UNL A   1      36.909  31.978  29.483  1.00  0.00     0.016 A 
ATOM     40  C   UNL A   1      38.309  30.594  31.495  1.00  0.00     0.010 A 
ATOM     41  C   UNL A   1      37.996  31.185  29.145  1.00  0.00     0.010 A 
ATOM     42  C   UNL A   1      38.717  30.534  30.159  1.00  0.00    -0.014 A 
BRANCH  42  43
ATOM     43  C   UNL A   1      40.090  30.103  29.863  1.00  0.00     0.031 A 
ATOM     44  C   UNL A   1      41.149  31.162  29.969  1.00  0.00     0.074 A 
ATOM     45  C   UNL A   1      40.364  28.839  29.509  1.00  0.00     0.049 A 
ATOM     46  N   UNL A   1      42.415  31.100  29.672  1.00  0.00    -0.248 NA
ATOM     47  C   UNL A   1      40.708  32.482  30.465  1.00  0.00     0.031 C 
ATOM     48  C   UNL A   1      39.391  27.751  29.422  1.00  0.00     0.029 A 
ATOM     49  N   UNL A   1      41.549  28.269  29.139  1.00  0.00    -0.354 N 
ATOM     50  C   UNL A   1      42.916  32.368  29.934  1.00  0.00     0.074 A 
ATOM     51  C   UNL A   1      41.819  33.191  30.380  1.00  0.00     0.031 C 
ATOM     52  C   UNL A   1      40.022  26.640  28.999  1.00  0.00     0.029 A 
ATOM     53  C   UNL A   1      41.428  26.956  28.755  1.00  0.00     0.049 A 
ATOM     54  H   UNL A   1      42.407  28.751  29.146  1.00  0.00     0.167 HD
ATOM     55  C   UNL A   1      44.190  32.802  29.816  1.00  0.00     0.037 A 
ATOM     56  C   UNL A   1      42.354  26.128  28.236  1.00  0.00     0.037 A 
ATOM     57  C   UNL A   1      45.258  31.961  29.355  1.00  0.00     0.049 A 
ATOM     58  C   UNL A   1      43.757  26.651  28.052  1.00  0.00     0.074 A 
ATOM     59  C   UNL A   1      46.593  32.273  29.196  1.00  0.00     0.029 A 
ATOM     60  N   UNL A   1      45.100  30.636  28.967  1.00  0.00    -0.354 N 
ATOM     61  N   UNL A   1      44.234  27.846  28.323  1.00  0.00    -0.248 NA
ATOM     62  C   UNL A   1      44.745  25.720  27.497  1.00  0.00     0.031 C 
ATOM     63  C   UNL A   1      47.234  31.153  28.659  1.00  0.00     0.029 A 
ATOM     64  C   UNL A   1      46.312  30.122  28.546  1.00  0.00     0.049 A 
ATOM     65  H   UNL A   1      44.252  30.138  28.989  1.00  0.00     0.167 HD
ATOM     66  C   UNL A   1      45.586  27.800  27.999  1.00  0.00     0.074 A 
ATOM     67  C   UNL A   1      45.849  26.455  27.524  1.00  0.00     0.031 C 
ATOM     68  C   UNL A   1      46.529  28.772  28.086  1.00  0.00     0.037 A 
BRANCH  55  69
ATOM     69  C   UNL A   1      44.469  34.239  30.151  1.00  0.00     0.058 A 
ATOM     70  C   UNL A   1      44.855  34.640  31.441  1.00  0.00     0.135 A 
ATOM     71  C   UNL A   1      44.346  35.232  29.167  1.00  0.00     0.135 A 
ATOM     72  F   UNL A   1      44.952  33.736  32.431  1.00  0.00    -0.206 F 
ATOM     73  C   UNL A   1      45.092  35.975  31.748  1.00  0.00     0.059 A 
ATOM     74  C   UNL A   1      44.609  36.570  29.444  1.00  0.00     0.059 A 
ATOM     75  F   UNL A   1      43.960  34.908  27.924  1.00  0.00    -0.206 F 
ATOM     76  C   UNL A   1      44.971  36.933  30.740  1.00  0.00     0.060 A 
BRANCH  76  77
ATOM     77  S   UNL A   1      45.305  38.659  31.147  1.00  0.00     0.124 S 
ATOM     78  O   UNL A   1      45.085  38.666  32.590  1.00  0.00    -0.237 OA
ATOM     79  O   UNL A   1      46.691  38.815  30.717  1.00  0.00    -0.237 OA
ATOM     80  O   UNL A   1      44.320  39.393  30.358  1.00  0.00    -0.744 OA
ENDBRANCH  76  77
ENDBRANCH  55  69
BRANCH  56  81
ATOM     81  C   UNL A   1      41.985  24.740  27.854  1.00  0.00     0.058 A 
ATOM     82  C   UNL A   1      41.300  24.476  26.660  1.00  0.00     0.135 A 
ATOM     83  C   UNL A   1      42.323  23.646  28.668  1.00  0.00     0.135 A 
ATOM     84  F   UNL A   1      40.949  25.486  25.851  1.00  0.00    -0.206 F 
ATOM     85  C   UNL A   1      40.950  23.180  26.291  1.00  0.00     0.059 A 
ATOM     86  C   UNL A   1      42.009  22.339  28.307  1.00  0.00     0.059 A 
ATOM     87  F   UNL A   1      42.992  23.841  29.815  1.00  0.00    -0.206 F 
ATOM     88  C   UNL A   1      41.313  22.118  27.120  1.00  0.00     0.060 A 
BRANCH  88  89
ATOM     89  S   UNL A   1      40.899  20.438  26.603  1.00  0.00     0.124 S 
ATOM     90  O   UNL A   1      40.821  19.747  27.885  1.00  0.00    -0.237 OA
ATOM     91  O   UNL A   1      39.631  20.639  25.907  1.00  0.00    -0.237 OA
ATOM     92  O   UNL A   1      42.022  20.062  25.750  1.00  0.00    -0.744 OA
ENDBRANCH  88  89
ENDBRANCH  56  81
BRANCH  68  93
ATOM     93  C   UNL A   1      47.934  28.403  27.701  1.00  0.00     0.058 A 
ATOM     94  C   UNL A   1      48.363  28.421  26.365  1.00  0.00     0.135 A 
ATOM     95  C   UNL A   1      48.879  28.095  28.693  1.00  0.00     0.135 A 
ATOM     96  F   UNL A   1      47.497  28.706  25.380  1.00  0.00    -0.206 F 
ATOM     97  C   UNL A   1      49.676  28.116  26.024  1.00  0.00     0.059 A 
ATOM     98  C   UNL A   1      50.205  27.822  28.377  1.00  0.00     0.059 A 
ATOM     99  F   UNL A   1      48.522  28.081  29.987  1.00  0.00    -0.206 F 
ATOM    100  C   UNL A   1      50.590  27.822  27.038  1.00  0.00     0.060 A 
BRANCH 100 101
ATOM    101  S   UNL A   1      52.297  27.462  26.582  1.00  0.00     0.124 S 
ATOM    102  O   UNL A   1      52.860  28.803  26.471  1.00  0.00    -0.237 OA
ATOM    103  O   UNL A   1      52.762  26.671  27.718  1.00  0.00    -0.237 OA
ATOM    104  O   UNL A   1      52.168  26.729  25.327  1.00  0.00    -0.744 OA
ENDBRANCH 100 101
ENDBRANCH  68  93
ENDBRANCH  42  43
ENDBRANCH  35  37
ENDBRANCH  34  35
ENDBRANCH  33  34
ENDBRANCH  32  33
ENDBRANCH   1  32
TORSDOF 22
ENDMDL
MODEL 3
REMARK VINA RESULT:     -11.4      5.763     11.729
REMARK SMILES O=C(C[C@H](NC(=O)[C@]12C[C@H]3C[C@H](C[C@H](C3)C1)C2)c1cccc([N+](=O)[O-])c1)OCCOCCOC(=O)c1ccc(-c2c3nc(c(-c4c(F)cc(S(=O)(=O)[O-])cc4F)c4ccc([nH]4)c(-c4c(F)cc(S(=O)(=O)[O-])cc4F)c4nc(c(-c5c(F)cc(S(=O)(=O)[O-])cc5F)c5ccc2[nH]5)C=C4)C=C3)cc1
REMARK SMILES IDX 30 1 29 2 28 3 27 4 2 5 1 6 3 7 4 8 18 9 19 10 26 11 20 12
REMARK SMILES IDX 22 13 21 14 23 15 24 16 25 17 5 18 6 19 7 21 8 22 9 23 16 24
REMARK SMILES IDX 17 25 10 26 14 27 12 28 11 29 15 30 13 31 31 32 32 33 33 34
REMARK SMILES IDX 34 35 35 36 36 37 37 38 101 39 38 40 100 41 39 42 40 43
REMARK SMILES IDX 41 44 94 45 42 46 99 47 93 48 95 49 43 50 98 51 92 52 91 53
REMARK SMILES IDX 44 55 78 56 57 57 77 58 58 59 61 60 76 61 96 62 59 63 60 64
REMARK SMILES IDX 75 66 97 67 62 68 45 69 46 70 55 71 47 72 48 73 54 74 56 75
REMARK SMILES IDX 49 76 50 77 51 78 52 79 53 80 79 81 80 82 89 83 81 84 82 85
REMARK SMILES IDX 88 86 90 87 83 88 84 89 85 90 86 91 87 92 63 93 64 94 73 95
REMARK SMILES IDX 65 96 66 97 72 98 74 99 67 100 68 101 69 102 70 103 71 104
REMARK H PARENT 5 20 95 54 61 65
REMARK Flexibility Score: inf
ROOT
ATOM      1  O   UNL A   1      40.569  20.921  27.313  1.00  0.00    -0.374 OA
ENDROOT
BRANCH   1   2
ATOM      2  C   UNL A   1      39.986  21.494  26.136  1.00  0.00     0.202 C 
BRANCH   2   3
ATOM      3  C   UNL A   1      38.464  21.334  26.004  1.00  0.00     0.261 C 
BRANCH   3   4
ATOM      4  O   UNL A   1      37.842  21.794  24.807  1.00  0.00    -0.463 OA
BRANCH   4   5
ATOM      5  C   UNL A   1      36.662  22.401  24.989  1.00  0.00     0.308 C 
ATOM      6  O   UNL A   1      36.507  23.590  24.735  1.00  0.00    -0.252 OA
BRANCH   5   7
ATOM      7  C   UNL A   1      35.558  21.518  25.512  1.00  0.00     0.152 C 
BRANCH   7   8
ATOM      8  C   UNL A   1      34.119  21.934  25.225  1.00  0.00     0.123 C 
BRANCH   8   9
ATOM      9  C   UNL A   1      33.417  20.721  24.560  1.00  0.00    -0.018 A 
ATOM     10  C   UNL A   1      32.445  20.909  23.561  1.00  0.00     0.006 A 
ATOM     11  C   UNL A   1      33.898  19.409  24.768  1.00  0.00     0.091 A 
ATOM     12  C   UNL A   1      32.084  19.857  22.702  1.00  0.00     0.007 A 
ATOM     13  C   UNL A   1      33.584  18.378  23.865  1.00  0.00     0.269 A 
ATOM     14  C   UNL A   1      32.682  18.601  22.822  1.00  0.00     0.085 A 
BRANCH  13  15
ATOM     15  N   UNL A   1      34.273  17.081  23.972  1.00  0.00     0.062 N 
ATOM     16  O   UNL A   1      35.110  16.946  24.876  1.00  0.00    -0.258 OA
ATOM     17  O   UNL A   1      34.002  16.215  23.125  1.00  0.00    -0.258 OA
ENDBRANCH  13  15
ENDBRANCH   8   9
BRANCH   8  18
ATOM     18  N   UNL A   1      33.346  22.420  26.389  1.00  0.00    -0.348 N 
ATOM     19  C   UNL A   1      32.394  23.396  26.581  1.00  0.00     0.226 C 
ATOM     20  H   UNL A   1      33.561  21.933  27.217  1.00  0.00     0.164 HD
ATOM     21  O   UNL A   1      31.610  23.205  27.517  1.00  0.00    -0.274 OA
BRANCH  19  22
ATOM     22  C   UNL A   1      32.369  24.745  25.815  1.00  0.00     0.050 C 
ATOM     23  C   UNL A   1      31.192  25.574  26.420  1.00  0.00     0.020 C 
ATOM     24  C   UNL A   1      31.995  24.623  24.299  1.00  0.00     0.020 C 
ATOM     25  C   UNL A   1      33.753  25.430  25.735  1.00  0.00     0.020 C 
ATOM     26  C   UNL A   1      31.142  26.983  25.831  1.00  0.00    -0.010 C 
ATOM     27  C   UNL A   1      31.917  26.040  23.639  1.00  0.00    -0.010 C 
ATOM     28  C   UNL A   1      33.614  26.892  25.276  1.00  0.00    -0.010 C 
ATOM     29  C   UNL A   1      32.504  27.665  26.021  1.00  0.00     0.007 C 
ATOM     30  C   UNL A   1      30.822  26.865  24.335  1.00  0.00     0.007 C 
ATOM     31  C   UNL A   1      33.242  26.818  23.790  1.00  0.00     0.007 C 
ENDBRANCH  19  22
ENDBRANCH   8  18
ENDBRANCH   7   8
ENDBRANCH   5   7
ENDBRANCH   4   5
ENDBRANCH   3   4
ENDBRANCH   2   3
ENDBRANCH   1   2
BRANCH   1  32
ATOM     32  C   UNL A   1      41.997  21.093  27.440  1.00  0.00     0.202 C 
BRANCH  32  33
ATOM     33  C   UNL A   1      42.677  21.990  26.410  1.00  0.00     0.261 C 
BRANCH  33  34
ATOM     34  O   UNL A   1      43.117  23.205  26.996  1.00  0.00    -0.460 OA
BRANCH  34  35
ATOM     35  C   UNL A   1      42.796  24.303  26.261  1.00  0.00     0.338 C 
ATOM     36  O   UNL A   1      42.680  24.376  25.056  1.00  0.00    -0.246 OA
BRANCH  35  37
ATOM     37  C   UNL A   1      42.324  25.334  27.208  1.00  0.00     0.060 A 
ATOM     38  C   UNL A   1      42.891  26.616  27.097  1.00  0.00     0.016 A 
ATOM     39  C   UNL A   1      41.237  25.097  28.057  1.00  0.00     0.016 A 
ATOM     40  C   UNL A   1      42.377  27.663  27.848  1.00  0.00     0.010 A 
ATOM     41  C   UNL A   1      40.748  26.134  28.838  1.00  0.00     0.010 A 
ATOM     42  C   UNL A   1      41.351  27.399  28.761  1.00  0.00    -0.014 A 
BRANCH  42  43
ATOM     43  C   UNL A   1      41.156  28.328  29.884  1.00  0.00     0.031 A 
ATOM     44  C   UNL A   1      42.050  28.119  31.072  1.00  0.00     0.074 A 
ATOM     45  C   UNL A   1      40.223  29.289  29.841  1.00  0.00     0.049 A 
ATOM     46  N   UNL A   1      42.038  28.711  32.231  1.00  0.00    -0.248 NA
ATOM     47  C   UNL A   1      43.094  27.084  30.933  1.00  0.00     0.031 C 
ATOM     48  C   UNL A   1      39.346  29.572  28.705  1.00  0.00     0.029 A 
ATOM     49  N   UNL A   1      39.852  30.195  30.794  1.00  0.00    -0.354 N 
ATOM     50  C   UNL A   1      43.060  28.114  32.959  1.00  0.00     0.074 A 
ATOM     51  C   UNL A   1      43.650  27.093  32.131  1.00  0.00     0.031 C 
ATOM     52  C   UNL A   1      38.517  30.577  29.040  1.00  0.00     0.029 A 
ATOM     53  C   UNL A   1      38.786  30.976  30.420  1.00  0.00     0.049 A 
ATOM     54  H   UNL A   1      40.304  30.281  31.664  1.00  0.00     0.167 HD
ATOM     55  C   UNL A   1      43.470  28.405  34.213  1.00  0.00     0.037 A 
ATOM     56  C   UNL A   1      38.099  31.884  31.138  1.00  0.00     0.037 A 
ATOM     57  C   UNL A   1      42.850  29.419  35.018  1.00  0.00     0.049 A 
ATOM     58  C   UNL A   1      38.531  32.148  32.559  1.00  0.00     0.074 A 
ATOM     59  C   UNL A   1      43.172  29.817  36.300  1.00  0.00     0.029 A 
ATOM     60  N   UNL A   1      41.766  30.189  34.612  1.00  0.00    -0.354 N 
ATOM     61  N   UNL A   1      39.514  31.598  33.238  1.00  0.00    -0.248 NA
ATOM     62  C   UNL A   1      37.770  33.152  33.309  1.00  0.00     0.031 C 
ATOM     63  C   UNL A   1      42.247  30.791  36.691  1.00  0.00     0.029 A 
ATOM     64  C   UNL A   1      41.392  31.045  35.629  1.00  0.00     0.049 A 
ATOM     65  H   UNL A   1      41.332  30.132  33.731  1.00  0.00     0.167 HD
ATOM     66  C   UNL A   1      39.507  32.212  34.486  1.00  0.00     0.074 A 
ATOM     67  C   UNL A   1      38.429  33.182  34.460  1.00  0.00     0.031 C 
ATOM     68  C   UNL A   1      40.314  32.002  35.556  1.00  0.00     0.037 A 
BRANCH  55  69
ATOM     69  C   UNL A   1      44.598  27.593  34.781  1.00  0.00     0.058 A 
ATOM     70  C   UNL A   1      45.941  27.873  34.478  1.00  0.00     0.135 A 
ATOM     71  C   UNL A   1      44.333  26.516  35.641  1.00  0.00     0.135 A 
ATOM     72  F   UNL A   1      46.251  28.869  33.632  1.00  0.00    -0.206 F 
ATOM     73  C   UNL A   1      46.979  27.103  34.992  1.00  0.00     0.059 A 
ATOM     74  C   UNL A   1      45.356  25.752  36.192  1.00  0.00     0.059 A 
ATOM     75  F   UNL A   1      43.067  26.191  35.946  1.00  0.00    -0.206 F 
ATOM     76  C   UNL A   1      46.676  26.047  35.854  1.00  0.00     0.060 A 
BRANCH  76  77
ATOM     77  S   UNL A   1      48.035  25.073  36.532  1.00  0.00     0.124 S 
ATOM     78  O   UNL A   1      49.010  25.138  35.449  1.00  0.00    -0.237 OA
ATOM     79  O   UNL A   1      48.377  25.819  37.739  1.00  0.00    -0.237 OA
ATOM     80  O   UNL A   1      47.435  23.762  36.758  1.00  0.00    -0.744 OA
ENDBRANCH  76  77
ENDBRANCH  55  69
BRANCH  56  81
ATOM     81  C   UNL A   1      36.941  32.593  30.533  1.00  0.00     0.058 A 
ATOM     82  C   UNL A   1      35.624  32.218  30.833  1.00  0.00     0.135 A 
ATOM     83  C   UNL A   1      37.127  33.673  29.653  1.00  0.00     0.135 A 
ATOM     84  F   UNL A   1      35.393  31.190  31.663  1.00  0.00    -0.206 F 
ATOM     85  C   UNL A   1      34.532  32.875  30.274  1.00  0.00     0.059 A 
ATOM     86  C   UNL A   1      36.051  34.363  29.103  1.00  0.00     0.059 A 
ATOM     87  F   UNL A   1      38.367  34.083  29.343  1.00  0.00    -0.206 F 
ATOM     88  C   UNL A   1      34.757  33.950  29.412  1.00  0.00     0.060 A 
BRANCH  88  89
ATOM     89  S   UNL A   1      33.331  34.826  28.735  1.00  0.00     0.124 S 
ATOM     90  O   UNL A   1      32.792  33.839  27.808  1.00  0.00    -0.237 OA
ATOM     91  O   UNL A   1      32.535  35.081  29.933  1.00  0.00    -0.237 OA
ATOM     92  O   UNL A   1      33.925  36.011  28.123  1.00  0.00    -0.744 OA
ENDBRANCH  88  89
ENDBRANCH  56  81
BRANCH  68  93
ATOM     93  C   UNL A   1      40.088  32.864  36.767  1.00  0.00     0.058 A 
ATOM     94  C   UNL A   1      40.829  34.034  36.989  1.00  0.00     0.135 A 
ATOM     95  C   UNL A   1      39.068  32.546  37.678  1.00  0.00     0.135 A 
ATOM     96  F   UNL A   1      41.817  34.380  36.148  1.00  0.00    -0.206 F 
ATOM     97  C   UNL A   1      40.585  34.846  38.091  1.00  0.00     0.059 A 
ATOM     98  C   UNL A   1      38.784  33.362  38.767  1.00  0.00     0.059 A 
ATOM     99  F   UNL A   1      38.321  31.446  37.501  1.00  0.00    -0.206 F 
ATOM    100  C   UNL A   1      39.558  34.503  38.972  1.00  0.00     0.060 A 
BRANCH 100 101
ATOM    101  S   UNL A   1      39.231  35.583  40.378  1.00  0.00     0.124 S 
ATOM    102  O   UNL A   1      40.491  35.503  41.109  1.00  0.00    -0.237 OA
ATOM    103  O   UNL A   1      38.952  36.862  39.731  1.00  0.00    -0.237 OA
ATOM    104  O   UNL A   1      38.086  34.956  41.031  1.00  0.00    -0.744 OA
ENDBRANCH 100 101
ENDBRANCH  68  93
ENDBRANCH  42  43
ENDBRANCH  35  37
ENDBRANCH  34  35
ENDBRANCH  33  34
ENDBRANCH  32  33
ENDBRANCH   1  32
TORSDOF 22
ENDMDL
