MODEL 1
REMARK VINA RESULT:      -6.4      0.000      0.000
REMARK SMILES CC(C)C[C@H](NC(=O)[C@H](Cc1ccccc1)NC(=O)CNC(=O)CNC(=O)OCc1ccccc1)C(=O)OCCOCCOC(=O)c1ccc(-c2c3nc(c(-c4c(F)cc(S(=O)(=O)[O-])cc4F)c4ccc([nH]4)c(-c4c(F)cc(S(=O)(=O)[O-])cc4F)c4nc(c(-c5c(F)cc(S(=O)(=O)[O-])cc5F)c5ccc2[nH]5)C=C4)C=C3)cc1
REMARK SMILES IDX 36 1 37 2 5 3 4 4 2 5 1 6 3 7 6 8 7 9 8 11 9 12 17 13 18 14
REMARK SMILES IDX 19 16 20 17 21 18 22 19 23 21 24 22 25 23 26 24 27 26 28 27
REMARK SMILES IDX 29 28 30 29 31 30 35 31 32 32 34 33 33 34 10 35 11 36 12 37
REMARK SMILES IDX 16 38 13 39 15 40 14 41 38 42 39 43 40 44 41 45 42 46 43 47
REMARK SMILES IDX 44 48 45 49 46 50 47 51 48 52 112 53 49 54 111 55 50 56
REMARK SMILES IDX 51 57 52 58 105 59 53 60 110 61 104 62 106 63 54 64 109 65
REMARK SMILES IDX 103 66 102 67 55 69 89 70 68 71 88 72 69 73 72 74 87 75
REMARK SMILES IDX 107 76 70 77 71 78 86 80 108 81 73 82 56 83 57 84 66 85
REMARK SMILES IDX 58 86 59 87 65 88 67 89 60 90 61 91 62 92 63 93 64 94 90 95
REMARK SMILES IDX 91 96 100 97 92 98 93 99 99 100 101 101 94 102 95 103 96 104
REMARK SMILES IDX 97 105 98 106 74 107 75 108 84 109 76 110 77 111 83 112
REMARK SMILES IDX 85 113 78 114 79 115 80 116 81 117 82 118
REMARK H PARENT 6 10 17 15 21 20 25 25 106 68 72 79
REMARK Flexibility Score: inf
ROOT
ATOM      1  C   UNL A   1      37.898  29.247  29.320  1.00  0.00     0.328 C 
ATOM      2  O   UNL A   1      37.173  28.694  28.505  1.00  0.00    -0.250 OA
ENDROOT
BRANCH   1   3
ATOM      3  C   UNL A   1      39.415  29.049  29.371  1.00  0.00     0.192 C 
BRANCH   3   4
ATOM      4  C   UNL A   1      39.706  27.588  29.709  1.00  0.00     0.040 C 
BRANCH   4   5
ATOM      5  C   UNL A   1      40.526  26.652  28.805  1.00  0.00    -0.015 C 
ATOM      6  C   UNL A   1      39.705  25.471  28.296  1.00  0.00     0.007 C 
ATOM      7  C   UNL A   1      41.045  27.469  27.614  1.00  0.00     0.007 C 
ENDBRANCH   4   5
ENDBRANCH   3   4
BRANCH   3   8
ATOM      8  N   UNL A   1      40.068  30.027  30.277  1.00  0.00    -0.341 N 
ATOM      9  C   UNL A   1      41.338  30.491  30.474  1.00  0.00     0.243 C 
ATOM     10  H   UNL A   1      39.424  30.447  30.891  1.00  0.00     0.164 HD
ATOM     11  O   UNL A   1      41.409  31.573  31.078  1.00  0.00    -0.273 OA
BRANCH   9  12
ATOM     12  C   UNL A   1      42.659  29.690  30.211  1.00  0.00     0.175 C 
BRANCH  12  13
ATOM     13  N   UNL A   1      43.535  30.151  29.136  1.00  0.00    -0.342 N 
ATOM     14  C   UNL A   1      44.896  29.998  28.993  1.00  0.00     0.240 C 
ATOM     15  H   UNL A   1      43.088  30.642  28.409  1.00  0.00     0.164 HD
ATOM     16  O   UNL A   1      45.472  30.731  28.185  1.00  0.00    -0.273 OA
BRANCH  14  17
ATOM     17  C   UNL A   1      45.691  28.937  29.792  1.00  0.00     0.216 C 
BRANCH  17  18
ATOM     18  N   UNL A   1      46.999  28.637  29.253  1.00  0.00    -0.346 N 
ATOM     19  C   UNL A   1      47.380  27.760  28.280  1.00  0.00     0.239 C 
ATOM     20  H   UNL A   1      47.738  29.150  29.656  1.00  0.00     0.164 HD
ATOM     21  O   UNL A   1      48.582  27.499  28.192  1.00  0.00    -0.273 OA
BRANCH  19  22
ATOM     22  C   UNL A   1      46.372  27.163  27.291  1.00  0.00     0.219 C 
BRANCH  22  23
ATOM     23  N   UNL A   1      46.948  26.962  25.987  1.00  0.00    -0.312 N 
ATOM     24  C   UNL A   1      46.615  25.991  25.103  1.00  0.00     0.407 C 
ATOM     25  H   UNL A   1      47.651  27.592  25.709  1.00  0.00     0.167 HD
ATOM     26  O   UNL A   1      47.360  25.773  24.153  1.00  0.00    -0.225 OA
BRANCH  24  27
ATOM     27  O   UNL A   1      45.494  25.295  25.415  1.00  0.00    -0.445 OA
BRANCH  27  28
ATOM     28  C   UNL A   1      45.381  23.977  24.824  1.00  0.00     0.270 C 
BRANCH  28  29
ATOM     29  C   UNL A   1      43.974  23.479  25.039  1.00  0.00    -0.011 A 
ATOM     30  C   UNL A   1      43.752  22.116  25.258  1.00  0.00     0.007 A 
ATOM     31  C   UNL A   1      42.968  24.403  25.352  1.00  0.00     0.007 A 
ATOM     32  C   UNL A   1      42.598  21.698  25.912  1.00  0.00     0.000 A 
ATOM     33  C   UNL A   1      41.867  23.993  26.091  1.00  0.00     0.000 A 
ATOM     34  C   UNL A   1      41.691  22.643  26.388  1.00  0.00     0.000 A 
ENDBRANCH  28  29
ENDBRANCH  27  28
ENDBRANCH  24  27
ENDBRANCH  22  23
ENDBRANCH  19  22
ENDBRANCH  17  18
ENDBRANCH  14  17
ENDBRANCH  12  13
BRANCH  12  35
ATOM     35  C   UNL A   1      43.440  29.514  31.577  1.00  0.00     0.070 C 
BRANCH  35  36
ATOM     36  C   UNL A   1      42.952  28.418  32.512  1.00  0.00    -0.045 A 
ATOM     37  C   UNL A   1      41.804  28.569  33.293  1.00  0.00     0.004 A 
ATOM     38  C   UNL A   1      43.680  27.239  32.667  1.00  0.00     0.004 A 
ATOM     39  C   UNL A   1      41.527  27.660  34.322  1.00  0.00     0.000 A 
ATOM     40  C   UNL A   1      43.479  26.389  33.750  1.00  0.00     0.000 A 
ATOM     41  C   UNL A   1      42.405  26.612  34.596  1.00  0.00     0.000 A 
ENDBRANCH  35  36
ENDBRANCH  12  35
ENDBRANCH   9  12
ENDBRANCH   3   8
ENDBRANCH   1   3
BRANCH   1  42
ATOM     42  O   UNL A   1      37.474  30.002  30.375  1.00  0.00    -0.462 OA
BRANCH  42  43
ATOM     43  C   UNL A   1      36.152  30.553  30.244  1.00  0.00     0.261 C 
BRANCH  43  44
ATOM     44  C   UNL A   1      36.025  31.392  28.986  1.00  0.00     0.202 C 
BRANCH  44  45
ATOM     45  O   UNL A   1      36.852  32.553  28.975  1.00  0.00    -0.374 OA
BRANCH  45  46
ATOM     46  C   UNL A   1      36.165  33.785  28.753  1.00  0.00     0.202 C 
BRANCH  46  47
ATOM     47  C   UNL A   1      35.120  34.134  29.816  1.00  0.00     0.261 C 
BRANCH  47  48
ATOM     48  O   UNL A   1      35.700  34.271  31.125  1.00  0.00    -0.460 OA
BRANCH  48  49
ATOM     49  C   UNL A   1      35.124  33.534  32.114  1.00  0.00     0.338 C 
ATOM     50  O   UNL A   1      34.022  33.018  32.102  1.00  0.00    -0.246 OA
BRANCH  49  51
ATOM     51  C   UNL A   1      36.131  33.305  33.170  1.00  0.00     0.060 A 
ATOM     52  C   UNL A   1      36.692  34.388  33.860  1.00  0.00     0.016 A 
ATOM     53  C   UNL A   1      36.504  32.009  33.496  1.00  0.00     0.016 A 
ATOM     54  C   UNL A   1      37.634  34.170  34.879  1.00  0.00     0.010 A 
ATOM     55  C   UNL A   1      37.401  31.801  34.545  1.00  0.00     0.010 A 
ATOM     56  C   UNL A   1      38.011  32.868  35.236  1.00  0.00    -0.014 A 
BRANCH  56  57
ATOM     57  C   UNL A   1      39.118  32.569  36.207  1.00  0.00     0.031 A 
ATOM     58  C   UNL A   1      38.818  32.661  37.691  1.00  0.00     0.074 A 
ATOM     59  C   UNL A   1      40.383  32.280  35.825  1.00  0.00     0.049 A 
ATOM     60  N   UNL A   1      39.633  32.609  38.715  1.00  0.00    -0.248 NA
ATOM     61  C   UNL A   1      37.413  32.901  38.067  1.00  0.00     0.031 C 
ATOM     62  C   UNL A   1      40.867  32.175  34.450  1.00  0.00     0.029 A 
ATOM     63  N   UNL A   1      41.511  32.039  36.583  1.00  0.00    -0.354 N 
ATOM     64  C   UNL A   1      38.842  32.849  39.834  1.00  0.00     0.074 A 
ATOM     65  C   UNL A   1      37.520  33.176  39.355  1.00  0.00     0.031 C 
ATOM     66  C   UNL A   1      42.183  31.894  34.459  1.00  0.00     0.029 A 
ATOM     67  C   UNL A   1      42.650  31.811  35.842  1.00  0.00     0.049 A 
ATOM     68  H   UNL A   1      41.503  32.029  37.567  1.00  0.00     0.167 HD
ATOM     69  C   UNL A   1      39.146  32.733  41.149  1.00  0.00     0.037 A 
ATOM     70  C   UNL A   1      43.921  31.562  36.226  1.00  0.00     0.037 A 
ATOM     71  C   UNL A   1      40.426  32.317  41.646  1.00  0.00     0.049 A 
ATOM     72  C   UNL A   1      44.255  31.452  37.695  1.00  0.00     0.074 A 
ATOM     73  C   UNL A   1      40.803  32.084  42.957  1.00  0.00     0.029 A 
ATOM     74  N   UNL A   1      41.534  32.057  40.857  1.00  0.00    -0.354 N 
ATOM     75  N   UNL A   1      43.470  31.603  38.735  1.00  0.00    -0.248 NA
ATOM     76  C   UNL A   1      45.645  31.114  38.044  1.00  0.00     0.031 C 
ATOM     77  C   UNL A   1      42.154  31.727  42.965  1.00  0.00     0.029 A 
ATOM     78  C   UNL A   1      42.601  31.681  41.654  1.00  0.00     0.049 A 
ATOM     79  H   UNL A   1      41.558  32.128  39.875  1.00  0.00     0.167 HD
ATOM     80  C   UNL A   1      44.256  31.322  39.852  1.00  0.00     0.074 A 
ATOM     81  C   UNL A   1      45.578  30.998  39.363  1.00  0.00     0.031 C 
ATOM     82  C   UNL A   1      43.908  31.326  41.163  1.00  0.00     0.037 A 
BRANCH  69  83
ATOM     83  C   UNL A   1      38.045  33.010  42.139  1.00  0.00     0.058 A 
ATOM     84  C   UNL A   1      37.863  34.288  42.698  1.00  0.00     0.135 A 
ATOM     85  C   UNL A   1      37.162  31.992  42.533  1.00  0.00     0.135 A 
ATOM     86  F   UNL A   1      38.689  35.294  42.369  1.00  0.00    -0.206 F 
ATOM     87  C   UNL A   1      36.883  34.532  43.650  1.00  0.00     0.059 A 
ATOM     88  C   UNL A   1      36.145  32.226  43.453  1.00  0.00     0.059 A 
ATOM     89  F   UNL A   1      37.286  30.755  42.028  1.00  0.00    -0.206 F 
ATOM     90  C   UNL A   1      36.028  33.494  44.022  1.00  0.00     0.060 A 
BRANCH  90  91
ATOM     91  S   UNL A   1      34.762  33.833  45.261  1.00  0.00     0.124 S 
ATOM     92  O   UNL A   1      33.915  32.650  45.142  1.00  0.00    -0.237 OA
ATOM     93  O   UNL A   1      35.546  33.929  46.488  1.00  0.00    -0.237 OA
ATOM     94  O   UNL A   1      34.163  35.082  44.802  1.00  0.00    -0.744 OA
ENDBRANCH  90  91
ENDBRANCH  69  83
BRANCH  70  95
ATOM     95  C   UNL A   1      44.989  31.340  35.207  1.00  0.00     0.058 A 
ATOM     96  C   UNL A   1      45.343  30.041  34.808  1.00  0.00     0.135 A 
ATOM     97  C   UNL A   1      45.699  32.409  34.638  1.00  0.00     0.135 A 
ATOM     98  F   UNL A   1      44.707  28.982  35.332  1.00  0.00    -0.206 F 
ATOM     99  C   UNL A   1      46.374  29.807  33.902  1.00  0.00     0.059 A 
ATOM    100  C   UNL A   1      46.718  32.202  33.710  1.00  0.00     0.059 A 
ATOM    101  F   UNL A   1      45.396  33.673  34.975  1.00  0.00    -0.206 F 
ATOM    102  C   UNL A   1      47.054  30.896  33.355  1.00  0.00     0.060 A 
BRANCH 102 103
ATOM    103  S   UNL A   1      48.355  30.579  32.142  1.00  0.00     0.124 S 
ATOM    104  O   UNL A   1      49.508  31.211  32.771  1.00  0.00    -0.237 OA
ATOM    105  O   UNL A   1      48.372  29.120  32.092  1.00  0.00    -0.237 OA
ATOM    106  O   UNL A   1      47.855  31.234  30.937  1.00  0.00    -0.744 OA
ENDBRANCH 102 103
ENDBRANCH  70  95
BRANCH  82 107
ATOM    107  C   UNL A   1      44.939  30.906  42.176  1.00  0.00     0.058 A 
ATOM    108  C   UNL A   1      45.807  31.826  42.782  1.00  0.00     0.135 A 
ATOM    109  C   UNL A   1      44.994  29.570  42.613  1.00  0.00     0.135 A 
ATOM    110  F   UNL A   1      45.799  33.114  42.402  1.00  0.00    -0.206 F 
ATOM    111  C   UNL A   1      46.705  31.437  43.772  1.00  0.00     0.059 A 
ATOM    112  C   UNL A   1      45.861  29.165  43.623  1.00  0.00     0.059 A 
ATOM    113  F   UNL A   1      44.178  28.649  42.077  1.00  0.00    -0.206 F 
ATOM    114  C   UNL A   1      46.719  30.104  44.191  1.00  0.00     0.060 A 
BRANCH 114 115
ATOM    115  S   UNL A   1      47.851  29.627  45.513  1.00  0.00     0.124 S 
ATOM    116  O   UNL A   1      49.012  29.168  44.756  1.00  0.00    -0.237 OA
ATOM    117  O   UNL A   1      48.023  30.879  46.243  1.00  0.00    -0.237 OA
ATOM    118  O   UNL A   1      47.120  28.585  46.229  1.00  0.00    -0.744 OA
ENDBRANCH 114 115
ENDBRANCH  82 107
ENDBRANCH  56  57
ENDBRANCH  49  51
ENDBRANCH  48  49
ENDBRANCH  47  48
ENDBRANCH  46  47
ENDBRANCH  45  46
ENDBRANCH  44  45
ENDBRANCH  43  44
ENDBRANCH  42  43
ENDBRANCH   1  42
TORSDOF 31
ENDMDL
MODEL 2
REMARK VINA RESULT:      -6.3     10.666     16.940
REMARK SMILES CC(C)C[C@H](NC(=O)[C@H](Cc1ccccc1)NC(=O)CNC(=O)CNC(=O)OCc1ccccc1)C(=O)OCCOCCOC(=O)c1ccc(-c2c3nc(c(-c4c(F)cc(S(=O)(=O)[O-])cc4F)c4ccc([nH]4)c(-c4c(F)cc(S(=O)(=O)[O-])cc4F)c4nc(c(-c5c(F)cc(S(=O)(=O)[O-])cc5F)c5ccc2[nH]5)C=C4)C=C3)cc1
REMARK SMILES IDX 36 1 37 2 5 3 4 4 2 5 1 6 3 7 6 8 7 9 8 11 9 12 17 13 18 14
REMARK SMILES IDX 19 16 20 17 21 18 22 19 23 21 24 22 25 23 26 24 27 26 28 27
REMARK SMILES IDX 29 28 30 29 31 30 35 31 32 32 34 33 33 34 10 35 11 36 12 37
REMARK SMILES IDX 16 38 13 39 15 40 14 41 38 42 39 43 40 44 41 45 42 46 43 47
REMARK SMILES IDX 44 48 45 49 46 50 47 51 48 52 112 53 49 54 111 55 50 56
REMARK SMILES IDX 51 57 52 58 105 59 53 60 110 61 104 62 106 63 54 64 109 65
REMARK SMILES IDX 103 66 102 67 55 69 89 70 68 71 88 72 69 73 72 74 87 75
REMARK SMILES IDX 107 76 70 77 71 78 86 80 108 81 73 82 56 83 57 84 66 85
REMARK SMILES IDX 58 86 59 87 65 88 67 89 60 90 61 91 62 92 63 93 64 94 90 95
REMARK SMILES IDX 91 96 100 97 92 98 93 99 99 100 101 101 94 102 95 103 96 104
REMARK SMILES IDX 97 105 98 106 74 107 75 108 84 109 76 110 77 111 83 112
REMARK SMILES IDX 85 113 78 114 79 115 80 116 81 117 82 118
REMARK H PARENT 6 10 17 15 21 20 25 25 106 68 72 79
REMARK Flexibility Score: inf
ROOT
ATOM      1  C   UNL A   1      46.899  42.776  25.062  1.00  0.00     0.328 C 
ATOM      2  O   UNL A   1      47.239  42.370  23.959  1.00  0.00    -0.250 OA
ENDROOT
BRANCH   1   3
ATOM      3  C   UNL A   1      46.477  44.220  25.337  1.00  0.00     0.192 C 
BRANCH   3   4
ATOM      4  C   UNL A   1      45.042  44.411  24.850  1.00  0.00     0.040 C 
BRANCH   4   5
ATOM      5  C   UNL A   1      44.460  43.703  23.614  1.00  0.00    -0.015 C 
ATOM      6  C   UNL A   1      42.975  43.390  23.770  1.00  0.00     0.007 C 
ATOM      7  C   UNL A   1      44.669  44.614  22.397  1.00  0.00     0.007 C 
ENDBRANCH   4   5
ENDBRANCH   3   4
BRANCH   3   8
ATOM      8  N   UNL A   1      47.445  45.195  24.776  1.00  0.00    -0.341 N 
ATOM      9  C   UNL A   1      48.709  45.614  25.081  1.00  0.00     0.243 C 
ATOM     10  H   UNL A   1      47.087  45.656  23.984  1.00  0.00     0.164 HD
ATOM     11  O   UNL A   1      49.310  46.176  24.151  1.00  0.00    -0.273 OA
BRANCH   9  12
ATOM     12  C   UNL A   1      49.346  45.643  26.512  1.00  0.00     0.175 C 
BRANCH  12  13
ATOM     13  N   UNL A   1      50.159  44.499  26.922  1.00  0.00    -0.342 N 
ATOM     14  C   UNL A   1      50.330  43.955  28.175  1.00  0.00     0.240 C 
ATOM     15  H   UNL A   1      50.655  44.054  26.198  1.00  0.00     0.164 HD
ATOM     16  O   UNL A   1      51.295  43.205  28.346  1.00  0.00    -0.273 OA
BRANCH  14  17
ATOM     17  C   UNL A   1      49.348  44.244  29.337  1.00  0.00     0.216 C 
BRANCH  17  18
ATOM     18  N   UNL A   1      49.587  43.465  30.532  1.00  0.00    -0.346 N 
ATOM     19  C   UNL A   1      49.090  42.255  30.918  1.00  0.00     0.239 C 
ATOM     20  H   UNL A   1      50.212  43.876  31.173  1.00  0.00     0.164 HD
ATOM     21  O   UNL A   1      49.242  41.932  32.099  1.00  0.00    -0.273 OA
BRANCH  19  22
ATOM     22  C   UNL A   1      48.423  41.300  29.922  1.00  0.00     0.219 C 
BRANCH  22  23
ATOM     23  N   UNL A   1      46.998  41.218  30.122  1.00  0.00    -0.312 N 
ATOM     24  C   UNL A   1      46.227  40.116  29.965  1.00  0.00     0.407 C 
ATOM     25  H   UNL A   1      46.541  42.044  30.399  1.00  0.00     0.167 HD
ATOM     26  O   UNL A   1      45.009  40.247  29.906  1.00  0.00    -0.225 OA
BRANCH  24  27
ATOM     27  O   UNL A   1      46.914  38.956  29.815  1.00  0.00    -0.445 OA
BRANCH  27  28
ATOM     28  C   UNL A   1      46.353  38.005  28.876  1.00  0.00     0.270 C 
BRANCH  28  29
ATOM     29  C   UNL A   1      47.460  37.522  27.973  1.00  0.00    -0.011 A 
ATOM     30  C   UNL A   1      47.407  37.809  26.605  1.00  0.00     0.007 A 
ATOM     31  C   UNL A   1      48.668  37.102  28.545  1.00  0.00     0.007 A 
ATOM     32  C   UNL A   1      48.576  37.813  25.852  1.00  0.00     0.000 A 
ATOM     33  C   UNL A   1      49.844  37.202  27.815  1.00  0.00     0.000 A 
ATOM     34  C   UNL A   1      49.801  37.576  26.473  1.00  0.00     0.000 A 
ENDBRANCH  28  29
ENDBRANCH  27  28
ENDBRANCH  24  27
ENDBRANCH  22  23
ENDBRANCH  19  22
ENDBRANCH  17  18
ENDBRANCH  14  17
ENDBRANCH  12  13
BRANCH  12  35
ATOM     35  C   UNL A   1      50.111  47.015  26.713  1.00  0.00     0.070 C 
BRANCH  35  36
ATOM     36  C   UNL A   1      49.712  47.855  27.917  1.00  0.00    -0.045 A 
ATOM     37  C   UNL A   1      48.484  48.515  27.984  1.00  0.00     0.004 A 
ATOM     38  C   UNL A   1      50.598  48.045  28.977  1.00  0.00     0.004 A 
ATOM     39  C   UNL A   1      48.253  49.478  28.976  1.00  0.00     0.000 A 
ATOM     40  C   UNL A   1      50.428  49.070  29.902  1.00  0.00     0.000 A 
ATOM     41  C   UNL A   1      49.255  49.806  29.889  1.00  0.00     0.000 A 
ENDBRANCH  35  36
ENDBRANCH  12  35
ENDBRANCH   9  12
ENDBRANCH   3   8
ENDBRANCH   1   3
BRANCH   1  42
ATOM     42  O   UNL A   1      46.968  42.064  26.223  1.00  0.00    -0.462 OA
BRANCH  42  43
ATOM     43  C   UNL A   1      45.712  41.561  26.713  1.00  0.00     0.261 C 
BRANCH  43  44
ATOM     44  C   UNL A   1      45.021  40.698  25.674  1.00  0.00     0.202 C 
BRANCH  44  45
ATOM     45  O   UNL A   1      43.687  40.330  26.018  1.00  0.00    -0.374 OA
BRANCH  45  46
ATOM     46  C   UNL A   1      43.572  39.177  26.853  1.00  0.00     0.202 C 
BRANCH  46  47
ATOM     47  C   UNL A   1      42.231  38.446  26.751  1.00  0.00     0.261 C 
BRANCH  47  48
ATOM     48  O   UNL A   1      42.394  37.046  26.467  1.00  0.00    -0.460 OA
BRANCH  48  49
ATOM     49  C   UNL A   1      42.159  36.195  27.503  1.00  0.00     0.338 C 
ATOM     50  O   UNL A   1      41.225  36.222  28.283  1.00  0.00    -0.246 OA
BRANCH  49  51
ATOM     51  C   UNL A   1      43.147  35.098  27.435  1.00  0.00     0.060 A 
ATOM     52  C   UNL A   1      43.707  34.577  28.609  1.00  0.00     0.016 A 
ATOM     53  C   UNL A   1      43.500  34.565  26.203  1.00  0.00     0.016 A 
ATOM     54  C   UNL A   1      44.630  33.520  28.546  1.00  0.00     0.010 A 
ATOM     55  C   UNL A   1      44.378  33.480  26.156  1.00  0.00     0.010 A 
ATOM     56  C   UNL A   1      44.987  32.955  27.314  1.00  0.00    -0.014 A 
BRANCH  56  57
ATOM     57  C   UNL A   1      46.075  31.930  27.163  1.00  0.00     0.031 A 
ATOM     58  C   UNL A   1      47.497  32.415  26.955  1.00  0.00     0.074 A 
ATOM     59  C   UNL A   1      45.843  30.598  27.145  1.00  0.00     0.049 A 
ATOM     60  N   UNL A   1      48.575  31.739  26.642  1.00  0.00    -0.248 NA
ATOM     61  C   UNL A   1      47.721  33.868  27.059  1.00  0.00     0.031 C 
ATOM     62  C   UNL A   1      44.543  29.946  27.300  1.00  0.00     0.029 A 
ATOM     63  N   UNL A   1      46.713  29.542  26.963  1.00  0.00    -0.354 N 
ATOM     64  C   UNL A   1      49.577  32.691  26.477  1.00  0.00     0.074 A 
ATOM     65  C   UNL A   1      48.952  33.987  26.592  1.00  0.00     0.031 C 
ATOM     66  C   UNL A   1      44.698  28.612  27.207  1.00  0.00     0.029 A 
ATOM     67  C   UNL A   1      46.108  28.304  26.969  1.00  0.00     0.049 A 
ATOM     68  H   UNL A   1      47.682  29.663  26.840  1.00  0.00     0.167 HD
ATOM     69  C   UNL A   1      50.912  32.523  26.325  1.00  0.00     0.037 A 
ATOM     70  C   UNL A   1      46.622  27.066  26.807  1.00  0.00     0.037 A 
ATOM     71  C   UNL A   1      51.566  31.246  26.303  1.00  0.00     0.049 A 
ATOM     72  C   UNL A   1      48.112  26.889  26.619  1.00  0.00     0.074 A 
ATOM     73  C   UNL A   1      52.922  30.978  26.243  1.00  0.00     0.029 A 
ATOM     74  N   UNL A   1      50.916  30.024  26.356  1.00  0.00    -0.354 N 
ATOM     75  N   UNL A   1      49.050  27.803  26.549  1.00  0.00    -0.248 NA
ATOM     76  C   UNL A   1      48.615  25.509  26.514  1.00  0.00     0.031 C 
ATOM     77  C   UNL A   1      53.090  29.591  26.213  1.00  0.00     0.029 A 
ATOM     78  C   UNL A   1      51.843  28.997  26.313  1.00  0.00     0.049 A 
ATOM     79  H   UNL A   1      49.941  29.904  26.415  1.00  0.00     0.167 HD
ATOM     80  C   UNL A   1      50.254  27.106  26.449  1.00  0.00     0.074 A 
ATOM     81  C   UNL A   1      49.926  25.698  26.463  1.00  0.00     0.031 C 
ATOM     82  C   UNL A   1      51.517  27.595  26.361  1.00  0.00     0.037 A 
BRANCH  69  83
ATOM     83  C   UNL A   1      51.757  33.766  26.227  1.00  0.00     0.058 A 
ATOM     84  C   UNL A   1      52.232  34.425  27.374  1.00  0.00     0.135 A 
ATOM     85  C   UNL A   1      52.099  34.303  24.976  1.00  0.00     0.135 A 
ATOM     86  F   UNL A   1      51.922  33.963  28.597  1.00  0.00    -0.206 F 
ATOM     87  C   UNL A   1      52.967  35.600  27.287  1.00  0.00     0.059 A 
ATOM     88  C   UNL A   1      52.872  35.456  24.864  1.00  0.00     0.059 A 
ATOM     89  F   UNL A   1      51.678  33.713  23.847  1.00  0.00    -0.206 F 
ATOM     90  C   UNL A   1      53.282  36.107  26.027  1.00  0.00     0.060 A 
BRANCH  90  91
ATOM     91  S   UNL A   1      54.237  37.635  25.936  1.00  0.00     0.124 S 
ATOM     92  O   UNL A   1      54.517  37.887  27.346  1.00  0.00    -0.237 OA
ATOM     93  O   UNL A   1      55.383  37.237  25.125  1.00  0.00    -0.237 OA
ATOM     94  O   UNL A   1      53.317  38.574  25.301  1.00  0.00    -0.744 OA
ENDBRANCH  90  91
ENDBRANCH  69  83
BRANCH  70  95
ATOM     95  C   UNL A   1      45.738  25.865  26.865  1.00  0.00     0.058 A 
ATOM     96  C   UNL A   1      45.171  25.332  25.696  1.00  0.00     0.135 A 
ATOM     97  C   UNL A   1      45.415  25.246  28.083  1.00  0.00     0.135 A 
ATOM     98  F   UNL A   1      45.434  25.895  24.507  1.00  0.00    -0.206 F 
ATOM     99  C   UNL A   1      44.300  24.248  25.731  1.00  0.00     0.059 A 
ATOM    100  C   UNL A   1      44.565  24.143  28.142  1.00  0.00     0.059 A 
ATOM    101  F   UNL A   1      45.937  25.706  29.231  1.00  0.00    -0.206 F 
ATOM    102  C   UNL A   1      44.005  23.656  26.961  1.00  0.00     0.060 A 
BRANCH 102 103
ATOM    103  S   UNL A   1      42.912  22.218  26.986  1.00  0.00     0.124 S 
ATOM    104  O   UNL A   1      43.020  21.787  28.375  1.00  0.00    -0.237 OA
ATOM    105  O   UNL A   1      41.634  22.803  26.595  1.00  0.00    -0.237 OA
ATOM    106  O   UNL A   1      43.513  21.325  25.999  1.00  0.00    -0.744 OA
ENDBRANCH 102 103
ENDBRANCH  70  95
BRANCH  82 107
ATOM    107  C   UNL A   1      52.660  26.616  26.341  1.00  0.00     0.058 A 
ATOM    108  C   UNL A   1      53.064  25.965  25.166  1.00  0.00     0.135 A 
ATOM    109  C   UNL A   1      53.421  26.397  27.504  1.00  0.00     0.135 A 
ATOM    110  F   UNL A   1      52.373  26.137  24.027  1.00  0.00    -0.206 F 
ATOM    111  C   UNL A   1      54.170  25.120  25.146  1.00  0.00     0.059 A 
ATOM    112  C   UNL A   1      54.548  25.581  27.499  1.00  0.00     0.059 A 
ATOM    113  F   UNL A   1      53.087  27.003  28.654  1.00  0.00    -0.206 F 
ATOM    114  C   UNL A   1      54.910  24.940  26.317  1.00  0.00     0.060 A 
BRANCH 114 115
ATOM    115  S   UNL A   1      56.373  23.884  26.260  1.00  0.00     0.124 S 
ATOM    116  O   UNL A   1      57.193  24.459  27.321  1.00  0.00    -0.237 OA
ATOM    117  O   UNL A   1      55.814  22.564  26.535  1.00  0.00    -0.237 OA
ATOM    118  O   UNL A   1      56.879  24.074  24.904  1.00  0.00    -0.744 OA
ENDBRANCH 114 115
ENDBRANCH  82 107
ENDBRANCH  56  57
ENDBRANCH  49  51
ENDBRANCH  48  49
ENDBRANCH  47  48
ENDBRANCH  46  47
ENDBRANCH  45  46
ENDBRANCH  44  45
ENDBRANCH  43  44
ENDBRANCH  42  43
ENDBRANCH   1  42
TORSDOF 31
ENDMDL
MODEL 3
REMARK VINA RESULT:      -6.1      6.067      9.845
REMARK SMILES CC(C)C[C@H](NC(=O)[C@H](Cc1ccccc1)NC(=O)CNC(=O)CNC(=O)OCc1ccccc1)C(=O)OCCOCCOC(=O)c1ccc(-c2c3nc(c(-c4c(F)cc(S(=O)(=O)[O-])cc4F)c4ccc([nH]4)c(-c4c(F)cc(S(=O)(=O)[O-])cc4F)c4nc(c(-c5c(F)cc(S(=O)(=O)[O-])cc5F)c5ccc2[nH]5)C=C4)C=C3)cc1
REMARK SMILES IDX 36 1 37 2 5 3 4 4 2 5 1 6 3 7 6 8 7 9 8 11 9 12 17 13 18 14
REMARK SMILES IDX 19 16 20 17 21 18 22 19 23 21 24 22 25 23 26 24 27 26 28 27
REMARK SMILES IDX 29 28 30 29 31 30 35 31 32 32 34 33 33 34 10 35 11 36 12 37
REMARK SMILES IDX 16 38 13 39 15 40 14 41 38 42 39 43 40 44 41 45 42 46 43 47
REMARK SMILES IDX 44 48 45 49 46 50 47 51 48 52 112 53 49 54 111 55 50 56
REMARK SMILES IDX 51 57 52 58 105 59 53 60 110 61 104 62 106 63 54 64 109 65
REMARK SMILES IDX 103 66 102 67 55 69 89 70 68 71 88 72 69 73 72 74 87 75
REMARK SMILES IDX 107 76 70 77 71 78 86 80 108 81 73 82 56 83 57 84 66 85
REMARK SMILES IDX 58 86 59 87 65 88 67 89 60 90 61 91 62 92 63 93 64 94 90 95
REMARK SMILES IDX 91 96 100 97 92 98 93 99 99 100 101 101 94 102 95 103 96 104
REMARK SMILES IDX 97 105 98 106 74 107 75 108 84 109 76 110 77 111 83 112
REMARK SMILES IDX 85 113 78 114 79 115 80 116 81 117 82 118
REMARK H PARENT 6 10 17 15 21 20 25 25 106 68 72 79
REMARK Flexibility Score: inf
ROOT
ATOM      1  C   UNL A   1      34.521  29.078  26.570  1.00  0.00     0.328 C 
ATOM      2  O   UNL A   1      35.216  28.562  27.434  1.00  0.00    -0.250 OA
ENDROOT
BRANCH   1   3
ATOM      3  C   UNL A   1      34.003  28.326  25.342  1.00  0.00     0.192 C 
BRANCH   3   4
ATOM      4  C   UNL A   1      33.031  29.232  24.589  1.00  0.00     0.040 C 
BRANCH   4   5
ATOM      5  C   UNL A   1      31.502  29.163  24.751  1.00  0.00    -0.015 C 
ATOM      6  C   UNL A   1      30.909  30.488  25.220  1.00  0.00     0.007 C 
ATOM      7  C   UNL A   1      30.894  28.777  23.396  1.00  0.00     0.007 C 
ENDBRANCH   4   5
ENDBRANCH   3   4
BRANCH   3   8
ATOM      8  N   UNL A   1      33.446  26.999  25.702  1.00  0.00    -0.341 N 
ATOM      9  C   UNL A   1      33.925  25.724  25.803  1.00  0.00     0.243 C 
ATOM     10  H   UNL A   1      32.488  27.050  25.925  1.00  0.00     0.164 HD
ATOM     11  O   UNL A   1      33.229  24.958  26.489  1.00  0.00    -0.273 OA
BRANCH   9  12
ATOM     12  C   UNL A   1      35.108  25.120  24.972  1.00  0.00     0.175 C 
BRANCH  12  13
ATOM     13  N   UNL A   1      36.293  24.668  25.699  1.00  0.00    -0.342 N 
ATOM     14  C   UNL A   1      37.109  23.587  25.451  1.00  0.00     0.240 C 
ATOM     15  H   UNL A   1      36.544  25.216  26.477  1.00  0.00     0.164 HD
ATOM     16  O   UNL A   1      37.852  23.210  26.362  1.00  0.00    -0.273 OA
BRANCH  14  17
ATOM     17  C   UNL A   1      37.125  22.867  24.081  1.00  0.00     0.216 C 
BRANCH  17  18
ATOM     18  N   UNL A   1      37.183  21.424  24.163  1.00  0.00    -0.346 N 
ATOM     19  C   UNL A   1      36.372  20.537  24.809  1.00  0.00     0.239 C 
ATOM     20  H   UNL A   1      37.931  21.013  23.671  1.00  0.00     0.164 HD
ATOM     21  O   UNL A   1      36.790  19.384  24.944  1.00  0.00    -0.273 OA
BRANCH  19  22
ATOM     22  C   UNL A   1      34.974  20.929  25.298  1.00  0.00     0.219 C 
BRANCH  22  23
ATOM     23  N   UNL A   1      34.048  19.827  25.233  1.00  0.00    -0.312 N 
ATOM     24  C   UNL A   1      32.698  19.913  25.191  1.00  0.00     0.407 C 
ATOM     25  H   UNL A   1      34.436  18.922  25.218  1.00  0.00     0.167 HD
ATOM     26  O   UNL A   1      32.031  18.906  25.406  1.00  0.00    -0.225 OA
BRANCH  24  27
ATOM     27  O   UNL A   1      32.212  21.161  24.977  1.00  0.00    -0.445 OA
BRANCH  27  28
ATOM     28  C   UNL A   1      31.707  21.854  26.145  1.00  0.00     0.270 C 
BRANCH  28  29
ATOM     29  C   UNL A   1      30.795  22.962  25.683  1.00  0.00    -0.011 A 
ATOM     30  C   UNL A   1      30.245  23.839  26.623  1.00  0.00     0.007 A 
ATOM     31  C   UNL A   1      30.781  23.307  24.325  1.00  0.00     0.007 A 
ATOM     32  C   UNL A   1      29.818  25.101  26.226  1.00  0.00     0.000 A 
ATOM     33  C   UNL A   1      30.447  24.601  23.949  1.00  0.00     0.000 A 
ATOM     34  C   UNL A   1      29.983  25.504  24.903  1.00  0.00     0.000 A 
ENDBRANCH  28  29
ENDBRANCH  27  28
ENDBRANCH  24  27
ENDBRANCH  22  23
ENDBRANCH  19  22
ENDBRANCH  17  18
ENDBRANCH  14  17
ENDBRANCH  12  13
BRANCH  12  35
ATOM     35  C   UNL A   1      34.545  24.000  24.004  1.00  0.00     0.070 C 
BRANCH  35  36
ATOM     36  C   UNL A   1      33.741  24.472  22.802  1.00  0.00    -0.045 A 
ATOM     37  C   UNL A   1      33.294  23.587  21.818  1.00  0.00     0.004 A 
ATOM     38  C   UNL A   1      33.477  25.827  22.610  1.00  0.00     0.004 A 
ATOM     39  C   UNL A   1      32.787  24.077  20.607  1.00  0.00     0.000 A 
ATOM     40  C   UNL A   1      33.077  26.330  21.376  1.00  0.00     0.000 A 
ATOM     41  C   UNL A   1      32.748  25.449  20.360  1.00  0.00     0.000 A 
ENDBRANCH  35  36
ENDBRANCH  12  35
ENDBRANCH   9  12
ENDBRANCH   3   8
ENDBRANCH   1   3
BRANCH   1  42
ATOM     42  O   UNL A   1      34.214  30.405  26.488  1.00  0.00    -0.462 OA
BRANCH  42  43
ATOM     43  C   UNL A   1      34.041  31.075  27.749  1.00  0.00     0.261 C 
BRANCH  43  44
ATOM     44  C   UNL A   1      35.155  32.074  28.002  1.00  0.00     0.202 C 
BRANCH  44  45
ATOM     45  O   UNL A   1      35.972  31.761  29.128  1.00  0.00    -0.374 OA
BRANCH  45  46
ATOM     46  C   UNL A   1      37.335  31.467  28.825  1.00  0.00     0.202 C 
BRANCH  46  47
ATOM     47  C   UNL A   1      37.690  29.978  28.859  1.00  0.00     0.261 C 
BRANCH  47  48
ATOM     48  O   UNL A   1      38.920  29.696  28.170  1.00  0.00    -0.460 OA
BRANCH  48  49
ATOM     49  C   UNL A   1      39.506  28.502  28.458  1.00  0.00     0.338 C 
ATOM     50  O   UNL A   1      39.390  27.456  27.846  1.00  0.00    -0.246 OA
BRANCH  49  51
ATOM     51  C   UNL A   1      40.467  28.710  29.560  1.00  0.00     0.060 A 
ATOM     52  C   UNL A   1      41.800  29.040  29.283  1.00  0.00     0.016 A 
ATOM     53  C   UNL A   1      40.039  28.604  30.876  1.00  0.00     0.016 A 
ATOM     54  C   UNL A   1      42.710  29.259  30.331  1.00  0.00     0.010 A 
ATOM     55  C   UNL A   1      40.938  28.875  31.909  1.00  0.00     0.010 A 
ATOM     56  C   UNL A   1      42.294  29.174  31.668  1.00  0.00    -0.014 A 
BRANCH  56  57
ATOM     57  C   UNL A   1      43.243  29.247  32.830  1.00  0.00     0.031 A 
ATOM     58  C   UNL A   1      43.651  30.616  33.340  1.00  0.00     0.074 A 
ATOM     59  C   UNL A   1      43.796  28.157  33.408  1.00  0.00     0.049 A 
ATOM     60  N   UNL A   1      44.569  30.945  34.215  1.00  0.00    -0.248 NA
ATOM     61  C   UNL A   1      42.968  31.776  32.739  1.00  0.00     0.031 C 
ATOM     62  C   UNL A   1      43.548  26.765  33.038  1.00  0.00     0.029 A 
ATOM     63  N   UNL A   1      44.714  28.058  34.434  1.00  0.00    -0.354 N 
ATOM     64  C   UNL A   1      44.591  32.336  34.229  1.00  0.00     0.074 A 
ATOM     65  C   UNL A   1      43.697  32.783  33.188  1.00  0.00     0.031 C 
ATOM     66  C   UNL A   1      44.290  25.956  33.817  1.00  0.00     0.029 A 
ATOM     67  C   UNL A   1      45.083  26.767  34.739  1.00  0.00     0.049 A 
ATOM     68  H   UNL A   1      45.073  28.843  34.907  1.00  0.00     0.167 HD
ATOM     69  C   UNL A   1      45.225  33.182  35.074  1.00  0.00     0.037 A 
ATOM     70  C   UNL A   1      45.954  26.287  35.653  1.00  0.00     0.037 A 
ATOM     71  C   UNL A   1      46.043  32.759  36.175  1.00  0.00     0.049 A 
ATOM     72  C   UNL A   1      46.672  27.240  36.581  1.00  0.00     0.074 A 
ATOM     73  C   UNL A   1      46.654  33.540  37.139  1.00  0.00     0.029 A 
ATOM     74  N   UNL A   1      46.352  31.441  36.469  1.00  0.00    -0.354 N 
ATOM     75  N   UNL A   1      46.613  28.549  36.627  1.00  0.00    -0.248 NA
ATOM     76  C   UNL A   1      47.557  26.648  37.597  1.00  0.00     0.031 C 
ATOM     77  C   UNL A   1      47.372  32.696  37.992  1.00  0.00     0.029 A 
ATOM     78  C   UNL A   1      47.160  31.387  37.591  1.00  0.00     0.049 A 
ATOM     79  H   UNL A   1      46.043  30.660  35.956  1.00  0.00     0.167 HD
ATOM     80  C   UNL A   1      47.405  28.929  37.710  1.00  0.00     0.074 A 
ATOM     81  C   UNL A   1      47.936  27.714  38.287  1.00  0.00     0.031 C 
ATOM     82  C   UNL A   1      47.660  30.174  38.185  1.00  0.00     0.037 A 
BRANCH  69  83
ATOM     83  C   UNL A   1      45.007  34.658  34.867  1.00  0.00     0.058 A 
ATOM     84  C   UNL A   1      43.888  35.319  35.403  1.00  0.00     0.135 A 
ATOM     85  C   UNL A   1      45.926  35.421  34.128  1.00  0.00     0.135 A 
ATOM     86  F   UNL A   1      42.969  34.634  36.104  1.00  0.00    -0.206 F 
ATOM     87  C   UNL A   1      43.658  36.668  35.168  1.00  0.00     0.059 A 
ATOM     88  C   UNL A   1      45.737  36.784  33.917  1.00  0.00     0.059 A 
ATOM     89  F   UNL A   1      47.015  34.844  33.598  1.00  0.00    -0.206 F 
ATOM     90  C   UNL A   1      44.589  37.392  34.424  1.00  0.00     0.060 A 
BRANCH  90  91
ATOM     91  S   UNL A   1      44.271  39.144  34.130  1.00  0.00     0.124 S 
ATOM     92  O   UNL A   1      45.103  39.397  32.957  1.00  0.00    -0.237 OA
ATOM     93  O   UNL A   1      42.830  39.163  33.899  1.00  0.00    -0.237 OA
ATOM     94  O   UNL A   1      44.715  39.782  35.364  1.00  0.00    -0.744 OA
ENDBRANCH  90  91
ENDBRANCH  69  83
BRANCH  70  95
ATOM     95  C   UNL A   1      46.173  24.817  35.791  1.00  0.00     0.058 A 
ATOM     96  C   UNL A   1      47.104  24.149  34.979  1.00  0.00     0.135 A 
ATOM     97  C   UNL A   1      45.441  24.046  36.708  1.00  0.00     0.135 A 
ATOM     98  F   UNL A   1      47.819  24.836  34.075  1.00  0.00    -0.206 F 
ATOM     99  C   UNL A   1      47.285  22.771  35.051  1.00  0.00     0.059 A 
ATOM    100  C   UNL A   1      45.623  22.669  36.817  1.00  0.00     0.059 A 
ATOM    101  F   UNL A   1      44.546  24.633  37.518  1.00  0.00    -0.206 F 
ATOM    102  C   UNL A   1      46.542  22.038  35.978  1.00  0.00     0.060 A 
BRANCH 102 103
ATOM    103  S   UNL A   1      46.824  20.258  36.096  1.00  0.00     0.124 S 
ATOM    104  O   UNL A   1      47.472  20.146  37.397  1.00  0.00    -0.237 OA
ATOM    105  O   UNL A   1      45.466  19.731  36.008  1.00  0.00    -0.237 OA
ATOM    106  O   UNL A   1      47.673  19.977  34.941  1.00  0.00    -0.744 OA
ENDBRANCH 102 103
ENDBRANCH  70  95
BRANCH  82 107
ATOM    107  C   UNL A   1      48.498  30.305  39.429  1.00  0.00     0.058 A 
ATOM    108  C   UNL A   1      47.949  30.190  40.714  1.00  0.00     0.135 A 
ATOM    109  C   UNL A   1      49.892  30.461  39.326  1.00  0.00     0.135 A 
ATOM    110  F   UNL A   1      46.623  30.042  40.871  1.00  0.00    -0.206 F 
ATOM    111  C   UNL A   1      48.746  30.239  41.854  1.00  0.00     0.059 A 
ATOM    112  C   UNL A   1      50.713  30.482  40.450  1.00  0.00     0.059 A 
ATOM    113  F   UNL A   1      50.474  30.565  38.121  1.00  0.00    -0.206 F 
ATOM    114  C   UNL A   1      50.129  30.378  41.711  1.00  0.00     0.060 A 
BRANCH 114 115
ATOM    115  S   UNL A   1      51.155  30.386  43.196  1.00  0.00     0.124 S 
ATOM    116  O   UNL A   1      50.218  29.899  44.204  1.00  0.00    -0.237 OA
ATOM    117  O   UNL A   1      52.233  29.471  42.835  1.00  0.00    -0.237 OA
ATOM    118  O   UNL A   1      51.547  31.786  43.332  1.00  0.00    -0.744 OA
ENDBRANCH 114 115
ENDBRANCH  82 107
ENDBRANCH  56  57
ENDBRANCH  49  51
ENDBRANCH  48  49
ENDBRANCH  47  48
ENDBRANCH  46  47
ENDBRANCH  45  46
ENDBRANCH  44  45
ENDBRANCH  43  44
ENDBRANCH  42  43
ENDBRANCH   1  42
TORSDOF 31
ENDMDL
