MODEL 1
REMARK VINA RESULT:     -11.3      0.000      0.000
REMARK SMILES O=C(OCCOCCOC(=O)c1ccccc1/N=C/c1coc2ccccc2c1=O)c1ccc(-c2c3nc(c(-c4c(F)cc(S(=O)(=O)[O-])cc4F)c4ccc([nH]4)c(-c4c(F)cc(S(=O)(=O)[O-])cc4F)c4nc(c(-c5c(F)cc(S(=O)(=O)[O-])cc5F)c5ccc2[nH]5)C=C4)C=C3)cc1
REMARK SMILES IDX 5 1 4 2 3 3 2 4 1 5 31 6 32 7 96 8 33 9 95 10 34 11 35 12
REMARK SMILES IDX 36 13 89 14 37 15 94 16 88 17 90 18 38 19 93 20 87 21 86 22
REMARK SMILES IDX 39 24 73 25 52 26 72 27 53 28 56 29 71 30 91 31 54 32 55 33
REMARK SMILES IDX 70 35 92 36 57 37 40 38 41 39 50 40 42 41 43 42 49 43 51 44
REMARK SMILES IDX 44 45 45 46 46 47 47 48 48 49 74 50 75 51 84 52 76 53 77 54
REMARK SMILES IDX 83 55 85 56 78 57 79 58 80 59 81 60 82 61 58 62 59 63 68 64
REMARK SMILES IDX 60 65 61 66 67 67 69 68 62 69 63 70 64 71 65 72 66 73 6 74
REMARK SMILES IDX 7 75 8 76 9 77 10 78 11 79 12 80 13 81 17 82 14 83 16 84
REMARK SMILES IDX 15 85 18 86 19 87 20 88 21 89 29 90 22 91 28 92 30 93 23 94
REMARK SMILES IDX 27 95 24 96 26 97 25 98
REMARK H PARENT 90 23 56 34
REMARK Flexibility Score: inf
ROOT
ATOM      1  C   UNL A   1      33.095  29.333  25.813  1.00  0.00     0.202 C 
ENDROOT
BRANCH   1   2
ATOM      2  C   UNL A   1      33.125  30.550  26.741  1.00  0.00     0.261 C 
BRANCH   2   3
ATOM      3  O   UNL A   1      33.766  30.198  27.983  1.00  0.00    -0.460 OA
BRANCH   3   4
ATOM      4  C   UNL A   1      34.744  30.852  28.652  1.00  0.00     0.338 C 
ATOM      5  O   UNL A   1      34.471  31.932  29.174  1.00  0.00    -0.246 OA
BRANCH   4   6
ATOM      6  C   UNL A   1      36.149  30.352  28.768  1.00  0.00     0.060 A 
ATOM      7  C   UNL A   1      36.730  29.849  29.935  1.00  0.00     0.016 A 
ATOM      8  C   UNL A   1      36.905  30.301  27.583  1.00  0.00     0.016 A 
ATOM      9  C   UNL A   1      38.039  29.383  29.954  1.00  0.00     0.010 A 
ATOM     10  C   UNL A   1      38.213  29.806  27.586  1.00  0.00     0.010 A 
ATOM     11  C   UNL A   1      38.791  29.372  28.782  1.00  0.00    -0.014 A 
BRANCH  11  12
ATOM     12  C   UNL A   1      40.221  29.028  28.872  1.00  0.00     0.031 A 
ATOM     13  C   UNL A   1      41.154  30.050  29.446  1.00  0.00     0.074 A 
ATOM     14  C   UNL A   1      40.634  27.787  28.561  1.00  0.00     0.049 A 
ATOM     15  N   UNL A   1      42.449  29.999  29.592  1.00  0.00    -0.248 NA
ATOM     16  C   UNL A   1      40.540  31.295  29.940  1.00  0.00     0.031 C 
ATOM     17  C   UNL A   1      39.764  26.698  28.111  1.00  0.00     0.029 A 
ATOM     18  N   UNL A   1      41.881  27.224  28.601  1.00  0.00    -0.354 N 
ATOM     19  C   UNL A   1      42.809  31.210  30.169  1.00  0.00     0.074 A 
ATOM     20  C   UNL A   1      41.597  31.976  30.352  1.00  0.00     0.031 C 
ATOM     21  C   UNL A   1      40.505  25.591  27.934  1.00  0.00     0.029 A 
ATOM     22  C   UNL A   1      41.904  25.909  28.202  1.00  0.00     0.049 A 
ATOM     23  H   UNL A   1      42.685  27.715  28.888  1.00  0.00     0.167 HD
ATOM     24  C   UNL A   1      44.047  31.641  30.501  1.00  0.00     0.037 A 
ATOM     25  C   UNL A   1      42.949  25.074  28.047  1.00  0.00     0.037 A 
ATOM     26  C   UNL A   1      45.233  30.860  30.289  1.00  0.00     0.049 A 
ATOM     27  C   UNL A   1      44.326  25.604  28.349  1.00  0.00     0.074 A 
ATOM     28  C   UNL A   1      46.554  31.215  30.486  1.00  0.00     0.029 A 
ATOM     29  N   UNL A   1      45.231  29.548  29.828  1.00  0.00    -0.354 N 
ATOM     30  N   UNL A   1      44.670  26.785  28.810  1.00  0.00    -0.248 NA
ATOM     31  C   UNL A   1      45.458  24.704  28.091  1.00  0.00     0.031 C 
ATOM     32  C   UNL A   1      47.353  30.125  30.117  1.00  0.00     0.029 A 
ATOM     33  C   UNL A   1      46.526  29.080  29.725  1.00  0.00     0.049 A 
ATOM     34  H   UNL A   1      44.424  29.030  29.607  1.00  0.00     0.167 HD
ATOM     35  C   UNL A   1      46.056  26.772  28.899  1.00  0.00     0.074 A 
ATOM     36  C   UNL A   1      46.485  25.455  28.466  1.00  0.00     0.031 C 
ATOM     37  C   UNL A   1      46.902  27.756  29.291  1.00  0.00     0.037 A 
BRANCH  24  38
ATOM     38  C   UNL A   1      44.155  33.038  31.040  1.00  0.00     0.058 A 
ATOM     39  C   UNL A   1      44.156  33.304  32.418  1.00  0.00     0.135 A 
ATOM     40  C   UNL A   1      44.188  34.133  30.162  1.00  0.00     0.135 A 
ATOM     41  F   UNL A   1      44.092  32.294  33.302  1.00  0.00    -0.206 F 
ATOM     42  C   UNL A   1      44.150  34.608  32.907  1.00  0.00     0.059 A 
ATOM     43  C   UNL A   1      44.200  35.444  30.628  1.00  0.00     0.059 A 
ATOM     44  F   UNL A   1      44.173  33.935  28.834  1.00  0.00    -0.206 F 
ATOM     45  C   UNL A   1      44.159  35.672  32.003  1.00  0.00     0.060 A 
BRANCH  45  46
ATOM     46  S   UNL A   1      44.091  37.358  32.644  1.00  0.00     0.124 S 
ATOM     47  O   UNL A   1      45.412  37.489  33.255  1.00  0.00    -0.237 OA
ATOM     48  O   UNL A   1      43.873  38.147  31.436  1.00  0.00    -0.237 OA
ATOM     49  O   UNL A   1      42.970  37.322  33.577  1.00  0.00    -0.744 OA
ENDBRANCH  45  46
ENDBRANCH  24  38
BRANCH  25  50
ATOM     50  C   UNL A   1      42.738  23.689  27.542  1.00  0.00     0.058 A 
ATOM     51  C   UNL A   1      42.813  23.389  26.175  1.00  0.00     0.135 A 
ATOM     52  C   UNL A   1      42.469  22.630  28.425  1.00  0.00     0.135 A 
ATOM     53  F   UNL A   1      43.057  24.364  25.286  1.00  0.00    -0.206 F 
ATOM     54  C   UNL A   1      42.619  22.094  25.698  1.00  0.00     0.059 A 
ATOM     55  C   UNL A   1      42.295  21.324  27.976  1.00  0.00     0.059 A 
ATOM     56  F   UNL A   1      42.393  22.858  29.746  1.00  0.00    -0.206 F 
ATOM     57  C   UNL A   1      42.363  21.067  26.609  1.00  0.00     0.060 A 
BRANCH  57  58
ATOM     58  S   UNL A   1      42.158  19.380  25.993  1.00  0.00     0.124 S 
ATOM     59  O   UNL A   1      42.668  18.594  27.110  1.00  0.00    -0.237 OA
ATOM     60  O   UNL A   1      40.718  19.306  25.764  1.00  0.00    -0.237 OA
ATOM     61  O   UNL A   1      42.975  19.365  24.783  1.00  0.00    -0.744 OA
ENDBRANCH  57  58
ENDBRANCH  25  50
BRANCH  37  62
ATOM     62  C   UNL A   1      48.367  27.436  29.278  1.00  0.00     0.058 A 
ATOM     63  C   UNL A   1      49.162  27.714  28.157  1.00  0.00     0.135 A 
ATOM     64  C   UNL A   1      48.990  26.917  30.423  1.00  0.00     0.135 A 
ATOM     65  F   UNL A   1      48.607  28.207  27.038  1.00  0.00    -0.206 F 
ATOM     66  C   UNL A   1      50.531  27.476  28.167  1.00  0.00     0.059 A 
ATOM     67  C   UNL A   1      50.359  26.689  30.461  1.00  0.00     0.059 A 
ATOM     68  F   UNL A   1      48.267  26.646  31.522  1.00  0.00    -0.206 F 
ATOM     69  C   UNL A   1      51.121  26.966  29.326  1.00  0.00     0.060 A 
BRANCH  69  70
ATOM     70  S   UNL A   1      52.907  26.711  29.349  1.00  0.00     0.124 S 
ATOM     71  O   UNL A   1      53.399  28.084  29.359  1.00  0.00    -0.237 OA
ATOM     72  O   UNL A   1      53.103  25.957  30.584  1.00  0.00    -0.237 OA
ATOM     73  O   UNL A   1      53.156  25.962  28.120  1.00  0.00    -0.744 OA
ENDBRANCH  69  70
ENDBRANCH  37  62
ENDBRANCH  11  12
ENDBRANCH   4   6
ENDBRANCH   3   4
ENDBRANCH   2   3
ENDBRANCH   1   2
BRANCH   1  74
ATOM     74  O   UNL A   1      33.790  28.204  26.328  1.00  0.00    -0.374 OA
BRANCH  74  75
ATOM     75  C   UNL A   1      33.774  27.033  25.498  1.00  0.00     0.202 C 
BRANCH  75  76
ATOM     76  C   UNL A   1      33.812  27.494  24.047  1.00  0.00     0.261 C 
BRANCH  76  77
ATOM     77  O   UNL A   1      33.629  26.314  23.254  1.00  0.00    -0.460 OA
BRANCH  77  78
ATOM     78  C   UNL A   1      32.760  26.409  22.222  1.00  0.00     0.340 C 
ATOM     79  O   UNL A   1      32.974  26.152  21.055  1.00  0.00    -0.246 OA
BRANCH  78  80
ATOM     80  C   UNL A   1      31.415  26.718  22.755  1.00  0.00     0.085 A 
ATOM     81  C   UNL A   1      31.018  28.061  22.605  1.00  0.00     0.018 A 
ATOM     82  C   UNL A   1      30.516  25.765  23.267  1.00  0.00     0.077 A 
ATOM     83  C   UNL A   1      29.727  28.465  22.940  1.00  0.00     0.001 A 
ATOM     84  C   UNL A   1      29.234  26.211  23.633  1.00  0.00     0.029 A 
ATOM     85  C   UNL A   1      28.836  27.540  23.466  1.00  0.00     0.002 A 
BRANCH  82  86
ATOM     86  N   UNL A   1      30.625  24.376  23.165  1.00  0.00    -0.255 NA
ATOM     87  C   UNL A   1      31.212  23.587  24.000  1.00  0.00     0.127 C 
BRANCH  87  88
ATOM     88  C   UNL A   1      31.737  22.253  23.512  1.00  0.00     0.076 A 
ATOM     89  C   UNL A   1      32.625  22.375  22.504  1.00  0.00     0.209 A 
ATOM     90  C   UNL A   1      32.432  21.496  24.622  1.00  0.00     0.201 A 
ATOM     91  O   UNL A   1      33.968  22.758  22.707  1.00  0.00    -0.463 OA
ATOM     92  C   UNL A   1      33.712  22.116  25.025  1.00  0.00     0.065 A 
ATOM     93  O   UNL A   1      31.954  20.518  25.175  1.00  0.00    -0.288 OA
ATOM     94  C   UNL A   1      34.398  22.803  24.018  1.00  0.00     0.137 A 
ATOM     95  C   UNL A   1      34.070  22.247  26.366  1.00  0.00     0.016 A 
ATOM     96  C   UNL A   1      35.470  23.625  24.343  1.00  0.00     0.048 A 
ATOM     97  C   UNL A   1      35.120  23.107  26.694  1.00  0.00     0.001 A 
ATOM     98  C   UNL A   1      35.816  23.792  25.687  1.00  0.00     0.004 A 
ENDBRANCH  87  88
ENDBRANCH  82  86
ENDBRANCH  78  80
ENDBRANCH  77  78
ENDBRANCH  76  77
ENDBRANCH  75  76
ENDBRANCH  74  75
ENDBRANCH   1  74
TORSDOF 19
ENDMDL
MODEL 2
REMARK VINA RESULT:     -11.3      2.334      3.121
REMARK SMILES O=C(OCCOCCOC(=O)c1ccccc1/N=C/c1coc2ccccc2c1=O)c1ccc(-c2c3nc(c(-c4c(F)cc(S(=O)(=O)[O-])cc4F)c4ccc([nH]4)c(-c4c(F)cc(S(=O)(=O)[O-])cc4F)c4nc(c(-c5c(F)cc(S(=O)(=O)[O-])cc5F)c5ccc2[nH]5)C=C4)C=C3)cc1
REMARK SMILES IDX 5 1 4 2 3 3 2 4 1 5 31 6 32 7 96 8 33 9 95 10 34 11 35 12
REMARK SMILES IDX 36 13 89 14 37 15 94 16 88 17 90 18 38 19 93 20 87 21 86 22
REMARK SMILES IDX 39 24 73 25 52 26 72 27 53 28 56 29 71 30 91 31 54 32 55 33
REMARK SMILES IDX 70 35 92 36 57 37 40 38 41 39 50 40 42 41 43 42 49 43 51 44
REMARK SMILES IDX 44 45 45 46 46 47 47 48 48 49 74 50 75 51 84 52 76 53 77 54
REMARK SMILES IDX 83 55 85 56 78 57 79 58 80 59 81 60 82 61 58 62 59 63 68 64
REMARK SMILES IDX 60 65 61 66 67 67 69 68 62 69 63 70 64 71 65 72 66 73 6 74
REMARK SMILES IDX 7 75 8 76 9 77 10 78 11 79 12 80 13 81 17 82 14 83 16 84
REMARK SMILES IDX 15 85 18 86 19 87 20 88 21 89 29 90 22 91 28 92 30 93 23 94
REMARK SMILES IDX 27 95 24 96 26 97 25 98
REMARK H PARENT 90 23 56 34
REMARK Flexibility Score: inf
ROOT
ATOM      1  C   UNL A   1      35.007  31.544  28.342  1.00  0.00     0.202 C 
ENDROOT
BRANCH   1   2
ATOM      2  C   UNL A   1      35.151  32.440  29.574  1.00  0.00     0.261 C 
BRANCH   2   3
ATOM      3  O   UNL A   1      36.075  31.843  30.504  1.00  0.00    -0.460 OA
BRANCH   3   4
ATOM      4  C   UNL A   1      36.596  30.593  30.505  1.00  0.00     0.338 C 
ATOM      5  O   UNL A   1      35.923  29.682  30.984  1.00  0.00    -0.246 OA
BRANCH   4   6
ATOM      6  C   UNL A   1      37.958  30.261  29.983  1.00  0.00     0.060 A 
ATOM      7  C   UNL A   1      38.311  30.210  28.632  1.00  0.00     0.016 A 
ATOM      8  C   UNL A   1      38.977  30.081  30.935  1.00  0.00     0.016 A 
ATOM      9  C   UNL A   1      39.607  29.913  28.229  1.00  0.00     0.010 A 
ATOM     10  C   UNL A   1      40.291  29.812  30.540  1.00  0.00     0.010 A 
ATOM     11  C   UNL A   1      40.601  29.700  29.181  1.00  0.00    -0.014 A 
BRANCH  11  12
ATOM     12  C   UNL A   1      41.919  29.228  28.723  1.00  0.00     0.031 A 
ATOM     13  C   UNL A   1      43.068  30.187  28.782  1.00  0.00     0.074 A 
ATOM     14  C   UNL A   1      42.090  27.938  28.385  1.00  0.00     0.049 A 
ATOM     15  N   UNL A   1      44.305  30.022  28.401  1.00  0.00    -0.248 NA
ATOM     16  C   UNL A   1      42.788  31.510  29.366  1.00  0.00     0.031 C 
ATOM     17  C   UNL A   1      41.045  26.913  28.420  1.00  0.00     0.029 A 
ATOM     18  N   UNL A   1      43.207  27.263  27.974  1.00  0.00    -0.354 N 
ATOM     19  C   UNL A   1      44.944  31.224  28.676  1.00  0.00     0.074 A 
ATOM     20  C   UNL A   1      43.962  32.110  29.259  1.00  0.00     0.031 C 
ATOM     21  C   UNL A   1      41.578  25.732  28.062  1.00  0.00     0.029 A 
ATOM     22  C   UNL A   1      42.983  25.931  27.719  1.00  0.00     0.049 A 
ATOM     23  H   UNL A   1      44.088  27.690  27.870  1.00  0.00     0.167 HD
ATOM     24  C   UNL A   1      46.235  31.555  28.445  1.00  0.00     0.037 A 
ATOM     25  C   UNL A   1      43.819  24.993  27.234  1.00  0.00     0.037 A 
ATOM     26  C   UNL A   1      47.181  30.654  27.848  1.00  0.00     0.049 A 
ATOM     27  C   UNL A   1      45.231  25.406  26.912  1.00  0.00     0.074 A 
ATOM     28  C   UNL A   1      48.488  30.892  27.468  1.00  0.00     0.029 A 
ATOM     29  N   UNL A   1      46.908  29.324  27.545  1.00  0.00    -0.354 N 
ATOM     30  N   UNL A   1      45.807  26.574  27.090  1.00  0.00    -0.248 NA
ATOM     31  C   UNL A   1      46.101  24.391  26.305  1.00  0.00     0.031 C 
ATOM     32  C   UNL A   1      48.997  29.713  26.910  1.00  0.00     0.029 A 
ATOM     33  C   UNL A   1      48.017  28.731  26.976  1.00  0.00     0.049 A 
ATOM     34  H   UNL A   1      46.049  28.874  27.713  1.00  0.00     0.167 HD
ATOM     35  C   UNL A   1      47.106  26.435  26.618  1.00  0.00     0.074 A 
ATOM     36  C   UNL A   1      47.237  25.061  26.169  1.00  0.00     0.031 C 
ATOM     37  C   UNL A   1      48.099  27.355  26.549  1.00  0.00     0.037 A 
BRANCH  24  38
ATOM     38  C   UNL A   1      46.642  32.963  28.768  1.00  0.00     0.058 A 
ATOM     39  C   UNL A   1      47.142  33.320  30.030  1.00  0.00     0.135 A 
ATOM     40  C   UNL A   1      46.462  33.984  27.822  1.00  0.00     0.135 A 
ATOM     41  F   UNL A   1      47.302  32.388  30.983  1.00  0.00    -0.206 F 
ATOM     42  C   UNL A   1      47.416  34.646  30.355  1.00  0.00     0.059 A 
ATOM     43  C   UNL A   1      46.747  35.314  28.118  1.00  0.00     0.059 A 
ATOM     44  F   UNL A   1      45.972  33.699  26.605  1.00  0.00    -0.206 F 
ATOM     45  C   UNL A   1      47.203  35.638  29.395  1.00  0.00     0.060 A 
BRANCH  45  46
ATOM     46  S   UNL A   1      47.506  37.360  29.843  1.00  0.00     0.124 S 
ATOM     47  O   UNL A   1      47.983  37.223  31.217  1.00  0.00    -0.237 OA
ATOM     48  O   UNL A   1      48.507  37.770  28.864  1.00  0.00    -0.237 OA
ATOM     49  O   UNL A   1      46.196  37.986  29.694  1.00  0.00    -0.744 OA
ENDBRANCH  45  46
ENDBRANCH  24  38
BRANCH  25  50
ATOM     50  C   UNL A   1      43.333  23.608  26.983  1.00  0.00     0.058 A 
ATOM     51  C   UNL A   1      43.004  23.171  25.692  1.00  0.00     0.135 A 
ATOM     52  C   UNL A   1      43.201  22.685  28.033  1.00  0.00     0.135 A 
ATOM     53  F   UNL A   1      43.101  24.014  24.652  1.00  0.00    -0.206 F 
ATOM     54  C   UNL A   1      42.552  21.875  25.451  1.00  0.00     0.059 A 
ATOM     55  C   UNL A   1      42.775  21.378  27.815  1.00  0.00     0.059 A 
ATOM     56  F   UNL A   1      43.509  23.046  29.289  1.00  0.00    -0.206 F 
ATOM     57  C   UNL A   1      42.443  20.985  26.521  1.00  0.00     0.060 A 
BRANCH  57  58
ATOM     58  S   UNL A   1      41.901  19.291  26.199  1.00  0.00     0.124 S 
ATOM     59  O   UNL A   1      42.684  18.951  25.017  1.00  0.00    -0.237 OA
ATOM     60  O   UNL A   1      42.274  18.605  27.433  1.00  0.00    -0.237 OA
ATOM     61  O   UNL A   1      40.464  19.435  25.986  1.00  0.00    -0.744 OA
ENDBRANCH  57  58
ENDBRANCH  25  50
BRANCH  37  62
ATOM     62  C   UNL A   1      49.409  26.897  25.980  1.00  0.00     0.058 A 
ATOM     63  C   UNL A   1      49.706  27.055  24.619  1.00  0.00     0.135 A 
ATOM     64  C   UNL A   1      50.400  26.366  26.820  1.00  0.00     0.135 A 
ATOM     65  F   UNL A   1      48.785  27.555  23.779  1.00  0.00    -0.206 F 
ATOM     66  C   UNL A   1      50.943  26.689  24.103  1.00  0.00     0.059 A 
ATOM     67  C   UNL A   1      51.650  26.011  26.329  1.00  0.00     0.059 A 
ATOM     68  F   UNL A   1      50.161  26.207  28.131  1.00  0.00    -0.206 F 
ATOM     69  C   UNL A   1      51.910  26.171  24.968  1.00  0.00     0.060 A 
BRANCH  69  70
ATOM     70  S   UNL A   1      53.532  25.749  24.300  1.00  0.00     0.124 S 
ATOM     71  O   UNL A   1      54.404  26.635  25.064  1.00  0.00    -0.237 OA
ATOM     72  O   UNL A   1      53.643  24.327  24.611  1.00  0.00    -0.237 OA
ATOM     73  O   UNL A   1      53.404  26.063  22.880  1.00  0.00    -0.744 OA
ENDBRANCH  69  70
ENDBRANCH  37  62
ENDBRANCH  11  12
ENDBRANCH   4   6
ENDBRANCH   3   4
ENDBRANCH   2   3
ENDBRANCH   1   2
BRANCH   1  74
ATOM     74  O   UNL A   1      33.657  31.262  27.995  1.00  0.00    -0.374 OA
BRANCH  74  75
ATOM     75  C   UNL A   1      33.473  30.379  26.879  1.00  0.00     0.202 C 
BRANCH  75  76
ATOM     76  C   UNL A   1      33.911  28.986  27.313  1.00  0.00     0.261 C 
BRANCH  76  77
ATOM     77  O   UNL A   1      33.139  28.068  26.531  1.00  0.00    -0.460 OA
BRANCH  77  78
ATOM     78  C   UNL A   1      31.879  27.822  26.957  1.00  0.00     0.340 C 
ATOM     79  O   UNL A   1      31.446  27.953  28.084  1.00  0.00    -0.246 OA
BRANCH  78  80
ATOM     80  C   UNL A   1      31.027  27.524  25.786  1.00  0.00     0.085 A 
ATOM     81  C   UNL A   1      30.997  28.537  24.808  1.00  0.00     0.018 A 
ATOM     82  C   UNL A   1      30.376  26.298  25.558  1.00  0.00     0.077 A 
ATOM     83  C   UNL A   1      30.344  28.337  23.593  1.00  0.00     0.001 A 
ATOM     84  C   UNL A   1      29.693  26.140  24.339  1.00  0.00     0.029 A 
ATOM     85  C   UNL A   1      29.680  27.139  23.363  1.00  0.00     0.002 A 
BRANCH  82  86
ATOM     86  N   UNL A   1      30.585  25.101  26.249  1.00  0.00    -0.255 NA
ATOM     87  C   UNL A   1      31.716  24.503  26.426  1.00  0.00     0.127 C 
BRANCH  87  88
ATOM     88  C   UNL A   1      31.730  23.009  26.671  1.00  0.00     0.076 A 
ATOM     89  C   UNL A   1      31.403  22.294  25.575  1.00  0.00     0.209 A 
ATOM     90  C   UNL A   1      33.098  22.538  27.112  1.00  0.00     0.201 A 
ATOM     91  O   UNL A   1      32.302  22.065  24.512  1.00  0.00    -0.463 OA
ATOM     92  C   UNL A   1      34.104  22.606  26.032  1.00  0.00     0.065 A 
ATOM     93  O   UNL A   1      33.360  22.203  28.257  1.00  0.00    -0.288 OA
ATOM     94  C   UNL A   1      33.615  22.432  24.733  1.00  0.00     0.137 A 
ATOM     95  C   UNL A   1      35.393  23.086  26.262  1.00  0.00     0.016 A 
ATOM     96  C   UNL A   1      34.421  22.724  23.640  1.00  0.00     0.048 A 
ATOM     97  C   UNL A   1      36.187  23.419  25.163  1.00  0.00     0.001 A 
ATOM     98  C   UNL A   1      35.702  23.239  23.859  1.00  0.00     0.004 A 
ENDBRANCH  87  88
ENDBRANCH  82  86
ENDBRANCH  78  80
ENDBRANCH  77  78
ENDBRANCH  76  77
ENDBRANCH  75  76
ENDBRANCH  74  75
ENDBRANCH   1  74
TORSDOF 19
ENDMDL
MODEL 3
REMARK VINA RESULT:     -11.2      4.947     10.079
REMARK SMILES O=C(OCCOCCOC(=O)c1ccccc1/N=C/c1coc2ccccc2c1=O)c1ccc(-c2c3nc(c(-c4c(F)cc(S(=O)(=O)[O-])cc4F)c4ccc([nH]4)c(-c4c(F)cc(S(=O)(=O)[O-])cc4F)c4nc(c(-c5c(F)cc(S(=O)(=O)[O-])cc5F)c5ccc2[nH]5)C=C4)C=C3)cc1
REMARK SMILES IDX 5 1 4 2 3 3 2 4 1 5 31 6 32 7 96 8 33 9 95 10 34 11 35 12
REMARK SMILES IDX 36 13 89 14 37 15 94 16 88 17 90 18 38 19 93 20 87 21 86 22
REMARK SMILES IDX 39 24 73 25 52 26 72 27 53 28 56 29 71 30 91 31 54 32 55 33
REMARK SMILES IDX 70 35 92 36 57 37 40 38 41 39 50 40 42 41 43 42 49 43 51 44
REMARK SMILES IDX 44 45 45 46 46 47 47 48 48 49 74 50 75 51 84 52 76 53 77 54
REMARK SMILES IDX 83 55 85 56 78 57 79 58 80 59 81 60 82 61 58 62 59 63 68 64
REMARK SMILES IDX 60 65 61 66 67 67 69 68 62 69 63 70 64 71 65 72 66 73 6 74
REMARK SMILES IDX 7 75 8 76 9 77 10 78 11 79 12 80 13 81 17 82 14 83 16 84
REMARK SMILES IDX 15 85 18 86 19 87 20 88 21 89 29 90 22 91 28 92 30 93 23 94
REMARK SMILES IDX 27 95 24 96 26 97 25 98
REMARK H PARENT 90 23 56 34
REMARK Flexibility Score: inf
ROOT
ATOM      1  C   UNL A   1      40.283  22.557  26.520  1.00  0.00     0.202 C 
ENDROOT
BRANCH   1   2
ATOM      2  C   UNL A   1      41.752  22.545  26.087  1.00  0.00     0.261 C 
BRANCH   2   3
ATOM      3  O   UNL A   1      42.438  23.671  26.667  1.00  0.00    -0.460 OA
BRANCH   3   4
ATOM      4  C   UNL A   1      42.247  24.993  26.444  1.00  0.00     0.338 C 
ATOM      5  O   UNL A   1      42.289  25.400  25.285  1.00  0.00    -0.246 OA
BRANCH   4   6
ATOM      6  C   UNL A   1      42.017  25.994  27.533  1.00  0.00     0.060 A 
ATOM      7  C   UNL A   1      42.733  27.183  27.695  1.00  0.00     0.016 A 
ATOM      8  C   UNL A   1      40.935  25.755  28.398  1.00  0.00     0.016 A 
ATOM      9  C   UNL A   1      42.444  28.071  28.724  1.00  0.00     0.010 A 
ATOM     10  C   UNL A   1      40.617  26.658  29.418  1.00  0.00     0.010 A 
ATOM     11  C   UNL A   1      41.393  27.806  29.598  1.00  0.00    -0.014 A 
BRANCH  11  12
ATOM     12  C   UNL A   1      41.220  28.682  30.770  1.00  0.00     0.031 A 
ATOM     13  C   UNL A   1      40.102  29.680  30.742  1.00  0.00     0.074 A 
ATOM     14  C   UNL A   1      41.971  28.491  31.868  1.00  0.00     0.049 A 
ATOM     15  N   UNL A   1      39.775  30.581  31.627  1.00  0.00    -0.248 NA
ATOM     16  C   UNL A   1      39.223  29.647  29.561  1.00  0.00     0.031 C 
ATOM     17  C   UNL A   1      42.998  27.457  32.015  1.00  0.00     0.029 A 
ATOM     18  N   UNL A   1      41.972  29.137  33.074  1.00  0.00    -0.354 N 
ATOM     19  C   UNL A   1      38.669  31.237  31.102  1.00  0.00     0.074 A 
ATOM     20  C   UNL A   1      38.378  30.631  29.822  1.00  0.00     0.031 C 
ATOM     21  C   UNL A   1      43.517  27.529  33.253  1.00  0.00     0.029 A 
ATOM     22  C   UNL A   1      42.900  28.647  33.961  1.00  0.00     0.049 A 
ATOM     23  H   UNL A   1      41.364  29.882  33.287  1.00  0.00     0.167 HD
ATOM     24  C   UNL A   1      37.974  32.264  31.641  1.00  0.00     0.037 A 
ATOM     25  C   UNL A   1      43.227  29.079  35.194  1.00  0.00     0.037 A 
ATOM     26  C   UNL A   1      38.303  32.854  32.908  1.00  0.00     0.049 A 
ATOM     27  C   UNL A   1      42.490  30.274  35.740  1.00  0.00     0.074 A 
ATOM     28  C   UNL A   1      37.746  33.960  33.522  1.00  0.00     0.029 A 
ATOM     29  N   UNL A   1      39.289  32.372  33.761  1.00  0.00    -0.354 N 
ATOM     30  N   UNL A   1      41.503  30.950  35.197  1.00  0.00    -0.248 NA
ATOM     31  C   UNL A   1      42.921  30.782  37.049  1.00  0.00     0.031 C 
ATOM     32  C   UNL A   1      38.416  34.162  34.736  1.00  0.00     0.029 A 
ATOM     33  C   UNL A   1      39.365  33.160  34.892  1.00  0.00     0.049 A 
ATOM     34  H   UNL A   1      39.851  31.583  33.583  1.00  0.00     0.167 HD
ATOM     35  C   UNL A   1      41.193  31.961  36.097  1.00  0.00     0.074 A 
ATOM     36  C   UNL A   1      42.083  31.793  37.231  1.00  0.00     0.031 C 
ATOM     37  C   UNL A   1      40.267  32.948  35.997  1.00  0.00     0.037 A 
BRANCH  24  38
ATOM     38  C   UNL A   1      36.864  32.839  30.811  1.00  0.00     0.058 A 
ATOM     39  C   UNL A   1      37.108  33.752  29.773  1.00  0.00     0.135 A 
ATOM     40  C   UNL A   1      35.527  32.524  31.105  1.00  0.00     0.135 A 
ATOM     41  F   UNL A   1      38.366  34.113  29.472  1.00  0.00    -0.206 F 
ATOM     42  C   UNL A   1      36.066  34.360  29.079  1.00  0.00     0.059 A 
ATOM     43  C   UNL A   1      34.470  33.106  30.412  1.00  0.00     0.059 A 
ATOM     44  F   UNL A   1      35.237  31.668  32.098  1.00  0.00    -0.206 F 
ATOM     45  C   UNL A   1      34.749  34.040  29.416  1.00  0.00     0.060 A 
BRANCH  45  46
ATOM     46  S   UNL A   1      33.403  34.877  28.551  1.00  0.00     0.124 S 
ATOM     47  O   UNL A   1      32.876  33.798  27.720  1.00  0.00    -0.237 OA
ATOM     48  O   UNL A   1      32.542  35.307  29.648  1.00  0.00    -0.237 OA
ATOM     49  O   UNL A   1      34.078  35.952  27.830  1.00  0.00    -0.744 OA
ENDBRANCH  45  46
ENDBRANCH  24  38
BRANCH  25  50
ATOM     50  C   UNL A   1      44.320  28.418  35.960  1.00  0.00     0.058 A 
ATOM     51  C   UNL A   1      44.055  27.384  36.868  1.00  0.00     0.135 A 
ATOM     52  C   UNL A   1      45.660  28.802  35.786  1.00  0.00     0.135 A 
ATOM     53  F   UNL A   1      42.792  26.984  37.081  1.00  0.00    -0.206 F 
ATOM     54  C   UNL A   1      45.074  26.760  37.585  1.00  0.00     0.059 A 
ATOM     55  C   UNL A   1      46.698  28.179  36.472  1.00  0.00     0.059 A 
ATOM     56  F   UNL A   1      45.973  29.782  34.924  1.00  0.00    -0.206 F 
ATOM     57  C   UNL A   1      46.395  27.165  37.377  1.00  0.00     0.060 A 
BRANCH  57  58
ATOM     58  S   UNL A   1      47.720  26.324  38.274  1.00  0.00     0.124 S 
ATOM     59  O   UNL A   1      47.352  24.924  38.097  1.00  0.00    -0.237 OA
ATOM     60  O   UNL A   1      48.911  26.767  37.557  1.00  0.00    -0.237 OA
ATOM     61  O   UNL A   1      47.588  26.845  39.631  1.00  0.00    -0.744 OA
ENDBRANCH  57  58
ENDBRANCH  25  50
BRANCH  37  62
ATOM     62  C   UNL A   1      40.169  33.904  37.148  1.00  0.00     0.058 A 
ATOM     63  C   UNL A   1      40.903  35.099  37.165  1.00  0.00     0.135 A 
ATOM     64  C   UNL A   1      39.279  33.655  38.203  1.00  0.00     0.135 A 
ATOM     65  F   UNL A   1      41.770  35.376  36.178  1.00  0.00    -0.206 F 
ATOM     66  C   UNL A   1      40.764  36.016  38.200  1.00  0.00     0.059 A 
ATOM     67  C   UNL A   1      39.111  34.566  39.239  1.00  0.00     0.059 A 
ATOM     68  F   UNL A   1      38.550  32.528  38.222  1.00  0.00    -0.206 F 
ATOM     69  C   UNL A   1      39.863  35.741  39.232  1.00  0.00     0.060 A 
BRANCH  69  70
ATOM     70  S   UNL A   1      39.650  36.961  40.544  1.00  0.00     0.124 S 
ATOM     71  O   UNL A   1      39.222  38.133  39.788  1.00  0.00    -0.237 OA
ATOM     72  O   UNL A   1      38.631  36.343  41.388  1.00  0.00    -0.237 OA
ATOM     73  O   UNL A   1      40.979  37.048  41.142  1.00  0.00    -0.744 OA
ENDBRANCH  69  70
ENDBRANCH  37  62
ENDBRANCH  11  12
ENDBRANCH   4   6
ENDBRANCH   3   4
ENDBRANCH   2   3
ENDBRANCH   1   2
BRANCH   1  74
ATOM     74  O   UNL A   1      39.582  21.363  26.193  1.00  0.00    -0.374 OA
BRANCH  74  75
ATOM     75  C   UNL A   1      38.351  21.542  25.477  1.00  0.00     0.202 C 
BRANCH  75  76
ATOM     76  C   UNL A   1      37.923  22.994  25.647  1.00  0.00     0.261 C 
BRANCH  76  77
ATOM     77  O   UNL A   1      36.526  23.032  25.331  1.00  0.00    -0.460 OA
BRANCH  77  78
ATOM     78  C   UNL A   1      36.203  23.023  24.018  1.00  0.00     0.340 C 
ATOM     79  O   UNL A   1      36.904  23.364  23.086  1.00  0.00    -0.246 OA
BRANCH  78  80
ATOM     80  C   UNL A   1      34.894  22.356  23.851  1.00  0.00     0.085 A 
ATOM     81  C   UNL A   1      34.653  21.301  24.752  1.00  0.00     0.018 A 
ATOM     82  C   UNL A   1      33.885  22.778  22.967  1.00  0.00     0.077 A 
ATOM     83  C   UNL A   1      33.411  20.671  24.799  1.00  0.00     0.001 A 
ATOM     84  C   UNL A   1      32.655  22.098  23.010  1.00  0.00     0.029 A 
ATOM     85  C   UNL A   1      32.413  21.063  23.917  1.00  0.00     0.002 A 
BRANCH  82  86
ATOM     86  N   UNL A   1      33.838  23.989  22.271  1.00  0.00    -0.255 NA
ATOM     87  C   UNL A   1      33.552  25.148  22.763  1.00  0.00     0.127 C 
BRANCH  87  88
ATOM     88  C   UNL A   1      32.997  26.220  21.850  1.00  0.00     0.076 A 
ATOM     89  C   UNL A   1      31.648  26.259  21.844  1.00  0.00     0.209 A 
ATOM     90  C   UNL A   1      33.474  27.594  22.263  1.00  0.00     0.201 A 
ATOM     91  O   UNL A   1      30.893  26.841  22.884  1.00  0.00    -0.463 OA
ATOM     92  C   UNL A   1      32.884  28.048  23.540  1.00  0.00     0.065 A 
ATOM     93  O   UNL A   1      34.312  28.233  21.645  1.00  0.00    -0.288 OA
ATOM     94  C   UNL A   1      31.602  27.563  23.823  1.00  0.00     0.137 A 
ATOM     95  C   UNL A   1      33.651  28.679  24.517  1.00  0.00     0.016 A 
ATOM     96  C   UNL A   1      31.063  27.721  25.093  1.00  0.00     0.048 A 
ATOM     97  C   UNL A   1      33.125  28.797  25.806  1.00  0.00     0.001 A 
ATOM     98  C   UNL A   1      31.837  28.320  26.091  1.00  0.00     0.004 A 
ENDBRANCH  87  88
ENDBRANCH  82  86
ENDBRANCH  78  80
ENDBRANCH  77  78
ENDBRANCH  76  77
ENDBRANCH  75  76
ENDBRANCH  74  75
ENDBRANCH   1  74
TORSDOF 19
ENDMDL
