MODEL 1
REMARK VINA RESULT:     -10.4      0.000      0.000
REMARK SMILES CCOc1cc2c(cc1C(=O)OCCOCCOC(=O)c1ccc(-c3c4nc(c(-c5c(F)cc(S(=O)(=O)[O-])cc5F)c5ccc([nH]5)c(-c5c(F)cc(S(=O)(=O)[O-])cc5F)c5nc(c(-c6c(F)cc(S(=O)(=O)[O-])cc6F)c6ccc3[nH]6)C=C5)C=C4)cc1)CCC2
REMARK SMILES IDX 16 1 15 2 14 3 13 4 12 5 10 6 11 7 9 8 4 9 5 10 6 11 8 12
REMARK SMILES IDX 7 13 89 14 87 15 88 16 3 17 2 18 1 19 17 20 18 21 19 22
REMARK SMILES IDX 20 23 21 24 22 25 86 26 23 27 85 28 24 29 25 30 26 31 79 32
REMARK SMILES IDX 27 33 84 34 78 35 80 36 28 37 83 38 77 39 76 40 29 42 63 43
REMARK SMILES IDX 42 44 62 45 43 46 46 47 61 48 81 49 44 50 45 51 60 53 82 54
REMARK SMILES IDX 47 55 30 56 31 57 40 58 32 59 33 60 39 61 41 62 34 63 35 64
REMARK SMILES IDX 36 65 37 66 38 67 64 68 65 69 74 70 66 71 67 72 73 73 75 74
REMARK SMILES IDX 68 75 69 76 70 77 71 78 72 79 48 80 49 81 58 82 50 83 51 84
REMARK SMILES IDX 57 85 59 86 52 87 53 88 54 89 55 90 56 91
REMARK H PARENT 80 41 46 52
REMARK Flexibility Score: inf
ROOT
ATOM      1  C   UNL A   1      40.276  21.510  26.653  1.00  0.00     0.202 C 
ENDROOT
BRANCH   1   2
ATOM      2  O   UNL A   1      39.027  21.915  26.091  1.00  0.00    -0.374 OA
BRANCH   2   3
ATOM      3  C   UNL A   1      38.622  23.269  26.307  1.00  0.00     0.202 C 
BRANCH   3   4
ATOM      4  C   UNL A   1      37.140  23.580  26.088  1.00  0.00     0.261 C 
BRANCH   4   5
ATOM      5  O   UNL A   1      36.399  22.387  25.778  1.00  0.00    -0.460 OA
BRANCH   5   6
ATOM      6  C   UNL A   1      35.484  22.531  24.789  1.00  0.00     0.342 C 
ATOM      7  O   UNL A   1      35.492  23.382  23.910  1.00  0.00    -0.246 OA
BRANCH   6   8
ATOM      8  C   UNL A   1      34.553  21.385  24.736  1.00  0.00     0.102 A 
ATOM      9  C   UNL A   1      33.154  21.497  24.614  1.00  0.00     0.134 A 
ATOM     10  C   UNL A   1      32.386  20.349  24.374  1.00  0.00     0.051 A 
ATOM     11  C   UNL A   1      33.013  19.115  24.329  1.00  0.00    -0.041 A 
ATOM     12  C   UNL A   1      35.168  20.118  24.745  1.00  0.00     0.023 A 
ATOM     13  C   UNL A   1      34.387  18.997  24.545  1.00  0.00    -0.044 A 
ATOM     14  C   UNL A   1      32.403  17.778  24.045  1.00  0.00     0.036 C 
ATOM     15  C   UNL A   1      34.813  17.566  24.489  1.00  0.00     0.036 C 
ATOM     16  C   UNL A   1      33.654  16.959  23.687  1.00  0.00     0.010 C 
BRANCH   9  17
ATOM     17  O   UNL A   1      32.548  22.724  24.582  1.00  0.00    -0.493 OA
BRANCH  17  18
ATOM     18  C   UNL A   1      32.064  23.154  25.867  1.00  0.00     0.226 C 
ATOM     19  C   UNL A   1      32.653  24.499  26.268  1.00  0.00     0.049 C 
ENDBRANCH  17  18
ENDBRANCH   9  17
ENDBRANCH   6   8
ENDBRANCH   5   6
ENDBRANCH   4   5
ENDBRANCH   3   4
ENDBRANCH   2   3
ENDBRANCH   1   2
BRANCH   1  20
ATOM     20  C   UNL A   1      41.526  22.256  26.170  1.00  0.00     0.261 C 
BRANCH  20  21
ATOM     21  O   UNL A   1      41.956  23.273  27.091  1.00  0.00    -0.460 OA
BRANCH  21  22
ATOM     22  C   UNL A   1      42.219  24.476  26.523  1.00  0.00     0.338 C 
ATOM     23  O   UNL A   1      42.627  24.681  25.388  1.00  0.00    -0.246 OA
BRANCH  22  24
ATOM     24  C   UNL A   1      41.772  25.564  27.411  1.00  0.00     0.060 A 
ATOM     25  C   UNL A   1      42.542  26.734  27.440  1.00  0.00     0.016 A 
ATOM     26  C   UNL A   1      40.665  25.422  28.252  1.00  0.00     0.016 A 
ATOM     27  C   UNL A   1      42.236  27.749  28.345  1.00  0.00     0.010 A 
ATOM     28  C   UNL A   1      40.367  26.438  29.166  1.00  0.00     0.010 A 
ATOM     29  C   UNL A   1      41.171  27.590  29.241  1.00  0.00    -0.014 A 
BRANCH  29  30
ATOM     30  C   UNL A   1      40.989  28.565  30.343  1.00  0.00     0.031 A 
ATOM     31  C   UNL A   1      41.888  28.483  31.547  1.00  0.00     0.074 A 
ATOM     32  C   UNL A   1      40.052  29.526  30.262  1.00  0.00     0.049 A 
ATOM     33  N   UNL A   1      41.884  29.207  32.636  1.00  0.00    -0.248 NA
ATOM     34  C   UNL A   1      42.927  27.442  31.519  1.00  0.00     0.031 C 
ATOM     35  C   UNL A   1      39.145  29.727  29.133  1.00  0.00     0.029 A 
ATOM     36  N   UNL A   1      39.704  30.509  31.154  1.00  0.00    -0.354 N 
ATOM     37  C   UNL A   1      42.914  28.709  33.425  1.00  0.00     0.074 A 
ATOM     38  C   UNL A   1      43.500  27.599  32.703  1.00  0.00     0.031 C 
ATOM     39  C   UNL A   1      38.334  30.764  29.407  1.00  0.00     0.029 A 
ATOM     40  C   UNL A   1      38.644  31.279  30.739  1.00  0.00     0.049 A 
ATOM     41  H   UNL A   1      40.170  30.649  32.010  1.00  0.00     0.167 HD
ATOM     42  C   UNL A   1      43.339  29.142  34.636  1.00  0.00     0.037 A 
ATOM     43  C   UNL A   1      37.987  32.272  31.371  1.00  0.00     0.037 A 
ATOM     44  C   UNL A   1      42.751  30.245  35.350  1.00  0.00     0.049 A 
ATOM     45  C   UNL A   1      38.439  32.701  32.742  1.00  0.00     0.074 A 
ATOM     46  C   UNL A   1      43.119  30.771  36.576  1.00  0.00     0.029 A 
ATOM     47  N   UNL A   1      41.666  30.987  34.907  1.00  0.00    -0.354 N 
ATOM     48  N   UNL A   1      39.426  32.235  33.469  1.00  0.00    -0.248 NA
ATOM     49  C   UNL A   1      37.690  33.794  33.379  1.00  0.00     0.031 C 
ATOM     50  C   UNL A   1      42.227  31.801  36.895  1.00  0.00     0.029 A 
ATOM     51  C   UNL A   1      41.335  31.951  35.844  1.00  0.00     0.049 A 
ATOM     52  H   UNL A   1      41.198  30.848  34.051  1.00  0.00     0.167 HD
ATOM     53  C   UNL A   1      39.433  32.992  34.636  1.00  0.00     0.074 A 
ATOM     54  C   UNL A   1      38.356  33.953  34.514  1.00  0.00     0.031 C 
ATOM     55  C   UNL A   1      40.259  32.902  35.709  1.00  0.00     0.037 A 
BRANCH  42  56
ATOM     56  C   UNL A   1      44.482  28.401  35.273  1.00  0.00     0.058 A 
ATOM     57  C   UNL A   1      44.269  27.307  36.128  1.00  0.00     0.135 A 
ATOM     58  C   UNL A   1      45.810  28.782  35.017  1.00  0.00     0.135 A 
ATOM     59  F   UNL A   1      43.020  26.911  36.421  1.00  0.00    -0.206 F 
ATOM     60  C   UNL A   1      45.330  26.640  36.735  1.00  0.00     0.059 A 
ATOM     61  C   UNL A   1      46.886  28.113  35.591  1.00  0.00     0.059 A 
ATOM     62  F   UNL A   1      46.070  29.821  34.208  1.00  0.00    -0.206 F 
ATOM     63  C   UNL A   1      46.635  27.054  36.463  1.00  0.00     0.060 A 
BRANCH  63  64
ATOM     64  S   UNL A   1      48.001  26.191  37.269  1.00  0.00     0.124 S 
ATOM     65  O   UNL A   1      49.116  27.093  36.995  1.00  0.00    -0.237 OA
ATOM     66  O   UNL A   1      47.559  26.134  38.658  1.00  0.00    -0.237 OA
ATOM     67  O   UNL A   1      48.049  24.908  36.576  1.00  0.00    -0.744 OA
ENDBRANCH  63  64
ENDBRANCH  42  56
BRANCH  43  68
ATOM     68  C   UNL A   1      36.825  32.920  30.711  1.00  0.00     0.058 A 
ATOM     69  C   UNL A   1      35.510  32.615  31.093  1.00  0.00     0.135 A 
ATOM     70  C   UNL A   1      37.006  33.877  29.700  1.00  0.00     0.135 A 
ATOM     71  F   UNL A   1      35.285  31.698  32.046  1.00  0.00    -0.206 F 
ATOM     72  C   UNL A   1      34.415  33.230  30.492  1.00  0.00     0.059 A 
ATOM     73  C   UNL A   1      35.929  34.524  29.103  1.00  0.00     0.059 A 
ATOM     74  F   UNL A   1      38.245  34.211  29.307  1.00  0.00    -0.206 F 
ATOM     75  C   UNL A   1      34.637  34.189  29.502  1.00  0.00     0.060 A 
BRANCH  75  76
ATOM     76  S   UNL A   1      33.213  35.030  28.776  1.00  0.00     0.124 S 
ATOM     77  O   UNL A   1      33.842  36.185  28.148  1.00  0.00    -0.237 OA
ATOM     78  O   UNL A   1      32.689  34.014  27.867  1.00  0.00    -0.237 OA
ATOM     79  O   UNL A   1      32.370  35.319  29.932  1.00  0.00    -0.744 OA
ENDBRANCH  75  76
ENDBRANCH  43  68
BRANCH  55  80
ATOM     80  C   UNL A   1      40.052  33.886  36.828  1.00  0.00     0.058 A 
ATOM     81  C   UNL A   1      40.720  35.119  36.860  1.00  0.00     0.135 A 
ATOM     82  C   UNL A   1      39.130  33.614  37.853  1.00  0.00     0.135 A 
ATOM     83  F   UNL A   1      41.616  35.428  35.910  1.00  0.00    -0.206 F 
ATOM     84  C   UNL A   1      40.498  36.041  37.880  1.00  0.00     0.059 A 
ATOM     85  C   UNL A   1      38.872  34.531  38.868  1.00  0.00     0.059 A 
ATOM     86  F   UNL A   1      38.455  32.453  37.863  1.00  0.00    -0.206 F 
ATOM     87  C   UNL A   1      39.570  35.738  38.879  1.00  0.00     0.060 A 
BRANCH  87  88
ATOM     88  S   UNL A   1      39.266  36.955  40.177  1.00  0.00     0.124 S 
ATOM     89  O   UNL A   1      38.451  36.189  41.114  1.00  0.00    -0.237 OA
ATOM     90  O   UNL A   1      40.616  37.277  40.628  1.00  0.00    -0.237 OA
ATOM     91  O   UNL A   1      38.572  38.032  39.476  1.00  0.00    -0.744 OA
ENDBRANCH  87  88
ENDBRANCH  55  80
ENDBRANCH  29  30
ENDBRANCH  22  24
ENDBRANCH  21  22
ENDBRANCH  20  21
ENDBRANCH   1  20
TORSDOF 19
ENDMDL
MODEL 2
REMARK VINA RESULT:     -10.0      1.042      8.433
REMARK SMILES CCOc1cc2c(cc1C(=O)OCCOCCOC(=O)c1ccc(-c3c4nc(c(-c5c(F)cc(S(=O)(=O)[O-])cc5F)c5ccc([nH]5)c(-c5c(F)cc(S(=O)(=O)[O-])cc5F)c5nc(c(-c6c(F)cc(S(=O)(=O)[O-])cc6F)c6ccc3[nH]6)C=C5)C=C4)cc1)CCC2
REMARK SMILES IDX 16 1 15 2 14 3 13 4 12 5 10 6 11 7 9 8 4 9 5 10 6 11 8 12
REMARK SMILES IDX 7 13 89 14 87 15 88 16 3 17 2 18 1 19 17 20 18 21 19 22
REMARK SMILES IDX 20 23 21 24 22 25 86 26 23 27 85 28 24 29 25 30 26 31 79 32
REMARK SMILES IDX 27 33 84 34 78 35 80 36 28 37 83 38 77 39 76 40 29 42 63 43
REMARK SMILES IDX 42 44 62 45 43 46 46 47 61 48 81 49 44 50 45 51 60 53 82 54
REMARK SMILES IDX 47 55 30 56 31 57 40 58 32 59 33 60 39 61 41 62 34 63 35 64
REMARK SMILES IDX 36 65 37 66 38 67 64 68 65 69 74 70 66 71 67 72 73 73 75 74
REMARK SMILES IDX 68 75 69 76 70 77 71 78 72 79 48 80 49 81 58 82 50 83 51 84
REMARK SMILES IDX 57 85 59 86 52 87 53 88 54 89 55 90 56 91
REMARK H PARENT 80 41 46 52
REMARK Flexibility Score: inf
ROOT
ATOM      1  C   UNL A   1      39.482  21.747  26.024  1.00  0.00     0.202 C 
ENDROOT
BRANCH   1   2
ATOM      2  O   UNL A   1      38.060  21.700  26.142  1.00  0.00    -0.374 OA
BRANCH   2   3
ATOM      3  C   UNL A   1      37.305  22.567  25.294  1.00  0.00     0.202 C 
BRANCH   3   4
ATOM      4  C   UNL A   1      35.841  22.793  25.681  1.00  0.00     0.261 C 
BRANCH   4   5
ATOM      5  O   UNL A   1      35.394  21.803  26.622  1.00  0.00    -0.460 OA
BRANCH   5   6
ATOM      6  C   UNL A   1      34.050  21.736  26.776  1.00  0.00     0.342 C 
ATOM      7  O   UNL A   1      33.378  22.374  27.575  1.00  0.00    -0.246 OA
BRANCH   6   8
ATOM      8  C   UNL A   1      33.414  20.951  25.697  1.00  0.00     0.102 A 
ATOM      9  C   UNL A   1      32.666  21.505  24.640  1.00  0.00     0.134 A 
ATOM     10  C   UNL A   1      32.277  20.692  23.566  1.00  0.00     0.051 A 
ATOM     11  C   UNL A   1      32.580  19.341  23.599  1.00  0.00    -0.041 A 
ATOM     12  C   UNL A   1      33.665  19.566  25.742  1.00  0.00     0.023 A 
ATOM     13  C   UNL A   1      33.239  18.777  24.692  1.00  0.00    -0.044 A 
ATOM     14  C   UNL A   1      32.305  18.307  22.553  1.00  0.00     0.036 C 
ATOM     15  C   UNL A   1      33.410  17.304  24.508  1.00  0.00     0.036 C 
ATOM     16  C   UNL A   1      33.274  17.194  22.983  1.00  0.00     0.010 C 
BRANCH   9  17
ATOM     17  O   UNL A   1      32.435  22.853  24.574  1.00  0.00    -0.493 OA
BRANCH  17  18
ATOM     18  C   UNL A   1      31.050  23.203  24.738  1.00  0.00     0.226 C 
ATOM     19  C   UNL A   1      30.497  22.706  26.066  1.00  0.00     0.049 C 
ENDBRANCH  17  18
ENDBRANCH   9  17
ENDBRANCH   6   8
ENDBRANCH   5   6
ENDBRANCH   4   5
ENDBRANCH   3   4
ENDBRANCH   2   3
ENDBRANCH   1   2
BRANCH   1  20
ATOM     20  C   UNL A   1      40.233  22.615  27.041  1.00  0.00     0.261 C 
BRANCH  20  21
ATOM     21  O   UNL A   1      40.096  24.022  26.778  1.00  0.00    -0.460 OA
BRANCH  21  22
ATOM     22  C   UNL A   1      41.216  24.752  27.005  1.00  0.00     0.338 C 
ATOM     23  O   UNL A   1      42.291  24.650  26.428  1.00  0.00    -0.246 OA
BRANCH  22  24
ATOM     24  C   UNL A   1      40.926  25.846  27.949  1.00  0.00     0.060 A 
ATOM     25  C   UNL A   1      41.926  26.806  28.156  1.00  0.00     0.016 A 
ATOM     26  C   UNL A   1      39.731  25.899  28.670  1.00  0.00     0.016 A 
ATOM     27  C   UNL A   1      41.755  27.795  29.121  1.00  0.00     0.010 A 
ATOM     28  C   UNL A   1      39.566  26.888  29.647  1.00  0.00     0.010 A 
ATOM     29  C   UNL A   1      40.590  27.819  29.900  1.00  0.00    -0.014 A 
BRANCH  29  30
ATOM     30  C   UNL A   1      40.509  28.728  31.069  1.00  0.00     0.031 A 
ATOM     31  C   UNL A   1      39.502  29.847  31.054  1.00  0.00     0.074 A 
ATOM     32  C   UNL A   1      41.304  28.547  32.138  1.00  0.00     0.049 A 
ATOM     33  N   UNL A   1      39.283  30.777  31.947  1.00  0.00    -0.248 NA
ATOM     34  C   UNL A   1      38.631  29.929  29.871  1.00  0.00     0.031 C 
ATOM     35  C   UNL A   1      42.292  27.479  32.282  1.00  0.00     0.029 A 
ATOM     36  N   UNL A   1      41.407  29.263  33.303  1.00  0.00    -0.354 N 
ATOM     37  C   UNL A   1      38.252  31.557  31.435  1.00  0.00     0.074 A 
ATOM     38  C   UNL A   1      37.914  31.011  30.138  1.00  0.00     0.031 C 
ATOM     39  C   UNL A   1      42.913  27.620  33.467  1.00  0.00     0.029 A 
ATOM     40  C   UNL A   1      42.386  28.801  34.149  1.00  0.00     0.049 A 
ATOM     41  H   UNL A   1      40.833  30.036  33.514  1.00  0.00     0.167 HD
ATOM     42  C   UNL A   1      37.638  32.625  31.999  1.00  0.00     0.037 A 
ATOM     43  C   UNL A   1      42.821  29.287  35.328  1.00  0.00     0.037 A 
ATOM     44  C   UNL A   1      37.981  33.165  33.288  1.00  0.00     0.049 A 
ATOM     45  C   UNL A   1      42.164  30.510  35.911  1.00  0.00     0.074 A 
ATOM     46  C   UNL A   1      37.409  34.235  33.953  1.00  0.00     0.029 A 
ATOM     47  N   UNL A   1      38.993  32.682  34.106  1.00  0.00    -0.354 N 
ATOM     48  N   UNL A   1      41.178  31.227  35.427  1.00  0.00    -0.248 NA
ATOM     49  C   UNL A   1      42.675  30.989  37.203  1.00  0.00     0.031 C 
ATOM     50  C   UNL A   1      38.104  34.428  35.152  1.00  0.00     0.029 A 
ATOM     51  C   UNL A   1      39.077  33.445  35.258  1.00  0.00     0.049 A 
ATOM     52  H   UNL A   1      39.567  31.909  33.896  1.00  0.00     0.167 HD
ATOM     53  C   UNL A   1      40.934  32.226  36.364  1.00  0.00     0.074 A 
ATOM     54  C   UNL A   1      41.871  32.015  37.448  1.00  0.00     0.031 C 
ATOM     55  C   UNL A   1      40.016  33.224  36.331  1.00  0.00     0.037 A 
BRANCH  42  56
ATOM     56  C   UNL A   1      36.549  33.293  31.206  1.00  0.00     0.058 A 
ATOM     57  C   UNL A   1      36.828  34.056  30.061  1.00  0.00     0.135 A 
ATOM     58  C   UNL A   1      35.204  33.160  31.591  1.00  0.00     0.135 A 
ATOM     59  F   UNL A   1      38.097  34.231  29.658  1.00  0.00    -0.206 F 
ATOM     60  C   UNL A   1      35.818  34.692  29.345  1.00  0.00     0.059 A 
ATOM     61  C   UNL A   1      34.176  33.764  30.875  1.00  0.00     0.059 A 
ATOM     62  F   UNL A   1      34.880  32.442  32.678  1.00  0.00    -0.206 F 
ATOM     63  C   UNL A   1      34.494  34.544  29.764  1.00  0.00     0.060 A 
BRANCH  63  64
ATOM     64  S   UNL A   1      33.195  35.388  28.837  1.00  0.00     0.124 S 
ATOM     65  O   UNL A   1      32.596  34.278  28.101  1.00  0.00    -0.237 OA
ATOM     66  O   UNL A   1      32.374  35.960  29.899  1.00  0.00    -0.237 OA
ATOM     67  O   UNL A   1      33.928  36.354  28.026  1.00  0.00    -0.744 OA
ENDBRANCH  63  64
ENDBRANCH  42  56
BRANCH  43  68
ATOM     68  C   UNL A   1      43.947  28.616  36.030  1.00  0.00     0.058 A 
ATOM     69  C   UNL A   1      43.728  27.504  36.855  1.00  0.00     0.135 A 
ATOM     70  C   UNL A   1      45.268  29.061  35.869  1.00  0.00     0.135 A 
ATOM     71  F   UNL A   1      42.481  27.049  37.050  1.00  0.00    -0.206 F 
ATOM     72  C   UNL A   1      44.778  26.858  37.502  1.00  0.00     0.059 A 
ATOM     73  C   UNL A   1      46.337  28.417  36.484  1.00  0.00     0.059 A 
ATOM     74  F   UNL A   1      45.531  30.115  35.081  1.00  0.00    -0.206 F 
ATOM     75  C   UNL A   1      46.081  27.320  37.304  1.00  0.00     0.060 A 
BRANCH  75  76
ATOM     76  S   UNL A   1      47.443  26.435  38.093  1.00  0.00     0.124 S 
ATOM     77  O   UNL A   1      47.257  26.796  39.493  1.00  0.00    -0.237 OA
ATOM     78  O   UNL A   1      47.147  25.048  37.746  1.00  0.00    -0.237 OA
ATOM     79  O   UNL A   1      48.626  26.995  37.447  1.00  0.00    -0.744 OA
ENDBRANCH  75  76
ENDBRANCH  43  68
BRANCH  55  80
ATOM     80  C   UNL A   1      39.955  34.151  37.514  1.00  0.00     0.058 A 
ATOM     81  C   UNL A   1      40.684  35.349  37.551  1.00  0.00     0.135 A 
ATOM     82  C   UNL A   1      39.112  33.864  38.600  1.00  0.00     0.135 A 
ATOM     83  F   UNL A   1      41.510  35.670  36.542  1.00  0.00    -0.206 F 
ATOM     84  C   UNL A   1      40.597  36.221  38.633  1.00  0.00     0.059 A 
ATOM     85  C   UNL A   1      38.989  34.732  39.681  1.00  0.00     0.059 A 
ATOM     86  F   UNL A   1      38.384  32.735  38.610  1.00  0.00    -0.206 F 
ATOM     87  C   UNL A   1      39.744  35.904  39.693  1.00  0.00     0.060 A 
BRANCH  87  88
ATOM     88  S   UNL A   1      39.613  37.058  41.075  1.00  0.00     0.124 S 
ATOM     89  O   UNL A   1      41.016  37.359  41.341  1.00  0.00    -0.237 OA
ATOM     90  O   UNL A   1      38.829  38.147  40.500  1.00  0.00    -0.237 OA
ATOM     91  O   UNL A   1      38.931  36.279  42.105  1.00  0.00    -0.744 OA
ENDBRANCH  87  88
ENDBRANCH  55  80
ENDBRANCH  29  30
ENDBRANCH  22  24
ENDBRANCH  21  22
ENDBRANCH  20  21
ENDBRANCH   1  20
TORSDOF 19
ENDMDL
MODEL 3
REMARK VINA RESULT:     -10.0      6.394     11.879
REMARK SMILES CCOc1cc2c(cc1C(=O)OCCOCCOC(=O)c1ccc(-c3c4nc(c(-c5c(F)cc(S(=O)(=O)[O-])cc5F)c5ccc([nH]5)c(-c5c(F)cc(S(=O)(=O)[O-])cc5F)c5nc(c(-c6c(F)cc(S(=O)(=O)[O-])cc6F)c6ccc3[nH]6)C=C5)C=C4)cc1)CCC2
REMARK SMILES IDX 16 1 15 2 14 3 13 4 12 5 10 6 11 7 9 8 4 9 5 10 6 11 8 12
REMARK SMILES IDX 7 13 89 14 87 15 88 16 3 17 2 18 1 19 17 20 18 21 19 22
REMARK SMILES IDX 20 23 21 24 22 25 86 26 23 27 85 28 24 29 25 30 26 31 79 32
REMARK SMILES IDX 27 33 84 34 78 35 80 36 28 37 83 38 77 39 76 40 29 42 63 43
REMARK SMILES IDX 42 44 62 45 43 46 46 47 61 48 81 49 44 50 45 51 60 53 82 54
REMARK SMILES IDX 47 55 30 56 31 57 40 58 32 59 33 60 39 61 41 62 34 63 35 64
REMARK SMILES IDX 36 65 37 66 38 67 64 68 65 69 74 70 66 71 67 72 73 73 75 74
REMARK SMILES IDX 68 75 69 76 70 77 71 78 72 79 48 80 49 81 58 82 50 83 51 84
REMARK SMILES IDX 57 85 59 86 52 87 53 88 54 89 55 90 56 91
REMARK H PARENT 80 41 46 52
REMARK Flexibility Score: inf
ROOT
ATOM      1  C   UNL A   1      34.977  31.555  28.036  1.00  0.00     0.202 C 
ENDROOT
BRANCH   1   2
ATOM      2  O   UNL A   1      33.896  30.775  27.525  1.00  0.00    -0.374 OA
BRANCH   2   3
ATOM      3  C   UNL A   1      34.169  29.408  27.209  1.00  0.00     0.202 C 
BRANCH   3   4
ATOM      4  C   UNL A   1      33.519  28.860  25.937  1.00  0.00     0.261 C 
BRANCH   4   5
ATOM      5  O   UNL A   1      33.849  27.474  25.740  1.00  0.00    -0.460 OA
BRANCH   5   6
ATOM      6  C   UNL A   1      33.790  27.056  24.453  1.00  0.00     0.342 C 
ATOM      7  O   UNL A   1      33.784  27.767  23.458  1.00  0.00    -0.246 OA
BRANCH   6   8
ATOM      8  C   UNL A   1      33.959  25.592  24.346  1.00  0.00     0.102 A 
ATOM      9  C   UNL A   1      34.003  24.879  23.133  1.00  0.00     0.134 A 
ATOM     10  C   UNL A   1      34.364  23.524  23.137  1.00  0.00     0.051 A 
ATOM     11  C   UNL A   1      34.608  22.896  24.347  1.00  0.00    -0.041 A 
ATOM     12  C   UNL A   1      34.154  24.924  25.572  1.00  0.00     0.023 A 
ATOM     13  C   UNL A   1      34.472  23.581  25.555  1.00  0.00    -0.044 A 
ATOM     14  C   UNL A   1      35.047  21.484  24.584  1.00  0.00     0.036 C 
ATOM     15  C   UNL A   1      34.744  22.677  26.714  1.00  0.00     0.036 C 
ATOM     16  C   UNL A   1      35.570  21.581  26.026  1.00  0.00     0.010 C 
BRANCH   9  17
ATOM     17  O   UNL A   1      33.837  25.521  21.935  1.00  0.00    -0.493 OA
BRANCH  17  18
ATOM     18  C   UNL A   1      32.592  25.208  21.288  1.00  0.00     0.226 C 
ATOM     19  C   UNL A   1      32.618  25.570  19.810  1.00  0.00     0.049 C 
ENDBRANCH  17  18
ENDBRANCH   9  17
ENDBRANCH   6   8
ENDBRANCH   5   6
ENDBRANCH   4   5
ENDBRANCH   3   4
ENDBRANCH   2   3
ENDBRANCH   1   2
BRANCH   1  20
ATOM     20  C   UNL A   1      34.900  31.959  29.514  1.00  0.00     0.261 C 
BRANCH  20  21
ATOM     21  O   UNL A   1      36.177  31.906  30.171  1.00  0.00    -0.460 OA
BRANCH  21  22
ATOM     22  C   UNL A   1      36.593  30.658  30.503  1.00  0.00     0.338 C 
ATOM     23  O   UNL A   1      35.901  29.739  30.921  1.00  0.00    -0.246 OA
BRANCH  22  24
ATOM     24  C   UNL A   1      38.005  30.476  30.123  1.00  0.00     0.060 A 
ATOM     25  C   UNL A   1      38.291  30.277  28.766  1.00  0.00     0.016 A 
ATOM     26  C   UNL A   1      39.025  30.430  31.078  1.00  0.00     0.016 A 
ATOM     27  C   UNL A   1      39.592  29.984  28.363  1.00  0.00     0.010 A 
ATOM     28  C   UNL A   1      40.328  30.125  30.670  1.00  0.00     0.010 A 
ATOM     29  C   UNL A   1      40.611  29.867  29.317  1.00  0.00    -0.014 A 
BRANCH  29  30
ATOM     30  C   UNL A   1      41.936  29.338  28.912  1.00  0.00     0.031 A 
ATOM     31  C   UNL A   1      43.115  30.274  28.875  1.00  0.00     0.074 A 
ATOM     32  C   UNL A   1      42.093  28.039  28.604  1.00  0.00     0.049 A 
ATOM     33  N   UNL A   1      44.351  30.037  28.519  1.00  0.00    -0.248 NA
ATOM     34  C   UNL A   1      42.862  31.663  29.290  1.00  0.00     0.031 C 
ATOM     35  C   UNL A   1      41.035  27.031  28.636  1.00  0.00     0.029 A 
ATOM     36  N   UNL A   1      43.206  27.348  28.196  1.00  0.00    -0.354 N 
ATOM     37  C   UNL A   1      45.024  31.245  28.664  1.00  0.00     0.074 A 
ATOM     38  C   UNL A   1      44.050  32.220  29.107  1.00  0.00     0.031 C 
ATOM     39  C   UNL A   1      41.549  25.850  28.250  1.00  0.00     0.029 A 
ATOM     40  C   UNL A   1      42.962  26.025  27.917  1.00  0.00     0.049 A 
ATOM     41  H   UNL A   1      44.097  27.761  28.113  1.00  0.00     0.167 HD
ATOM     42  C   UNL A   1      46.335  31.514  28.455  1.00  0.00     0.037 A 
ATOM     43  C   UNL A   1      43.779  25.071  27.429  1.00  0.00     0.037 A 
ATOM     44  C   UNL A   1      47.297  30.541  28.012  1.00  0.00     0.049 A 
ATOM     45  C   UNL A   1      45.220  25.405  27.149  1.00  0.00     0.074 A 
ATOM     46  C   UNL A   1      48.652  30.711  27.785  1.00  0.00     0.029 A 
ATOM     47  N   UNL A   1      47.007  29.215  27.719  1.00  0.00    -0.354 N 
ATOM     48  N   UNL A   1      45.849  26.546  27.308  1.00  0.00    -0.248 NA
ATOM     49  C   UNL A   1      46.065  24.323  26.626  1.00  0.00     0.031 C 
ATOM     50  C   UNL A   1      49.172  29.500  27.311  1.00  0.00     0.029 A 
ATOM     51  C   UNL A   1      48.151  28.562  27.292  1.00  0.00     0.049 A 
ATOM     52  H   UNL A   1      46.117  28.801  27.802  1.00  0.00     0.167 HD
ATOM     53  C   UNL A   1      47.167  26.313  26.929  1.00  0.00     0.074 A 
ATOM     54  C   UNL A   1      47.247  24.919  26.540  1.00  0.00     0.031 C 
ATOM     55  C   UNL A   1      48.216  27.173  26.908  1.00  0.00     0.037 A 
BRANCH  42  56
ATOM     56  C   UNL A   1      46.794  32.928  28.681  1.00  0.00     0.058 A 
ATOM     57  C   UNL A   1      46.792  33.881  27.649  1.00  0.00     0.135 A 
ATOM     58  C   UNL A   1      47.233  33.340  29.951  1.00  0.00     0.135 A 
ATOM     59  F   UNL A   1      46.399  33.537  26.412  1.00  0.00    -0.206 F 
ATOM     60  C   UNL A   1      47.242  35.182  27.859  1.00  0.00     0.059 A 
ATOM     61  C   UNL A   1      47.661  34.642  30.189  1.00  0.00     0.059 A 
ATOM     62  F   UNL A   1      47.257  32.469  30.973  1.00  0.00    -0.206 F 
ATOM     63  C   UNL A   1      47.679  35.551  29.132  1.00  0.00     0.060 A 
BRANCH  63  64
ATOM     64  S   UNL A   1      48.275  37.236  29.386  1.00  0.00     0.124 S 
ATOM     65  O   UNL A   1      48.988  37.483  28.136  1.00  0.00    -0.237 OA
ATOM     66  O   UNL A   1      47.035  37.983  29.566  1.00  0.00    -0.237 OA
ATOM     67  O   UNL A   1      49.114  37.124  30.575  1.00  0.00    -0.744 OA
ENDBRANCH  63  64
ENDBRANCH  42  56
BRANCH  43  68
ATOM     68  C   UNL A   1      43.245  23.709  27.167  1.00  0.00     0.058 A 
ATOM     69  C   UNL A   1      42.829  23.328  25.884  1.00  0.00     0.135 A 
ATOM     70  C   UNL A   1      43.162  22.754  28.193  1.00  0.00     0.135 A 
ATOM     71  F   UNL A   1      42.877  24.209  24.873  1.00  0.00    -0.206 F 
ATOM     72  C   UNL A   1      42.343  22.049  25.625  1.00  0.00     0.059 A 
ATOM     73  C   UNL A   1      42.704  21.462  27.954  1.00  0.00     0.059 A 
ATOM     74  F   UNL A   1      43.558  23.068  29.436  1.00  0.00    -0.206 F 
ATOM     75  C   UNL A   1      42.292  21.121  26.668  1.00  0.00     0.060 A 
BRANCH  75  76
ATOM     76  S   UNL A   1      41.724  19.445  26.308  1.00  0.00     0.124 S 
ATOM     77  O   UNL A   1      40.295  19.655  26.105  1.00  0.00    -0.237 OA
ATOM     78  O   UNL A   1      42.496  19.110  25.115  1.00  0.00    -0.237 OA
ATOM     79  O   UNL A   1      42.090  18.702  27.510  1.00  0.00    -0.744 OA
ENDBRANCH  75  76
ENDBRANCH  43  68
BRANCH  55  80
ATOM     80  C   UNL A   1      49.551  26.629  26.478  1.00  0.00     0.058 A 
ATOM     81  C   UNL A   1      50.005  26.747  25.155  1.00  0.00     0.135 A 
ATOM     82  C   UNL A   1      50.412  26.034  27.415  1.00  0.00     0.135 A 
ATOM     83  F   UNL A   1      49.221  27.302  24.218  1.00  0.00    -0.206 F 
ATOM     84  C   UNL A   1      51.256  26.274  24.771  1.00  0.00     0.059 A 
ATOM     85  C   UNL A   1      51.678  25.577  27.060  1.00  0.00     0.059 A 
ATOM     86  F   UNL A   1      50.031  25.907  28.697  1.00  0.00    -0.206 F 
ATOM     87  C   UNL A   1      52.087  25.691  25.732  1.00  0.00     0.060 A 
BRANCH  87  88
ATOM     88  S   UNL A   1      53.721  25.113  25.229  1.00  0.00     0.124 S 
ATOM     89  O   UNL A   1      53.844  25.697  23.897  1.00  0.00    -0.237 OA
ATOM     90  O   UNL A   1      54.586  25.686  26.255  1.00  0.00    -0.237 OA
ATOM     91  O   UNL A   1      53.593  23.658  25.267  1.00  0.00    -0.744 OA
ENDBRANCH  87  88
ENDBRANCH  55  80
ENDBRANCH  29  30
ENDBRANCH  22  24
ENDBRANCH  21  22
ENDBRANCH  20  21
ENDBRANCH   1  20
TORSDOF 19
ENDMDL
