MODEL 1
REMARK VINA RESULT:     -11.2      0.000      0.000
REMARK SMILES CCC(=O)N1CCC[C@](C[C@H]2CC(c3ccc(C)cc3)=NO2)(C(=O)OCCOCCOC(=O)c2ccc(-c3c4nc(c(-c5c(F)cc(S(=O)(=O)[O-])cc5F)c5ccc([nH]5)c(-c5c(F)cc(S(=O)(=O)[O-])cc5F)c5nc(c(-c6c(F)cc(S(=O)(=O)[O-])cc6F)c6ccc3[nH]6)C=C5)C=C4)cc2)C1
REMARK SMILES IDX 28 1 27 2 26 3 25 4 23 5 24 6 9 7 5 8 6 9 100 10 7 11 8 12
REMARK SMILES IDX 3 13 4 14 2 15 1 16 10 17 11 18 12 19 22 20 13 21 21 22
REMARK SMILES IDX 14 23 15 24 20 25 16 26 19 27 17 28 18 29 29 30 30 31 31 32
REMARK SMILES IDX 32 33 33 34 34 35 35 36 99 37 36 38 98 39 37 40 38 41 39 42
REMARK SMILES IDX 92 43 40 44 97 45 91 46 93 47 41 48 96 49 90 50 89 51 42 53
REMARK SMILES IDX 76 54 55 55 75 56 56 57 59 58 74 59 94 60 57 61 58 62 73 64
REMARK SMILES IDX 95 65 60 66 43 67 44 68 53 69 45 70 46 71 52 72 54 73 47 74
REMARK SMILES IDX 48 75 49 76 50 77 51 78 77 79 78 80 87 81 79 82 80 83 86 84
REMARK SMILES IDX 88 85 81 86 82 87 83 88 84 89 85 90 61 91 62 92 71 93 63 94
REMARK SMILES IDX 64 95 70 96 72 97 65 98 66 99 67 100 68 101 69 102
REMARK H PARENT 93 52 59 63
REMARK Flexibility Score: inf
ROOT
ATOM      1  O   UNL A   1      36.610  23.480  24.536  1.00  0.00    -0.374 OA
ENDROOT
BRANCH   1   2
ATOM      2  C   UNL A   1      36.241  22.638  23.468  1.00  0.00     0.202 C 
BRANCH   2   3
ATOM      3  C   UNL A   1      35.209  23.442  22.723  1.00  0.00     0.261 C 
BRANCH   3   4
ATOM      4  O   UNL A   1      34.651  24.529  23.522  1.00  0.00    -0.463 OA
BRANCH   4   5
ATOM      5  C   UNL A   1      33.736  25.437  23.060  1.00  0.00     0.314 C 
ATOM      6  O   UNL A   1      33.674  25.870  21.927  1.00  0.00    -0.252 OA
BRANCH   5   7
ATOM      7  C   UNL A   1      32.797  25.889  24.194  1.00  0.00     0.089 C 
ATOM      8  N   UNL A   1      31.963  23.570  24.862  1.00  0.00    -0.342 N 
ATOM      9  C   UNL A   1      30.651  23.798  24.276  1.00  0.00     0.119 C 
ATOM     10  C   UNL A   1      32.722  24.761  25.273  1.00  0.00     0.138 C 
ATOM     11  C   UNL A   1      30.728  24.784  23.131  1.00  0.00     0.023 C 
ATOM     12  C   UNL A   1      31.405  26.087  23.572  1.00  0.00     0.022 C 
BRANCH   8  13
ATOM     13  C   UNL A   1      32.455  22.271  24.859  1.00  0.00     0.222 C 
ATOM     14  O   UNL A   1      33.484  21.948  25.455  1.00  0.00    -0.275 OA
BRANCH  13  15
ATOM     15  C   UNL A   1      31.850  21.305  23.850  1.00  0.00     0.097 C 
ATOM     16  C   UNL A   1      32.201  21.474  22.392  1.00  0.00     0.014 C 
ENDBRANCH  13  15
ENDBRANCH   8  13
BRANCH   7  17
ATOM     17  C   UNL A   1      33.488  27.173  24.795  1.00  0.00     0.069 C 
BRANCH  17  18
ATOM     18  C   UNL A   1      33.740  27.413  26.275  1.00  0.00     0.212 C 
ATOM     19  C   UNL A   1      34.471  28.695  26.587  1.00  0.00     0.108 C 
ATOM     20  O   UNL A   1      32.543  27.395  27.042  1.00  0.00    -0.392 OA
ATOM     21  C   UNL A   1      33.351  29.413  27.235  1.00  0.00     0.091 C 
ATOM     22  N   UNL A   1      32.317  28.694  27.537  1.00  0.00    -0.090 NA
BRANCH  21  23
ATOM     23  C   UNL A   1      33.435  30.847  27.526  1.00  0.00    -0.001 A 
ATOM     24  C   UNL A   1      34.540  31.391  28.186  1.00  0.00     0.010 A 
ATOM     25  C   UNL A   1      32.405  31.663  27.066  1.00  0.00     0.010 A 
ATOM     26  C   UNL A   1      34.615  32.769  28.376  1.00  0.00     0.004 A 
ATOM     27  C   UNL A   1      32.467  33.033  27.291  1.00  0.00     0.004 A 
ATOM     28  C   UNL A   1      33.575  33.596  27.939  1.00  0.00    -0.051 A 
ATOM     29  C   UNL A   1      33.619  35.073  28.185  1.00  0.00     0.044 C 
ENDBRANCH  21  23
ENDBRANCH  17  18
ENDBRANCH   7  17
ENDBRANCH   5   7
ENDBRANCH   4   5
ENDBRANCH   3   4
ENDBRANCH   2   3
ENDBRANCH   1   2
BRANCH   1  30
ATOM     30  C   UNL A   1      36.839  22.903  25.790  1.00  0.00     0.202 C 
BRANCH  30  31
ATOM     31  C   UNL A   1      37.743  21.688  25.667  1.00  0.00     0.261 C 
BRANCH  31  32
ATOM     32  O   UNL A   1      39.128  22.092  25.575  1.00  0.00    -0.460 OA
BRANCH  32  33
ATOM     33  C   UNL A   1      39.721  22.412  26.765  1.00  0.00     0.338 C 
ATOM     34  O   UNL A   1      40.194  21.581  27.526  1.00  0.00    -0.246 OA
BRANCH  33  35
ATOM     35  C   UNL A   1      39.684  23.886  27.001  1.00  0.00     0.060 A 
ATOM     36  C   UNL A   1      40.364  24.777  26.149  1.00  0.00     0.016 A 
ATOM     37  C   UNL A   1      39.184  24.346  28.215  1.00  0.00     0.016 A 
ATOM     38  C   UNL A   1      40.677  26.084  26.580  1.00  0.00     0.010 A 
ATOM     39  C   UNL A   1      39.587  25.587  28.668  1.00  0.00     0.010 A 
ATOM     40  C   UNL A   1      40.355  26.466  27.879  1.00  0.00    -0.014 A 
BRANCH  40  41
ATOM     41  C   UNL A   1      40.759  27.706  28.575  1.00  0.00     0.031 A 
ATOM     42  C   UNL A   1      39.761  28.815  28.631  1.00  0.00     0.074 A 
ATOM     43  C   UNL A   1      41.844  27.786  29.392  1.00  0.00     0.049 A 
ATOM     44  N   UNL A   1      39.990  29.976  29.137  1.00  0.00    -0.248 NA
ATOM     45  C   UNL A   1      38.410  28.722  28.083  1.00  0.00     0.031 C 
ATOM     46  C   UNL A   1      41.993  28.673  30.549  1.00  0.00     0.029 A 
ATOM     47  N   UNL A   1      43.042  27.063  29.421  1.00  0.00    -0.354 N 
ATOM     48  C   UNL A   1      38.782  30.607  29.337  1.00  0.00     0.074 A 
ATOM     49  C   UNL A   1      37.852  29.840  28.551  1.00  0.00     0.031 C 
ATOM     50  C   UNL A   1      43.241  28.609  31.035  1.00  0.00     0.029 A 
ATOM     51  C   UNL A   1      44.012  27.824  30.098  1.00  0.00     0.049 A 
ATOM     52  H   UNL A   1      43.183  26.169  29.032  1.00  0.00     0.167 HD
ATOM     53  C   UNL A   1      38.728  31.623  30.248  1.00  0.00     0.037 A 
ATOM     54  C   UNL A   1      45.178  28.207  29.508  1.00  0.00     0.037 A 
ATOM     55  C   UNL A   1      40.080  31.922  30.755  1.00  0.00     0.049 A 
ATOM     56  C   UNL A   1      45.228  29.708  29.423  1.00  0.00     0.074 A 
ATOM     57  C   UNL A   1      40.720  31.716  31.966  1.00  0.00     0.029 A 
ATOM     58  N   UNL A   1      41.077  32.278  29.848  1.00  0.00    -0.354 N 
ATOM     59  N   UNL A   1      44.149  30.439  29.499  1.00  0.00    -0.248 NA
ATOM     60  C   UNL A   1      46.435  30.522  29.350  1.00  0.00     0.031 C 
ATOM     61  C   UNL A   1      42.113  31.933  31.770  1.00  0.00     0.029 A 
ATOM     62  C   UNL A   1      42.322  32.283  30.443  1.00  0.00     0.049 A 
ATOM     63  H   UNL A   1      40.914  32.499  28.902  1.00  0.00     0.167 HD
ATOM     64  C   UNL A   1      44.473  31.758  29.546  1.00  0.00     0.074 A 
ATOM     65  C   UNL A   1      45.919  31.765  29.413  1.00  0.00     0.031 C 
ATOM     66  C   UNL A   1      43.508  32.710  29.702  1.00  0.00     0.037 A 
BRANCH  53  67
ATOM     67  C   UNL A   1      37.472  32.261  30.842  1.00  0.00     0.058 A 
ATOM     68  C   UNL A   1      37.318  33.669  30.843  1.00  0.00     0.135 A 
ATOM     69  C   UNL A   1      36.395  31.578  31.448  1.00  0.00     0.135 A 
ATOM     70  F   UNL A   1      38.228  34.476  30.281  1.00  0.00    -0.206 F 
ATOM     71  C   UNL A   1      36.225  34.329  31.416  1.00  0.00     0.059 A 
ATOM     72  C   UNL A   1      35.295  32.215  32.035  1.00  0.00     0.059 A 
ATOM     73  F   UNL A   1      36.316  30.249  31.492  1.00  0.00    -0.206 F 
ATOM     74  C   UNL A   1      35.215  33.594  32.016  1.00  0.00     0.060 A 
BRANCH  74  75
ATOM     75  S   UNL A   1      33.800  34.447  32.728  1.00  0.00     0.124 S 
ATOM     76  O   UNL A   1      33.050  33.348  33.329  1.00  0.00    -0.237 OA
ATOM     77  O   UNL A   1      34.435  35.368  33.663  1.00  0.00    -0.237 OA
ATOM     78  O   UNL A   1      33.160  35.075  31.574  1.00  0.00    -0.744 OA
ENDBRANCH  74  75
ENDBRANCH  53  67
BRANCH  54  79
ATOM     79  C   UNL A   1      45.693  27.182  28.555  1.00  0.00     0.058 A 
ATOM     80  C   UNL A   1      46.092  25.943  29.105  1.00  0.00     0.135 A 
ATOM     81  C   UNL A   1      45.287  27.183  27.213  1.00  0.00     0.135 A 
ATOM     82  F   UNL A   1      46.476  25.873  30.391  1.00  0.00    -0.206 F 
ATOM     83  C   UNL A   1      45.948  24.742  28.408  1.00  0.00     0.059 A 
ATOM     84  C   UNL A   1      45.105  25.987  26.507  1.00  0.00     0.059 A 
ATOM     85  F   UNL A   1      44.893  28.325  26.632  1.00  0.00    -0.206 F 
ATOM     86  C   UNL A   1      45.389  24.768  27.132  1.00  0.00     0.060 A 
BRANCH  86  87
ATOM     87  S   UNL A   1      44.769  23.214  26.418  1.00  0.00     0.124 S 
ATOM     88  O   UNL A   1      43.840  22.758  27.442  1.00  0.00    -0.237 OA
ATOM     89  O   UNL A   1      44.159  23.654  25.164  1.00  0.00    -0.237 OA
ATOM     90  O   UNL A   1      45.986  22.427  26.253  1.00  0.00    -0.744 OA
ENDBRANCH  86  87
ENDBRANCH  54  79
BRANCH  66  91
ATOM     91  C   UNL A   1      43.621  34.146  29.253  1.00  0.00     0.058 A 
ATOM     92  C   UNL A   1      43.749  34.536  27.910  1.00  0.00     0.135 A 
ATOM     93  C   UNL A   1      43.424  35.208  30.173  1.00  0.00     0.135 A 
ATOM     94  F   UNL A   1      43.810  33.642  26.914  1.00  0.00    -0.206 F 
ATOM     95  C   UNL A   1      43.775  35.873  27.519  1.00  0.00     0.059 A 
ATOM     96  C   UNL A   1      43.372  36.544  29.795  1.00  0.00     0.059 A 
ATOM     97  F   UNL A   1      43.249  34.992  31.485  1.00  0.00    -0.206 F 
ATOM     98  C   UNL A   1      43.591  36.869  28.469  1.00  0.00     0.060 A 
BRANCH  98  99
ATOM     99  S   UNL A   1      43.629  38.588  27.952  1.00  0.00     0.124 S 
ATOM    100  O   UNL A   1      44.292  39.213  29.092  1.00  0.00    -0.237 OA
ATOM    101  O   UNL A   1      44.413  38.529  26.720  1.00  0.00    -0.237 OA
ATOM    102  O   UNL A   1      42.221  38.923  27.775  1.00  0.00    -0.744 OA
ENDBRANCH  98  99
ENDBRANCH  66  91
ENDBRANCH  40  41
ENDBRANCH  33  35
ENDBRANCH  32  33
ENDBRANCH  31  32
ENDBRANCH  30  31
ENDBRANCH   1  30
TORSDOF 22
ENDMDL
MODEL 2
REMARK VINA RESULT:     -11.0      1.611      4.919
REMARK SMILES CCC(=O)N1CCC[C@](C[C@H]2CC(c3ccc(C)cc3)=NO2)(C(=O)OCCOCCOC(=O)c2ccc(-c3c4nc(c(-c5c(F)cc(S(=O)(=O)[O-])cc5F)c5ccc([nH]5)c(-c5c(F)cc(S(=O)(=O)[O-])cc5F)c5nc(c(-c6c(F)cc(S(=O)(=O)[O-])cc6F)c6ccc3[nH]6)C=C5)C=C4)cc2)C1
REMARK SMILES IDX 28 1 27 2 26 3 25 4 23 5 24 6 9 7 5 8 6 9 100 10 7 11 8 12
REMARK SMILES IDX 3 13 4 14 2 15 1 16 10 17 11 18 12 19 22 20 13 21 21 22
REMARK SMILES IDX 14 23 15 24 20 25 16 26 19 27 17 28 18 29 29 30 30 31 31 32
REMARK SMILES IDX 32 33 33 34 34 35 35 36 99 37 36 38 98 39 37 40 38 41 39 42
REMARK SMILES IDX 92 43 40 44 97 45 91 46 93 47 41 48 96 49 90 50 89 51 42 53
REMARK SMILES IDX 76 54 55 55 75 56 56 57 59 58 74 59 94 60 57 61 58 62 73 64
REMARK SMILES IDX 95 65 60 66 43 67 44 68 53 69 45 70 46 71 52 72 54 73 47 74
REMARK SMILES IDX 48 75 49 76 50 77 51 78 77 79 78 80 87 81 79 82 80 83 86 84
REMARK SMILES IDX 88 85 81 86 82 87 83 88 84 89 85 90 61 91 62 92 71 93 63 94
REMARK SMILES IDX 64 95 70 96 72 97 65 98 66 99 67 100 68 101 69 102
REMARK H PARENT 93 52 59 63
REMARK Flexibility Score: inf
ROOT
ATOM      1  O   UNL A   1      35.275  21.298  26.537  1.00  0.00    -0.374 OA
ENDROOT
BRANCH   1   2
ATOM      2  C   UNL A   1      34.296  22.035  27.232  1.00  0.00     0.202 C 
BRANCH   2   3
ATOM      3  C   UNL A   1      34.590  23.462  26.855  1.00  0.00     0.261 C 
BRANCH   3   4
ATOM      4  O   UNL A   1      33.472  24.112  26.179  1.00  0.00    -0.463 OA
BRANCH   4   5
ATOM      5  C   UNL A   1      33.601  24.963  25.113  1.00  0.00     0.314 C 
ATOM      6  O   UNL A   1      34.513  25.744  24.935  1.00  0.00    -0.252 OA
BRANCH   5   7
ATOM      7  C   UNL A   1      32.393  24.838  24.166  1.00  0.00     0.089 C 
ATOM      8  N   UNL A   1      32.091  27.331  23.704  1.00  0.00    -0.342 N 
ATOM      9  C   UNL A   1      30.889  27.406  24.520  1.00  0.00     0.119 C 
ATOM     10  C   UNL A   1      32.428  26.015  23.139  1.00  0.00     0.138 C 
ATOM     11  C   UNL A   1      30.905  26.361  25.614  1.00  0.00     0.023 C 
ATOM     12  C   UNL A   1      31.129  24.960  25.033  1.00  0.00     0.022 C 
BRANCH   8  13
ATOM     13  C   UNL A   1      32.898  28.459  23.636  1.00  0.00     0.222 C 
ATOM     14  O   UNL A   1      33.734  28.627  22.746  1.00  0.00    -0.275 OA
BRANCH  13  15
ATOM     15  C   UNL A   1      32.935  29.356  24.865  1.00  0.00     0.097 C 
ATOM     16  C   UNL A   1      33.902  29.020  25.974  1.00  0.00     0.014 C 
ENDBRANCH  13  15
ENDBRANCH   8  13
BRANCH   7  17
ATOM     17  C   UNL A   1      32.608  23.461  23.426  1.00  0.00     0.069 C 
BRANCH  17  18
ATOM     18  C   UNL A   1      31.674  22.267  23.524  1.00  0.00     0.212 C 
ATOM     19  C   UNL A   1      32.292  20.952  23.117  1.00  0.00     0.108 C 
ATOM     20  O   UNL A   1      31.127  22.107  24.826  1.00  0.00    -0.392 OA
ATOM     21  C   UNL A   1      32.328  20.323  24.456  1.00  0.00     0.091 C 
ATOM     22  N   UNL A   1      31.646  20.921  25.380  1.00  0.00    -0.090 NA
BRANCH  21  23
ATOM     23  C   UNL A   1      33.081  19.089  24.696  1.00  0.00    -0.001 A 
ATOM     24  C   UNL A   1      32.468  17.960  25.246  1.00  0.00     0.010 A 
ATOM     25  C   UNL A   1      34.414  19.055  24.298  1.00  0.00     0.010 A 
ATOM     26  C   UNL A   1      33.200  16.783  25.389  1.00  0.00     0.004 A 
ATOM     27  C   UNL A   1      35.151  17.890  24.476  1.00  0.00     0.004 A 
ATOM     28  C   UNL A   1      34.548  16.745  25.014  1.00  0.00    -0.051 A 
ATOM     29  C   UNL A   1      35.361  15.502  25.211  1.00  0.00     0.044 C 
ENDBRANCH  21  23
ENDBRANCH  17  18
ENDBRANCH   7  17
ENDBRANCH   5   7
ENDBRANCH   4   5
ENDBRANCH   3   4
ENDBRANCH   2   3
ENDBRANCH   1   2
BRANCH   1  30
ATOM     30  C   UNL A   1      36.220  21.997  25.779  1.00  0.00     0.202 C 
BRANCH  30  31
ATOM     31  C   UNL A   1      37.539  21.244  25.734  1.00  0.00     0.261 C 
BRANCH  31  32
ATOM     32  O   UNL A   1      38.623  22.138  25.395  1.00  0.00    -0.460 OA
BRANCH  32  33
ATOM     33  C   UNL A   1      39.479  22.431  26.420  1.00  0.00     0.338 C 
ATOM     34  O   UNL A   1      40.079  21.580  27.060  1.00  0.00    -0.246 OA
BRANCH  33  35
ATOM     35  C   UNL A   1      39.550  23.904  26.654  1.00  0.00     0.060 A 
ATOM     36  C   UNL A   1      40.440  24.714  25.923  1.00  0.00     0.016 A 
ATOM     37  C   UNL A   1      38.913  24.425  27.775  1.00  0.00     0.016 A 
ATOM     38  C   UNL A   1      40.808  25.989  26.403  1.00  0.00     0.010 A 
ATOM     39  C   UNL A   1      39.360  25.626  28.291  1.00  0.00     0.010 A 
ATOM     40  C   UNL A   1      40.325  26.417  27.637  1.00  0.00    -0.014 A 
BRANCH  40  41
ATOM     41  C   UNL A   1      40.735  27.619  28.392  1.00  0.00     0.031 A 
ATOM     42  C   UNL A   1      39.767  28.755  28.446  1.00  0.00     0.074 A 
ATOM     43  C   UNL A   1      41.785  27.639  29.256  1.00  0.00     0.049 A 
ATOM     44  N   UNL A   1      40.007  29.890  29.002  1.00  0.00    -0.248 NA
ATOM     45  C   UNL A   1      38.438  28.721  27.840  1.00  0.00     0.031 C 
ATOM     46  C   UNL A   1      41.911  28.480  30.448  1.00  0.00     0.029 A 
ATOM     47  N   UNL A   1      42.960  26.879  29.309  1.00  0.00    -0.354 N 
ATOM     48  C   UNL A   1      38.810  30.550  29.174  1.00  0.00     0.074 A 
ATOM     49  C   UNL A   1      37.893  29.839  28.324  1.00  0.00     0.031 C 
ATOM     50  C   UNL A   1      43.134  28.362  30.984  1.00  0.00     0.029 A 
ATOM     51  C   UNL A   1      43.921  27.587  30.053  1.00  0.00     0.049 A 
ATOM     52  H   UNL A   1      43.091  25.995  28.895  1.00  0.00     0.167 HD
ATOM     53  C   UNL A   1      38.747  31.536  30.118  1.00  0.00     0.037 A 
ATOM     54  C   UNL A   1      45.122  27.954  29.525  1.00  0.00     0.037 A 
ATOM     55  C   UNL A   1      40.084  31.776  30.691  1.00  0.00     0.049 A 
ATOM     56  C   UNL A   1      45.219  29.456  29.496  1.00  0.00     0.074 A 
ATOM     57  C   UNL A   1      40.666  31.509  31.919  1.00  0.00     0.029 A 
ATOM     58  N   UNL A   1      41.129  32.133  29.839  1.00  0.00    -0.354 N 
ATOM     59  N   UNL A   1      44.159  30.215  29.553  1.00  0.00    -0.248 NA
ATOM     60  C   UNL A   1      46.451  30.235  29.502  1.00  0.00     0.031 C 
ATOM     61  C   UNL A   1      42.072  31.691  31.789  1.00  0.00     0.029 A 
ATOM     62  C   UNL A   1      42.347  32.080  30.485  1.00  0.00     0.049 A 
ATOM     63  H   UNL A   1      41.012  32.392  28.896  1.00  0.00     0.167 HD
ATOM     64  C   UNL A   1      44.518  31.521  29.660  1.00  0.00     0.074 A 
ATOM     65  C   UNL A   1      45.968  31.490  29.587  1.00  0.00     0.031 C 
ATOM     66  C   UNL A   1      43.575  32.496  29.809  1.00  0.00     0.037 A 
BRANCH  53  67
ATOM     67  C   UNL A   1      37.486  32.190  30.682  1.00  0.00     0.058 A 
ATOM     68  C   UNL A   1      37.419  33.597  30.836  1.00  0.00     0.135 A 
ATOM     69  C   UNL A   1      36.320  31.521  31.116  1.00  0.00     0.135 A 
ATOM     70  F   UNL A   1      38.422  34.395  30.447  1.00  0.00    -0.206 F 
ATOM     71  C   UNL A   1      36.322  34.264  31.395  1.00  0.00     0.059 A 
ATOM     72  C   UNL A   1      35.215  32.165  31.685  1.00  0.00     0.059 A 
ATOM     73  F   UNL A   1      36.156  30.205  30.996  1.00  0.00    -0.206 F 
ATOM     74  C   UNL A   1      35.222  33.539  31.822  1.00  0.00     0.060 A 
BRANCH  74  75
ATOM     75  S   UNL A   1      33.805  34.406  32.515  1.00  0.00     0.124 S 
ATOM     76  O   UNL A   1      34.443  35.427  33.341  1.00  0.00    -0.237 OA
ATOM     77  O   UNL A   1      33.126  34.890  31.319  1.00  0.00    -0.237 OA
ATOM     78  O   UNL A   1      33.093  33.366  33.256  1.00  0.00    -0.744 OA
ENDBRANCH  74  75
ENDBRANCH  53  67
BRANCH  54  79
ATOM     79  C   UNL A   1      45.648  26.947  28.558  1.00  0.00     0.058 A 
ATOM     80  C   UNL A   1      45.997  25.682  29.081  1.00  0.00     0.135 A 
ATOM     81  C   UNL A   1      45.292  27.001  27.203  1.00  0.00     0.135 A 
ATOM     82  F   UNL A   1      46.331  25.562  30.378  1.00  0.00    -0.206 F 
ATOM     83  C   UNL A   1      45.850  24.508  28.341  1.00  0.00     0.059 A 
ATOM     84  C   UNL A   1      45.108  25.833  26.453  1.00  0.00     0.059 A 
ATOM     85  F   UNL A   1      44.946  28.171  26.645  1.00  0.00    -0.206 F 
ATOM     86  C   UNL A   1      45.339  24.589  27.047  1.00  0.00     0.060 A 
BRANCH  86  87
ATOM     87  S   UNL A   1      44.710  23.073  26.261  1.00  0.00     0.124 S 
ATOM     88  O   UNL A   1      43.700  22.635  27.213  1.00  0.00    -0.237 OA
ATOM     89  O   UNL A   1      44.200  23.560  24.980  1.00  0.00    -0.237 OA
ATOM     90  O   UNL A   1      45.905  22.244  26.158  1.00  0.00    -0.744 OA
ENDBRANCH  86  87
ENDBRANCH  54  79
BRANCH  66  91
ATOM     91  C   UNL A   1      43.748  33.943  29.417  1.00  0.00     0.058 A 
ATOM     92  C   UNL A   1      43.828  34.386  28.087  1.00  0.00     0.135 A 
ATOM     93  C   UNL A   1      43.662  34.971  30.392  1.00  0.00     0.135 A 
ATOM     94  F   UNL A   1      43.784  33.537  27.052  1.00  0.00    -0.206 F 
ATOM     95  C   UNL A   1      43.912  35.736  27.753  1.00  0.00     0.059 A 
ATOM     96  C   UNL A   1      43.668  36.323  30.075  1.00  0.00     0.059 A 
ATOM     97  F   UNL A   1      43.544  34.705  31.701  1.00  0.00    -0.206 F 
ATOM     98  C   UNL A   1      43.836  36.696  28.754  1.00  0.00     0.060 A 
BRANCH  98  99
ATOM     99  S   UNL A   1      43.948  38.432  28.309  1.00  0.00     0.124 S 
ATOM    100  O   UNL A   1      42.838  38.993  29.073  1.00  0.00    -0.237 OA
ATOM    101  O   UNL A   1      45.283  38.793  28.777  1.00  0.00    -0.237 OA
ATOM    102  O   UNL A   1      43.780  38.425  26.860  1.00  0.00    -0.744 OA
ENDBRANCH  98  99
ENDBRANCH  66  91
ENDBRANCH  40  41
ENDBRANCH  33  35
ENDBRANCH  32  33
ENDBRANCH  31  32
ENDBRANCH  30  31
ENDBRANCH   1  30
TORSDOF 22
ENDMDL
MODEL 3
REMARK VINA RESULT:     -10.9      2.179      3.246
REMARK SMILES CCC(=O)N1CCC[C@](C[C@H]2CC(c3ccc(C)cc3)=NO2)(C(=O)OCCOCCOC(=O)c2ccc(-c3c4nc(c(-c5c(F)cc(S(=O)(=O)[O-])cc5F)c5ccc([nH]5)c(-c5c(F)cc(S(=O)(=O)[O-])cc5F)c5nc(c(-c6c(F)cc(S(=O)(=O)[O-])cc6F)c6ccc3[nH]6)C=C5)C=C4)cc2)C1
REMARK SMILES IDX 28 1 27 2 26 3 25 4 23 5 24 6 9 7 5 8 6 9 100 10 7 11 8 12
REMARK SMILES IDX 3 13 4 14 2 15 1 16 10 17 11 18 12 19 22 20 13 21 21 22
REMARK SMILES IDX 14 23 15 24 20 25 16 26 19 27 17 28 18 29 29 30 30 31 31 32
REMARK SMILES IDX 32 33 33 34 34 35 35 36 99 37 36 38 98 39 37 40 38 41 39 42
REMARK SMILES IDX 92 43 40 44 97 45 91 46 93 47 41 48 96 49 90 50 89 51 42 53
REMARK SMILES IDX 76 54 55 55 75 56 56 57 59 58 74 59 94 60 57 61 58 62 73 64
REMARK SMILES IDX 95 65 60 66 43 67 44 68 53 69 45 70 46 71 52 72 54 73 47 74
REMARK SMILES IDX 48 75 49 76 50 77 51 78 77 79 78 80 87 81 79 82 80 83 86 84
REMARK SMILES IDX 88 85 81 86 82 87 83 88 84 89 85 90 61 91 62 92 71 93 63 94
REMARK SMILES IDX 64 95 70 96 72 97 65 98 66 99 67 100 68 101 69 102
REMARK H PARENT 93 52 59 63
REMARK Flexibility Score: inf
ROOT
ATOM      1  O   UNL A   1      34.565  23.655  25.427  1.00  0.00    -0.374 OA
ENDROOT
BRANCH   1   2
ATOM      2  C   UNL A   1      33.378  22.912  25.575  1.00  0.00     0.202 C 
BRANCH   2   3
ATOM      3  C   UNL A   1      32.418  23.895  26.190  1.00  0.00     0.261 C 
BRANCH   3   4
ATOM      4  O   UNL A   1      32.916  25.266  26.165  1.00  0.00    -0.463 OA
BRANCH   4   5
ATOM      5  C   UNL A   1      32.139  26.375  26.368  1.00  0.00     0.314 C 
ATOM      6  O   UNL A   1      31.048  26.390  26.901  1.00  0.00    -0.252 OA
BRANCH   5   7
ATOM      7  C   UNL A   1      32.815  27.629  25.782  1.00  0.00     0.089 C 
ATOM      8  N   UNL A   1      31.116  28.070  23.928  1.00  0.00    -0.342 N 
ATOM      9  C   UNL A   1      32.032  27.625  22.889  1.00  0.00     0.119 C 
ATOM     10  C   UNL A   1      31.717  28.563  25.177  1.00  0.00     0.138 C 
ATOM     11  C   UNL A   1      33.016  26.609  23.426  1.00  0.00     0.023 C 
ATOM     12  C   UNL A   1      33.749  27.151  24.658  1.00  0.00     0.022 C 
BRANCH   8  13
ATOM     13  C   UNL A   1      29.757  27.866  23.722  1.00  0.00     0.222 C 
ATOM     14  O   UNL A   1      29.189  26.816  24.024  1.00  0.00    -0.275 OA
BRANCH  13  15
ATOM     15  C   UNL A   1      29.036  28.871  22.835  1.00  0.00     0.097 C 
ATOM     16  C   UNL A   1      29.068  30.329  23.224  1.00  0.00     0.014 C 
ENDBRANCH  13  15
ENDBRANCH   8  13
BRANCH   7  17
ATOM     17  C   UNL A   1      33.502  28.327  27.019  1.00  0.00     0.069 C 
BRANCH  17  18
ATOM     18  C   UNL A   1      34.633  29.338  26.929  1.00  0.00     0.212 C 
ATOM     19  C   UNL A   1      34.185  30.778  26.888  1.00  0.00     0.108 C 
ATOM     20  O   UNL A   1      35.570  29.204  27.989  1.00  0.00    -0.392 OA
ATOM     21  C   UNL A   1      34.680  31.182  28.223  1.00  0.00     0.091 C 
ATOM     22  N   UNL A   1      35.483  30.349  28.805  1.00  0.00    -0.090 NA
BRANCH  21  23
ATOM     23  C   UNL A   1      34.288  32.459  28.825  1.00  0.00    -0.001 A 
ATOM     24  C   UNL A   1      34.746  32.837  30.090  1.00  0.00     0.010 A 
ATOM     25  C   UNL A   1      33.493  33.315  28.069  1.00  0.00     0.010 A 
ATOM     26  C   UNL A   1      34.410  34.091  30.594  1.00  0.00     0.004 A 
ATOM     27  C   UNL A   1      33.130  34.551  28.591  1.00  0.00     0.004 A 
ATOM     28  C   UNL A   1      33.592  34.951  29.852  1.00  0.00    -0.051 A 
ATOM     29  C   UNL A   1      33.181  36.281  30.406  1.00  0.00     0.044 C 
ENDBRANCH  21  23
ENDBRANCH  17  18
ENDBRANCH   7  17
ENDBRANCH   5   7
ENDBRANCH   4   5
ENDBRANCH   3   4
ENDBRANCH   2   3
ENDBRANCH   1   2
BRANCH   1  30
ATOM     30  C   UNL A   1      35.700  23.245  26.134  1.00  0.00     0.202 C 
BRANCH  30  31
ATOM     31  C   UNL A   1      36.964  23.542  25.345  1.00  0.00     0.261 C 
BRANCH  31  32
ATOM     32  O   UNL A   1      37.906  24.284  26.153  1.00  0.00    -0.460 OA
BRANCH  32  33
ATOM     33  C   UNL A   1      39.047  23.607  26.486  1.00  0.00     0.338 C 
ATOM     34  O   UNL A   1      39.150  22.391  26.426  1.00  0.00    -0.246 OA
BRANCH  33  35
ATOM     35  C   UNL A   1      40.111  24.548  26.947  1.00  0.00     0.060 A 
ATOM     36  C   UNL A   1      40.705  24.408  28.215  1.00  0.00     0.016 A 
ATOM     37  C   UNL A   1      40.323  25.712  26.216  1.00  0.00     0.016 A 
ATOM     38  C   UNL A   1      41.382  25.492  28.813  1.00  0.00     0.010 A 
ATOM     39  C   UNL A   1      40.894  26.797  26.851  1.00  0.00     0.010 A 
ATOM     40  C   UNL A   1      41.409  26.722  28.160  1.00  0.00    -0.014 A 
BRANCH  40  41
ATOM     41  C   UNL A   1      41.895  28.010  28.694  1.00  0.00     0.031 A 
ATOM     42  C   UNL A   1      40.872  29.059  28.986  1.00  0.00     0.074 A 
ATOM     43  C   UNL A   1      43.147  28.190  29.194  1.00  0.00     0.049 A 
ATOM     44  N   UNL A   1      41.145  30.251  29.385  1.00  0.00    -0.248 NA
ATOM     45  C   UNL A   1      39.434  28.863  28.816  1.00  0.00     0.031 C 
ATOM     46  C   UNL A   1      43.533  29.131  30.248  1.00  0.00     0.029 A 
ATOM     47  N   UNL A   1      44.358  27.541  28.923  1.00  0.00    -0.354 N 
ATOM     48  C   UNL A   1      39.991  30.816  29.882  1.00  0.00     0.074 A 
ATOM     49  C   UNL A   1      38.943  29.964  29.388  1.00  0.00     0.031 C 
ATOM     50  C   UNL A   1      44.866  29.162  30.390  1.00  0.00     0.029 A 
ATOM     51  C   UNL A   1      45.417  28.387  29.302  1.00  0.00     0.049 A 
ATOM     52  H   UNL A   1      44.453  26.642  28.533  1.00  0.00     0.167 HD
ATOM     53  C   UNL A   1      40.108  31.865  30.750  1.00  0.00     0.037 A 
ATOM     54  C   UNL A   1      46.358  28.814  28.415  1.00  0.00     0.037 A 
ATOM     55  C   UNL A   1      41.522  32.264  30.875  1.00  0.00     0.049 A 
ATOM     56  C   UNL A   1      46.281  30.311  28.284  1.00  0.00     0.074 A 
ATOM     57  C   UNL A   1      42.470  32.147  31.878  1.00  0.00     0.029 A 
ATOM     58  N   UNL A   1      42.220  32.643  29.728  1.00  0.00    -0.354 N 
ATOM     59  N   UNL A   1      45.212  30.978  28.624  1.00  0.00    -0.248 NA
ATOM     60  C   UNL A   1      47.368  31.192  27.875  1.00  0.00     0.031 C 
ATOM     61  C   UNL A   1      43.744  32.440  31.316  1.00  0.00     0.029 A 
ATOM     62  C   UNL A   1      43.573  32.746  29.973  1.00  0.00     0.049 A 
ATOM     63  H   UNL A   1      41.799  32.814  28.854  1.00  0.00     0.167 HD
ATOM     64  C   UNL A   1      45.445  32.315  28.553  1.00  0.00     0.074 A 
ATOM     65  C   UNL A   1      46.801  32.404  28.042  1.00  0.00     0.031 C 
ATOM     66  C   UNL A   1      44.492  33.213  28.935  1.00  0.00     0.037 A 
BRANCH  53  67
ATOM     67  C   UNL A   1      39.011  32.449  31.639  1.00  0.00     0.058 A 
ATOM     68  C   UNL A   1      38.187  31.595  32.412  1.00  0.00     0.135 A 
ATOM     69  C   UNL A   1      38.683  33.817  31.773  1.00  0.00     0.135 A 
ATOM     70  F   UNL A   1      38.375  30.268  32.434  1.00  0.00    -0.206 F 
ATOM     71  C   UNL A   1      37.128  32.049  33.207  1.00  0.00     0.059 A 
ATOM     72  C   UNL A   1      37.625  34.295  32.555  1.00  0.00     0.059 A 
ATOM     73  F   UNL A   1      39.378  34.786  31.181  1.00  0.00    -0.206 F 
ATOM     74  C   UNL A   1      36.849  33.405  33.271  1.00  0.00     0.060 A 
BRANCH  74  75
ATOM     75  S   UNL A   1      35.503  33.984  34.316  1.00  0.00     0.124 S 
ATOM     76  O   UNL A   1      36.046  33.783  35.656  1.00  0.00    -0.237 OA
ATOM     77  O   UNL A   1      35.361  35.372  33.891  1.00  0.00    -0.237 OA
ATOM     78  O   UNL A   1      34.389  33.108  33.960  1.00  0.00    -0.744 OA
ENDBRANCH  74  75
ENDBRANCH  53  67
BRANCH  54  79
ATOM     79  C   UNL A   1      46.675  27.783  27.385  1.00  0.00     0.058 A 
ATOM     80  C   UNL A   1      46.085  27.951  26.112  1.00  0.00     0.135 A 
ATOM     81  C   UNL A   1      47.875  27.059  27.442  1.00  0.00     0.135 A 
ATOM     82  F   UNL A   1      44.944  28.651  25.989  1.00  0.00    -0.206 F 
ATOM     83  C   UNL A   1      46.729  27.555  24.939  1.00  0.00     0.059 A 
ATOM     84  C   UNL A   1      48.552  26.682  26.275  1.00  0.00     0.059 A 
ATOM     85  F   UNL A   1      48.488  26.867  28.618  1.00  0.00    -0.206 F 
ATOM     86  C   UNL A   1      47.996  26.982  25.028  1.00  0.00     0.060 A 
BRANCH  86  87
ATOM     87  S   UNL A   1      49.025  26.900  23.529  1.00  0.00     0.124 S 
ATOM     88  O   UNL A   1      50.312  26.484  24.068  1.00  0.00    -0.237 OA
ATOM     89  O   UNL A   1      48.331  25.904  22.714  1.00  0.00    -0.237 OA
ATOM     90  O   UNL A   1      48.950  28.261  23.012  1.00  0.00    -0.744 OA
ENDBRANCH  86  87
ENDBRANCH  54  79
BRANCH  66  91
ATOM     91  C   UNL A   1      44.384  34.634  28.438  1.00  0.00     0.058 A 
ATOM     92  C   UNL A   1      43.928  34.979  27.155  1.00  0.00     0.135 A 
ATOM     93  C   UNL A   1      44.578  35.725  29.324  1.00  0.00     0.135 A 
ATOM     94  F   UNL A   1      43.575  34.052  26.254  1.00  0.00    -0.206 F 
ATOM     95  C   UNL A   1      43.767  36.302  26.750  1.00  0.00     0.059 A 
ATOM     96  C   UNL A   1      44.352  37.048  28.963  1.00  0.00     0.059 A 
ATOM     97  F   UNL A   1      44.976  35.553  30.592  1.00  0.00    -0.206 F 
ATOM     98  C   UNL A   1      43.987  37.329  27.660  1.00  0.00     0.060 A 
BRANCH  98  99
ATOM     99  S   UNL A   1      43.778  39.030  27.123  1.00  0.00     0.124 S 
ATOM    100  O   UNL A   1      43.870  39.742  28.394  1.00  0.00    -0.237 OA
ATOM    101  O   UNL A   1      44.905  39.214  26.213  1.00  0.00    -0.237 OA
ATOM    102  O   UNL A   1      42.464  39.030  26.491  1.00  0.00    -0.744 OA
ENDBRANCH  98  99
ENDBRANCH  66  91
ENDBRANCH  40  41
ENDBRANCH  33  35
ENDBRANCH  32  33
ENDBRANCH  31  32
ENDBRANCH  30  31
ENDBRANCH   1  30
TORSDOF 22
ENDMDL
