MODEL 1
REMARK VINA RESULT:     -10.9      0.000      0.000
REMARK SMILES C[C@@H](Nc1cccc(C(=O)OCCOCCOC(=O)c2ccc(-c3c4nc(c(-c5c(F)cc(S(=O)(=O)[O-])cc5F)c5ccc([nH]5)c(-c5c(F)cc(S(=O)(=O)[O-])cc5F)c5nc(c(-c6c(F)cc(S(=O)(=O)[O-])cc6F)c6ccc3[nH]6)C=C5)C=C4)cc2)c1)C1CC[NH+](C)CC1
REMARK SMILES IDX 14 1 13 2 12 3 11 4 9 5 10 6 8 7 4 8 5 9 86 10 6 11 7 12
REMARK SMILES IDX 3 13 2 15 1 16 87 17 88 18 93 19 89 20 92 21 90 22 91 23
REMARK SMILES IDX 15 25 16 26 17 27 18 28 19 29 20 30 21 31 85 32 22 33 84 34
REMARK SMILES IDX 23 35 24 36 25 37 78 38 26 39 83 40 77 41 79 42 27 43 82 44
REMARK SMILES IDX 76 45 75 46 28 48 62 49 41 50 61 51 42 52 45 53 60 54 80 55
REMARK SMILES IDX 43 56 44 57 59 59 81 60 46 61 29 62 30 63 39 64 31 65 32 66
REMARK SMILES IDX 38 67 40 68 33 69 34 70 35 71 36 72 37 73 63 74 64 75 73 76
REMARK SMILES IDX 65 77 66 78 72 79 74 80 67 81 68 82 69 83 70 84 71 85 47 86
REMARK SMILES IDX 48 87 57 88 49 89 50 90 56 91 58 92 51 93 52 94 53 95 54 96
REMARK SMILES IDX 55 97
REMARK H PARENT 3 14 90 24 79 47 45 58
REMARK Flexibility Score: inf
ROOT
ATOM      1  O   UNL A   1      35.115  34.739  32.351  1.00  0.00    -0.374 OA
ENDROOT
BRANCH   1   2
ATOM      2  C   UNL A   1      33.880  34.953  31.675  1.00  0.00     0.202 C 
BRANCH   2   3
ATOM      3  C   UNL A   1      33.872  34.916  30.148  1.00  0.00     0.261 C 
BRANCH   3   4
ATOM      4  O   UNL A   1      33.651  33.595  29.644  1.00  0.00    -0.460 OA
BRANCH   4   5
ATOM      5  C   UNL A   1      34.037  33.426  28.361  1.00  0.00     0.338 C 
ATOM      6  O   UNL A   1      34.538  34.259  27.622  1.00  0.00    -0.246 OA
BRANCH   5   7
ATOM      7  C   UNL A   1      33.754  32.062  27.908  1.00  0.00     0.062 A 
ATOM      8  C   UNL A   1      32.347  29.984  25.995  1.00  0.00     0.035 A 
ATOM      9  C   UNL A   1      33.746  28.838  26.222  1.00  0.00     0.026 A 
ATOM     10  C   UNL A   1      32.268  31.548  26.931  1.00  0.00     0.041 A 
ATOM     11  C   UNL A   1      35.149  29.312  27.277  1.00  0.00     0.003 A 
ATOM     12  C   UNL A   1      35.178  30.949  28.059  1.00  0.00     0.016 A 
BRANCH   8  13
ATOM     13  N   UNL A   1      31.555  29.837  24.857  1.00  0.00    -0.382 N 
ATOM     14  H   UNL A   1      31.088  30.606  24.455  1.00  0.00     0.160 HD
BRANCH  13  15
ATOM     15  C   UNL A   1      31.440  28.480  24.274  1.00  0.00     0.079 C 
ATOM     16  C   UNL A   1      31.301  28.575  22.749  1.00  0.00     0.031 C 
BRANCH  15  17
ATOM     17  C   UNL A   1      30.437  27.430  24.858  1.00  0.00     0.022 C 
ATOM     18  C   UNL A   1      30.834  26.597  26.077  1.00  0.00     0.067 C 
ATOM     19  C   UNL A   1      29.815  26.478  23.864  1.00  0.00     0.067 C 
ATOM     20  C   UNL A   1      31.620  25.304  25.795  1.00  0.00     0.262 C 
ATOM     21  C   UNL A   1      30.640  25.207  23.628  1.00  0.00     0.262 C 
ATOM     22  N   UNL A   1      32.130  25.110  24.326  1.00  0.00    -0.337 N 
ATOM     23  C   UNL A   1      34.032  24.962  23.488  1.00  0.00     0.332 C 
ATOM     24  H   UNL A   1      33.043  24.790  24.004  1.00  0.00     0.347 HD
ENDBRANCH  15  17
ENDBRANCH  13  15
ENDBRANCH   8  13
ENDBRANCH   5   7
ENDBRANCH   4   5
ENDBRANCH   3   4
ENDBRANCH   2   3
ENDBRANCH   1   2
BRANCH   1  25
ATOM     25  C   UNL A   1      35.320  33.520  33.061  1.00  0.00     0.202 C 
BRANCH  25  26
ATOM     26  C   UNL A   1      35.535  32.218  32.278  1.00  0.00     0.261 C 
BRANCH  26  27
ATOM     27  O   UNL A   1      36.913  31.900  32.022  1.00  0.00    -0.460 OA
BRANCH  27  28
ATOM     28  C   UNL A   1      37.324  32.216  30.768  1.00  0.00     0.338 C 
ATOM     29  O   UNL A   1      37.019  33.202  30.120  1.00  0.00    -0.246 OA
BRANCH  28  30
ATOM     30  C   UNL A   1      38.357  31.273  30.310  1.00  0.00     0.060 A 
ATOM     31  C   UNL A   1      39.367  30.927  31.219  1.00  0.00     0.016 A 
ATOM     32  C   UNL A   1      38.422  30.859  28.978  1.00  0.00     0.016 A 
ATOM     33  C   UNL A   1      40.479  30.214  30.784  1.00  0.00     0.010 A 
ATOM     34  C   UNL A   1      39.547  30.155  28.541  1.00  0.00     0.010 A 
ATOM     35  C   UNL A   1      40.598  29.871  29.432  1.00  0.00    -0.014 A 
BRANCH  35  36
ATOM     36  C   UNL A   1      41.903  29.387  28.925  1.00  0.00     0.031 A 
ATOM     37  C   UNL A   1      43.056  30.352  28.858  1.00  0.00     0.074 A 
ATOM     38  C   UNL A   1      42.070  28.100  28.578  1.00  0.00     0.049 A 
ATOM     39  N   UNL A   1      44.277  30.159  28.433  1.00  0.00    -0.248 NA
ATOM     40  C   UNL A   1      42.795  31.719  29.339  1.00  0.00     0.031 C 
ATOM     41  C   UNL A   1      41.040  27.066  28.656  1.00  0.00     0.029 A 
ATOM     42  N   UNL A   1      43.171  27.446  28.089  1.00  0.00    -0.354 N 
ATOM     43  C   UNL A   1      44.927  31.378  28.586  1.00  0.00     0.074 A 
ATOM     44  C   UNL A   1      43.957  32.313  29.115  1.00  0.00     0.031 C 
ATOM     45  C   UNL A   1      41.557  25.904  28.223  1.00  0.00     0.029 A 
ATOM     46  C   UNL A   1      42.942  26.122  27.806  1.00  0.00     0.049 A 
ATOM     47  H   UNL A   1      44.042  27.883  27.953  1.00  0.00     0.167 HD
ATOM     48  C   UNL A   1      46.218  31.689  28.315  1.00  0.00     0.037 A 
ATOM     49  C   UNL A   1      43.753  25.197  27.256  1.00  0.00     0.037 A 
ATOM     50  C   UNL A   1      47.173  30.752  27.783  1.00  0.00     0.049 A 
ATOM     51  C   UNL A   1      45.162  25.582  26.890  1.00  0.00     0.074 A 
ATOM     52  C   UNL A   1      48.506  30.959  27.477  1.00  0.00     0.029 A 
ATOM     53  N   UNL A   1      46.891  29.430  27.467  1.00  0.00    -0.354 N 
ATOM     54  N   UNL A   1      45.769  26.735  27.044  1.00  0.00    -0.248 NA
ATOM     55  C   UNL A   1      45.997  24.540  26.277  1.00  0.00     0.031 C 
ATOM     56  C   UNL A   1      49.018  29.776  26.933  1.00  0.00     0.029 A 
ATOM     57  C   UNL A   1      48.018  28.815  26.946  1.00  0.00     0.049 A 
ATOM     58  H   UNL A   1      46.018  28.993  27.594  1.00  0.00     0.167 HD
ATOM     59  C   UNL A   1      47.065  26.552  26.573  1.00  0.00     0.074 A 
ATOM     60  C   UNL A   1      47.154  25.174  26.133  1.00  0.00     0.031 C 
ATOM     61  C   UNL A   1      48.088  27.441  26.514  1.00  0.00     0.037 A 
BRANCH  48  62
ATOM     62  C   UNL A   1      46.651  33.110  28.555  1.00  0.00     0.058 A 
ATOM     63  C   UNL A   1      46.524  34.102  27.570  1.00  0.00     0.135 A 
ATOM     64  C   UNL A   1      47.209  33.482  29.789  1.00  0.00     0.135 A 
ATOM     65  F   UNL A   1      46.013  33.797  26.366  1.00  0.00    -0.206 F 
ATOM     66  C   UNL A   1      46.974  35.401  27.783  1.00  0.00     0.059 A 
ATOM     67  C   UNL A   1      47.639  34.783  30.034  1.00  0.00     0.059 A 
ATOM     68  F   UNL A   1      47.355  32.574  30.767  1.00  0.00    -0.206 F 
ATOM     69  C   UNL A   1      47.537  35.731  29.017  1.00  0.00     0.060 A 
BRANCH  69  70
ATOM     70  S   UNL A   1      48.143  37.413  29.272  1.00  0.00     0.124 S 
ATOM     71  O   UNL A   1      48.001  37.978  27.934  1.00  0.00    -0.237 OA
ATOM     72  O   UNL A   1      47.221  37.929  30.278  1.00  0.00    -0.237 OA
ATOM     73  O   UNL A   1      49.515  37.214  29.727  1.00  0.00    -0.744 OA
ENDBRANCH  69  70
ENDBRANCH  48  62
BRANCH  49  74
ATOM     74  C   UNL A   1      43.246  23.821  27.021  1.00  0.00     0.058 A 
ATOM     75  C   UNL A   1      42.946  23.371  25.727  1.00  0.00     0.135 A 
ATOM     76  C   UNL A   1      43.083  22.916  28.083  1.00  0.00     0.135 A 
ATOM     77  F   UNL A   1      43.075  24.202  24.681  1.00  0.00    -0.206 F 
ATOM     78  C   UNL A   1      42.505  22.072  25.492  1.00  0.00     0.059 A 
ATOM     79  C   UNL A   1      42.666  21.607  27.870  1.00  0.00     0.059 A 
ATOM     80  F   UNL A   1      43.365  23.296  29.338  1.00  0.00    -0.206 F 
ATOM     81  C   UNL A   1      42.376  21.195  26.570  1.00  0.00     0.060 A 
BRANCH  81  82
ATOM     82  S   UNL A   1      41.878  19.489  26.245  1.00  0.00     0.124 S 
ATOM     83  O   UNL A   1      40.430  19.621  26.137  1.00  0.00    -0.237 OA
ATOM     84  O   UNL A   1      42.587  19.196  25.003  1.00  0.00    -0.237 OA
ATOM     85  O   UNL A   1      42.362  18.769  27.419  1.00  0.00    -0.744 OA
ENDBRANCH  81  82
ENDBRANCH  49  74
BRANCH  61  86
ATOM     86  C   UNL A   1      49.406  26.944  25.985  1.00  0.00     0.058 A 
ATOM     87  C   UNL A   1      49.785  27.134  24.647  1.00  0.00     0.135 A 
ATOM     88  C   UNL A   1      50.325  26.319  26.845  1.00  0.00     0.135 A 
ATOM     89  F   UNL A   1      48.941  27.719  23.783  1.00  0.00    -0.206 F 
ATOM     90  C   UNL A   1      51.020  26.703  24.174  1.00  0.00     0.059 A 
ATOM     91  C   UNL A   1      51.576  25.905  26.400  1.00  0.00     0.059 A 
ATOM     92  F   UNL A   1      50.017  26.124  28.137  1.00  0.00    -0.206 F 
ATOM     93  C   UNL A   1      51.910  26.090  25.060  1.00  0.00     0.060 A 
BRANCH  93  94
ATOM     94  S   UNL A   1      53.524  25.566  24.441  1.00  0.00     0.124 S 
ATOM     95  O   UNL A   1      53.449  25.977  23.043  1.00  0.00    -0.237 OA
ATOM     96  O   UNL A   1      54.443  26.330  25.277  1.00  0.00    -0.237 OA
ATOM     97  O   UNL A   1      53.524  24.125  24.674  1.00  0.00    -0.744 OA
ENDBRANCH  93  94
ENDBRANCH  61  86
ENDBRANCH  35  36
ENDBRANCH  28  30
ENDBRANCH  27  28
ENDBRANCH  26  27
ENDBRANCH  25  26
ENDBRANCH   1  25
TORSDOF 20
ENDMDL
MODEL 2
REMARK VINA RESULT:     -10.7      6.215     12.586
REMARK SMILES C[C@@H](Nc1cccc(C(=O)OCCOCCOC(=O)c2ccc(-c3c4nc(c(-c5c(F)cc(S(=O)(=O)[O-])cc5F)c5ccc([nH]5)c(-c5c(F)cc(S(=O)(=O)[O-])cc5F)c5nc(c(-c6c(F)cc(S(=O)(=O)[O-])cc6F)c6ccc3[nH]6)C=C5)C=C4)cc2)c1)C1CC[NH+](C)CC1
REMARK SMILES IDX 14 1 13 2 12 3 11 4 9 5 10 6 8 7 4 8 5 9 86 10 6 11 7 12
REMARK SMILES IDX 3 13 2 15 1 16 87 17 88 18 93 19 89 20 92 21 90 22 91 23
REMARK SMILES IDX 15 25 16 26 17 27 18 28 19 29 20 30 21 31 85 32 22 33 84 34
REMARK SMILES IDX 23 35 24 36 25 37 78 38 26 39 83 40 77 41 79 42 27 43 82 44
REMARK SMILES IDX 76 45 75 46 28 48 62 49 41 50 61 51 42 52 45 53 60 54 80 55
REMARK SMILES IDX 43 56 44 57 59 59 81 60 46 61 29 62 30 63 39 64 31 65 32 66
REMARK SMILES IDX 38 67 40 68 33 69 34 70 35 71 36 72 37 73 63 74 64 75 73 76
REMARK SMILES IDX 65 77 66 78 72 79 74 80 67 81 68 82 69 83 70 84 71 85 47 86
REMARK SMILES IDX 48 87 57 88 49 89 50 90 56 91 58 92 51 93 52 94 53 95 54 96
REMARK SMILES IDX 55 97
REMARK H PARENT 3 14 90 24 79 47 45 58
REMARK Flexibility Score: inf
ROOT
ATOM      1  O   UNL A   1      43.995  22.573  26.411  1.00  0.00    -0.374 OA
ENDROOT
BRANCH   1   2
ATOM      2  C   UNL A   1      43.073  21.686  25.785  1.00  0.00     0.202 C 
BRANCH   2   3
ATOM      3  C   UNL A   1      42.555  20.492  26.584  1.00  0.00     0.261 C 
BRANCH   3   4
ATOM      4  O   UNL A   1      41.224  20.704  27.063  1.00  0.00    -0.460 OA
BRANCH   4   5
ATOM      5  C   UNL A   1      40.262  20.262  26.225  1.00  0.00     0.338 C 
ATOM      6  O   UNL A   1      40.158  19.146  25.739  1.00  0.00    -0.246 OA
BRANCH   5   7
ATOM      7  C   UNL A   1      39.307  21.329  25.919  1.00  0.00     0.062 A 
ATOM      8  C   UNL A   1      36.394  22.396  25.341  1.00  0.00     0.035 A 
ATOM      9  C   UNL A   1      36.849  24.008  26.063  1.00  0.00     0.026 A 
ATOM     10  C   UNL A   1      37.646  21.084  25.140  1.00  0.00     0.041 A 
ATOM     11  C   UNL A   1      38.523  24.270  26.722  1.00  0.00     0.003 A 
ATOM     12  C   UNL A   1      39.722  22.908  26.710  1.00  0.00     0.016 A 
BRANCH   8  13
ATOM     13  N   UNL A   1      35.043  22.055  25.295  1.00  0.00    -0.382 N 
ATOM     14  H   UNL A   1      34.532  21.875  26.118  1.00  0.00     0.160 HD
BRANCH  13  15
ATOM     15  C   UNL A   1      34.403  21.974  23.961  1.00  0.00     0.079 C 
ATOM     16  C   UNL A   1      34.671  23.262  23.173  1.00  0.00     0.031 C 
BRANCH  15  17
ATOM     17  C   UNL A   1      32.911  21.527  23.805  1.00  0.00     0.022 C 
ATOM     18  C   UNL A   1      31.939  22.392  23.004  1.00  0.00     0.067 C 
ATOM     19  C   UNL A   1      32.198  21.132  25.076  1.00  0.00     0.067 C 
ATOM     20  C   UNL A   1      31.246  23.532  23.772  1.00  0.00     0.262 C 
ATOM     21  C   UNL A   1      31.522  22.306  25.794  1.00  0.00     0.262 C 
ATOM     22  N   UNL A   1      31.788  23.825  25.213  1.00  0.00    -0.337 N 
ATOM     23  C   UNL A   1      32.702  25.487  26.078  1.00  0.00     0.332 C 
ATOM     24  H   UNL A   1      31.987  24.725  25.648  1.00  0.00     0.347 HD
ENDBRANCH  15  17
ENDBRANCH  13  15
ENDBRANCH   8  13
ENDBRANCH   5   7
ENDBRANCH   4   5
ENDBRANCH   3   4
ENDBRANCH   2   3
ENDBRANCH   1   2
BRANCH   1  25
ATOM     25  C   UNL A   1      43.705  23.968  26.449  1.00  0.00     0.202 C 
BRANCH  25  26
ATOM     26  C   UNL A   1      43.062  24.638  25.228  1.00  0.00     0.261 C 
BRANCH  26  27
ATOM     27  O   UNL A   1      41.925  25.462  25.533  1.00  0.00    -0.460 OA
BRANCH  27  28
ATOM     28  C   UNL A   1      42.209  26.788  25.588  1.00  0.00     0.338 C 
ATOM     29  O   UNL A   1      42.259  27.569  24.653  1.00  0.00    -0.246 OA
BRANCH  28  30
ATOM     30  C   UNL A   1      42.297  27.241  26.986  1.00  0.00     0.060 A 
ATOM     31  C   UNL A   1      41.372  26.712  27.897  1.00  0.00     0.016 A 
ATOM     32  C   UNL A   1      43.161  28.271  27.361  1.00  0.00     0.016 A 
ATOM     33  C   UNL A   1      41.268  27.253  29.174  1.00  0.00     0.010 A 
ATOM     34  C   UNL A   1      43.045  28.822  28.640  1.00  0.00     0.010 A 
ATOM     35  C   UNL A   1      42.067  28.346  29.532  1.00  0.00    -0.014 A 
BRANCH  35  36
ATOM     36  C   UNL A   1      41.743  29.099  30.766  1.00  0.00     0.031 A 
ATOM     37  C   UNL A   1      40.546  30.010  30.763  1.00  0.00     0.074 A 
ATOM     38  C   UNL A   1      42.476  28.937  31.881  1.00  0.00     0.049 A 
ATOM     39  N   UNL A   1      40.086  30.779  31.715  1.00  0.00    -0.248 NA
ATOM     40  C   UNL A   1      39.759  30.055  29.519  1.00  0.00     0.031 C 
ATOM     41  C   UNL A   1      43.621  28.039  32.013  1.00  0.00     0.029 A 
ATOM     42  N   UNL A   1      42.361  29.525  33.114  1.00  0.00    -0.354 N 
ATOM     43  C   UNL A   1      38.964  31.406  31.185  1.00  0.00     0.074 A 
ATOM     44  C   UNL A   1      38.831  30.950  29.818  1.00  0.00     0.031 C 
ATOM     45  C   UNL A   1      44.110  28.141  33.261  1.00  0.00     0.029 A 
ATOM     46  C   UNL A   1      43.333  29.134  34.001  1.00  0.00     0.049 A 
ATOM     47  H   UNL A   1      41.650  30.166  33.342  1.00  0.00     0.167 HD
ATOM     48  C   UNL A   1      38.119  32.279  31.785  1.00  0.00     0.037 A 
ATOM     49  C   UNL A   1      43.577  29.546  35.261  1.00  0.00     0.037 A 
ATOM     50  C   UNL A   1      38.265  32.729  33.144  1.00  0.00     0.049 A 
ATOM     51  C   UNL A   1      42.672  30.574  35.885  1.00  0.00     0.074 A 
ATOM     52  C   UNL A   1      37.464  33.606  33.853  1.00  0.00     0.029 A 
ATOM     53  N   UNL A   1      39.290  32.345  33.999  1.00  0.00    -0.354 N 
ATOM     54  N   UNL A   1      41.611  31.156  35.377  1.00  0.00    -0.248 NA
ATOM     55  C   UNL A   1      42.995  31.000  37.253  1.00  0.00     0.031 C 
ATOM     56  C   UNL A   1      38.030  33.788  35.120  1.00  0.00     0.029 A 
ATOM     57  C   UNL A   1      39.156  32.985  35.220  1.00  0.00     0.049 A 
ATOM     58  H   UNL A   1      40.006  31.710  33.770  1.00  0.00     0.167 HD
ATOM     59  C   UNL A   1      41.123  31.998  36.372  1.00  0.00     0.074 A 
ATOM     60  C   UNL A   1      42.003  31.844  37.513  1.00  0.00     0.031 C 
ATOM     61  C   UNL A   1      40.043  32.818  36.345  1.00  0.00     0.037 A 
BRANCH  48  62
ATOM     62  C   UNL A   1      36.989  32.826  30.956  1.00  0.00     0.058 A 
ATOM     63  C   UNL A   1      37.201  33.782  29.950  1.00  0.00     0.135 A 
ATOM     64  C   UNL A   1      35.671  32.393  31.179  1.00  0.00     0.135 A 
ATOM     65  F   UNL A   1      38.439  34.244  29.706  1.00  0.00    -0.206 F 
ATOM     66  C   UNL A   1      36.144  34.321  29.222  1.00  0.00     0.059 A 
ATOM     67  C   UNL A   1      34.603  32.897  30.444  1.00  0.00     0.059 A 
ATOM     68  F   UNL A   1      35.410  31.482  32.128  1.00  0.00    -0.206 F 
ATOM     69  C   UNL A   1      34.846  33.876  29.482  1.00  0.00     0.060 A 
BRANCH  69  70
ATOM     70  S   UNL A   1      33.479  34.603  28.551  1.00  0.00     0.124 S 
ATOM     71  O   UNL A   1      33.111  33.500  27.669  1.00  0.00    -0.237 OA
ATOM     72  O   UNL A   1      32.519  34.921  29.602  1.00  0.00    -0.237 OA
ATOM     73  O   UNL A   1      34.090  35.754  27.894  1.00  0.00    -0.744 OA
ENDBRANCH  69  70
ENDBRANCH  48  62
BRANCH  49  74
ATOM     74  C   UNL A   1      44.731  28.981  36.007  1.00  0.00     0.058 A 
ATOM     75  C   UNL A   1      44.580  27.854  36.827  1.00  0.00     0.135 A 
ATOM     76  C   UNL A   1      46.015  29.537  35.888  1.00  0.00     0.135 A 
ATOM     77  F   UNL A   1      43.371  27.294  36.982  1.00  0.00    -0.206 F 
ATOM     78  C   UNL A   1      45.662  27.295  37.502  1.00  0.00     0.059 A 
ATOM     79  C   UNL A   1      47.114  28.983  36.534  1.00  0.00     0.059 A 
ATOM     80  F   UNL A   1      46.213  30.611  35.109  1.00  0.00    -0.206 F 
ATOM     81  C   UNL A   1      46.926  27.863  37.342  1.00  0.00     0.060 A 
BRANCH  81  82
ATOM     82  S   UNL A   1      48.336  27.083  38.160  1.00  0.00     0.124 S 
ATOM     83  O   UNL A   1      49.199  28.230  38.415  1.00  0.00    -0.237 OA
ATOM     84  O   UNL A   1      47.711  26.479  39.334  1.00  0.00    -0.237 OA
ATOM     85  O   UNL A   1      48.821  26.135  37.162  1.00  0.00    -0.744 OA
ENDBRANCH  81  82
ENDBRANCH  49  74
BRANCH  61  86
ATOM     86  C   UNL A   1      39.730  33.591  37.598  1.00  0.00     0.058 A 
ATOM     87  C   UNL A   1      38.828  33.108  38.559  1.00  0.00     0.135 A 
ATOM     88  C   UNL A   1      40.385  34.805  37.864  1.00  0.00     0.135 A 
ATOM     89  F   UNL A   1      38.171  31.957  38.350  1.00  0.00    -0.206 F 
ATOM     90  C   UNL A   1      38.571  33.812  39.731  1.00  0.00     0.059 A 
ATOM     91  C   UNL A   1      40.164  35.512  39.041  1.00  0.00     0.059 A 
ATOM     92  F   UNL A   1      41.266  35.305  36.983  1.00  0.00    -0.206 F 
ATOM     93  C   UNL A   1      39.246  35.013  39.964  1.00  0.00     0.060 A 
BRANCH  93  94
ATOM     94  S   UNL A   1      38.928  35.899  41.505  1.00  0.00     0.124 S 
ATOM     95  O   UNL A   1      37.630  35.358  41.893  1.00  0.00    -0.237 OA
ATOM     96  O   UNL A   1      40.058  35.496  42.336  1.00  0.00    -0.237 OA
ATOM     97  O   UNL A   1      38.928  37.300  41.096  1.00  0.00    -0.744 OA
ENDBRANCH  93  94
ENDBRANCH  61  86
ENDBRANCH  35  36
ENDBRANCH  28  30
ENDBRANCH  27  28
ENDBRANCH  26  27
ENDBRANCH  25  26
ENDBRANCH   1  25
TORSDOF 20
ENDMDL
MODEL 3
REMARK VINA RESULT:     -10.6      1.290      8.572
REMARK SMILES C[C@@H](Nc1cccc(C(=O)OCCOCCOC(=O)c2ccc(-c3c4nc(c(-c5c(F)cc(S(=O)(=O)[O-])cc5F)c5ccc([nH]5)c(-c5c(F)cc(S(=O)(=O)[O-])cc5F)c5nc(c(-c6c(F)cc(S(=O)(=O)[O-])cc6F)c6ccc3[nH]6)C=C5)C=C4)cc2)c1)C1CC[NH+](C)CC1
REMARK SMILES IDX 14 1 13 2 12 3 11 4 9 5 10 6 8 7 4 8 5 9 86 10 6 11 7 12
REMARK SMILES IDX 3 13 2 15 1 16 87 17 88 18 93 19 89 20 92 21 90 22 91 23
REMARK SMILES IDX 15 25 16 26 17 27 18 28 19 29 20 30 21 31 85 32 22 33 84 34
REMARK SMILES IDX 23 35 24 36 25 37 78 38 26 39 83 40 77 41 79 42 27 43 82 44
REMARK SMILES IDX 76 45 75 46 28 48 62 49 41 50 61 51 42 52 45 53 60 54 80 55
REMARK SMILES IDX 43 56 44 57 59 59 81 60 46 61 29 62 30 63 39 64 31 65 32 66
REMARK SMILES IDX 38 67 40 68 33 69 34 70 35 71 36 72 37 73 63 74 64 75 73 76
REMARK SMILES IDX 65 77 66 78 72 79 74 80 67 81 68 82 69 83 70 84 71 85 47 86
REMARK SMILES IDX 48 87 57 88 49 89 50 90 56 91 58 92 51 93 52 94 53 95 54 96
REMARK SMILES IDX 55 97
REMARK H PARENT 3 14 90 24 79 47 45 58
REMARK Flexibility Score: inf
ROOT
ATOM      1  O   UNL A   1      35.677  32.700  28.893  1.00  0.00    -0.374 OA
ENDROOT
BRANCH   1   2
ATOM      2  C   UNL A   1      34.767  32.366  27.850  1.00  0.00     0.202 C 
BRANCH   2   3
ATOM      3  C   UNL A   1      33.999  31.050  27.948  1.00  0.00     0.261 C 
BRANCH   3   4
ATOM      4  O   UNL A   1      33.669  30.523  26.660  1.00  0.00    -0.460 OA
BRANCH   4   5
ATOM      5  C   UNL A   1      32.343  30.458  26.416  1.00  0.00     0.338 C 
ATOM      6  O   UNL A   1      31.503  31.311  26.655  1.00  0.00    -0.246 OA
BRANCH   5   7
ATOM      7  C   UNL A   1      31.986  29.169  25.820  1.00  0.00     0.062 A 
ATOM      8  C   UNL A   1      31.285  26.098  26.006  1.00  0.00     0.035 A 
ATOM      9  C   UNL A   1      30.253  26.249  24.511  1.00  0.00     0.026 A 
ATOM     10  C   UNL A   1      32.265  27.515  26.604  1.00  0.00     0.041 A 
ATOM     11  C   UNL A   1      30.079  27.859  23.685  1.00  0.00     0.003 A 
ATOM     12  C   UNL A   1      30.890  29.324  24.383  1.00  0.00     0.016 A 
BRANCH   8  13
ATOM     13  N   UNL A   1      31.032  25.036  26.875  1.00  0.00    -0.382 N 
ATOM     14  H   UNL A   1      30.767  25.193  27.811  1.00  0.00     0.160 HD
BRANCH  13  15
ATOM     15  C   UNL A   1      31.176  23.663  26.338  1.00  0.00     0.079 C 
ATOM     16  C   UNL A   1      29.982  22.803  26.772  1.00  0.00     0.031 C 
BRANCH  15  17
ATOM     17  C   UNL A   1      32.517  22.870  26.491  1.00  0.00     0.022 C 
ATOM     18  C   UNL A   1      33.846  23.624  26.518  1.00  0.00     0.067 C 
ATOM     19  C   UNL A   1      32.703  21.691  25.566  1.00  0.00     0.067 C 
ATOM     20  C   UNL A   1      34.485  23.931  25.152  1.00  0.00     0.262 C 
ATOM     21  C   UNL A   1      33.349  22.057  24.224  1.00  0.00     0.262 C 
ATOM     22  N   UNL A   1      33.596  23.652  23.893  1.00  0.00    -0.337 N 
ATOM     23  C   UNL A   1      32.821  24.881  22.398  1.00  0.00     0.332 C 
ATOM     24  H   UNL A   1      33.461  24.233  23.065  1.00  0.00     0.347 HD
ENDBRANCH  15  17
ENDBRANCH  13  15
ENDBRANCH   8  13
ENDBRANCH   5   7
ENDBRANCH   4   5
ENDBRANCH   3   4
ENDBRANCH   2   3
ENDBRANCH   1   2
BRANCH   1  25
ATOM     25  C   UNL A   1      35.279  32.520  30.250  1.00  0.00     0.202 C 
BRANCH  25  26
ATOM     26  C   UNL A   1      36.350  32.383  31.339  1.00  0.00     0.261 C 
BRANCH  26  27
ATOM     27  O   UNL A   1      36.469  31.063  31.894  1.00  0.00    -0.460 OA
BRANCH  27  28
ATOM     28  C   UNL A   1      36.760  30.107  30.976  1.00  0.00     0.338 C 
ATOM     29  O   UNL A   1      35.982  29.325  30.455  1.00  0.00    -0.246 OA
BRANCH  28  30
ATOM     30  C   UNL A   1      38.158  30.226  30.531  1.00  0.00     0.060 A 
ATOM     31  C   UNL A   1      38.395  30.290  29.151  1.00  0.00     0.016 A 
ATOM     32  C   UNL A   1      39.217  30.121  31.434  1.00  0.00     0.016 A 
ATOM     33  C   UNL A   1      39.693  30.190  28.663  1.00  0.00     0.010 A 
ATOM     34  C   UNL A   1      40.520  30.006  30.940  1.00  0.00     0.010 A 
ATOM     35  C   UNL A   1      40.756  29.994  29.553  1.00  0.00    -0.014 A 
BRANCH  35  36
ATOM     36  C   UNL A   1      42.076  29.590  29.019  1.00  0.00     0.031 A 
ATOM     37  C   UNL A   1      42.268  28.169  28.562  1.00  0.00     0.074 A 
ATOM     38  C   UNL A   1      43.071  30.486  28.898  1.00  0.00     0.049 A 
ATOM     39  N   UNL A   1      43.336  27.588  28.082  1.00  0.00    -0.248 NA
ATOM     40  C   UNL A   1      41.094  27.286  28.658  1.00  0.00     0.031 C 
ATOM     41  C   UNL A   1      42.979  31.900  29.255  1.00  0.00     0.029 A 
ATOM     42  N   UNL A   1      44.354  30.334  28.440  1.00  0.00    -0.354 N 
ATOM     43  C   UNL A   1      42.968  26.272  27.827  1.00  0.00     0.074 A 
ATOM     44  C   UNL A   1      41.585  26.133  28.234  1.00  0.00     0.031 C 
ATOM     45  C   UNL A   1      44.162  32.488  29.007  1.00  0.00     0.029 A 
ATOM     46  C   UNL A   1      45.101  31.484  28.508  1.00  0.00     0.049 A 
ATOM     47  H   UNL A   1      44.707  29.482  28.095  1.00  0.00     0.167 HD
ATOM     48  C   UNL A   1      43.712  25.272  27.296  1.00  0.00     0.037 A 
ATOM     49  C   UNL A   1      46.399  31.696  28.217  1.00  0.00     0.037 A 
ATOM     50  C   UNL A   1      45.088  25.422  26.900  1.00  0.00     0.049 A 
ATOM     51  C   UNL A   1      47.232  30.553  27.700  1.00  0.00     0.074 A 
ATOM     52  C   UNL A   1      45.933  24.477  26.346  1.00  0.00     0.029 A 
ATOM     53  N   UNL A   1      45.824  26.592  27.026  1.00  0.00    -0.354 N 
ATOM     54  N   UNL A   1      46.872  29.315  27.457  1.00  0.00    -0.248 NA
ATOM     55  C   UNL A   1      48.645  30.836  27.417  1.00  0.00     0.031 C 
ATOM     56  C   UNL A   1      47.194  25.062  26.181  1.00  0.00     0.029 A 
ATOM     57  C   UNL A   1      47.121  26.387  26.584  1.00  0.00     0.049 A 
ATOM     58  H   UNL A   1      45.476  27.442  27.378  1.00  0.00     0.167 HD
ATOM     59  C   UNL A   1      48.007  28.676  26.967  1.00  0.00     0.074 A 
ATOM     60  C   UNL A   1      49.063  29.668  26.944  1.00  0.00     0.031 C 
ATOM     61  C   UNL A   1      48.159  27.388  26.568  1.00  0.00     0.037 A 
BRANCH  48  62
ATOM     62  C   UNL A   1      43.057  23.925  27.154  1.00  0.00     0.058 A 
ATOM     63  C   UNL A   1      42.966  23.026  28.229  1.00  0.00     0.135 A 
ATOM     64  C   UNL A   1      42.520  23.524  25.919  1.00  0.00     0.135 A 
ATOM     65  F   UNL A   1      43.479  23.351  29.427  1.00  0.00    -0.206 F 
ATOM     66  C   UNL A   1      42.405  21.762  28.075  1.00  0.00     0.059 A 
ATOM     67  C   UNL A   1      41.929  22.276  25.751  1.00  0.00     0.059 A 
ATOM     68  F   UNL A   1      42.580  24.343  24.858  1.00  0.00    -0.206 F 
ATOM     69  C   UNL A   1      41.894  21.393  26.830  1.00  0.00     0.060 A 
BRANCH  69  70
ATOM     70  S   UNL A   1      41.194  19.740  26.635  1.00  0.00     0.124 S 
ATOM     71  O   UNL A   1      39.893  20.044  26.046  1.00  0.00    -0.237 OA
ATOM     72  O   UNL A   1      42.155  19.094  25.748  1.00  0.00    -0.237 OA
ATOM     73  O   UNL A   1      41.159  19.223  28.000  1.00  0.00    -0.744 OA
ENDBRANCH  69  70
ENDBRANCH  48  62
BRANCH  49  74
ATOM     74  C   UNL A   1      46.984  33.048  28.411  1.00  0.00     0.058 A 
ATOM     75  C   UNL A   1      46.982  33.993  27.376  1.00  0.00     0.135 A 
ATOM     76  C   UNL A   1      47.525  33.434  29.648  1.00  0.00     0.135 A 
ATOM     77  F   UNL A   1      46.486  33.668  26.172  1.00  0.00    -0.206 F 
ATOM     78  C   UNL A   1      47.494  35.274  27.558  1.00  0.00     0.059 A 
ATOM     79  C   UNL A   1      48.022  34.715  29.861  1.00  0.00     0.059 A 
ATOM     80  F   UNL A   1      47.543  32.569  30.674  1.00  0.00    -0.206 F 
ATOM     81  C   UNL A   1      48.004  35.628  28.807  1.00  0.00     0.060 A 
BRANCH  81  82
ATOM     82  S   UNL A   1      48.595  37.318  29.056  1.00  0.00     0.124 S 
ATOM     83  O   UNL A   1      48.453  37.469  30.499  1.00  0.00    -0.237 OA
ATOM     84  O   UNL A   1      49.963  37.239  28.553  1.00  0.00    -0.237 OA
ATOM     85  O   UNL A   1      47.682  38.115  28.244  1.00  0.00    -0.744 OA
ENDBRANCH  81  82
ENDBRANCH  49  74
BRANCH  61  86
ATOM     86  C   UNL A   1      49.509  26.983  26.039  1.00  0.00     0.058 A 
ATOM     87  C   UNL A   1      50.490  26.420  26.870  1.00  0.00     0.135 A 
ATOM     88  C   UNL A   1      49.801  27.110  24.671  1.00  0.00     0.135 A 
ATOM     89  F   UNL A   1      50.263  26.284  28.186  1.00  0.00    -0.206 F 
ATOM     90  C   UNL A   1      51.722  26.016  26.367  1.00  0.00     0.059 A 
ATOM     91  C   UNL A   1      51.016  26.687  24.141  1.00  0.00     0.059 A 
ATOM     92  F   UNL A   1      48.892  27.630  23.831  1.00  0.00    -0.206 F 
ATOM     93  C   UNL A   1      51.975  26.152  25.000  1.00  0.00     0.060 A 
BRANCH  93  94
ATOM     94  S   UNL A   1      53.566  25.592  24.354  1.00  0.00     0.124 S 
ATOM     95  O   UNL A   1      54.500  26.367  25.162  1.00  0.00    -0.237 OA
ATOM     96  O   UNL A   1      53.528  24.159  24.628  1.00  0.00    -0.237 OA
ATOM     97  O   UNL A   1      53.504  25.955  22.941  1.00  0.00    -0.744 OA
ENDBRANCH  93  94
ENDBRANCH  61  86
ENDBRANCH  35  36
ENDBRANCH  28  30
ENDBRANCH  27  28
ENDBRANCH  26  27
ENDBRANCH  25  26
ENDBRANCH   1  25
TORSDOF 20
ENDMDL
