MODEL 1
REMARK VINA RESULT:     -12.5      0.000      0.000
REMARK SMILES CC1(C)[C@H](O)CC[C@@]2(C)[C@@H]1CC[C@]1(C)Oc3oc(C(=O)OCCOCCOC(=O)c4ccc(-c5c6nc(c(-c7c(F)cc(S(=O)(=O)[O-])cc7F)c7ccc([nH]7)c(-c7c(F)cc(S(=O)(=O)[O-])cc7F)c7nc(c(-c8c(F)cc(S(=O)(=O)[O-])cc8F)c8ccc5[nH]8)C=C7)C=C6)cc4)cc(=O)c3C[C@@H]21
REMARK SMILES IDX 25 1 24 2 23 3 22 4 21 5 19 6 20 7 18 8 1 9 2 10 4 11 10 12
REMARK SMILES IDX 3 13 6 14 8 15 11 16 7 17 101 18 9 19 12 20 13 21 100 22
REMARK SMILES IDX 15 23 14 24 99 25 16 26 97 27 17 28 96 29 98 30 5 31 26 33
REMARK SMILES IDX 27 34 28 35 29 36 30 37 31 38 95 39 32 40 94 41 33 42 34 43
REMARK SMILES IDX 35 44 88 45 36 46 93 47 87 48 89 49 37 50 92 51 86 52 85 53
REMARK SMILES IDX 38 55 72 56 51 57 71 58 52 59 55 60 70 61 90 62 53 63 54 64
REMARK SMILES IDX 69 66 91 67 56 68 39 69 40 70 49 71 41 72 42 73 48 74 50 75
REMARK SMILES IDX 43 76 44 77 45 78 46 79 47 80 73 81 74 82 83 83 75 84 76 85
REMARK SMILES IDX 82 86 84 87 77 88 78 89 79 90 80 91 81 92 57 93 58 94 67 95
REMARK SMILES IDX 59 96 60 97 66 98 68 99 61 100 62 101 63 102 64 103 65 104
REMARK H PARENT 5 32 89 54 55 65
REMARK Flexibility Score: inf
ROOT
ATOM      1  C   UNL A   1      44.116  23.112  24.490  1.00  0.00     0.202 C 
ENDROOT
BRANCH   1   2
ATOM      2  O   UNL A   1      43.227  22.019  24.715  1.00  0.00    -0.374 OA
BRANCH   2   3
ATOM      3  C   UNL A   1      43.446  21.198  25.856  1.00  0.00     0.202 C 
BRANCH   3   4
ATOM      4  C   UNL A   1      42.212  20.663  26.590  1.00  0.00     0.261 C 
BRANCH   4   5
ATOM      5  O   UNL A   1      40.993  21.255  26.139  1.00  0.00    -0.457 OA
BRANCH   5   6
ATOM      6  C   UNL A   1      39.954  20.438  25.807  1.00  0.00     0.374 C 
ATOM      7  O   UNL A   1      39.983  19.209  25.723  1.00  0.00    -0.242 OA
BRANCH   6   8
ATOM      8  C   UNL A   1      38.741  21.273  25.632  1.00  0.00     0.219 A 
ATOM      9  C   UNL A   1      29.872  26.115  25.010  1.00  0.00     0.014 C 
ATOM     10  C   UNL A   1      31.313  25.918  24.480  1.00  0.00    -0.006 C 
ATOM     11  C   UNL A   1      32.236  26.827  25.472  1.00  0.00     0.120 C 
ATOM     12  C   UNL A   1      31.751  24.242  24.569  1.00  0.00     0.004 C 
ATOM     13  C   UNL A   1      31.384  26.581  23.078  1.00  0.00     0.014 C 
ATOM     14  C   UNL A   1      33.716  26.669  25.184  1.00  0.00     0.033 C 
ATOM     15  C   UNL A   1      33.073  24.218  25.362  1.00  0.00    -0.022 C 
ATOM     16  C   UNL A   1      31.868  23.212  23.389  1.00  0.00     0.009 C 
ATOM     17  C   UNL A   1      33.909  25.313  24.600  1.00  0.00     0.010 C 
ATOM     18  C   UNL A   1      34.011  23.012  25.432  1.00  0.00     0.044 C 
ATOM     19  C   UNL A   1      32.567  24.292  26.853  1.00  0.00     0.012 C 
ATOM     20  C   UNL A   1      32.758  21.895  23.726  1.00  0.00     0.049 C 
ATOM     21  C   UNL A   1      34.254  22.221  24.151  1.00  0.00     0.113 C 
ATOM     22  C   UNL A   1      35.252  23.456  26.206  1.00  0.00     0.055 C 
ATOM     23  O   UNL A   1      35.142  21.091  24.561  1.00  0.00    -0.458 OA
ATOM     24  C   UNL A   1      34.929  22.784  22.892  1.00  0.00     0.057 C 
ATOM     25  C   UNL A   1      36.430  22.693  25.830  1.00  0.00     0.081 A 
ATOM     26  C   UNL A   1      36.381  21.535  25.157  1.00  0.00     0.292 A 
ATOM     27  C   UNL A   1      37.694  23.326  26.232  1.00  0.00     0.192 A 
ATOM     28  O   UNL A   1      37.562  20.768  25.042  1.00  0.00    -0.418 OA
ATOM     29  C   UNL A   1      38.875  22.510  26.131  1.00  0.00     0.107 A 
ATOM     30  O   UNL A   1      37.767  24.474  26.656  1.00  0.00    -0.289 OA
BRANCH  11  31
ATOM     31  O   UNL A   1      31.945  28.222  25.480  1.00  0.00    -0.393 OA
ATOM     32  H   UNL A   1      32.730  28.718  25.198  1.00  0.00     0.210 HD
ENDBRANCH  11  31
ENDBRANCH   6   8
ENDBRANCH   5   6
ENDBRANCH   4   5
ENDBRANCH   3   4
ENDBRANCH   2   3
ENDBRANCH   1   2
BRANCH   1  33
ATOM     33  C   UNL A   1      43.714  24.497  25.007  1.00  0.00     0.261 C 
BRANCH  33  34
ATOM     34  O   UNL A   1      42.690  24.459  26.016  1.00  0.00    -0.460 OA
BRANCH  34  35
ATOM     35  C   UNL A   1      41.889  25.548  26.044  1.00  0.00     0.338 C 
ATOM     36  O   UNL A   1      41.172  25.967  25.138  1.00  0.00    -0.246 OA
BRANCH  35  37
ATOM     37  C   UNL A   1      41.886  26.152  27.379  1.00  0.00     0.060 A 
ATOM     38  C   UNL A   1      40.792  25.915  28.220  1.00  0.00     0.016 A 
ATOM     39  C   UNL A   1      42.870  27.080  27.729  1.00  0.00     0.016 A 
ATOM     40  C   UNL A   1      40.656  26.640  29.401  1.00  0.00     0.010 A 
ATOM     41  C   UNL A   1      42.726  27.814  28.909  1.00  0.00     0.010 A 
ATOM     42  C   UNL A   1      41.598  27.625  29.728  1.00  0.00    -0.014 A 
BRANCH  42  43
ATOM     43  C   UNL A   1      41.311  28.574  30.828  1.00  0.00     0.031 A 
ATOM     44  C   UNL A   1      42.152  28.514  32.073  1.00  0.00     0.074 A 
ATOM     45  C   UNL A   1      40.336  29.493  30.705  1.00  0.00     0.049 A 
ATOM     46  N   UNL A   1      42.064  29.224  33.167  1.00  0.00    -0.248 NA
ATOM     47  C   UNL A   1      43.241  27.521  32.086  1.00  0.00     0.031 C 
ATOM     48  C   UNL A   1      39.492  29.673  29.526  1.00  0.00     0.029 A 
ATOM     49  N   UNL A   1      39.893  30.445  31.587  1.00  0.00    -0.354 N 
ATOM     50  C   UNL A   1      43.086  28.773  33.994  1.00  0.00     0.074 A 
ATOM     51  C   UNL A   1      43.758  27.701  33.292  1.00  0.00     0.031 C 
ATOM     52  C   UNL A   1      38.625  30.674  29.761  1.00  0.00     0.029 A 
ATOM     53  C   UNL A   1      38.834  31.181  31.116  1.00  0.00     0.049 A 
ATOM     54  H   UNL A   1      40.296  30.586  32.474  1.00  0.00     0.167 HD
ATOM     55  C   UNL A   1      43.440  29.224  35.220  1.00  0.00     0.037 A 
ATOM     56  C   UNL A   1      38.107  32.144  31.718  1.00  0.00     0.037 A 
ATOM     57  C   UNL A   1      42.760  30.284  35.915  1.00  0.00     0.049 A 
ATOM     58  C   UNL A   1      38.459  32.561  33.123  1.00  0.00     0.074 A 
ATOM     59  C   UNL A   1      43.043  30.817  37.160  1.00  0.00     0.029 A 
ATOM     60  N   UNL A   1      41.655  30.969  35.429  1.00  0.00    -0.354 N 
ATOM     61  N   UNL A   1      39.437  32.137  33.889  1.00  0.00    -0.248 NA
ATOM     62  C   UNL A   1      37.606  33.582  33.748  1.00  0.00     0.031 C 
ATOM     63  C   UNL A   1      42.078  31.787  37.449  1.00  0.00     0.029 A 
ATOM     64  C   UNL A   1      41.226  31.898  36.361  1.00  0.00     0.049 A 
ATOM     65  H   UNL A   1      41.238  30.816  34.551  1.00  0.00     0.167 HD
ATOM     66  C   UNL A   1      39.331  32.855  35.076  1.00  0.00     0.074 A 
ATOM     67  C   UNL A   1      38.203  33.750  34.922  1.00  0.00     0.031 C 
ATOM     68  C   UNL A   1      40.098  32.782  36.193  1.00  0.00     0.037 A 
BRANCH  55  69
ATOM     69  C   UNL A   1      44.609  28.563  35.897  1.00  0.00     0.058 A 
ATOM     70  C   UNL A   1      44.439  27.453  36.739  1.00  0.00     0.135 A 
ATOM     71  C   UNL A   1      45.919  29.012  35.664  1.00  0.00     0.135 A 
ATOM     72  F   UNL A   1      43.207  26.993  37.011  1.00  0.00    -0.206 F 
ATOM     73  C   UNL A   1      45.523  26.821  37.339  1.00  0.00     0.059 A 
ATOM     74  C   UNL A   1      47.021  28.380  36.233  1.00  0.00     0.059 A 
ATOM     75  F   UNL A   1      46.138  30.073  34.872  1.00  0.00    -0.206 F 
ATOM     76  C   UNL A   1      46.812  27.290  37.076  1.00  0.00     0.060 A 
BRANCH  76  77
ATOM     77  S   UNL A   1      48.207  26.446  37.849  1.00  0.00     0.124 S 
ATOM     78  O   UNL A   1      48.924  27.563  38.458  1.00  0.00    -0.237 OA
ATOM     79  O   UNL A   1      47.544  25.537  38.778  1.00  0.00    -0.237 OA
ATOM     80  O   UNL A   1      48.885  25.807  36.725  1.00  0.00    -0.744 OA
ENDBRANCH  76  77
ENDBRANCH  55  69
BRANCH  56  81
ATOM     81  C   UNL A   1      36.977  32.781  30.993  1.00  0.00     0.058 A 
ATOM     82  C   UNL A   1      37.205  33.775  30.031  1.00  0.00     0.135 A 
ATOM     83  C   UNL A   1      35.648  32.397  31.234  1.00  0.00     0.135 A 
ATOM     84  F   UNL A   1      38.456  34.184  29.775  1.00  0.00    -0.206 F 
ATOM     85  C   UNL A   1      36.158  34.371  29.336  1.00  0.00     0.059 A 
ATOM     86  C   UNL A   1      34.585  32.961  30.534  1.00  0.00     0.059 A 
ATOM     87  F   UNL A   1      35.375  31.445  32.139  1.00  0.00    -0.206 F 
ATOM     88  C   UNL A   1      34.851  33.951  29.589  1.00  0.00     0.060 A 
BRANCH  88  89
ATOM     89  S   UNL A   1      33.508  34.691  28.635  1.00  0.00     0.124 S 
ATOM     90  O   UNL A   1      32.535  34.991  29.679  1.00  0.00    -0.237 OA
ATOM     91  O   UNL A   1      34.168  35.841  28.026  1.00  0.00    -0.237 OA
ATOM     92  O   UNL A   1      33.130  33.629  27.707  1.00  0.00    -0.744 OA
ENDBRANCH  88  89
ENDBRANCH  56  81
BRANCH  68  93
ATOM     93  C   UNL A   1      39.758  33.696  37.338  1.00  0.00     0.058 A 
ATOM     94  C   UNL A   1      38.880  33.299  38.357  1.00  0.00     0.135 A 
ATOM     95  C   UNL A   1      40.382  34.949  37.462  1.00  0.00     0.135 A 
ATOM     96  F   UNL A   1      38.252  32.114  38.285  1.00  0.00    -0.206 F 
ATOM     97  C   UNL A   1      38.622  34.116  39.454  1.00  0.00     0.059 A 
ATOM     98  C   UNL A   1      40.161  35.769  38.562  1.00  0.00     0.059 A 
ATOM     99  F   UNL A   1      41.240  35.372  36.519  1.00  0.00    -0.206 F 
ATOM    100  C   UNL A   1      39.274  35.348  39.551  1.00  0.00     0.060 A 
BRANCH 100 101
ATOM    101  S   UNL A   1      38.966  36.372  41.005  1.00  0.00     0.124 S 
ATOM    102  O   UNL A   1      40.264  36.335  41.671  1.00  0.00    -0.237 OA
ATOM    103  O   UNL A   1      38.596  37.652  40.410  1.00  0.00    -0.237 OA
ATOM    104  O   UNL A   1      37.888  35.671  41.695  1.00  0.00    -0.744 OA
ENDBRANCH 100 101
ENDBRANCH  68  93
ENDBRANCH  42  43
ENDBRANCH  35  37
ENDBRANCH  34  35
ENDBRANCH  33  34
ENDBRANCH   1  33
TORSDOF 18
ENDMDL
MODEL 2
REMARK VINA RESULT:     -12.4      0.644      7.941
REMARK SMILES CC1(C)[C@H](O)CC[C@@]2(C)[C@@H]1CC[C@]1(C)Oc3oc(C(=O)OCCOCCOC(=O)c4ccc(-c5c6nc(c(-c7c(F)cc(S(=O)(=O)[O-])cc7F)c7ccc([nH]7)c(-c7c(F)cc(S(=O)(=O)[O-])cc7F)c7nc(c(-c8c(F)cc(S(=O)(=O)[O-])cc8F)c8ccc5[nH]8)C=C7)C=C6)cc4)cc(=O)c3C[C@@H]21
REMARK SMILES IDX 25 1 24 2 23 3 22 4 21 5 19 6 20 7 18 8 1 9 2 10 4 11 10 12
REMARK SMILES IDX 3 13 6 14 8 15 11 16 7 17 101 18 9 19 12 20 13 21 100 22
REMARK SMILES IDX 15 23 14 24 99 25 16 26 97 27 17 28 96 29 98 30 5 31 26 33
REMARK SMILES IDX 27 34 28 35 29 36 30 37 31 38 95 39 32 40 94 41 33 42 34 43
REMARK SMILES IDX 35 44 88 45 36 46 93 47 87 48 89 49 37 50 92 51 86 52 85 53
REMARK SMILES IDX 38 55 72 56 51 57 71 58 52 59 55 60 70 61 90 62 53 63 54 64
REMARK SMILES IDX 69 66 91 67 56 68 39 69 40 70 49 71 41 72 42 73 48 74 50 75
REMARK SMILES IDX 43 76 44 77 45 78 46 79 47 80 73 81 74 82 83 83 75 84 76 85
REMARK SMILES IDX 82 86 84 87 77 88 78 89 79 90 80 91 81 92 57 93 58 94 67 95
REMARK SMILES IDX 59 96 60 97 66 98 68 99 61 100 62 101 63 102 64 103 65 104
REMARK H PARENT 5 32 89 54 55 65
REMARK Flexibility Score: inf
ROOT
ATOM      1  C   UNL A   1      44.588  23.574  24.686  1.00  0.00     0.202 C 
ENDROOT
BRANCH   1   2
ATOM      2  O   UNL A   1      43.816  22.399  24.441  1.00  0.00    -0.374 OA
BRANCH   2   3
ATOM      3  C   UNL A   1      43.998  21.282  25.303  1.00  0.00     0.202 C 
BRANCH   3   4
ATOM      4  C   UNL A   1      42.746  20.523  25.752  1.00  0.00     0.261 C 
BRANCH   4   5
ATOM      5  O   UNL A   1      41.568  21.330  25.735  1.00  0.00    -0.457 OA
BRANCH   5   6
ATOM      6  C   UNL A   1      40.631  21.138  26.706  1.00  0.00     0.374 C 
ATOM      7  O   UNL A   1      40.792  20.551  27.778  1.00  0.00    -0.242 OA
BRANCH   6   8
ATOM      8  C   UNL A   1      39.383  21.826  26.294  1.00  0.00     0.219 A 
ATOM      9  C   UNL A   1      30.288  25.695  24.102  1.00  0.00     0.014 C 
ATOM     10  C   UNL A   1      31.792  25.565  23.753  1.00  0.00    -0.006 C 
ATOM     11  C   UNL A   1      32.522  26.680  24.695  1.00  0.00     0.120 C 
ATOM     12  C   UNL A   1      32.346  23.964  24.123  1.00  0.00     0.004 C 
ATOM     13  C   UNL A   1      31.967  26.040  22.286  1.00  0.00     0.014 C 
ATOM     14  C   UNL A   1      34.033  26.623  24.582  1.00  0.00     0.033 C 
ATOM     15  C   UNL A   1      33.569  24.168  25.040  1.00  0.00    -0.022 C 
ATOM     16  C   UNL A   1      32.676  22.802  23.118  1.00  0.00     0.009 C 
ATOM     17  C   UNL A   1      34.397  25.226  24.219  1.00  0.00     0.010 C 
ATOM     18  C   UNL A   1      34.584  23.075  25.375  1.00  0.00     0.044 C 
ATOM     19  C   UNL A   1      32.893  24.391  26.447  1.00  0.00     0.012 C 
ATOM     20  C   UNL A   1      33.623  21.630  23.726  1.00  0.00     0.049 C 
ATOM     21  C   UNL A   1      35.031  22.147  24.250  1.00  0.00     0.113 C 
ATOM     22  C   UNL A   1      35.692  23.730  26.198  1.00  0.00     0.055 C 
ATOM     23  O   UNL A   1      35.954  21.169  24.902  1.00  0.00    -0.458 OA
ATOM     24  C   UNL A   1      35.797  22.599  22.998  1.00  0.00     0.057 C 
ATOM     25  C   UNL A   1      36.961  23.038  26.055  1.00  0.00     0.081 A 
ATOM     26  C   UNL A   1      37.078  21.801  25.552  1.00  0.00     0.292 A 
ATOM     27  C   UNL A   1      38.118  23.834  26.489  1.00  0.00     0.192 A 
ATOM     28  O   UNL A   1      38.322  21.140  25.666  1.00  0.00    -0.418 OA
ATOM     29  C   UNL A   1      39.363  23.125  26.623  1.00  0.00     0.107 A 
ATOM     30  O   UNL A   1      38.053  25.029  26.751  1.00  0.00    -0.289 OA
BRANCH  11  31
ATOM     31  O   UNL A   1      32.124  28.030  24.475  1.00  0.00    -0.393 OA
ATOM     32  H   UNL A   1      32.764  28.628  24.892  1.00  0.00     0.210 HD
ENDBRANCH  11  31
ENDBRANCH   6   8
ENDBRANCH   5   6
ENDBRANCH   4   5
ENDBRANCH   3   4
ENDBRANCH   2   3
ENDBRANCH   1   2
BRANCH   1  33
ATOM     33  C   UNL A   1      43.851  24.875  25.020  1.00  0.00     0.261 C 
BRANCH  33  34
ATOM     34  O   UNL A   1      42.720  24.687  25.888  1.00  0.00    -0.460 OA
BRANCH  34  35
ATOM     35  C   UNL A   1      41.920  25.770  26.010  1.00  0.00     0.338 C 
ATOM     36  O   UNL A   1      41.146  26.222  25.167  1.00  0.00    -0.246 OA
BRANCH  35  37
ATOM     37  C   UNL A   1      41.997  26.321  27.366  1.00  0.00     0.060 A 
ATOM     38  C   UNL A   1      41.024  25.945  28.299  1.00  0.00     0.016 A 
ATOM     39  C   UNL A   1      42.920  27.328  27.659  1.00  0.00     0.016 A 
ATOM     40  C   UNL A   1      40.944  26.608  29.521  1.00  0.00     0.010 A 
ATOM     41  C   UNL A   1      42.830  27.999  28.881  1.00  0.00     0.010 A 
ATOM     42  C   UNL A   1      41.816  27.669  29.798  1.00  0.00    -0.014 A 
BRANCH  42  43
ATOM     43  C   UNL A   1      41.556  28.543  30.965  1.00  0.00     0.031 A 
ATOM     44  C   UNL A   1      40.433  29.539  30.887  1.00  0.00     0.074 A 
ATOM     45  C   UNL A   1      42.291  28.427  32.086  1.00  0.00     0.049 A 
ATOM     46  N   UNL A   1      40.043  30.419  31.771  1.00  0.00    -0.248 NA
ATOM     47  C   UNL A   1      39.640  29.542  29.645  1.00  0.00     0.031 C 
ATOM     48  C   UNL A   1      43.371  27.465  32.290  1.00  0.00     0.029 A 
ATOM     49  N   UNL A   1      42.237  29.131  33.262  1.00  0.00    -0.354 N 
ATOM     50  C   UNL A   1      38.958  31.074  31.201  1.00  0.00     0.074 A 
ATOM     51  C   UNL A   1      38.775  30.518  29.878  1.00  0.00     0.031 C 
ATOM     52  C   UNL A   1      43.885  27.643  33.520  1.00  0.00     0.029 A 
ATOM     53  C   UNL A   1      43.191  28.750  34.175  1.00  0.00     0.049 A 
ATOM     54  H   UNL A   1      41.578  29.841  33.435  1.00  0.00     0.167 HD
ATOM     55  C   UNL A   1      38.178  32.041  31.738  1.00  0.00     0.037 A 
ATOM     56  C   UNL A   1      43.479  29.252  35.392  1.00  0.00     0.037 A 
ATOM     57  C   UNL A   1      38.374  32.595  33.051  1.00  0.00     0.049 A 
ATOM     58  C   UNL A   1      42.658  30.395  35.930  1.00  0.00     0.074 A 
ATOM     59  C   UNL A   1      37.637  33.576  33.690  1.00  0.00     0.029 A 
ATOM     60  N   UNL A   1      39.386  32.224  33.925  1.00  0.00    -0.354 N 
ATOM     61  N   UNL A   1      41.625  30.996  35.386  1.00  0.00    -0.248 NA
ATOM     62  C   UNL A   1      43.043  30.933  37.243  1.00  0.00     0.031 C 
ATOM     63  C   UNL A   1      38.233  33.835  34.928  1.00  0.00     0.029 A 
ATOM     64  C   UNL A   1      39.310  32.977  35.085  1.00  0.00     0.049 A 
ATOM     65  H   UNL A   1      40.059  31.528  33.746  1.00  0.00     0.167 HD
ATOM     66  C   UNL A   1      41.224  31.967  36.300  1.00  0.00     0.074 A 
ATOM     67  C   UNL A   1      42.116  31.863  37.437  1.00  0.00     0.031 C 
ATOM     68  C   UNL A   1      40.209  32.862  36.208  1.00  0.00     0.037 A 
BRANCH  55  69
ATOM     69  C   UNL A   1      37.046  32.572  30.902  1.00  0.00     0.058 A 
ATOM     70  C   UNL A   1      37.260  33.538  29.906  1.00  0.00     0.135 A 
ATOM     71  C   UNL A   1      35.743  32.076  31.064  1.00  0.00     0.135 A 
ATOM     72  F   UNL A   1      38.483  34.060  29.721  1.00  0.00    -0.206 F 
ATOM     73  C   UNL A   1      36.219  34.004  29.110  1.00  0.00     0.059 A 
ATOM     74  C   UNL A   1      34.691  32.509  30.262  1.00  0.00     0.059 A 
ATOM     75  F   UNL A   1      35.483  31.155  32.005  1.00  0.00    -0.206 F 
ATOM     76  C   UNL A   1      34.937  33.480  29.293  1.00  0.00     0.060 A 
BRANCH  76  77
ATOM     77  S   UNL A   1      33.604  34.085  28.238  1.00  0.00     0.124 S 
ATOM     78  O   UNL A   1      32.731  34.734  29.213  1.00  0.00    -0.237 OA
ATOM     79  O   UNL A   1      34.310  34.979  27.327  1.00  0.00    -0.237 OA
ATOM     80  O   UNL A   1      33.069  32.869  27.633  1.00  0.00    -0.744 OA
ENDBRANCH  76  77
ENDBRANCH  55  69
BRANCH  56  81
ATOM     81  C   UNL A   1      44.594  28.672  36.187  1.00  0.00     0.058 A 
ATOM     82  C   UNL A   1      44.373  27.604  37.068  1.00  0.00     0.135 A 
ATOM     83  C   UNL A   1      45.904  29.163  36.070  1.00  0.00     0.135 A 
ATOM     84  F   UNL A   1      43.136  27.109  37.224  1.00  0.00    -0.206 F 
ATOM     85  C   UNL A   1      45.408  27.043  37.808  1.00  0.00     0.059 A 
ATOM     86  C   UNL A   1      46.961  28.603  36.781  1.00  0.00     0.059 A 
ATOM     87  F   UNL A   1      46.171  30.179  35.236  1.00  0.00    -0.206 F 
ATOM     88  C   UNL A   1      46.701  27.545  37.652  1.00  0.00     0.060 A 
BRANCH  88  89
ATOM     89  S   UNL A   1      48.046  26.768  38.574  1.00  0.00     0.124 S 
ATOM     90  O   UNL A   1      49.154  27.674  38.301  1.00  0.00    -0.237 OA
ATOM     91  O   UNL A   1      47.526  26.786  39.938  1.00  0.00    -0.237 OA
ATOM     92  O   UNL A   1      48.149  25.444  37.967  1.00  0.00    -0.744 OA
ENDBRANCH  88  89
ENDBRANCH  56  81
BRANCH  68  93
ATOM     93  C   UNL A   1      39.993  33.799  37.365  1.00  0.00     0.058 A 
ATOM     94  C   UNL A   1      40.649  35.036  37.438  1.00  0.00     0.135 A 
ATOM     95  C   UNL A   1      39.057  33.493  38.367  1.00  0.00     0.135 A 
ATOM     96  F   UNL A   1      41.557  35.376  36.510  1.00  0.00    -0.206 F 
ATOM     97  C   UNL A   1      40.395  35.934  38.471  1.00  0.00     0.059 A 
ATOM     98  C   UNL A   1      38.767  34.386  39.393  1.00  0.00     0.059 A 
ATOM     99  F   UNL A   1      38.393  32.325  38.338  1.00  0.00    -0.206 F 
ATOM    100  C   UNL A   1      39.446  35.602  39.440  1.00  0.00     0.060 A 
BRANCH 100 101
ATOM    101  S   UNL A   1      39.091  36.800  40.744  1.00  0.00     0.124 S 
ATOM    102  O   UNL A   1      40.435  37.197  41.152  1.00  0.00    -0.237 OA
ATOM    103  O   UNL A   1      38.319  37.814  40.032  1.00  0.00    -0.237 OA
ATOM    104  O   UNL A   1      38.342  36.023  41.727  1.00  0.00    -0.744 OA
ENDBRANCH 100 101
ENDBRANCH  68  93
ENDBRANCH  42  43
ENDBRANCH  35  37
ENDBRANCH  34  35
ENDBRANCH  33  34
ENDBRANCH   1  33
TORSDOF 18
ENDMDL
MODEL 3
REMARK VINA RESULT:     -12.1      5.929     12.024
REMARK SMILES CC1(C)[C@H](O)CC[C@@]2(C)[C@@H]1CC[C@]1(C)Oc3oc(C(=O)OCCOCCOC(=O)c4ccc(-c5c6nc(c(-c7c(F)cc(S(=O)(=O)[O-])cc7F)c7ccc([nH]7)c(-c7c(F)cc(S(=O)(=O)[O-])cc7F)c7nc(c(-c8c(F)cc(S(=O)(=O)[O-])cc8F)c8ccc5[nH]8)C=C7)C=C6)cc4)cc(=O)c3C[C@@H]21
REMARK SMILES IDX 25 1 24 2 23 3 22 4 21 5 19 6 20 7 18 8 1 9 2 10 4 11 10 12
REMARK SMILES IDX 3 13 6 14 8 15 11 16 7 17 101 18 9 19 12 20 13 21 100 22
REMARK SMILES IDX 15 23 14 24 99 25 16 26 97 27 17 28 96 29 98 30 5 31 26 33
REMARK SMILES IDX 27 34 28 35 29 36 30 37 31 38 95 39 32 40 94 41 33 42 34 43
REMARK SMILES IDX 35 44 88 45 36 46 93 47 87 48 89 49 37 50 92 51 86 52 85 53
REMARK SMILES IDX 38 55 72 56 51 57 71 58 52 59 55 60 70 61 90 62 53 63 54 64
REMARK SMILES IDX 69 66 91 67 56 68 39 69 40 70 49 71 41 72 42 73 48 74 50 75
REMARK SMILES IDX 43 76 44 77 45 78 46 79 47 80 73 81 74 82 83 83 75 84 76 85
REMARK SMILES IDX 82 86 84 87 77 88 78 89 79 90 80 91 81 92 57 93 58 94 67 95
REMARK SMILES IDX 59 96 60 97 66 98 68 99 61 100 62 101 63 102 64 103 65 104
REMARK H PARENT 5 32 89 54 55 65
REMARK Flexibility Score: inf
ROOT
ATOM      1  C   UNL A   1      36.196  33.644  33.730  1.00  0.00     0.202 C 
ENDROOT
BRANCH   1   2
ATOM      2  O   UNL A   1      35.777  34.308  32.538  1.00  0.00    -0.374 OA
BRANCH   2   3
ATOM      3  C   UNL A   1      34.548  33.910  31.944  1.00  0.00     0.202 C 
BRANCH   3   4
ATOM      4  C   UNL A   1      34.338  34.238  30.462  1.00  0.00     0.261 C 
BRANCH   4   5
ATOM      5  O   UNL A   1      34.005  33.092  29.678  1.00  0.00    -0.457 OA
BRANCH   5   6
ATOM      6  C   UNL A   1      34.309  33.100  28.349  1.00  0.00     0.374 C 
ATOM      7  O   UNL A   1      34.754  34.049  27.702  1.00  0.00    -0.242 OA
BRANCH   6   8
ATOM      8  C   UNL A   1      34.085  31.736  27.811  1.00  0.00     0.219 A 
ATOM      9  C   UNL A   1      32.293  22.951  23.108  1.00  0.00     0.014 C 
ATOM     10  C   UNL A   1      32.412  23.745  24.433  1.00  0.00    -0.006 C 
ATOM     11  C   UNL A   1      34.011  23.743  24.762  1.00  0.00     0.120 C 
ATOM     12  C   UNL A   1      31.814  25.357  24.211  1.00  0.00     0.004 C 
ATOM     13  C   UNL A   1      31.731  22.897  25.540  1.00  0.00     0.014 C 
ATOM     14  C   UNL A   1      34.346  24.585  25.977  1.00  0.00     0.033 C 
ATOM     15  C   UNL A   1      32.959  26.275  24.684  1.00  0.00    -0.022 C 
ATOM     16  C   UNL A   1      30.457  25.961  24.724  1.00  0.00     0.009 C 
ATOM     17  C   UNL A   1      33.303  25.642  26.084  1.00  0.00     0.010 C 
ATOM     18  C   UNL A   1      32.799  27.767  24.977  1.00  0.00     0.044 C 
ATOM     19  C   UNL A   1      33.896  26.316  23.416  1.00  0.00     0.012 C 
ATOM     20  C   UNL A   1      30.420  27.585  24.785  1.00  0.00     0.049 C 
ATOM     21  C   UNL A   1      31.543  28.220  25.713  1.00  0.00     0.113 C 
ATOM     22  C   UNL A   1      34.133  28.258  25.538  1.00  0.00     0.055 C 
ATOM     23  O   UNL A   1      31.654  29.709  25.783  1.00  0.00    -0.458 OA
ATOM     24  C   UNL A   1      31.175  27.809  27.146  1.00  0.00     0.057 C 
ATOM     25  C   UNL A   1      33.967  29.408  26.410  1.00  0.00     0.081 A 
ATOM     26  C   UNL A   1      32.854  30.154  26.451  1.00  0.00     0.292 A 
ATOM     27  C   UNL A   1      35.130  29.665  27.273  1.00  0.00     0.192 A 
ATOM     28  O   UNL A   1      32.883  31.374  27.165  1.00  0.00    -0.418 OA
ATOM     29  C   UNL A   1      35.143  30.928  27.962  1.00  0.00     0.107 A 
ATOM     30  O   UNL A   1      36.061  28.879  27.399  1.00  0.00    -0.289 OA
BRANCH  11  31
ATOM     31  O   UNL A   1      34.601  22.460  24.950  1.00  0.00    -0.393 OA
ATOM     32  H   UNL A   1      34.035  21.926  25.530  1.00  0.00     0.210 HD
ENDBRANCH  11  31
ENDBRANCH   6   8
ENDBRANCH   5   6
ENDBRANCH   4   5
ENDBRANCH   3   4
ENDBRANCH   2   3
ENDBRANCH   1   2
BRANCH   1  33
ATOM     33  C   UNL A   1      37.128  32.435  33.602  1.00  0.00     0.261 C 
BRANCH  33  34
ATOM     34  O   UNL A   1      37.728  32.307  32.301  1.00  0.00    -0.460 OA
BRANCH  34  35
ATOM     35  C   UNL A   1      37.252  31.282  31.561  1.00  0.00     0.338 C 
ATOM     36  O   UNL A   1      36.073  31.013  31.335  1.00  0.00    -0.246 OA
BRANCH  35  37
ATOM     37  C   UNL A   1      38.350  30.541  30.935  1.00  0.00     0.060 A 
ATOM     38  C   UNL A   1      39.356  30.014  31.753  1.00  0.00     0.016 A 
ATOM     39  C   UNL A   1      38.473  30.518  29.543  1.00  0.00     0.016 A 
ATOM     40  C   UNL A   1      40.515  29.496  31.180  1.00  0.00     0.010 A 
ATOM     41  C   UNL A   1      39.641  30.007  28.972  1.00  0.00     0.010 A 
ATOM     42  C   UNL A   1      40.682  29.532  29.790  1.00  0.00    -0.014 A 
BRANCH  42  43
ATOM     43  C   UNL A   1      42.011  29.238  29.206  1.00  0.00     0.031 A 
ATOM     44  C   UNL A   1      42.291  27.847  28.707  1.00  0.00     0.074 A 
ATOM     45  C   UNL A   1      42.940  30.204  29.095  1.00  0.00     0.049 A 
ATOM     46  N   UNL A   1      43.385  27.359  28.186  1.00  0.00    -0.248 NA
ATOM     47  C   UNL A   1      41.186  26.877  28.806  1.00  0.00     0.031 C 
ATOM     48  C   UNL A   1      42.762  31.596  29.500  1.00  0.00     0.029 A 
ATOM     49  N   UNL A   1      44.222  30.154  28.610  1.00  0.00    -0.354 N 
ATOM     50  C   UNL A   1      43.102  26.031  27.889  1.00  0.00     0.074 A 
ATOM     51  C   UNL A   1      41.746  25.778  28.323  1.00  0.00     0.031 C 
ATOM     52  C   UNL A   1      43.898  32.271  29.252  1.00  0.00     0.029 A 
ATOM     53  C   UNL A   1      44.891  31.351  28.700  1.00  0.00     0.049 A 
ATOM     54  H   UNL A   1      44.624  29.339  28.232  1.00  0.00     0.167 HD
ATOM     55  C   UNL A   1      43.898  25.112  27.294  1.00  0.00     0.037 A 
ATOM     56  C   UNL A   1      46.166  31.661  28.388  1.00  0.00     0.037 A 
ATOM     57  C   UNL A   1      45.250  25.369  26.875  1.00  0.00     0.049 A 
ATOM     58  C   UNL A   1      47.064  30.594  27.818  1.00  0.00     0.074 A 
ATOM     59  C   UNL A   1      46.139  24.506  26.260  1.00  0.00     0.029 A 
ATOM     60  N   UNL A   1      45.913  26.577  27.035  1.00  0.00    -0.354 N 
ATOM     61  N   UNL A   1      46.780  29.345  27.528  1.00  0.00    -0.248 NA
ATOM     62  C   UNL A   1      48.456  30.974  27.538  1.00  0.00     0.031 C 
ATOM     63  C   UNL A   1      47.356  25.175  26.095  1.00  0.00     0.029 A 
ATOM     64  C   UNL A   1      47.209  26.474  26.557  1.00  0.00     0.049 A 
ATOM     65  H   UNL A   1      45.520  27.389  27.430  1.00  0.00     0.167 HD
ATOM     66  C   UNL A   1      47.951  28.798  27.010  1.00  0.00     0.074 A 
ATOM     67  C   UNL A   1      48.941  29.855  27.014  1.00  0.00     0.031 C 
ATOM     68  C   UNL A   1      48.185  27.536  26.571  1.00  0.00     0.037 A 
BRANCH  55  69
ATOM     69  C   UNL A   1      43.333  23.736  27.072  1.00  0.00     0.058 A 
ATOM     70  C   UNL A   1      42.820  23.346  25.824  1.00  0.00     0.135 A 
ATOM     71  C   UNL A   1      43.346  22.781  28.101  1.00  0.00     0.135 A 
ATOM     72  F   UNL A   1      42.766  24.224  24.810  1.00  0.00    -0.206 F 
ATOM     73  C   UNL A   1      42.328  22.062  25.609  1.00  0.00     0.059 A 
ATOM     74  C   UNL A   1      42.882  21.485  27.902  1.00  0.00     0.059 A 
ATOM     75  F   UNL A   1      43.819  23.104  29.315  1.00  0.00    -0.206 F 
ATOM     76  C   UNL A   1      42.367  21.137  26.655  1.00  0.00     0.060 A 
BRANCH  76  77
ATOM     77  S   UNL A   1      41.740  19.472  26.350  1.00  0.00     0.124 S 
ATOM     78  O   UNL A   1      42.142  18.781  27.572  1.00  0.00    -0.237 OA
ATOM     79  O   UNL A   1      40.307  19.704  26.195  1.00  0.00    -0.237 OA
ATOM     80  O   UNL A   1      42.441  19.060  25.138  1.00  0.00    -0.744 OA
ENDBRANCH  76  77
ENDBRANCH  55  69
BRANCH  56  81
ATOM     81  C   UNL A   1      46.666  33.044  28.606  1.00  0.00     0.058 A 
ATOM     82  C   UNL A   1      47.282  33.407  29.812  1.00  0.00     0.135 A 
ATOM     83  C   UNL A   1      46.556  34.024  27.607  1.00  0.00     0.135 A 
ATOM     84  F   UNL A   1      47.399  32.508  30.801  1.00  0.00    -0.206 F 
ATOM     85  C   UNL A   1      47.766  34.693  30.025  1.00  0.00     0.059 A 
ATOM     86  C   UNL A   1      47.054  35.311  27.787  1.00  0.00     0.059 A 
ATOM     87  F   UNL A   1      45.981  33.727  26.432  1.00  0.00    -0.206 F 
ATOM     88  C   UNL A   1      47.654  35.637  29.003  1.00  0.00     0.060 A 
BRANCH  88  89
ATOM     89  S   UNL A   1      48.342  37.285  29.271  1.00  0.00     0.124 S 
ATOM     90  O   UNL A   1      49.122  37.481  28.055  1.00  0.00    -0.237 OA
ATOM     91  O   UNL A   1      47.136  38.099  29.397  1.00  0.00    -0.237 OA
ATOM     92  O   UNL A   1      49.117  37.131  30.499  1.00  0.00    -0.744 OA
ENDBRANCH  88  89
ENDBRANCH  56  81
BRANCH  68  93
ATOM     93  C   UNL A   1      49.559  27.220  26.046  1.00  0.00     0.058 A 
ATOM     94  C   UNL A   1      50.583  26.775  26.895  1.00  0.00     0.135 A 
ATOM     95  C   UNL A   1      49.829  27.282  24.669  1.00  0.00     0.135 A 
ATOM     96  F   UNL A   1      50.379  26.704  28.220  1.00  0.00    -0.206 F 
ATOM     97  C   UNL A   1      51.832  26.414  26.399  1.00  0.00     0.059 A 
ATOM     98  C   UNL A   1      51.061  26.899  24.148  1.00  0.00     0.059 A 
ATOM     99  F   UNL A   1      48.880  27.691  23.811  1.00  0.00    -0.206 F 
ATOM    100  C   UNL A   1      52.059  26.472  25.022  1.00  0.00     0.060 A 
BRANCH 100 101
ATOM    101  S   UNL A   1      53.668  25.951  24.392  1.00  0.00     0.124 S 
ATOM    102  O   UNL A   1      53.665  24.528  24.717  1.00  0.00    -0.237 OA
ATOM    103  O   UNL A   1      53.567  26.277  22.973  1.00  0.00    -0.237 OA
ATOM    104  O   UNL A   1      54.613  26.764  25.152  1.00  0.00    -0.744 OA
ENDBRANCH 100 101
ENDBRANCH  68  93
ENDBRANCH  42  43
ENDBRANCH  35  37
ENDBRANCH  34  35
ENDBRANCH  33  34
ENDBRANCH   1  33
TORSDOF 18
ENDMDL
