MODEL 1
REMARK VINA RESULT:     -10.7      0.000      0.000
REMARK SMILES COc1cc(/C=C2/N=C(c3ccccc3)OC2=O)ccc1OCC(=O)OCCOCCOC(=O)c1ccc(-c2c3nc(c(-c4c(F)cc(S(=O)(=O)[O-])cc4F)c4ccc([nH]4)c(-c4c(F)cc(S(=O)(=O)[O-])cc4F)c4nc(c(-c5c(F)cc(S(=O)(=O)[O-])cc5F)c5ccc2[nH]5)C=C4)C=C3)cc1
REMARK SMILES IDX 28 1 27 2 26 3 24 4 25 5 23 6 22 7 21 8 3 9 4 10 5 11 20 12
REMARK SMILES IDX 19 13 2 14 1 15 6 16 7 17 8 18 17 19 9 20 16 21 18 22 10 23
REMARK SMILES IDX 11 24 15 25 12 26 14 27 13 28 29 29 30 30 31 31 32 32 33 33
REMARK SMILES IDX 34 34 35 35 36 36 100 37 37 38 99 39 38 40 39 41 40 42 93 43
REMARK SMILES IDX 41 44 98 45 92 46 94 47 42 48 97 49 91 50 90 51 43 53 77 54
REMARK SMILES IDX 56 55 76 56 57 57 60 58 75 59 95 60 58 61 59 62 74 64 96 65
REMARK SMILES IDX 61 66 44 67 45 68 54 69 46 70 47 71 53 72 55 73 48 74 49 75
REMARK SMILES IDX 50 76 51 77 52 78 78 79 79 80 88 81 80 82 81 83 87 84 89 85
REMARK SMILES IDX 82 86 83 87 84 88 85 89 86 90 62 91 63 92 72 93 64 94 65 95
REMARK SMILES IDX 71 96 73 97 66 98 67 99 68 100 69 101 70 102
REMARK H PARENT 94 52 60 63
REMARK Flexibility Score: inf
ROOT
ATOM      1  C   UNL A   1      34.248  33.681  28.965  1.00  0.00     0.202 C 
ENDROOT
BRANCH   1   2
ATOM      2  C   UNL A   1      33.652  32.644  28.004  1.00  0.00     0.261 C 
BRANCH   2   3
ATOM      3  O   UNL A   1      34.646  31.718  27.510  1.00  0.00    -0.461 OA
BRANCH   3   4
ATOM      4  C   UNL A   1      34.230  30.433  27.340  1.00  0.00     0.344 C 
ATOM      5  O   UNL A   1      34.956  29.449  27.449  1.00  0.00    -0.248 OA
BRANCH   4   6
ATOM      6  C   UNL A   1      32.750  30.311  26.955  1.00  0.00     0.352 C 
BRANCH   6   7
ATOM      7  O   UNL A   1      32.346  29.966  25.652  1.00  0.00    -0.478 OA
BRANCH   7   8
ATOM      8  C   UNL A   1      31.915  28.723  25.298  1.00  0.00     0.162 A 
ATOM      9  C   UNL A   1      31.425  28.230  24.081  1.00  0.00     0.161 A 
ATOM     10  C   UNL A   1      31.127  26.852  23.957  1.00  0.00     0.058 A 
ATOM     11  C   UNL A   1      31.259  25.980  25.054  1.00  0.00    -0.019 A 
ATOM     12  C   UNL A   1      31.987  27.847  26.394  1.00  0.00     0.051 A 
ATOM     13  C   UNL A   1      31.654  26.499  26.285  1.00  0.00     0.012 A 
BRANCH   9  14
ATOM     14  O   UNL A   1      30.977  29.062  23.089  1.00  0.00    -0.493 OA
ATOM     15  C   UNL A   1      29.590  29.384  23.113  1.00  0.00     0.278 C 
ENDBRANCH   9  14
BRANCH  11  16
ATOM     16  C   UNL A   1      31.003  24.538  24.957  1.00  0.00     0.044 C 
ATOM     17  C   UNL A   1      31.896  23.611  24.585  1.00  0.00     0.153 C 
ATOM     18  N   UNL A   1      31.627  22.263  24.506  1.00  0.00    -0.205 NA
ATOM     19  C   UNL A   1      33.339  23.870  24.284  1.00  0.00     0.363 C 
ATOM     20  C   UNL A   1      32.799  21.764  24.287  1.00  0.00     0.231 C 
ATOM     21  O   UNL A   1      33.842  22.611  24.140  1.00  0.00    -0.402 OA
ATOM     22  O   UNL A   1      33.957  24.904  24.204  1.00  0.00    -0.244 OA
BRANCH  20  23
ATOM     23  C   UNL A   1      33.188  20.360  24.183  1.00  0.00     0.037 A 
ATOM     24  C   UNL A   1      32.340  19.423  23.592  1.00  0.00     0.014 A 
ATOM     25  C   UNL A   1      34.428  19.971  24.705  1.00  0.00     0.014 A 
ATOM     26  C   UNL A   1      32.750  18.089  23.506  1.00  0.00     0.001 A 
ATOM     27  C   UNL A   1      34.823  18.636  24.633  1.00  0.00     0.001 A 
ATOM     28  C   UNL A   1      33.987  17.698  24.028  1.00  0.00     0.000 A 
ENDBRANCH  20  23
ENDBRANCH  11  16
ENDBRANCH   7   8
ENDBRANCH   6   7
ENDBRANCH   4   6
ENDBRANCH   3   4
ENDBRANCH   2   3
ENDBRANCH   1   2
BRANCH   1  29
ATOM     29  O   UNL A   1      34.346  33.292  30.337  1.00  0.00    -0.374 OA
BRANCH  29  30
ATOM     30  C   UNL A   1      35.562  33.634  30.999  1.00  0.00     0.202 C 
BRANCH  30  31
ATOM     31  C   UNL A   1      36.003  32.732  32.147  1.00  0.00     0.261 C 
BRANCH  31  32
ATOM     32  O   UNL A   1      37.262  32.117  31.876  1.00  0.00    -0.460 OA
BRANCH  32  33
ATOM     33  C   UNL A   1      37.204  30.771  31.777  1.00  0.00     0.338 C 
ATOM     34  O   UNL A   1      36.280  30.036  32.074  1.00  0.00    -0.246 OA
BRANCH  33  35
ATOM     35  C   UNL A   1      38.385  30.328  31.030  1.00  0.00     0.060 A 
ATOM     36  C   UNL A   1      39.358  29.623  31.747  1.00  0.00     0.016 A 
ATOM     37  C   UNL A   1      38.526  30.589  29.666  1.00  0.00     0.016 A 
ATOM     38  C   UNL A   1      40.512  29.208  31.104  1.00  0.00     0.010 A 
ATOM     39  C   UNL A   1      39.690  30.180  29.023  1.00  0.00     0.010 A 
ATOM     40  C   UNL A   1      40.694  29.519  29.752  1.00  0.00    -0.014 A 
BRANCH  40  41
ATOM     41  C   UNL A   1      42.004  29.263  29.129  1.00  0.00     0.031 A 
ATOM     42  C   UNL A   1      42.280  27.894  28.587  1.00  0.00     0.074 A 
ATOM     43  C   UNL A   1      42.907  30.253  29.055  1.00  0.00     0.049 A 
ATOM     44  N   UNL A   1      43.370  27.426  28.043  1.00  0.00    -0.248 NA
ATOM     45  C   UNL A   1      41.181  26.917  28.678  1.00  0.00     0.031 C 
ATOM     46  C   UNL A   1      42.698  31.617  29.542  1.00  0.00     0.029 A 
ATOM     47  N   UNL A   1      44.182  30.260  28.560  1.00  0.00    -0.354 N 
ATOM     48  C   UNL A   1      43.097  26.097  27.744  1.00  0.00     0.074 A 
ATOM     49  C   UNL A   1      41.748  25.826  28.187  1.00  0.00     0.031 C 
ATOM     50  C   UNL A   1      43.822  32.325  29.345  1.00  0.00     0.029 A 
ATOM     51  C   UNL A   1      44.834  31.453  28.754  1.00  0.00     0.049 A 
ATOM     52  H   UNL A   1      44.592  29.488  28.109  1.00  0.00     0.167 HD
ATOM     53  C   UNL A   1      43.910  25.193  27.151  1.00  0.00     0.037 A 
ATOM     54  C   UNL A   1      46.117  31.782  28.519  1.00  0.00     0.037 A 
ATOM     55  C   UNL A   1      45.251  25.499  26.730  1.00  0.00     0.049 A 
ATOM     56  C   UNL A   1      47.019  30.748  27.905  1.00  0.00     0.074 A 
ATOM     57  C   UNL A   1      46.155  24.688  26.073  1.00  0.00     0.029 A 
ATOM     58  N   UNL A   1      45.889  26.715  26.950  1.00  0.00    -0.354 N 
ATOM     59  N   UNL A   1      46.737  29.512  27.562  1.00  0.00    -0.248 NA
ATOM     60  C   UNL A   1      48.407  31.145  27.643  1.00  0.00     0.031 C 
ATOM     61  C   UNL A   1      47.362  25.388  25.959  1.00  0.00     0.029 A 
ATOM     62  C   UNL A   1      47.191  26.660  26.487  1.00  0.00     0.049 A 
ATOM     63  H   UNL A   1      45.473  27.502  27.373  1.00  0.00     0.167 HD
ATOM     64  C   UNL A   1      47.911  28.981  27.041  1.00  0.00     0.074 A 
ATOM     65  C   UNL A   1      48.899  30.043  27.090  1.00  0.00     0.031 C 
ATOM     66  C   UNL A   1      48.155  27.733  26.569  1.00  0.00     0.037 A 
BRANCH  53  67
ATOM     67  C   UNL A   1      43.389  23.792  26.979  1.00  0.00     0.058 A 
ATOM     68  C   UNL A   1      43.475  22.828  27.997  1.00  0.00     0.135 A 
ATOM     69  C   UNL A   1      42.789  23.405  25.768  1.00  0.00     0.135 A 
ATOM     70  F   UNL A   1      44.055  23.133  29.170  1.00  0.00    -0.206 F 
ATOM     71  C   UNL A   1      43.019  21.527  27.811  1.00  0.00     0.059 A 
ATOM     72  C   UNL A   1      42.298  22.119  25.570  1.00  0.00     0.059 A 
ATOM     73  F   UNL A   1      42.685  24.282  24.756  1.00  0.00    -0.206 F 
ATOM     74  C   UNL A   1      42.433  21.181  26.591  1.00  0.00     0.060 A 
BRANCH  74  75
ATOM     75  S   UNL A   1      41.855  19.486  26.361  1.00  0.00     0.124 S 
ATOM     76  O   UNL A   1      40.426  19.692  26.143  1.00  0.00    -0.237 OA
ATOM     77  O   UNL A   1      42.618  19.054  25.195  1.00  0.00    -0.237 OA
ATOM     78  O   UNL A   1      42.208  18.832  27.617  1.00  0.00    -0.744 OA
ENDBRANCH  74  75
ENDBRANCH  53  67
BRANCH  54  79
ATOM     79  C   UNL A   1      46.605  33.133  28.901  1.00  0.00     0.058 A 
ATOM     80  C   UNL A   1      46.543  34.212  28.009  1.00  0.00     0.135 A 
ATOM     81  C   UNL A   1      47.081  33.385  30.199  1.00  0.00     0.135 A 
ATOM     82  F   UNL A   1      46.103  34.021  26.756  1.00  0.00    -0.206 F 
ATOM     83  C   UNL A   1      46.928  35.494  28.391  1.00  0.00     0.059 A 
ATOM     84  C   UNL A   1      47.446  34.661  30.612  1.00  0.00     0.059 A 
ATOM     85  F   UNL A   1      47.147  32.387  31.096  1.00  0.00    -0.206 F 
ATOM     86  C   UNL A   1      47.366  35.710  29.699  1.00  0.00     0.060 A 
BRANCH  86  87
ATOM     87  S   UNL A   1      47.776  37.394  30.207  1.00  0.00     0.124 S 
ATOM     88  O   UNL A   1      49.215  37.296  30.419  1.00  0.00    -0.237 OA
ATOM     89  O   UNL A   1      47.352  38.172  29.047  1.00  0.00    -0.237 OA
ATOM     90  O   UNL A   1      46.972  37.588  31.410  1.00  0.00    -0.744 OA
ENDBRANCH  86  87
ENDBRANCH  54  79
BRANCH  66  91
ATOM     91  C   UNL A   1      49.546  27.445  26.078  1.00  0.00     0.058 A 
ATOM     92  C   UNL A   1      50.575  27.089  26.965  1.00  0.00     0.135 A 
ATOM     93  C   UNL A   1      49.833  27.449  24.705  1.00  0.00     0.135 A 
ATOM     94  F   UNL A   1      50.353  27.079  28.289  1.00  0.00    -0.206 F 
ATOM     95  C   UNL A   1      51.845  26.761  26.506  1.00  0.00     0.059 A 
ATOM     96  C   UNL A   1      51.088  27.094  24.221  1.00  0.00     0.059 A 
ATOM     97  F   UNL A   1      48.881  27.774  23.815  1.00  0.00    -0.206 F 
ATOM     98  C   UNL A   1      52.088  26.758  25.131  1.00  0.00     0.060 A 
BRANCH  98  99
ATOM     99  S   UNL A   1      53.728  26.277  24.549  1.00  0.00     0.124 S 
ATOM    100  O   UNL A   1      53.528  24.865  24.240  1.00  0.00    -0.237 OA
ATOM    101  O   UNL A   1      53.918  27.157  23.400  1.00  0.00    -0.237 OA
ATOM    102  O   UNL A   1      54.590  26.552  25.693  1.00  0.00    -0.744 OA
ENDBRANCH  98  99
ENDBRANCH  66  91
ENDBRANCH  40  41
ENDBRANCH  33  35
ENDBRANCH  32  33
ENDBRANCH  31  32
ENDBRANCH  30  31
ENDBRANCH  29  30
ENDBRANCH   1  29
TORSDOF 22
ENDMDL
MODEL 2
REMARK VINA RESULT:      -9.4      7.928     14.579
REMARK SMILES COc1cc(/C=C2/N=C(c3ccccc3)OC2=O)ccc1OCC(=O)OCCOCCOC(=O)c1ccc(-c2c3nc(c(-c4c(F)cc(S(=O)(=O)[O-])cc4F)c4ccc([nH]4)c(-c4c(F)cc(S(=O)(=O)[O-])cc4F)c4nc(c(-c5c(F)cc(S(=O)(=O)[O-])cc5F)c5ccc2[nH]5)C=C4)C=C3)cc1
REMARK SMILES IDX 28 1 27 2 26 3 24 4 25 5 23 6 22 7 21 8 3 9 4 10 5 11 20 12
REMARK SMILES IDX 19 13 2 14 1 15 6 16 7 17 8 18 17 19 9 20 16 21 18 22 10 23
REMARK SMILES IDX 11 24 15 25 12 26 14 27 13 28 29 29 30 30 31 31 32 32 33 33
REMARK SMILES IDX 34 34 35 35 36 36 100 37 37 38 99 39 38 40 39 41 40 42 93 43
REMARK SMILES IDX 41 44 98 45 92 46 94 47 42 48 97 49 91 50 90 51 43 53 77 54
REMARK SMILES IDX 56 55 76 56 57 57 60 58 75 59 95 60 58 61 59 62 74 64 96 65
REMARK SMILES IDX 61 66 44 67 45 68 54 69 46 70 47 71 53 72 55 73 48 74 49 75
REMARK SMILES IDX 50 76 51 77 52 78 78 79 79 80 88 81 80 82 81 83 87 84 89 85
REMARK SMILES IDX 82 86 83 87 84 88 85 89 86 90 62 91 63 92 72 93 64 94 65 95
REMARK SMILES IDX 71 96 73 97 66 98 67 99 68 100 69 101 70 102
REMARK H PARENT 94 52 60 63
REMARK Flexibility Score: inf
ROOT
ATOM      1  C   UNL A   1      53.074  24.763  36.184  1.00  0.00     0.202 C 
ENDROOT
BRANCH   1   2
ATOM      2  C   UNL A   1      53.591  24.376  34.791  1.00  0.00     0.261 C 
BRANCH   2   3
ATOM      3  O   UNL A   1      52.805  23.325  34.186  1.00  0.00    -0.461 OA
BRANCH   3   4
ATOM      4  C   UNL A   1      51.651  23.718  33.581  1.00  0.00     0.344 C 
ATOM      5  O   UNL A   1      51.527  24.751  32.928  1.00  0.00    -0.248 OA
BRANCH   4   6
ATOM      6  C   UNL A   1      50.475  22.761  33.815  1.00  0.00     0.352 C 
BRANCH   6   7
ATOM      7  O   UNL A   1      49.181  23.229  34.109  1.00  0.00    -0.478 OA
BRANCH   7   8
ATOM      8  C   UNL A   1      48.190  22.445  34.618  1.00  0.00     0.162 A 
ATOM      9  C   UNL A   1      46.906  22.766  35.078  1.00  0.00     0.161 A 
ATOM     10  C   UNL A   1      46.030  21.731  35.480  1.00  0.00     0.058 A 
ATOM     11  C   UNL A   1      46.449  20.386  35.480  1.00  0.00    -0.019 A 
ATOM     12  C   UNL A   1      48.607  21.105  34.680  1.00  0.00     0.051 A 
ATOM     13  C   UNL A   1      47.760  20.088  35.114  1.00  0.00     0.012 A 
BRANCH   9  14
ATOM     14  O   UNL A   1      46.551  24.050  35.401  1.00  0.00    -0.493 OA
ATOM     15  C   UNL A   1      45.214  24.434  35.093  1.00  0.00     0.278 C 
ENDBRANCH   9  14
BRANCH  11  16
ATOM     16  C   UNL A   1      45.560  19.278  35.847  1.00  0.00     0.044 C 
ATOM     17  C   UNL A   1      45.488  18.703  37.054  1.00  0.00     0.153 C 
ATOM     18  N   UNL A   1      44.640  17.665  37.370  1.00  0.00    -0.205 NA
ATOM     19  C   UNL A   1      46.242  19.144  38.270  1.00  0.00     0.363 C 
ATOM     20  C   UNL A   1      44.792  17.568  38.650  1.00  0.00     0.231 C 
ATOM     21  O   UNL A   1      45.695  18.373  39.253  1.00  0.00    -0.402 OA
ATOM     22  O   UNL A   1      47.102  19.979  38.407  1.00  0.00    -0.244 OA
BRANCH  20  23
ATOM     23  C   UNL A   1      44.096  16.692  39.588  1.00  0.00     0.037 A 
ATOM     24  C   UNL A   1      44.278  16.827  40.965  1.00  0.00     0.014 A 
ATOM     25  C   UNL A   1      43.253  15.699  39.075  1.00  0.00     0.014 A 
ATOM     26  C   UNL A   1      43.591  15.973  41.832  1.00  0.00     0.001 A 
ATOM     27  C   UNL A   1      42.584  14.839  39.944  1.00  0.00     0.001 A 
ATOM     28  C   UNL A   1      42.749  14.980  41.322  1.00  0.00     0.000 A 
ENDBRANCH  20  23
ENDBRANCH  11  16
ENDBRANCH   7   8
ENDBRANCH   6   7
ENDBRANCH   4   6
ENDBRANCH   3   4
ENDBRANCH   2   3
ENDBRANCH   1   2
BRANCH   1  29
ATOM     29  O   UNL A   1      52.330  25.980  36.268  1.00  0.00    -0.374 OA
BRANCH  29  30
ATOM     30  C   UNL A   1      50.997  25.866  36.762  1.00  0.00     0.202 C 
BRANCH  30  31
ATOM     31  C   UNL A   1      50.349  27.135  37.309  1.00  0.00     0.261 C 
BRANCH  31  32
ATOM     32  O   UNL A   1      49.030  27.312  36.795  1.00  0.00    -0.460 OA
BRANCH  32  33
ATOM     33  C   UNL A   1      48.245  28.100  37.561  1.00  0.00     0.338 C 
ATOM     34  O   UNL A   1      48.523  28.633  38.620  1.00  0.00    -0.246 OA
BRANCH  33  35
ATOM     35  C   UNL A   1      47.034  28.403  36.793  1.00  0.00     0.060 A 
ATOM     36  C   UNL A   1      47.110  29.466  35.886  1.00  0.00     0.016 A 
ATOM     37  C   UNL A   1      45.863  27.658  36.952  1.00  0.00     0.016 A 
ATOM     38  C   UNL A   1      45.987  29.821  35.157  1.00  0.00     0.010 A 
ATOM     39  C   UNL A   1      44.734  28.023  36.226  1.00  0.00     0.010 A 
ATOM     40  C   UNL A   1      44.790  29.123  35.354  1.00  0.00    -0.014 A 
BRANCH  40  41
ATOM     41  C   UNL A   1      43.555  29.635  34.737  1.00  0.00     0.031 A 
ATOM     42  C   UNL A   1      43.169  29.122  33.384  1.00  0.00     0.074 A 
ATOM     43  C   UNL A   1      42.807  30.532  35.399  1.00  0.00     0.049 A 
ATOM     44  N   UNL A   1      42.159  29.461  32.631  1.00  0.00    -0.248 NA
ATOM     45  C   UNL A   1      44.046  28.096  32.795  1.00  0.00     0.031 C 
ATOM     46  C   UNL A   1      43.110  31.058  36.730  1.00  0.00     0.029 A 
ATOM     47  N   UNL A   1      41.652  31.169  35.035  1.00  0.00    -0.354 N 
ATOM     48  C   UNL A   1      42.287  28.704  31.472  1.00  0.00     0.074 A 
ATOM     49  C   UNL A   1      43.483  27.906  31.611  1.00  0.00     0.031 C 
ATOM     50  C   UNL A   1      42.175  31.963  37.062  1.00  0.00     0.029 A 
ATOM     51  C   UNL A   1      41.235  32.102  35.952  1.00  0.00     0.049 A 
ATOM     52  H   UNL A   1      41.168  30.978  34.200  1.00  0.00     0.167 HD
ATOM     53  C   UNL A   1      41.469  28.686  30.394  1.00  0.00     0.037 A 
ATOM     54  C   UNL A   1      40.231  32.995  35.878  1.00  0.00     0.037 A 
ATOM     55  C   UNL A   1      40.288  29.502  30.290  1.00  0.00     0.049 A 
ATOM     56  C   UNL A   1      39.363  32.994  34.650  1.00  0.00     0.074 A 
ATOM     57  C   UNL A   1      39.352  29.538  29.275  1.00  0.00     0.029 A 
ATOM     58  N   UNL A   1      39.896  30.447  31.232  1.00  0.00    -0.354 N 
ATOM     59  N   UNL A   1      39.449  32.230  33.585  1.00  0.00    -0.248 NA
ATOM     60  C   UNL A   1      38.267  33.967  34.608  1.00  0.00     0.031 C 
ATOM     61  C   UNL A   1      38.434  30.553  29.569  1.00  0.00     0.029 A 
ATOM     62  C   UNL A   1      38.761  31.107  30.799  1.00  0.00     0.049 A 
ATOM     63  H   UNL A   1      40.360  30.621  32.084  1.00  0.00     0.167 HD
ATOM     64  C   UNL A   1      38.416  32.627  32.745  1.00  0.00     0.074 A 
ATOM     65  C   UNL A   1      37.703  33.682  33.441  1.00  0.00     0.031 C 
ATOM     66  C   UNL A   1      38.086  32.167  31.511  1.00  0.00     0.037 A 
BRANCH  53  67
ATOM     67  C   UNL A   1      41.857  27.806  29.238  1.00  0.00     0.058 A 
ATOM     68  C   UNL A   1      41.145  26.641  28.909  1.00  0.00     0.135 A 
ATOM     69  C   UNL A   1      42.965  28.136  28.440  1.00  0.00     0.135 A 
ATOM     70  F   UNL A   1      40.088  26.263  29.647  1.00  0.00    -0.206 F 
ATOM     71  C   UNL A   1      41.536  25.818  27.857  1.00  0.00     0.059 A 
ATOM     72  C   UNL A   1      43.356  27.346  27.364  1.00  0.00     0.059 A 
ATOM     73  F   UNL A   1      43.689  29.234  28.710  1.00  0.00    -0.206 F 
ATOM     74  C   UNL A   1      42.645  26.180  27.090  1.00  0.00     0.060 A 
BRANCH  74  75
ATOM     75  S   UNL A   1      43.146  25.098  25.734  1.00  0.00     0.124 S 
ATOM     76  O   UNL A   1      42.765  23.786  26.251  1.00  0.00    -0.237 OA
ATOM     77  O   UNL A   1      42.343  25.599  24.624  1.00  0.00    -0.237 OA
ATOM     78  O   UNL A   1      44.582  25.333  25.622  1.00  0.00    -0.744 OA
ENDBRANCH  74  75
ENDBRANCH  53  67
BRANCH  54  79
ATOM     79  C   UNL A   1      40.037  33.968  36.985  1.00  0.00     0.058 A 
ATOM     80  C   UNL A   1      40.658  35.224  36.971  1.00  0.00     0.135 A 
ATOM     81  C   UNL A   1      39.165  33.681  38.048  1.00  0.00     0.135 A 
ATOM     82  F   UNL A   1      41.505  35.543  35.980  1.00  0.00    -0.206 F 
ATOM     83  C   UNL A   1      40.416  36.165  37.967  1.00  0.00     0.059 A 
ATOM     84  C   UNL A   1      38.887  34.614  39.041  1.00  0.00     0.059 A 
ATOM     85  F   UNL A   1      38.534  32.497  38.099  1.00  0.00    -0.206 F 
ATOM     86  C   UNL A   1      39.519  35.854  38.992  1.00  0.00     0.060 A 
BRANCH  86  87
ATOM     87  S   UNL A   1      39.146  37.117  40.228  1.00  0.00     0.124 S 
ATOM     88  O   UNL A   1      40.481  37.492  40.679  1.00  0.00    -0.237 OA
ATOM     89  O   UNL A   1      38.435  38.116  39.436  1.00  0.00    -0.237 OA
ATOM     90  O   UNL A   1      38.326  36.404  41.202  1.00  0.00    -0.744 OA
ENDBRANCH  86  87
ENDBRANCH  54  79
BRANCH  66  91
ATOM     91  C   UNL A   1      36.910  32.811  30.832  1.00  0.00     0.058 A 
ATOM     92  C   UNL A   1      35.593  32.528  31.226  1.00  0.00     0.135 A 
ATOM     93  C   UNL A   1      37.105  33.775  29.830  1.00  0.00     0.135 A 
ATOM     94  F   UNL A   1      35.354  31.605  32.172  1.00  0.00    -0.206 F 
ATOM     95  C   UNL A   1      34.508  33.168  30.640  1.00  0.00     0.059 A 
ATOM     96  C   UNL A   1      36.035  34.452  29.253  1.00  0.00     0.059 A 
ATOM     97  F   UNL A   1      38.345  34.088  29.424  1.00  0.00    -0.206 F 
ATOM     98  C   UNL A   1      34.741  34.137  29.661  1.00  0.00     0.060 A 
BRANCH  98  99
ATOM     99  S   UNL A   1      33.324  34.999  28.949  1.00  0.00     0.124 S 
ATOM    100  O   UNL A   1      33.959  36.176  28.365  1.00  0.00    -0.237 OA
ATOM    101  O   UNL A   1      32.810  34.018  27.999  1.00  0.00    -0.237 OA
ATOM    102  O   UNL A   1      32.468  35.257  30.103  1.00  0.00    -0.744 OA
ENDBRANCH  98  99
ENDBRANCH  66  91
ENDBRANCH  40  41
ENDBRANCH  33  35
ENDBRANCH  32  33
ENDBRANCH  31  32
ENDBRANCH  30  31
ENDBRANCH  29  30
ENDBRANCH   1  29
TORSDOF 22
ENDMDL
MODEL 3
REMARK VINA RESULT:      -9.2      3.179      4.670
REMARK SMILES COc1cc(/C=C2/N=C(c3ccccc3)OC2=O)ccc1OCC(=O)OCCOCCOC(=O)c1ccc(-c2c3nc(c(-c4c(F)cc(S(=O)(=O)[O-])cc4F)c4ccc([nH]4)c(-c4c(F)cc(S(=O)(=O)[O-])cc4F)c4nc(c(-c5c(F)cc(S(=O)(=O)[O-])cc5F)c5ccc2[nH]5)C=C4)C=C3)cc1
REMARK SMILES IDX 28 1 27 2 26 3 24 4 25 5 23 6 22 7 21 8 3 9 4 10 5 11 20 12
REMARK SMILES IDX 19 13 2 14 1 15 6 16 7 17 8 18 17 19 9 20 16 21 18 22 10 23
REMARK SMILES IDX 11 24 15 25 12 26 14 27 13 28 29 29 30 30 31 31 32 32 33 33
REMARK SMILES IDX 34 34 35 35 36 36 100 37 37 38 99 39 38 40 39 41 40 42 93 43
REMARK SMILES IDX 41 44 98 45 92 46 94 47 42 48 97 49 91 50 90 51 43 53 77 54
REMARK SMILES IDX 56 55 76 56 57 57 60 58 75 59 95 60 58 61 59 62 74 64 96 65
REMARK SMILES IDX 61 66 44 67 45 68 54 69 46 70 47 71 53 72 55 73 48 74 49 75
REMARK SMILES IDX 50 76 51 77 52 78 78 79 79 80 88 81 80 82 81 83 87 84 89 85
REMARK SMILES IDX 82 86 83 87 84 88 85 89 86 90 62 91 63 92 72 93 64 94 65 95
REMARK SMILES IDX 71 96 73 97 66 98 67 99 68 100 69 101 70 102
REMARK H PARENT 94 52 60 63
REMARK Flexibility Score: inf
ROOT
ATOM      1  C   UNL A   1      34.274  33.694  29.121  1.00  0.00     0.202 C 
ENDROOT
BRANCH   1   2
ATOM      2  C   UNL A   1      33.882  32.807  27.931  1.00  0.00     0.261 C 
BRANCH   2   3
ATOM      3  O   UNL A   1      34.893  31.821  27.625  1.00  0.00    -0.461 OA
BRANCH   3   4
ATOM      4  C   UNL A   1      34.446  30.550  27.433  1.00  0.00     0.344 C 
ATOM      5  O   UNL A   1      35.172  29.561  27.369  1.00  0.00    -0.248 OA
BRANCH   4   6
ATOM      6  C   UNL A   1      32.924  30.451  27.264  1.00  0.00     0.352 C 
BRANCH   6   7
ATOM      7  O   UNL A   1      32.329  30.210  26.013  1.00  0.00    -0.478 OA
BRANCH   7   8
ATOM      8  C   UNL A   1      31.801  29.009  25.644  1.00  0.00     0.162 A 
ATOM      9  C   UNL A   1      31.242  28.581  24.432  1.00  0.00     0.161 A 
ATOM     10  C   UNL A   1      30.844  27.231  24.286  1.00  0.00     0.058 A 
ATOM     11  C   UNL A   1      30.946  26.325  25.360  1.00  0.00    -0.019 A 
ATOM     12  C   UNL A   1      31.842  28.104  26.718  1.00  0.00     0.051 A 
ATOM     13  C   UNL A   1      31.411  26.785  26.589  1.00  0.00     0.012 A 
BRANCH   9  14
ATOM     14  O   UNL A   1      30.825  29.467  23.473  1.00  0.00    -0.493 OA
ATOM     15  C   UNL A   1      29.584  29.175  22.839  1.00  0.00     0.278 C 
ENDBRANCH   9  14
BRANCH  11  16
ATOM     16  C   UNL A   1      30.585  24.908  25.238  1.00  0.00     0.044 C 
ATOM     17  C   UNL A   1      31.382  23.939  24.768  1.00  0.00     0.153 C 
ATOM     18  N   UNL A   1      31.017  22.615  24.669  1.00  0.00    -0.205 NA
ATOM     19  C   UNL A   1      32.811  24.114  24.362  1.00  0.00     0.363 C 
ATOM     20  C   UNL A   1      32.132  22.048  24.342  1.00  0.00     0.231 C 
ATOM     21  O   UNL A   1      33.215  22.830  24.140  1.00  0.00    -0.402 OA
ATOM     22  O   UNL A   1      33.491  25.107  24.265  1.00  0.00    -0.244 OA
BRANCH  20  23
ATOM     23  C   UNL A   1      32.416  20.627  24.165  1.00  0.00     0.037 A 
ATOM     24  C   UNL A   1      32.127  19.984  22.961  1.00  0.00     0.014 A 
ATOM     25  C   UNL A   1      32.971  19.918  25.236  1.00  0.00     0.014 A 
ATOM     26  C   UNL A   1      32.418  18.623  22.826  1.00  0.00     0.001 A 
ATOM     27  C   UNL A   1      33.242  18.557  25.102  1.00  0.00     0.001 A 
ATOM     28  C   UNL A   1      32.971  17.913  23.896  1.00  0.00     0.000 A 
ENDBRANCH  20  23
ENDBRANCH  11  16
ENDBRANCH   7   8
ENDBRANCH   6   7
ENDBRANCH   4   6
ENDBRANCH   3   4
ENDBRANCH   2   3
ENDBRANCH   1   2
BRANCH   1  29
ATOM     29  O   UNL A   1      34.033  33.153  30.422  1.00  0.00    -0.374 OA
BRANCH  29  30
ATOM     30  C   UNL A   1      34.844  33.671  31.474  1.00  0.00     0.202 C 
BRANCH  30  31
ATOM     31  C   UNL A   1      35.052  32.776  32.693  1.00  0.00     0.261 C 
BRANCH  31  32
ATOM     32  O   UNL A   1      36.412  32.785  33.122  1.00  0.00    -0.460 OA
BRANCH  32  33
ATOM     33  C   UNL A   1      37.004  31.571  33.092  1.00  0.00     0.338 C 
ATOM     34  O   UNL A   1      36.561  30.510  33.493  1.00  0.00    -0.246 OA
BRANCH  33  35
ATOM     35  C   UNL A   1      38.219  31.688  32.280  1.00  0.00     0.060 A 
ATOM     36  C   UNL A   1      39.434  31.415  32.918  1.00  0.00     0.016 A 
ATOM     37  C   UNL A   1      38.164  32.044  30.931  1.00  0.00     0.016 A 
ATOM     38  C   UNL A   1      40.618  31.542  32.213  1.00  0.00     0.010 A 
ATOM     39  C   UNL A   1      39.355  32.181  30.226  1.00  0.00     0.010 A 
ATOM     40  C   UNL A   1      40.581  31.960  30.877  1.00  0.00    -0.014 A 
BRANCH  40  41
ATOM     41  C   UNL A   1      41.843  32.294  30.197  1.00  0.00     0.031 A 
ATOM     42  C   UNL A   1      42.615  31.189  29.543  1.00  0.00     0.074 A 
ATOM     43  C   UNL A   1      42.265  33.568  30.172  1.00  0.00     0.049 A 
ATOM     44  N   UNL A   1      43.766  31.236  28.932  1.00  0.00    -0.248 NA
ATOM     45  C   UNL A   1      42.010  29.847  29.593  1.00  0.00     0.031 C 
ATOM     46  C   UNL A   1      41.554  34.699  30.768  1.00  0.00     0.029 A 
ATOM     47  N   UNL A   1      43.398  34.121  29.640  1.00  0.00    -0.354 N 
ATOM     48  C   UNL A   1      44.035  29.930  28.540  1.00  0.00     0.074 A 
ATOM     49  C   UNL A   1      42.938  29.110  29.001  1.00  0.00     0.031 C 
ATOM     50  C   UNL A   1      42.283  35.813  30.591  1.00  0.00     0.029 A 
ATOM     51  C   UNL A   1      43.523  35.462  29.905  1.00  0.00     0.049 A 
ATOM     52  H   UNL A   1      44.056  33.609  29.118  1.00  0.00     0.167 HD
ATOM     53  C   UNL A   1      45.107  29.470  27.854  1.00  0.00     0.037 A 
ATOM     54  C   UNL A   1      44.549  36.297  29.656  1.00  0.00     0.037 A 
ATOM     55  C   UNL A   1      46.184  30.319  27.417  1.00  0.00     0.049 A 
ATOM     56  C   UNL A   1      45.753  35.756  28.937  1.00  0.00     0.074 A 
ATOM     57  C   UNL A   1      47.297  29.984  26.672  1.00  0.00     0.029 A 
ATOM     58  N   UNL A   1      46.289  31.674  27.710  1.00  0.00    -0.354 N 
ATOM     59  N   UNL A   1      45.973  34.534  28.509  1.00  0.00    -0.248 NA
ATOM     60  C   UNL A   1      46.845  36.697  28.664  1.00  0.00     0.031 C 
ATOM     61  C   UNL A   1      48.110  31.119  26.575  1.00  0.00     0.029 A 
ATOM     62  C   UNL A   1      47.473  32.179  27.205  1.00  0.00     0.049 A 
ATOM     63  H   UNL A   1      45.618  32.198  28.205  1.00  0.00     0.167 HD
ATOM     64  C   UNL A   1      47.228  34.557  27.913  1.00  0.00     0.074 A 
ATOM     65  C   UNL A   1      47.705  35.923  28.014  1.00  0.00     0.031 C 
ATOM     66  C   UNL A   1      47.926  33.544  27.339  1.00  0.00     0.037 A 
BRANCH  53  67
ATOM     67  C   UNL A   1      45.185  27.991  27.591  1.00  0.00     0.058 A 
ATOM     68  C   UNL A   1      44.480  27.375  26.544  1.00  0.00     0.135 A 
ATOM     69  C   UNL A   1      45.986  27.172  28.405  1.00  0.00     0.135 A 
ATOM     70  F   UNL A   1      43.683  28.104  25.746  1.00  0.00    -0.206 F 
ATOM     71  C   UNL A   1      44.537  26.001  26.335  1.00  0.00     0.059 A 
ATOM     72  C   UNL A   1      46.083  25.800  28.195  1.00  0.00     0.059 A 
ATOM     73  F   UNL A   1      46.679  27.703  29.426  1.00  0.00    -0.206 F 
ATOM     74  C   UNL A   1      45.341  25.221  27.168  1.00  0.00     0.060 A 
BRANCH  74  75
ATOM     75  S   UNL A   1      45.397  23.438  26.890  1.00  0.00     0.124 S 
ATOM     76  O   UNL A   1      46.776  23.254  26.443  1.00  0.00    -0.237 OA
ATOM     77  O   UNL A   1      45.084  22.907  28.212  1.00  0.00    -0.237 OA
ATOM     78  O   UNL A   1      44.376  23.219  25.871  1.00  0.00    -0.744 OA
ENDBRANCH  74  75
ENDBRANCH  53  67
BRANCH  54  79
ATOM     79  C   UNL A   1      44.473  37.705  30.126  1.00  0.00     0.058 A 
ATOM     80  C   UNL A   1      43.902  38.710  29.334  1.00  0.00     0.135 A 
ATOM     81  C   UNL A   1      44.911  38.058  31.414  1.00  0.00     0.135 A 
ATOM     82  F   UNL A   1      43.475  38.425  28.094  1.00  0.00    -0.206 F 
ATOM     83  C   UNL A   1      43.760  40.013  29.803  1.00  0.00     0.059 A 
ATOM     84  C   UNL A   1      44.757  39.346  31.915  1.00  0.00     0.059 A 
ATOM     85  F   UNL A   1      45.452  37.128  32.217  1.00  0.00    -0.206 F 
ATOM     86  C   UNL A   1      44.180  40.318  31.100  1.00  0.00     0.060 A 
BRANCH  86  87
ATOM     87  S   UNL A   1      43.907  41.989  31.727  1.00  0.00     0.124 S 
ATOM     88  O   UNL A   1      42.473  41.974  31.992  1.00  0.00    -0.237 OA
ATOM     89  O   UNL A   1      44.773  42.017  32.902  1.00  0.00    -0.237 OA
ATOM     90  O   UNL A   1      44.337  42.838  30.621  1.00  0.00    -0.744 OA
ENDBRANCH  86  87
ENDBRANCH  54  79
BRANCH  66  91
ATOM     91  C   UNL A   1      49.283  33.875  26.785  1.00  0.00     0.058 A 
ATOM     92  C   UNL A   1      49.429  34.570  25.574  1.00  0.00     0.135 A 
ATOM     93  C   UNL A   1      50.444  33.561  27.508  1.00  0.00     0.135 A 
ATOM     94  F   UNL A   1      48.350  34.883  24.839  1.00  0.00    -0.206 F 
ATOM     95  C   UNL A   1      50.682  34.930  25.092  1.00  0.00     0.059 A 
ATOM     96  C   UNL A   1      51.706  33.941  27.062  1.00  0.00     0.059 A 
ATOM     97  F   UNL A   1      50.358  32.906  28.677  1.00  0.00    -0.206 F 
ATOM     98  C   UNL A   1      51.814  34.619  25.849  1.00  0.00     0.060 A 
BRANCH  98  99
ATOM     99  S   UNL A   1      53.429  35.143  25.237  1.00  0.00     0.124 S 
ATOM    100  O   UNL A   1      53.830  33.988  24.440  1.00  0.00    -0.237 OA
ATOM    101  O   UNL A   1      53.099  36.349  24.485  1.00  0.00    -0.237 OA
ATOM    102  O   UNL A   1      54.201  35.361  26.456  1.00  0.00    -0.744 OA
ENDBRANCH  98  99
ENDBRANCH  66  91
ENDBRANCH  40  41
ENDBRANCH  33  35
ENDBRANCH  32  33
ENDBRANCH  31  32
ENDBRANCH  30  31
ENDBRANCH  29  30
ENDBRANCH   1  29
TORSDOF 22
ENDMDL
