MODEL 1
REMARK VINA RESULT:     -11.1      0.000      0.000
REMARK SMILES C[C@H](C(=O)OCCOCCOC(=O)c1ccc(-c2c3nc(c(-c4c(F)cc(S(=O)(=O)[O-])cc4F)c4ccc([nH]4)c(-c4c(F)cc(S(=O)(=O)[O-])cc4F)c4nc(c(-c5c(F)cc(S(=O)(=O)[O-])cc5F)c5ccc2[nH]5)C=C4)C=C3)cc1)c1ccc2c(c1)OCCO2
REMARK SMILES IDX 9 1 8 2 7 3 6 4 5 5 3 6 4 7 2 8 1 9 80 10 81 11 85 12 82 13
REMARK SMILES IDX 84 14 83 15 86 16 89 17 87 18 88 19 10 20 11 21 12 22 13 23
REMARK SMILES IDX 14 24 15 25 79 26 16 27 78 28 17 29 18 30 19 31 72 32 20 33
REMARK SMILES IDX 77 34 71 35 73 36 21 37 76 38 70 39 69 40 22 42 56 43 35 44
REMARK SMILES IDX 55 45 36 46 39 47 54 48 74 49 37 50 38 51 53 53 75 54 40 55
REMARK SMILES IDX 23 56 24 57 33 58 25 59 26 60 32 61 34 62 27 63 28 64 29 65
REMARK SMILES IDX 30 66 31 67 57 68 58 69 67 70 59 71 60 72 66 73 68 74 61 75
REMARK SMILES IDX 62 76 63 77 64 78 65 79 41 80 42 81 51 82 43 83 44 84 50 85
REMARK SMILES IDX 52 86 45 87 46 88 47 89 48 90 49 91
REMARK H PARENT 73 41 39 52
REMARK Flexibility Score: inf
ROOT
ATOM      1  C   UNL A   1      39.305  22.108  26.535  1.00  0.00     0.202 C 
ENDROOT
BRANCH   1   2
ATOM      2  O   UNL A   1      38.480  21.963  25.380  1.00  0.00    -0.374 OA
BRANCH   2   3
ATOM      3  C   UNL A   1      37.074  21.946  25.650  1.00  0.00     0.202 C 
BRANCH   3   4
ATOM      4  C   UNL A   1      36.193  22.024  24.396  1.00  0.00     0.261 C 
BRANCH   4   5
ATOM      5  O   UNL A   1      34.991  22.781  24.643  1.00  0.00    -0.463 OA
BRANCH   5   6
ATOM      6  C   UNL A   1      34.102  22.914  23.615  1.00  0.00     0.313 C 
ATOM      7  O   UNL A   1      34.378  23.336  22.499  1.00  0.00    -0.252 OA
BRANCH   6   8
ATOM      8  C   UNL A   1      32.695  22.442  24.007  1.00  0.00     0.126 C 
ATOM      9  C   UNL A   1      31.685  23.339  23.274  1.00  0.00     0.025 C 
BRANCH   8  10
ATOM     10  C   UNL A   1      32.437  20.958  23.752  1.00  0.00    -0.030 A 
ATOM     11  C   UNL A   1      32.165  20.476  22.457  1.00  0.00     0.009 A 
ATOM     12  C   UNL A   1      32.556  20.027  24.794  1.00  0.00     0.055 A 
ATOM     13  C   UNL A   1      32.230  19.110  22.176  1.00  0.00     0.051 A 
ATOM     14  C   UNL A   1      32.714  18.680  24.503  1.00  0.00     0.161 A 
ATOM     15  C   UNL A   1      32.599  18.234  23.188  1.00  0.00     0.161 A 
ATOM     16  O   UNL A   1      33.114  17.885  25.542  1.00  0.00    -0.486 OA
ATOM     17  O   UNL A   1      32.960  16.960  22.832  1.00  0.00    -0.486 OA
ATOM     18  C   UNL A   1      33.668  16.631  25.124  1.00  0.00     0.271 C 
ATOM     19  C   UNL A   1      34.081  16.606  23.657  1.00  0.00     0.271 C 
ENDBRANCH   8  10
ENDBRANCH   6   8
ENDBRANCH   5   6
ENDBRANCH   4   5
ENDBRANCH   3   4
ENDBRANCH   2   3
ENDBRANCH   1   2
BRANCH   1  20
ATOM     20  C   UNL A   1      40.355  23.216  26.452  1.00  0.00     0.261 C 
BRANCH  20  21
ATOM     21  O   UNL A   1      39.725  24.501  26.347  1.00  0.00    -0.460 OA
BRANCH  21  22
ATOM     22  C   UNL A   1      40.598  25.527  26.241  1.00  0.00     0.338 C 
ATOM     23  O   UNL A   1      41.134  25.929  25.213  1.00  0.00    -0.246 OA
BRANCH  22  24
ATOM     24  C   UNL A   1      40.747  26.220  27.531  1.00  0.00     0.060 A 
ATOM     25  C   UNL A   1      39.717  26.044  28.463  1.00  0.00     0.016 A 
ATOM     26  C   UNL A   1      41.815  27.082  27.809  1.00  0.00     0.016 A 
ATOM     27  C   UNL A   1      39.701  26.793  29.632  1.00  0.00     0.010 A 
ATOM     28  C   UNL A   1      41.800  27.832  28.989  1.00  0.00     0.010 A 
ATOM     29  C   UNL A   1      40.716  27.727  29.877  1.00  0.00    -0.014 A 
BRANCH  29  30
ATOM     30  C   UNL A   1      40.525  28.710  30.969  1.00  0.00     0.031 A 
ATOM     31  C   UNL A   1      41.403  28.615  32.187  1.00  0.00     0.074 A 
ATOM     32  C   UNL A   1      39.637  29.711  30.839  1.00  0.00     0.049 A 
ATOM     33  N   UNL A   1      41.438  29.383  33.245  1.00  0.00    -0.248 NA
ATOM     34  C   UNL A   1      42.374  27.508  32.215  1.00  0.00     0.031 C 
ATOM     35  C   UNL A   1      38.763  29.919  29.685  1.00  0.00     0.029 A 
ATOM     36  N   UNL A   1      39.332  30.746  31.684  1.00  0.00    -0.354 N 
ATOM     37  C   UNL A   1      42.434  28.856  34.061  1.00  0.00     0.074 A 
ATOM     38  C   UNL A   1      42.952  27.682  33.395  1.00  0.00     0.031 C 
ATOM     39  C   UNL A   1      38.011  31.012  29.899  1.00  0.00     0.029 A 
ATOM     40  C   UNL A   1      38.338  31.568  31.210  1.00  0.00     0.049 A 
ATOM     41  H   UNL A   1      39.781  30.887  32.549  1.00  0.00     0.167 HD
ATOM     42  C   UNL A   1      42.884  29.318  35.250  1.00  0.00     0.037 A 
ATOM     43  C   UNL A   1      37.752  32.640  31.780  1.00  0.00     0.037 A 
ATOM     44  C   UNL A   1      42.362  30.489  35.905  1.00  0.00     0.049 A 
ATOM     45  C   UNL A   1      38.234  33.107  33.127  1.00  0.00     0.074 A 
ATOM     46  C   UNL A   1      42.747  31.047  37.110  1.00  0.00     0.029 A 
ATOM     47  N   UNL A   1      41.338  31.280  35.406  1.00  0.00    -0.354 N 
ATOM     48  N   UNL A   1      39.186  32.608  33.880  1.00  0.00    -0.248 NA
ATOM     49  C   UNL A   1      37.570  34.287  33.699  1.00  0.00     0.031 C 
ATOM     50  C   UNL A   1      41.929  32.153  37.360  1.00  0.00     0.029 A 
ATOM     51  C   UNL A   1      41.063  32.311  36.288  1.00  0.00     0.049 A 
ATOM     52  H   UNL A   1      40.873  31.131  34.551  1.00  0.00     0.167 HD
ATOM     53  C   UNL A   1      39.249  33.423  35.006  1.00  0.00     0.074 A 
ATOM     54  C   UNL A   1      38.248  34.456  34.827  1.00  0.00     0.031 C 
ATOM     55  C   UNL A   1      40.062  33.329  36.088  1.00  0.00     0.037 A 
BRANCH  42  56
ATOM     56  C   UNL A   1      43.980  28.543  35.927  1.00  0.00     0.058 A 
ATOM     57  C   UNL A   1      45.336  28.841  35.710  1.00  0.00     0.135 A 
ATOM     58  C   UNL A   1      43.674  27.501  36.817  1.00  0.00     0.135 A 
ATOM     59  F   UNL A   1      45.687  29.813  34.855  1.00  0.00    -0.206 F 
ATOM     60  C   UNL A   1      46.348  28.116  36.332  1.00  0.00     0.059 A 
ATOM     61  C   UNL A   1      44.669  26.780  37.469  1.00  0.00     0.059 A 
ATOM     62  F   UNL A   1      42.395  27.173  37.056  1.00  0.00    -0.206 F 
ATOM     63  C   UNL A   1      46.004  27.085  37.209  1.00  0.00     0.060 A 
BRANCH  63  64
ATOM     64  S   UNL A   1      47.327  26.151  38.007  1.00  0.00     0.124 S 
ATOM     65  O   UNL A   1      48.151  27.223  38.556  1.00  0.00    -0.237 OA
ATOM     66  O   UNL A   1      46.597  25.350  38.985  1.00  0.00    -0.237 OA
ATOM     67  O   UNL A   1      47.925  25.399  36.907  1.00  0.00    -0.744 OA
ENDBRANCH  63  64
ENDBRANCH  42  56
BRANCH  43  68
ATOM     68  C   UNL A   1      36.639  33.332  31.078  1.00  0.00     0.058 A 
ATOM     69  C   UNL A   1      36.872  34.146  29.961  1.00  0.00     0.135 A 
ATOM     70  C   UNL A   1      35.311  33.175  31.507  1.00  0.00     0.135 A 
ATOM     71  F   UNL A   1      38.125  34.335  29.519  1.00  0.00    -0.206 F 
ATOM     72  C   UNL A   1      35.831  34.789  29.298  1.00  0.00     0.059 A 
ATOM     73  C   UNL A   1      34.251  33.789  30.847  1.00  0.00     0.059 A 
ATOM     74  F   UNL A   1      35.032  32.396  32.564  1.00  0.00    -0.206 F 
ATOM     75  C   UNL A   1      34.524  34.601  29.748  1.00  0.00     0.060 A 
BRANCH  75  76
ATOM     76  S   UNL A   1      33.171  35.388  28.846  1.00  0.00     0.124 S 
ATOM     77  O   UNL A   1      32.375  35.941  29.935  1.00  0.00    -0.237 OA
ATOM     78  O   UNL A   1      33.878  36.357  28.014  1.00  0.00    -0.237 OA
ATOM     79  O   UNL A   1      32.563  34.276  28.119  1.00  0.00    -0.744 OA
ENDBRANCH  75  76
ENDBRANCH  43  68
BRANCH  55  80
ATOM     80  C   UNL A   1      39.919  34.381  37.151  1.00  0.00     0.058 A 
ATOM     81  C   UNL A   1      40.612  35.599  37.078  1.00  0.00     0.135 A 
ATOM     82  C   UNL A   1      39.037  34.189  38.226  1.00  0.00     0.135 A 
ATOM     83  F   UNL A   1      41.471  35.829  36.073  1.00  0.00    -0.206 F 
ATOM     84  C   UNL A   1      40.451  36.584  38.047  1.00  0.00     0.059 A 
ATOM     85  C   UNL A   1      38.841  35.170  39.193  1.00  0.00     0.059 A 
ATOM     86  F   UNL A   1      38.342  33.046  38.335  1.00  0.00    -0.206 F 
ATOM     87  C   UNL A   1      39.561  36.360  39.100  1.00  0.00     0.060 A 
BRANCH  87  88
ATOM     88  S   UNL A   1      39.335  37.659  40.333  1.00  0.00     0.124 S 
ATOM     89  O   UNL A   1      39.019  36.879  41.526  1.00  0.00    -0.237 OA
ATOM     90  O   UNL A   1      40.636  38.320  40.335  1.00  0.00    -0.237 OA
ATOM     91  O   UNL A   1      38.236  38.452  39.792  1.00  0.00    -0.744 OA
ENDBRANCH  87  88
ENDBRANCH  55  80
ENDBRANCH  29  30
ENDBRANCH  22  24
ENDBRANCH  21  22
ENDBRANCH  20  21
ENDBRANCH   1  20
TORSDOF 18
ENDMDL
MODEL 2
REMARK VINA RESULT:     -10.9      2.022      3.804
REMARK SMILES C[C@H](C(=O)OCCOCCOC(=O)c1ccc(-c2c3nc(c(-c4c(F)cc(S(=O)(=O)[O-])cc4F)c4ccc([nH]4)c(-c4c(F)cc(S(=O)(=O)[O-])cc4F)c4nc(c(-c5c(F)cc(S(=O)(=O)[O-])cc5F)c5ccc2[nH]5)C=C4)C=C3)cc1)c1ccc2c(c1)OCCO2
REMARK SMILES IDX 9 1 8 2 7 3 6 4 5 5 3 6 4 7 2 8 1 9 80 10 81 11 85 12 82 13
REMARK SMILES IDX 84 14 83 15 86 16 89 17 87 18 88 19 10 20 11 21 12 22 13 23
REMARK SMILES IDX 14 24 15 25 79 26 16 27 78 28 17 29 18 30 19 31 72 32 20 33
REMARK SMILES IDX 77 34 71 35 73 36 21 37 76 38 70 39 69 40 22 42 56 43 35 44
REMARK SMILES IDX 55 45 36 46 39 47 54 48 74 49 37 50 38 51 53 53 75 54 40 55
REMARK SMILES IDX 23 56 24 57 33 58 25 59 26 60 32 61 34 62 27 63 28 64 29 65
REMARK SMILES IDX 30 66 31 67 57 68 58 69 67 70 59 71 60 72 66 73 68 74 61 75
REMARK SMILES IDX 62 76 63 77 64 78 65 79 41 80 42 81 51 82 43 83 44 84 50 85
REMARK SMILES IDX 52 86 45 87 46 88 47 89 48 90 49 91
REMARK H PARENT 73 41 39 52
REMARK Flexibility Score: inf
ROOT
ATOM      1  C   UNL A   1      44.728  23.672  25.106  1.00  0.00     0.202 C 
ENDROOT
BRANCH   1   2
ATOM      2  O   UNL A   1      45.215  22.482  24.488  1.00  0.00    -0.374 OA
BRANCH   2   3
ATOM      3  C   UNL A   1      45.356  21.364  25.373  1.00  0.00     0.202 C 
BRANCH   3   4
ATOM      4  C   UNL A   1      44.399  20.203  25.075  1.00  0.00     0.261 C 
BRANCH   4   5
ATOM      5  O   UNL A   1      43.040  20.539  25.420  1.00  0.00    -0.463 OA
BRANCH   5   6
ATOM      6  C   UNL A   1      42.263  19.557  25.965  1.00  0.00     0.313 C 
ATOM      7  O   UNL A   1      42.447  18.354  25.820  1.00  0.00    -0.252 OA
BRANCH   6   8
ATOM      8  C   UNL A   1      41.125  20.133  26.819  1.00  0.00     0.126 C 
ATOM      9  C   UNL A   1      41.689  21.338  27.589  1.00  0.00     0.025 C 
BRANCH   8  10
ATOM     10  C   UNL A   1      39.868  20.492  26.031  1.00  0.00    -0.030 A 
ATOM     11  C   UNL A   1      39.116  19.505  25.364  1.00  0.00     0.009 A 
ATOM     12  C   UNL A   1      39.382  21.808  26.030  1.00  0.00     0.055 A 
ATOM     13  C   UNL A   1      37.826  19.778  24.908  1.00  0.00     0.051 A 
ATOM     14  C   UNL A   1      38.068  22.059  25.664  1.00  0.00     0.161 A 
ATOM     15  C   UNL A   1      37.280  21.031  25.150  1.00  0.00     0.161 A 
ATOM     16  O   UNL A   1      37.588  23.304  25.968  1.00  0.00    -0.486 OA
ATOM     17  O   UNL A   1      35.928  21.183  24.982  1.00  0.00    -0.486 OA
ATOM     18  C   UNL A   1      36.156  23.381  25.972  1.00  0.00     0.271 C 
ATOM     19  C   UNL A   1      35.473  22.021  26.057  1.00  0.00     0.271 C 
ENDBRANCH   8  10
ENDBRANCH   6   8
ENDBRANCH   5   6
ENDBRANCH   4   5
ENDBRANCH   3   4
ENDBRANCH   2   3
ENDBRANCH   1   2
BRANCH   1  20
ATOM     20  C   UNL A   1      43.265  24.005  24.818  1.00  0.00     0.261 C 
BRANCH  20  21
ATOM     21  O   UNL A   1      42.576  24.348  26.029  1.00  0.00    -0.460 OA
BRANCH  21  22
ATOM     22  C   UNL A   1      41.949  25.543  25.978  1.00  0.00     0.338 C 
ATOM     23  O   UNL A   1      41.333  26.007  25.023  1.00  0.00    -0.246 OA
BRANCH  22  24
ATOM     24  C   UNL A   1      41.981  26.205  27.293  1.00  0.00     0.060 A 
ATOM     25  C   UNL A   1      40.932  25.909  28.171  1.00  0.00     0.016 A 
ATOM     26  C   UNL A   1      42.955  27.148  27.642  1.00  0.00     0.016 A 
ATOM     27  C   UNL A   1      40.800  26.616  29.359  1.00  0.00     0.010 A 
ATOM     28  C   UNL A   1      42.823  27.856  28.841  1.00  0.00     0.010 A 
ATOM     29  C   UNL A   1      41.716  27.627  29.676  1.00  0.00    -0.014 A 
BRANCH  29  30
ATOM     30  C   UNL A   1      41.392  28.554  30.786  1.00  0.00     0.031 A 
ATOM     31  C   UNL A   1      42.237  28.513  32.030  1.00  0.00     0.074 A 
ATOM     32  C   UNL A   1      40.412  29.464  30.651  1.00  0.00     0.049 A 
ATOM     33  N   UNL A   1      42.161  29.249  33.108  1.00  0.00    -0.248 NA
ATOM     34  C   UNL A   1      43.314  27.509  32.063  1.00  0.00     0.031 C 
ATOM     35  C   UNL A   1      39.558  29.616  29.473  1.00  0.00     0.029 A 
ATOM     36  N   UNL A   1      39.977  30.438  31.512  1.00  0.00    -0.354 N 
ATOM     37  C   UNL A   1      43.179  28.802  33.944  1.00  0.00     0.074 A 
ATOM     38  C   UNL A   1      43.834  27.705  33.265  1.00  0.00     0.031 C 
ATOM     39  C   UNL A   1      38.693  30.621  29.690  1.00  0.00     0.029 A 
ATOM     40  C   UNL A   1      38.920  31.170  31.025  1.00  0.00     0.049 A 
ATOM     41  H   UNL A   1      40.382  30.598  32.394  1.00  0.00     0.167 HD
ATOM     42  C   UNL A   1      43.542  29.273  35.159  1.00  0.00     0.037 A 
ATOM     43  C   UNL A   1      38.210  32.159  31.601  1.00  0.00     0.037 A 
ATOM     44  C   UNL A   1      42.883  30.365  35.826  1.00  0.00     0.049 A 
ATOM     45  C   UNL A   1      38.601  32.634  32.976  1.00  0.00     0.074 A 
ATOM     46  C   UNL A   1      43.172  30.924  37.057  1.00  0.00     0.029 A 
ATOM     47  N   UNL A   1      41.800  31.064  35.312  1.00  0.00    -0.354 N 
ATOM     48  N   UNL A   1      39.574  32.212  33.748  1.00  0.00    -0.248 NA
ATOM     49  C   UNL A   1      37.802  33.724  33.555  1.00  0.00     0.031 C 
ATOM     50  C   UNL A   1      42.238  31.935  37.307  1.00  0.00     0.029 A 
ATOM     51  C   UNL A   1      41.395  32.036  36.210  1.00  0.00     0.049 A 
ATOM     52  H   UNL A   1      41.380  30.893  34.438  1.00  0.00     0.167 HD
ATOM     53  C   UNL A   1      39.518  32.996  34.895  1.00  0.00     0.074 A 
ATOM     54  C   UNL A   1      38.424  33.927  34.709  1.00  0.00     0.031 C 
ATOM     55  C   UNL A   1      40.303  32.954  36.002  1.00  0.00     0.037 A 
BRANCH  42  56
ATOM     56  C   UNL A   1      44.690  28.593  35.853  1.00  0.00     0.058 A 
ATOM     57  C   UNL A   1      46.017  29.008  35.661  1.00  0.00     0.135 A 
ATOM     58  C   UNL A   1      44.459  27.524  36.734  1.00  0.00     0.135 A 
ATOM     59  F   UNL A   1      46.297  30.011  34.814  1.00  0.00    -0.206 F 
ATOM     60  C   UNL A   1      47.078  28.371  36.299  1.00  0.00     0.059 A 
ATOM     61  C   UNL A   1      45.501  26.889  37.402  1.00  0.00     0.059 A 
ATOM     62  F   UNL A   1      43.209  27.085  36.950  1.00  0.00    -0.206 F 
ATOM     63  C   UNL A   1      46.809  27.310  37.166  1.00  0.00     0.060 A 
BRANCH  63  64
ATOM     64  S   UNL A   1      48.194  26.490  37.985  1.00  0.00     0.124 S 
ATOM     65  O   UNL A   1      49.054  27.625  38.310  1.00  0.00    -0.237 OA
ATOM     66  O   UNL A   1      47.546  25.842  39.120  1.00  0.00    -0.237 OA
ATOM     67  O   UNL A   1      48.709  25.586  36.960  1.00  0.00    -0.744 OA
ENDBRANCH  63  64
ENDBRANCH  42  56
BRANCH  43  68
ATOM     68  C   UNL A   1      37.056  32.757  30.880  1.00  0.00     0.058 A 
ATOM     69  C   UNL A   1      35.737  32.383  31.172  1.00  0.00     0.135 A 
ATOM     70  C   UNL A   1      37.255  33.734  29.891  1.00  0.00     0.135 A 
ATOM     71  F   UNL A   1      35.497  31.447  32.103  1.00  0.00    -0.206 F 
ATOM     72  C   UNL A   1      34.655  32.948  30.504  1.00  0.00     0.059 A 
ATOM     73  C   UNL A   1      36.188  34.329  29.225  1.00  0.00     0.059 A 
ATOM     74  F   UNL A   1      38.498  34.137  29.582  1.00  0.00    -0.206 F 
ATOM     75  C   UNL A   1      34.891  33.923  29.534  1.00  0.00     0.060 A 
BRANCH  75  76
ATOM     76  S   UNL A   1      33.480  34.696  28.714  1.00  0.00     0.124 S 
ATOM     77  O   UNL A   1      32.573  34.913  29.834  1.00  0.00    -0.237 OA
ATOM     78  O   UNL A   1      34.080  35.894  28.134  1.00  0.00    -0.237 OA
ATOM     79  O   UNL A   1      33.060  33.685  27.747  1.00  0.00    -0.744 OA
ENDBRANCH  75  76
ENDBRANCH  43  68
BRANCH  55  80
ATOM     80  C   UNL A   1      40.020  33.954  37.087  1.00  0.00     0.058 A 
ATOM     81  C   UNL A   1      40.533  35.259  37.034  1.00  0.00     0.135 A 
ATOM     82  C   UNL A   1      39.182  33.619  38.161  1.00  0.00     0.135 A 
ATOM     83  F   UNL A   1      41.343  35.627  36.029  1.00  0.00    -0.206 F 
ATOM     84  C   UNL A   1      40.241  36.193  38.022  1.00  0.00     0.059 A 
ATOM     85  C   UNL A   1      38.856  34.544  39.148  1.00  0.00     0.059 A 
ATOM     86  F   UNL A   1      38.656  32.387  38.251  1.00  0.00    -0.206 F 
ATOM     87  C   UNL A   1      39.400  35.826  39.076  1.00  0.00     0.060 A 
BRANCH  87  88
ATOM     88  S   UNL A   1      39.002  37.057  40.335  1.00  0.00     0.124 S 
ATOM     89  O   UNL A   1      38.448  38.137  39.524  1.00  0.00    -0.237 OA
ATOM     90  O   UNL A   1      38.048  36.345  41.179  1.00  0.00    -0.237 OA
ATOM     91  O   UNL A   1      40.292  37.336  40.956  1.00  0.00    -0.744 OA
ENDBRANCH  87  88
ENDBRANCH  55  80
ENDBRANCH  29  30
ENDBRANCH  22  24
ENDBRANCH  21  22
ENDBRANCH  20  21
ENDBRANCH   1  20
TORSDOF 18
ENDMDL
MODEL 3
REMARK VINA RESULT:     -10.7      1.302      3.097
REMARK SMILES C[C@H](C(=O)OCCOCCOC(=O)c1ccc(-c2c3nc(c(-c4c(F)cc(S(=O)(=O)[O-])cc4F)c4ccc([nH]4)c(-c4c(F)cc(S(=O)(=O)[O-])cc4F)c4nc(c(-c5c(F)cc(S(=O)(=O)[O-])cc5F)c5ccc2[nH]5)C=C4)C=C3)cc1)c1ccc2c(c1)OCCO2
REMARK SMILES IDX 9 1 8 2 7 3 6 4 5 5 3 6 4 7 2 8 1 9 80 10 81 11 85 12 82 13
REMARK SMILES IDX 84 14 83 15 86 16 89 17 87 18 88 19 10 20 11 21 12 22 13 23
REMARK SMILES IDX 14 24 15 25 79 26 16 27 78 28 17 29 18 30 19 31 72 32 20 33
REMARK SMILES IDX 77 34 71 35 73 36 21 37 76 38 70 39 69 40 22 42 56 43 35 44
REMARK SMILES IDX 55 45 36 46 39 47 54 48 74 49 37 50 38 51 53 53 75 54 40 55
REMARK SMILES IDX 23 56 24 57 33 58 25 59 26 60 32 61 34 62 27 63 28 64 29 65
REMARK SMILES IDX 30 66 31 67 57 68 58 69 67 70 59 71 60 72 66 73 68 74 61 75
REMARK SMILES IDX 62 76 63 77 64 78 65 79 41 80 42 81 51 82 43 83 44 84 50 85
REMARK SMILES IDX 52 86 45 87 46 88 47 89 48 90 49 91
REMARK H PARENT 73 41 39 52
REMARK Flexibility Score: inf
ROOT
ATOM      1  C   UNL A   1      39.780  22.098  26.812  1.00  0.00     0.202 C 
ENDROOT
BRANCH   1   2
ATOM      2  O   UNL A   1      39.080  21.446  25.753  1.00  0.00    -0.374 OA
BRANCH   2   3
ATOM      3  C   UNL A   1      37.825  22.046  25.410  1.00  0.00     0.202 C 
BRANCH   3   4
ATOM      4  C   UNL A   1      36.603  21.181  25.743  1.00  0.00     0.261 C 
BRANCH   4   5
ATOM      5  O   UNL A   1      35.635  21.202  24.675  1.00  0.00    -0.463 OA
BRANCH   5   6
ATOM      6  C   UNL A   1      34.484  21.907  24.877  1.00  0.00     0.313 C 
ATOM      7  O   UNL A   1      34.305  22.717  25.779  1.00  0.00    -0.252 OA
BRANCH   6   8
ATOM      8  C   UNL A   1      33.422  21.590  23.814  1.00  0.00     0.126 C 
ATOM      9  C   UNL A   1      32.427  20.597  24.436  1.00  0.00     0.025 C 
BRANCH   8  10
ATOM     10  C   UNL A   1      32.723  22.819  23.239  1.00  0.00    -0.030 A 
ATOM     11  C   UNL A   1      31.376  23.101  23.539  1.00  0.00     0.009 A 
ATOM     12  C   UNL A   1      33.438  23.747  22.468  1.00  0.00     0.055 A 
ATOM     13  C   UNL A   1      30.834  24.359  23.269  1.00  0.00     0.051 A 
ATOM     14  C   UNL A   1      32.935  25.027  22.283  1.00  0.00     0.161 A 
ATOM     15  C   UNL A   1      31.652  25.341  22.729  1.00  0.00     0.161 A 
ATOM     16  O   UNL A   1      33.811  25.949  21.780  1.00  0.00    -0.486 OA
ATOM     17  O   UNL A   1      31.205  26.636  22.761  1.00  0.00    -0.486 OA
ATOM     18  C   UNL A   1      33.405  27.306  22.003  1.00  0.00     0.271 C 
ATOM     19  C   UNL A   1      32.341  27.454  23.084  1.00  0.00     0.271 C 
ENDBRANCH   8  10
ENDBRANCH   6   8
ENDBRANCH   5   6
ENDBRANCH   4   5
ENDBRANCH   3   4
ENDBRANCH   2   3
ENDBRANCH   1   2
BRANCH   1  20
ATOM     20  C   UNL A   1      41.221  22.496  26.492  1.00  0.00     0.261 C 
BRANCH  20  21
ATOM     21  O   UNL A   1      41.680  23.506  27.402  1.00  0.00    -0.460 OA
BRANCH  21  22
ATOM     22  C   UNL A   1      41.892  24.706  26.819  1.00  0.00     0.338 C 
ATOM     23  O   UNL A   1      42.373  24.906  25.708  1.00  0.00    -0.246 OA
BRANCH  22  24
ATOM     24  C   UNL A   1      41.345  25.793  27.648  1.00  0.00     0.060 A 
ATOM     25  C   UNL A   1      42.111  26.961  27.741  1.00  0.00     0.016 A 
ATOM     26  C   UNL A   1      40.160  25.661  28.381  1.00  0.00     0.016 A 
ATOM     27  C   UNL A   1      41.747  27.962  28.632  1.00  0.00     0.010 A 
ATOM     28  C   UNL A   1      39.792  26.673  29.275  1.00  0.00     0.010 A 
ATOM     29  C   UNL A   1      40.614  27.800  29.440  1.00  0.00    -0.014 A 
BRANCH  29  30
ATOM     30  C   UNL A   1      40.415  28.732  30.575  1.00  0.00     0.031 A 
ATOM     31  C   UNL A   1      41.298  28.593  31.785  1.00  0.00     0.074 A 
ATOM     32  C   UNL A   1      39.516  29.727  30.491  1.00  0.00     0.049 A 
ATOM     33  N   UNL A   1      41.327  29.313  32.876  1.00  0.00    -0.248 NA
ATOM     34  C   UNL A   1      42.282  27.497  31.762  1.00  0.00     0.031 C 
ATOM     35  C   UNL A   1      38.636  29.976  29.349  1.00  0.00     0.029 A 
ATOM     36  N   UNL A   1      39.201  30.720  31.382  1.00  0.00    -0.354 N 
ATOM     37  C   UNL A   1      42.331  28.762  33.666  1.00  0.00     0.074 A 
ATOM     38  C   UNL A   1      42.861  27.625  32.947  1.00  0.00     0.031 C 
ATOM     39  C   UNL A   1      37.873  31.050  29.613  1.00  0.00     0.029 A 
ATOM     40  C   UNL A   1      38.196  31.551  30.948  1.00  0.00     0.049 A 
ATOM     41  H   UNL A   1      39.651  30.827  32.251  1.00  0.00     0.167 HD
ATOM     42  C   UNL A   1      42.780  29.176  34.873  1.00  0.00     0.037 A 
ATOM     43  C   UNL A   1      37.600  32.589  31.565  1.00  0.00     0.037 A 
ATOM     44  C   UNL A   1      42.246  30.311  35.581  1.00  0.00     0.049 A 
ATOM     45  C   UNL A   1      38.081  33.002  32.931  1.00  0.00     0.074 A 
ATOM     46  C   UNL A   1      42.628  30.819  36.809  1.00  0.00     0.029 A 
ATOM     47  N   UNL A   1      41.211  31.112  35.120  1.00  0.00    -0.354 N 
ATOM     48  N   UNL A   1      39.040  32.481  33.659  1.00  0.00    -0.248 NA
ATOM     49  C   UNL A   1      37.404  34.147  33.556  1.00  0.00     0.031 C 
ATOM     50  C   UNL A   1      41.797  31.904  37.109  1.00  0.00     0.029 A 
ATOM     51  C   UNL A   1      40.927  32.099  36.047  1.00  0.00     0.049 A 
ATOM     52  H   UNL A   1      40.746  30.995  34.260  1.00  0.00     0.167 HD
ATOM     53  C   UNL A   1      39.097  33.246  34.819  1.00  0.00     0.074 A 
ATOM     54  C   UNL A   1      38.084  34.274  34.689  1.00  0.00     0.031 C 
ATOM     55  C   UNL A   1      39.914  33.114  35.895  1.00  0.00     0.037 A 
BRANCH  42  56
ATOM     56  C   UNL A   1      43.886  28.385  35.512  1.00  0.00     0.058 A 
ATOM     57  C   UNL A   1      45.238  28.679  35.271  1.00  0.00     0.135 A 
ATOM     58  C   UNL A   1      43.594  27.330  36.392  1.00  0.00     0.135 A 
ATOM     59  F   UNL A   1      45.575  29.664  34.423  1.00  0.00    -0.206 F 
ATOM     60  C   UNL A   1      46.260  27.939  35.858  1.00  0.00     0.059 A 
ATOM     61  C   UNL A   1      44.599  26.593  37.010  1.00  0.00     0.059 A 
ATOM     62  F   UNL A   1      42.319  27.004  36.654  1.00  0.00    -0.206 F 
ATOM     63  C   UNL A   1      45.930  26.896  36.724  1.00  0.00     0.060 A 
BRANCH  63  64
ATOM     64  S   UNL A   1      47.265  25.942  37.478  1.00  0.00     0.124 S 
ATOM     65  O   UNL A   1      46.632  24.637  37.646  1.00  0.00    -0.237 OA
ATOM     66  O   UNL A   1      48.311  26.012  36.462  1.00  0.00    -0.237 OA
ATOM     67  O   UNL A   1      47.546  26.666  38.713  1.00  0.00    -0.744 OA
ENDBRANCH  63  64
ENDBRANCH  42  56
BRANCH  43  68
ATOM     68  C   UNL A   1      36.478  33.300  30.898  1.00  0.00     0.058 A 
ATOM     69  C   UNL A   1      35.158  33.175  31.352  1.00  0.00     0.135 A 
ATOM     70  C   UNL A   1      36.713  34.137  29.795  1.00  0.00     0.135 A 
ATOM     71  F   UNL A   1      34.882  32.379  32.397  1.00  0.00    -0.206 F 
ATOM     72  C   UNL A   1      34.107  33.846  30.734  1.00  0.00     0.059 A 
ATOM     73  C   UNL A   1      35.682  34.836  29.174  1.00  0.00     0.059 A 
ATOM     74  F   UNL A   1      37.960  34.302  29.328  1.00  0.00    -0.206 F 
ATOM     75  C   UNL A   1      34.381  34.677  29.647  1.00  0.00     0.060 A 
BRANCH  75  76
ATOM     76  S   UNL A   1      33.023  35.594  28.887  1.00  0.00     0.124 S 
ATOM     77  O   UNL A   1      32.359  34.549  28.117  1.00  0.00    -0.237 OA
ATOM     78  O   UNL A   1      32.296  36.089  30.053  1.00  0.00    -0.237 OA
ATOM     79  O   UNL A   1      33.708  36.619  28.105  1.00  0.00    -0.744 OA
ENDBRANCH  75  76
ENDBRANCH  43  68
BRANCH  55  80
ATOM     80  C   UNL A   1      39.762  34.116  37.004  1.00  0.00     0.058 A 
ATOM     81  C   UNL A   1      38.956  33.857  38.122  1.00  0.00     0.135 A 
ATOM     82  C   UNL A   1      40.476  35.324  36.972  1.00  0.00     0.135 A 
ATOM     83  F   UNL A   1      38.250  32.717  38.198  1.00  0.00    -0.206 F 
ATOM     84  C   UNL A   1      38.845  34.772  39.163  1.00  0.00     0.059 A 
ATOM     85  C   UNL A   1      40.399  36.243  38.014  1.00  0.00     0.059 A 
ATOM     86  F   UNL A   1      41.270  35.614  35.930  1.00  0.00    -0.206 F 
ATOM     87  C   UNL A   1      39.572  35.963  39.101  1.00  0.00     0.060 A 
BRANCH  87  88
ATOM     88  S   UNL A   1      39.446  37.128  40.473  1.00  0.00     0.124 S 
ATOM     89  O   UNL A   1      40.852  37.370  40.783  1.00  0.00    -0.237 OA
ATOM     90  O   UNL A   1      38.729  38.247  39.870  1.00  0.00    -0.237 OA
ATOM     91  O   UNL A   1      38.699  36.384  41.482  1.00  0.00    -0.744 OA
ENDBRANCH  87  88
ENDBRANCH  55  80
ENDBRANCH  29  30
ENDBRANCH  22  24
ENDBRANCH  21  22
ENDBRANCH  20  21
ENDBRANCH   1  20
TORSDOF 18
ENDMDL
