MODEL 1
REMARK VINA RESULT:     -11.8      0.000      0.000
REMARK SMILES COc1ccc(NC(=O)[C@@H]2[C@@H](C(=O)OCCOCCOC(=O)c3ccc(-c4c5nc(c(-c6c(F)cc(S(=O)(=O)[O-])cc6F)c6ccc([nH]6)c(-c6c(F)cc(S(=O)(=O)[O-])cc6F)c6nc(c(-c7c(F)cc(S(=O)(=O)[O-])cc7F)c7ccc4[nH]7)C=C6)C=C5)cc3)[C@@H]3CC[C@H]2C3=C(C)C)cc1
REMARK SMILES IDX 17 1 16 2 15 3 14 4 12 5 13 6 11 7 10 8 92 9 89 10 91 11
REMARK SMILES IDX 93 12 90 13 94 14 95 15 96 16 8 17 7 18 9 20 6 21 3 22 4 23
REMARK SMILES IDX 98 24 5 25 97 26 2 27 1 28 18 29 19 30 20 31 21 32 22 33
REMARK SMILES IDX 23 34 24 35 88 36 25 37 87 38 26 39 27 40 28 41 81 42 29 43
REMARK SMILES IDX 86 44 80 45 82 46 30 47 85 48 79 49 78 50 31 52 65 53 44 54
REMARK SMILES IDX 64 55 45 56 48 57 63 58 83 59 46 60 47 61 62 63 84 64 49 65
REMARK SMILES IDX 32 66 33 67 42 68 34 69 35 70 41 71 43 72 36 73 37 74 38 75
REMARK SMILES IDX 39 76 40 77 66 78 67 79 76 80 68 81 69 82 75 83 77 84 70 85
REMARK SMILES IDX 71 86 72 87 73 88 74 89 50 90 51 91 60 92 52 93 53 94 59 95
REMARK SMILES IDX 61 96 54 97 55 98 56 99 57 100 58 101
REMARK H PARENT 7 19 82 51 48 62
REMARK Flexibility Score: inf
ROOT
ATOM      1  O   UNL A   1      31.228  27.413  27.283  1.00  0.00    -0.374 OA
ENDROOT
BRANCH   1   2
ATOM      2  C   UNL A   1      30.690  26.461  26.369  1.00  0.00     0.202 C 
BRANCH   2   3
ATOM      3  C   UNL A   1      31.558  25.265  25.955  1.00  0.00     0.261 C 
BRANCH   3   4
ATOM      4  O   UNL A   1      31.648  24.218  26.953  1.00  0.00    -0.463 OA
BRANCH   4   5
ATOM      5  C   UNL A   1      32.722  23.396  26.830  1.00  0.00     0.310 C 
ATOM      6  O   UNL A   1      33.146  22.678  27.735  1.00  0.00    -0.252 OA
BRANCH   5   7
ATOM      7  C   UNL A   1      33.361  23.320  25.448  1.00  0.00     0.119 C 
ATOM      8  C   UNL A   1      33.576  21.957  24.800  1.00  0.00     0.101 C 
ATOM      9  C   UNL A   1      35.045  22.004  24.302  1.00  0.00     0.029 C 
ATOM     10  C   UNL A   1      34.761  23.985  25.404  1.00  0.00     0.030 C 
ATOM     11  C   UNL A   1      35.322  23.063  23.228  1.00  0.00     0.009 C 
ATOM     12  C   UNL A   1      35.737  22.842  25.361  1.00  0.00    -0.064 C 
ATOM     13  C   UNL A   1      35.131  24.417  23.983  1.00  0.00     0.009 C 
ATOM     14  C   UNL A   1      37.042  22.838  25.719  1.00  0.00    -0.077 C 
ATOM     15  C   UNL A   1      37.723  24.030  26.347  1.00  0.00     0.039 C 
ATOM     16  C   UNL A   1      37.969  21.701  25.386  1.00  0.00     0.039 C 
BRANCH   8  17
ATOM     17  C   UNL A   1      32.461  21.435  23.854  1.00  0.00     0.228 C 
ATOM     18  N   UNL A   1      32.062  20.170  23.545  1.00  0.00    -0.326 N 
ATOM     19  H   UNL A   1      31.233  20.180  23.014  1.00  0.00     0.169 HD
ATOM     20  O   UNL A   1      31.753  22.307  23.315  1.00  0.00    -0.274 OA
BRANCH  18  21
ATOM     21  C   UNL A   1      32.499  18.857  23.771  1.00  0.00     0.041 A 
ATOM     22  C   UNL A   1      33.898  16.480  24.412  1.00  0.00     0.119 A 
ATOM     23  C   UNL A   1      33.716  16.868  23.097  1.00  0.00     0.048 A 
ATOM     24  C   UNL A   1      33.218  17.198  25.397  1.00  0.00     0.048 A 
ATOM     25  C   UNL A   1      32.957  18.006  22.785  1.00  0.00     0.030 A 
ATOM     26  C   UNL A   1      32.509  18.371  25.081  1.00  0.00     0.030 A 
BRANCH  22  27
ATOM     27  O   UNL A   1      34.685  15.461  24.855  1.00  0.00    -0.497 OA
ATOM     28  C   UNL A   1      35.890  15.748  25.558  1.00  0.00     0.278 C 
ENDBRANCH  22  27
ENDBRANCH  18  21
ENDBRANCH   8  17
ENDBRANCH   5   7
ENDBRANCH   4   5
ENDBRANCH   3   4
ENDBRANCH   2   3
ENDBRANCH   1   2
BRANCH   1  29
ATOM     29  C   UNL A   1      32.524  27.925  27.020  1.00  0.00     0.202 C 
BRANCH  29  30
ATOM     30  C   UNL A   1      32.813  29.407  27.279  1.00  0.00     0.261 C 
BRANCH  30  31
ATOM     31  O   UNL A   1      34.139  29.821  27.087  1.00  0.00    -0.460 OA
BRANCH  31  32
ATOM     32  C   UNL A   1      34.611  30.637  28.038  1.00  0.00     0.338 C 
ATOM     33  O   UNL A   1      34.045  31.516  28.662  1.00  0.00    -0.246 OA
BRANCH  32  34
ATOM     34  C   UNL A   1      35.958  30.145  28.245  1.00  0.00     0.060 A 
ATOM     35  C   UNL A   1      36.276  29.678  29.519  1.00  0.00     0.016 A 
ATOM     36  C   UNL A   1      36.840  30.059  27.160  1.00  0.00     0.016 A 
ATOM     37  C   UNL A   1      37.547  29.195  29.738  1.00  0.00     0.010 A 
ATOM     38  C   UNL A   1      38.110  29.562  27.381  1.00  0.00     0.010 A 
ATOM     39  C   UNL A   1      38.472  29.192  28.683  1.00  0.00    -0.014 A 
BRANCH  39  40
ATOM     40  C   UNL A   1      39.884  28.993  29.017  1.00  0.00     0.031 A 
ATOM     41  C   UNL A   1      40.505  27.681  28.648  1.00  0.00     0.074 A 
ATOM     42  C   UNL A   1      40.577  30.008  29.554  1.00  0.00     0.049 A 
ATOM     43  N   UNL A   1      41.737  27.283  28.798  1.00  0.00    -0.248 NA
ATOM     44  C   UNL A   1      39.619  26.677  28.027  1.00  0.00     0.031 C 
ATOM     45  C   UNL A   1      40.018  31.316  29.903  1.00  0.00     0.029 A 
ATOM     46  N   UNL A   1      41.896  30.099  29.888  1.00  0.00    -0.354 N 
ATOM     47  C   UNL A   1      41.771  25.986  28.303  1.00  0.00     0.074 A 
ATOM     48  C   UNL A   1      40.434  25.645  27.881  1.00  0.00     0.031 C 
ATOM     49  C   UNL A   1      40.999  32.085  30.403  1.00  0.00     0.029 A 
ATOM     50  C   UNL A   1      42.234  31.308  30.441  1.00  0.00     0.049 A 
ATOM     51  H   UNL A   1      42.541  29.369  29.746  1.00  0.00     0.167 HD
ATOM     52  C   UNL A   1      42.840  25.166  28.205  1.00  0.00     0.037 A 
ATOM     53  C   UNL A   1      43.412  31.717  30.940  1.00  0.00     0.037 A 
ATOM     54  C   UNL A   1      44.157  25.554  28.632  1.00  0.00     0.049 A 
ATOM     55  C   UNL A   1      44.577  30.768  30.856  1.00  0.00     0.074 A 
ATOM     56  C   UNL A   1      45.331  24.829  28.569  1.00  0.00     0.029 A 
ATOM     57  N   UNL A   1      44.467  26.778  29.213  1.00  0.00    -0.354 N 
ATOM     58  N   UNL A   1      44.615  29.552  30.357  1.00  0.00    -0.248 NA
ATOM     59  C   UNL A   1      45.856  31.241  31.390  1.00  0.00     0.031 C 
ATOM     60  C   UNL A   1      46.338  25.590  29.170  1.00  0.00     0.029 A 
ATOM     61  C   UNL A   1      45.809  26.818  29.543  1.00  0.00     0.049 A 
ATOM     62  H   UNL A   1      43.825  27.509  29.366  1.00  0.00     0.167 HD
ATOM     63  C   UNL A   1      45.927  29.123  30.497  1.00  0.00     0.074 A 
ATOM     64  C   UNL A   1      46.654  30.220  31.110  1.00  0.00     0.031 C 
ATOM     65  C   UNL A   1      46.489  27.936  30.151  1.00  0.00     0.037 A 
BRANCH  52  66
ATOM     66  C   UNL A   1      42.620  23.783  27.660  1.00  0.00     0.058 A 
ATOM     67  C   UNL A   1      42.589  23.515  26.282  1.00  0.00     0.135 A 
ATOM     68  C   UNL A   1      42.461  22.698  28.539  1.00  0.00     0.135 A 
ATOM     69  F   UNL A   1      42.703  24.517  25.395  1.00  0.00    -0.206 F 
ATOM     70  C   UNL A   1      42.394  22.227  25.794  1.00  0.00     0.059 A 
ATOM     71  C   UNL A   1      42.297  21.397  28.074  1.00  0.00     0.059 A 
ATOM     72  F   UNL A   1      42.465  22.897  29.866  1.00  0.00    -0.206 F 
ATOM     73  C   UNL A   1      42.257  21.172  26.699  1.00  0.00     0.060 A 
BRANCH  73  74
ATOM     74  S   UNL A   1      42.040  19.502  26.051  1.00  0.00     0.124 S 
ATOM     75  O   UNL A   1      40.618  19.494  25.726  1.00  0.00    -0.237 OA
ATOM     76  O   UNL A   1      42.951  19.492  24.910  1.00  0.00    -0.237 OA
ATOM     77  O   UNL A   1      42.432  18.649  27.168  1.00  0.00    -0.744 OA
ENDBRANCH  73  74
ENDBRANCH  52  66
BRANCH  53  78
ATOM     78  C   UNL A   1      43.527  33.060  31.561  1.00  0.00     0.058 A 
ATOM     79  C   UNL A   1      43.718  34.211  30.786  1.00  0.00     0.135 A 
ATOM     80  C   UNL A   1      43.417  33.220  32.952  1.00  0.00     0.135 A 
ATOM     81  F   UNL A   1      43.826  34.113  29.453  1.00  0.00    -0.206 F 
ATOM     82  C   UNL A   1      43.819  35.471  31.368  1.00  0.00     0.059 A 
ATOM     83  C   UNL A   1      43.483  34.471  33.554  1.00  0.00     0.059 A 
ATOM     84  F   UNL A   1      43.210  32.152  33.739  1.00  0.00    -0.206 F 
ATOM     85  C   UNL A   1      43.698  35.591  32.753  1.00  0.00     0.060 A 
BRANCH  85  86
ATOM     86  S   UNL A   1      43.801  37.234  33.494  1.00  0.00     0.124 S 
ATOM     87  O   UNL A   1      43.802  38.088  32.314  1.00  0.00    -0.237 OA
ATOM     88  O   UNL A   1      42.593  37.274  34.313  1.00  0.00    -0.237 OA
ATOM     89  O   UNL A   1      45.054  37.188  34.242  1.00  0.00    -0.744 OA
ENDBRANCH  85  86
ENDBRANCH  53  78
BRANCH  65  90
ATOM     90  C   UNL A   1      47.962  27.783  30.400  1.00  0.00     0.058 A 
ATOM     91  C   UNL A   1      48.457  27.263  31.606  1.00  0.00     0.135 A 
ATOM     92  C   UNL A   1      48.884  28.110  29.393  1.00  0.00     0.135 A 
ATOM     93  F   UNL A   1      47.615  26.942  32.601  1.00  0.00    -0.206 F 
ATOM     94  C   UNL A   1      49.821  27.100  31.816  1.00  0.00     0.059 A 
ATOM     95  C   UNL A   1      50.249  27.919  29.568  1.00  0.00     0.059 A 
ATOM     96  F   UNL A   1      48.458  28.596  28.217  1.00  0.00    -0.206 F 
ATOM     97  C   UNL A   1      50.709  27.427  30.789  1.00  0.00     0.060 A 
BRANCH  97  98
ATOM     98  S   UNL A   1      52.473  27.178  31.064  1.00  0.00     0.124 S 
ATOM     99  O   UNL A   1      53.020  27.476  29.745  1.00  0.00    -0.237 OA
ATOM    100  O   UNL A   1      52.765  28.155  32.108  1.00  0.00    -0.237 OA
ATOM    101  O   UNL A   1      52.559  25.781  31.480  1.00  0.00    -0.744 OA
ENDBRANCH  97  98
ENDBRANCH  65  90
ENDBRANCH  39  40
ENDBRANCH  32  34
ENDBRANCH  31  32
ENDBRANCH  30  31
ENDBRANCH  29  30
ENDBRANCH   1  29
TORSDOF 20
ENDMDL
MODEL 2
REMARK VINA RESULT:     -11.6      4.682      9.358
REMARK SMILES COc1ccc(NC(=O)[C@@H]2[C@@H](C(=O)OCCOCCOC(=O)c3ccc(-c4c5nc(c(-c6c(F)cc(S(=O)(=O)[O-])cc6F)c6ccc([nH]6)c(-c6c(F)cc(S(=O)(=O)[O-])cc6F)c6nc(c(-c7c(F)cc(S(=O)(=O)[O-])cc7F)c7ccc4[nH]7)C=C6)C=C5)cc3)[C@@H]3CC[C@H]2C3=C(C)C)cc1
REMARK SMILES IDX 17 1 16 2 15 3 14 4 12 5 13 6 11 7 10 8 92 9 89 10 91 11
REMARK SMILES IDX 93 12 90 13 94 14 95 15 96 16 8 17 7 18 9 20 6 21 3 22 4 23
REMARK SMILES IDX 98 24 5 25 97 26 2 27 1 28 18 29 19 30 20 31 21 32 22 33
REMARK SMILES IDX 23 34 24 35 88 36 25 37 87 38 26 39 27 40 28 41 81 42 29 43
REMARK SMILES IDX 86 44 80 45 82 46 30 47 85 48 79 49 78 50 31 52 65 53 44 54
REMARK SMILES IDX 64 55 45 56 48 57 63 58 83 59 46 60 47 61 62 63 84 64 49 65
REMARK SMILES IDX 32 66 33 67 42 68 34 69 35 70 41 71 43 72 36 73 37 74 38 75
REMARK SMILES IDX 39 76 40 77 66 78 67 79 76 80 68 81 69 82 75 83 77 84 70 85
REMARK SMILES IDX 71 86 72 87 73 88 74 89 50 90 51 91 60 92 52 93 53 94 59 95
REMARK SMILES IDX 61 96 54 97 55 98 56 99 57 100 58 101
REMARK H PARENT 7 19 82 51 48 62
REMARK Flexibility Score: inf
ROOT
ATOM      1  O   UNL A   1      37.436  22.278  24.588  1.00  0.00    -0.374 OA
ENDROOT
BRANCH   1   2
ATOM      2  C   UNL A   1      36.750  23.072  23.624  1.00  0.00     0.202 C 
BRANCH   2   3
ATOM      3  C   UNL A   1      35.444  23.765  24.035  1.00  0.00     0.261 C 
BRANCH   3   4
ATOM      4  O   UNL A   1      34.509  23.972  22.946  1.00  0.00    -0.463 OA
BRANCH   4   5
ATOM      5  C   UNL A   1      33.206  23.755  23.257  1.00  0.00     0.310 C 
ATOM      6  O   UNL A   1      32.486  22.941  22.679  1.00  0.00    -0.252 OA
BRANCH   5   7
ATOM      7  C   UNL A   1      32.660  24.520  24.458  1.00  0.00     0.119 C 
ATOM      8  C   UNL A   1      31.384  24.034  25.137  1.00  0.00     0.101 C 
ATOM      9  C   UNL A   1      30.522  25.316  25.279  1.00  0.00     0.029 C 
ATOM     10  C   UNL A   1      32.371  26.009  24.132  1.00  0.00     0.030 C 
ATOM     11  C   UNL A   1      31.128  26.397  26.182  1.00  0.00     0.009 C 
ATOM     12  C   UNL A   1      30.874  26.105  24.032  1.00  0.00    -0.064 C 
ATOM     13  C   UNL A   1      32.391  26.873  25.395  1.00  0.00     0.009 C 
ATOM     14  C   UNL A   1      30.134  27.036  23.386  1.00  0.00    -0.077 C 
ATOM     15  C   UNL A   1      30.744  28.122  22.535  1.00  0.00     0.039 C 
ATOM     16  C   UNL A   1      28.647  27.163  23.579  1.00  0.00     0.039 C 
BRANCH   8  17
ATOM     17  C   UNL A   1      31.544  23.077  26.348  1.00  0.00     0.228 C 
ATOM     18  N   UNL A   1      32.228  21.908  26.487  1.00  0.00    -0.326 N 
ATOM     19  H   UNL A   1      32.241  21.614  27.427  1.00  0.00     0.169 HD
ATOM     20  O   UNL A   1      31.011  23.450  27.410  1.00  0.00    -0.274 OA
BRANCH  18  21
ATOM     21  C   UNL A   1      32.921  21.004  25.669  1.00  0.00     0.041 A 
ATOM     22  C   UNL A   1      34.195  18.780  24.466  1.00  0.00     0.119 A 
ATOM     23  C   UNL A   1      34.932  19.793  25.053  1.00  0.00     0.048 A 
ATOM     24  C   UNL A   1      32.820  18.979  24.326  1.00  0.00     0.048 A 
ATOM     25  C   UNL A   1      34.296  20.927  25.580  1.00  0.00     0.030 A 
ATOM     26  C   UNL A   1      32.185  20.090  24.910  1.00  0.00     0.030 A 
BRANCH  22  27
ATOM     27  O   UNL A   1      34.673  17.590  24.006  1.00  0.00    -0.497 OA
ATOM     28  C   UNL A   1      33.888  16.807  23.112  1.00  0.00     0.278 C 
ENDBRANCH  22  27
ENDBRANCH  18  21
ENDBRANCH   8  17
ENDBRANCH   5   7
ENDBRANCH   4   5
ENDBRANCH   3   4
ENDBRANCH   2   3
ENDBRANCH   1   2
BRANCH   1  29
ATOM     29  C   UNL A   1      37.689  22.850  25.860  1.00  0.00     0.202 C 
BRANCH  29  30
ATOM     30  C   UNL A   1      39.057  23.479  26.142  1.00  0.00     0.261 C 
BRANCH  30  31
ATOM     31  O   UNL A   1      39.047  24.811  26.582  1.00  0.00    -0.460 OA
BRANCH  31  32
ATOM     32  C   UNL A   1      40.204  25.463  26.409  1.00  0.00     0.338 C 
ATOM     33  O   UNL A   1      40.957  25.474  25.453  1.00  0.00    -0.246 OA
BRANCH  32  34
ATOM     34  C   UNL A   1      40.302  26.268  27.611  1.00  0.00     0.060 A 
ATOM     35  C   UNL A   1      39.427  25.965  28.651  1.00  0.00     0.016 A 
ATOM     36  C   UNL A   1      41.318  27.225  27.722  1.00  0.00     0.016 A 
ATOM     37  C   UNL A   1      39.508  26.708  29.808  1.00  0.00     0.010 A 
ATOM     38  C   UNL A   1      41.404  27.960  28.890  1.00  0.00     0.010 A 
ATOM     39  C   UNL A   1      40.458  27.736  29.899  1.00  0.00    -0.014 A 
BRANCH  39  40
ATOM     40  C   UNL A   1      40.306  28.712  30.982  1.00  0.00     0.031 A 
ATOM     41  C   UNL A   1      41.217  28.582  32.164  1.00  0.00     0.074 A 
ATOM     42  C   UNL A   1      39.429  29.715  30.837  1.00  0.00     0.049 A 
ATOM     43  N   UNL A   1      41.305  29.339  33.220  1.00  0.00    -0.248 NA
ATOM     44  C   UNL A   1      42.156  27.443  32.158  1.00  0.00     0.031 C 
ATOM     45  C   UNL A   1      38.541  29.898  29.686  1.00  0.00     0.029 A 
ATOM     46  N   UNL A   1      39.150  30.771  31.654  1.00  0.00    -0.354 N 
ATOM     47  C   UNL A   1      42.296  28.766  34.006  1.00  0.00     0.074 A 
ATOM     48  C   UNL A   1      42.757  27.578  33.329  1.00  0.00     0.031 C 
ATOM     49  C   UNL A   1      37.813  31.011  29.874  1.00  0.00     0.029 A 
ATOM     50  C   UNL A   1      38.162  31.588  31.169  1.00  0.00     0.049 A 
ATOM     51  H   UNL A   1      39.614  30.930  32.508  1.00  0.00     0.167 HD
ATOM     52  C   UNL A   1      42.778  29.212  35.187  1.00  0.00     0.037 A 
ATOM     53  C   UNL A   1      37.595  32.667  31.733  1.00  0.00     0.037 A 
ATOM     54  C   UNL A   1      42.291  30.408  35.820  1.00  0.00     0.049 A 
ATOM     55  C   UNL A   1      38.121  33.119  33.068  1.00  0.00     0.074 A 
ATOM     56  C   UNL A   1      42.706  30.985  37.005  1.00  0.00     0.029 A 
ATOM     57  N   UNL A   1      41.269  31.205  35.318  1.00  0.00    -0.354 N 
ATOM     58  N   UNL A   1      39.082  32.593  33.796  1.00  0.00    -0.248 NA
ATOM     59  C   UNL A   1      37.501  34.308  33.657  1.00  0.00     0.031 C 
ATOM     60  C   UNL A   1      41.892  32.095  37.250  1.00  0.00     0.029 A 
ATOM     61  C   UNL A   1      41.017  32.252  36.184  1.00  0.00     0.049 A 
ATOM     62  H   UNL A   1      40.795  31.046  34.469  1.00  0.00     0.167 HD
ATOM     63  C   UNL A   1      39.197  33.402  34.918  1.00  0.00     0.074 A 
ATOM     64  C   UNL A   1      38.219  34.462  34.761  1.00  0.00     0.031 C 
ATOM     65  C   UNL A   1      40.032  33.287  35.983  1.00  0.00     0.037 A 
BRANCH  52  66
ATOM     66  C   UNL A   1      43.837  28.395  35.870  1.00  0.00     0.058 A 
ATOM     67  C   UNL A   1      45.207  28.620  35.665  1.00  0.00     0.135 A 
ATOM     68  C   UNL A   1      43.471  27.380  36.771  1.00  0.00     0.135 A 
ATOM     69  F   UNL A   1      45.617  29.556  34.792  1.00  0.00    -0.206 F 
ATOM     70  C   UNL A   1      46.177  27.862  36.314  1.00  0.00     0.059 A 
ATOM     71  C   UNL A   1      44.423  26.630  37.454  1.00  0.00     0.059 A 
ATOM     72  F   UNL A   1      42.176  27.109  36.993  1.00  0.00    -0.206 F 
ATOM     73  C   UNL A   1      45.773  26.873  37.214  1.00  0.00     0.060 A 
BRANCH  73  74
ATOM     74  S   UNL A   1      47.042  25.921  38.074  1.00  0.00     0.124 S 
ATOM     75  O   UNL A   1      47.549  26.901  39.029  1.00  0.00    -0.237 OA
ATOM     76  O   UNL A   1      46.270  24.821  38.645  1.00  0.00    -0.237 OA
ATOM     77  O   UNL A   1      47.968  25.546  37.010  1.00  0.00    -0.744 OA
ENDBRANCH  73  74
ENDBRANCH  52  66
BRANCH  53  78
ATOM     78  C   UNL A   1      36.477  33.361  31.046  1.00  0.00     0.058 A 
ATOM     79  C   UNL A   1      35.167  33.301  31.537  1.00  0.00     0.135 A 
ATOM     80  C   UNL A   1      36.708  34.127  29.891  1.00  0.00     0.135 A 
ATOM     81  F   UNL A   1      34.894  32.587  32.639  1.00  0.00    -0.206 F 
ATOM     82  C   UNL A   1      34.119  33.957  30.897  1.00  0.00     0.059 A 
ATOM     83  C   UNL A   1      35.684  34.816  29.251  1.00  0.00     0.059 A 
ATOM     84  F   UNL A   1      37.949  34.235  29.392  1.00  0.00    -0.206 F 
ATOM     85  C   UNL A   1      34.389  34.713  29.755  1.00  0.00     0.060 A 
BRANCH  85  86
ATOM     86  S   UNL A   1      33.028  35.584  28.950  1.00  0.00     0.124 S 
ATOM     87  O   UNL A   1      33.739  36.618  28.210  1.00  0.00    -0.237 OA
ATOM     88  O   UNL A   1      32.422  34.525  28.148  1.00  0.00    -0.237 OA
ATOM     89  O   UNL A   1      32.218  36.053  30.071  1.00  0.00    -0.744 OA
ENDBRANCH  85  86
ENDBRANCH  53  78
BRANCH  65  90
ATOM     90  C   UNL A   1      39.940  34.353  37.037  1.00  0.00     0.058 A 
ATOM     91  C   UNL A   1      40.644  35.562  36.927  1.00  0.00     0.135 A 
ATOM     92  C   UNL A   1      39.090  34.181  38.141  1.00  0.00     0.135 A 
ATOM     93  F   UNL A   1      41.474  35.770  35.893  1.00  0.00    -0.206 F 
ATOM     94  C   UNL A   1      40.531  36.554  37.894  1.00  0.00     0.059 A 
ATOM     95  C   UNL A   1      38.933  35.175  39.099  1.00  0.00     0.059 A 
ATOM     96  F   UNL A   1      38.384  33.049  38.282  1.00  0.00    -0.206 F 
ATOM     97  C   UNL A   1      39.669  36.352  38.974  1.00  0.00     0.060 A 
BRANCH  97  98
ATOM     98  S   UNL A   1      39.508  37.662  40.202  1.00  0.00     0.124 S 
ATOM     99  O   UNL A   1      40.860  38.210  40.225  1.00  0.00    -0.237 OA
ATOM    100  O   UNL A   1      38.486  38.519  39.611  1.00  0.00    -0.237 OA
ATOM    101  O   UNL A   1      39.098  36.949  41.409  1.00  0.00    -0.744 OA
ENDBRANCH  97  98
ENDBRANCH  65  90
ENDBRANCH  39  40
ENDBRANCH  32  34
ENDBRANCH  31  32
ENDBRANCH  30  31
ENDBRANCH  29  30
ENDBRANCH   1  29
TORSDOF 20
ENDMDL
MODEL 3
REMARK VINA RESULT:     -11.5      2.342      8.068
REMARK SMILES COc1ccc(NC(=O)[C@@H]2[C@@H](C(=O)OCCOCCOC(=O)c3ccc(-c4c5nc(c(-c6c(F)cc(S(=O)(=O)[O-])cc6F)c6ccc([nH]6)c(-c6c(F)cc(S(=O)(=O)[O-])cc6F)c6nc(c(-c7c(F)cc(S(=O)(=O)[O-])cc7F)c7ccc4[nH]7)C=C6)C=C5)cc3)[C@@H]3CC[C@H]2C3=C(C)C)cc1
REMARK SMILES IDX 17 1 16 2 15 3 14 4 12 5 13 6 11 7 10 8 92 9 89 10 91 11
REMARK SMILES IDX 93 12 90 13 94 14 95 15 96 16 8 17 7 18 9 20 6 21 3 22 4 23
REMARK SMILES IDX 98 24 5 25 97 26 2 27 1 28 18 29 19 30 20 31 21 32 22 33
REMARK SMILES IDX 23 34 24 35 88 36 25 37 87 38 26 39 27 40 28 41 81 42 29 43
REMARK SMILES IDX 86 44 80 45 82 46 30 47 85 48 79 49 78 50 31 52 65 53 44 54
REMARK SMILES IDX 64 55 45 56 48 57 63 58 83 59 46 60 47 61 62 63 84 64 49 65
REMARK SMILES IDX 32 66 33 67 42 68 34 69 35 70 41 71 43 72 36 73 37 74 38 75
REMARK SMILES IDX 39 76 40 77 66 78 67 79 76 80 68 81 69 82 75 83 77 84 70 85
REMARK SMILES IDX 71 86 72 87 73 88 74 89 50 90 51 91 60 92 52 93 53 94 59 95
REMARK SMILES IDX 61 96 54 97 55 98 56 99 57 100 58 101
REMARK H PARENT 7 19 82 51 48 62
REMARK Flexibility Score: inf
ROOT
ATOM      1  O   UNL A   1      31.899  27.628  26.271  1.00  0.00    -0.374 OA
ENDROOT
BRANCH   1   2
ATOM      2  C   UNL A   1      31.830  26.698  25.192  1.00  0.00     0.202 C 
BRANCH   2   3
ATOM      3  C   UNL A   1      31.385  25.259  25.487  1.00  0.00     0.261 C 
BRANCH   3   4
ATOM      4  O   UNL A   1      31.932  24.702  26.708  1.00  0.00    -0.463 OA
BRANCH   4   5
ATOM      5  C   UNL A   1      32.646  23.558  26.550  1.00  0.00     0.310 C 
ATOM      6  O   UNL A   1      32.678  22.647  27.376  1.00  0.00    -0.252 OA
BRANCH   5   7
ATOM      7  C   UNL A   1      33.366  23.388  25.216  1.00  0.00     0.119 C 
ATOM      8  C   UNL A   1      33.592  21.986  24.663  1.00  0.00     0.101 C 
ATOM      9  C   UNL A   1      35.089  21.979  24.255  1.00  0.00     0.029 C 
ATOM     10  C   UNL A   1      34.779  24.026  25.220  1.00  0.00     0.030 C 
ATOM     11  C   UNL A   1      35.452  22.967  23.140  1.00  0.00     0.009 C 
ATOM     12  C   UNL A   1      35.732  22.866  25.304  1.00  0.00    -0.064 C 
ATOM     13  C   UNL A   1      35.244  24.367  23.802  1.00  0.00     0.009 C 
ATOM     14  C   UNL A   1      37.013  22.862  25.742  1.00  0.00    -0.077 C 
ATOM     15  C   UNL A   1      37.679  24.077  26.340  1.00  0.00     0.039 C 
ATOM     16  C   UNL A   1      37.935  21.690  25.533  1.00  0.00     0.039 C 
BRANCH   8  17
ATOM     17  C   UNL A   1      32.526  21.428  23.682  1.00  0.00     0.228 C 
ATOM     18  N   UNL A   1      32.132  20.153  23.411  1.00  0.00    -0.326 N 
ATOM     19  H   UNL A   1      31.333  20.143  22.834  1.00  0.00     0.169 HD
ATOM     20  O   UNL A   1      31.857  22.278  23.064  1.00  0.00    -0.274 OA
BRANCH  18  21
ATOM     21  C   UNL A   1      32.543  18.849  23.722  1.00  0.00     0.041 A 
ATOM     22  C   UNL A   1      33.875  16.496  24.563  1.00  0.00     0.119 A 
ATOM     23  C   UNL A   1      33.797  16.831  23.223  1.00  0.00     0.048 A 
ATOM     24  C   UNL A   1      33.126  17.255  25.464  1.00  0.00     0.048 A 
ATOM     25  C   UNL A   1      33.070  17.958  22.809  1.00  0.00     0.030 A 
ATOM     26  C   UNL A   1      32.450  18.417  25.048  1.00  0.00     0.030 A 
BRANCH  22  27
ATOM     27  O   UNL A   1      34.620  15.494  25.106  1.00  0.00    -0.497 OA
ATOM     28  C   UNL A   1      35.950  15.754  25.544  1.00  0.00     0.278 C 
ENDBRANCH  22  27
ENDBRANCH  18  21
ENDBRANCH   8  17
ENDBRANCH   5   7
ENDBRANCH   4   5
ENDBRANCH   3   4
ENDBRANCH   2   3
ENDBRANCH   1   2
BRANCH   1  29
ATOM     29  C   UNL A   1      31.851  29.009  25.959  1.00  0.00     0.202 C 
BRANCH  29  30
ATOM     30  C   UNL A   1      32.539  30.014  26.888  1.00  0.00     0.261 C 
BRANCH  30  31
ATOM     31  O   UNL A   1      33.900  29.791  27.141  1.00  0.00    -0.460 OA
BRANCH  31  32
ATOM     32  C   UNL A   1      34.567  30.864  27.585  1.00  0.00     0.338 C 
ATOM     33  O   UNL A   1      34.203  32.022  27.684  1.00  0.00    -0.246 OA
BRANCH  32  34
ATOM     34  C   UNL A   1      35.820  30.298  28.043  1.00  0.00     0.060 A 
ATOM     35  C   UNL A   1      35.808  29.636  29.268  1.00  0.00     0.016 A 
ATOM     36  C   UNL A   1      36.946  30.342  27.211  1.00  0.00     0.016 A 
ATOM     37  C   UNL A   1      36.984  29.080  29.720  1.00  0.00     0.010 A 
ATOM     38  C   UNL A   1      38.121  29.772  27.662  1.00  0.00     0.010 A 
ATOM     39  C   UNL A   1      38.145  29.199  28.941  1.00  0.00    -0.014 A 
BRANCH  39  40
ATOM     40  C   UNL A   1      39.429  28.901  29.580  1.00  0.00     0.031 A 
ATOM     41  C   UNL A   1      39.810  29.715  30.779  1.00  0.00     0.074 A 
ATOM     42  C   UNL A   1      40.161  27.875  29.126  1.00  0.00     0.049 A 
ATOM     43  N   UNL A   1      40.866  29.616  31.536  1.00  0.00    -0.248 NA
ATOM     44  C   UNL A   1      38.878  30.787  31.179  1.00  0.00     0.031 C 
ATOM     45  C   UNL A   1      39.813  27.035  27.977  1.00  0.00     0.029 A 
ATOM     46  N   UNL A   1      41.339  27.360  29.580  1.00  0.00    -0.354 N 
ATOM     47  C   UNL A   1      40.731  30.615  32.492  1.00  0.00     0.074 A 
ATOM     48  C   UNL A   1      39.514  31.335  32.203  1.00  0.00     0.031 C 
ATOM     49  C   UNL A   1      40.765  26.101  27.820  1.00  0.00     0.029 A 
ATOM     50  C   UNL A   1      41.797  26.306  28.831  1.00  0.00     0.049 A 
ATOM     51  H   UNL A   1      41.814  27.710  30.369  1.00  0.00     0.167 HD
ATOM     52  C   UNL A   1      41.557  30.889  33.525  1.00  0.00     0.037 A 
ATOM     53  C   UNL A   1      42.940  25.611  28.948  1.00  0.00     0.037 A 
ATOM     54  C   UNL A   1      42.756  30.137  33.779  1.00  0.00     0.049 A 
ATOM     55  C   UNL A   1      43.863  25.963  30.083  1.00  0.00     0.074 A 
ATOM     56  C   UNL A   1      43.671  30.294  34.802  1.00  0.00     0.029 A 
ATOM     57  N   UNL A   1      43.211  29.089  32.987  1.00  0.00    -0.354 N 
ATOM     58  N   UNL A   1      43.718  26.888  31.006  1.00  0.00    -0.248 NA
ATOM     59  C   UNL A   1      45.095  25.180  30.203  1.00  0.00     0.031 C 
ATOM     60  C   UNL A   1      44.710  29.383  34.594  1.00  0.00     0.029 A 
ATOM     61  C   UNL A   1      44.409  28.609  33.481  1.00  0.00     0.049 A 
ATOM     62  H   UNL A   1      42.746  28.740  32.192  1.00  0.00     0.167 HD
ATOM     63  C   UNL A   1      44.830  26.783  31.830  1.00  0.00     0.074 A 
ATOM     64  C   UNL A   1      45.627  25.690  31.305  1.00  0.00     0.031 C 
ATOM     65  C   UNL A   1      45.167  27.515  32.923  1.00  0.00     0.037 A 
BRANCH  52  66
ATOM     66  C   UNL A   1      41.214  32.051  34.413  1.00  0.00     0.058 A 
ATOM     67  C   UNL A   1      41.659  33.355  34.147  1.00  0.00     0.135 A 
ATOM     68  C   UNL A   1      40.400  31.858  35.542  1.00  0.00     0.135 A 
ATOM     69  F   UNL A   1      42.465  33.596  33.100  1.00  0.00    -0.206 F 
ATOM     70  C   UNL A   1      41.323  34.423  34.974  1.00  0.00     0.059 A 
ATOM     71  C   UNL A   1      40.025  32.915  36.365  1.00  0.00     0.059 A 
ATOM     72  F   UNL A   1      39.959  30.629  35.855  1.00  0.00    -0.206 F 
ATOM     73  C   UNL A   1      40.498  34.193  36.077  1.00  0.00     0.060 A 
BRANCH  73  74
ATOM     74  S   UNL A   1      40.043  35.594  37.120  1.00  0.00     0.124 S 
ATOM     75  O   UNL A   1      38.946  35.035  37.902  1.00  0.00    -0.237 OA
ATOM     76  O   UNL A   1      41.279  35.848  37.854  1.00  0.00    -0.237 OA
ATOM     77  O   UNL A   1      39.665  36.626  36.160  1.00  0.00    -0.744 OA
ENDBRANCH  73  74
ENDBRANCH  52  66
BRANCH  53  78
ATOM     78  C   UNL A   1      43.263  24.545  27.966  1.00  0.00     0.058 A 
ATOM     79  C   UNL A   1      44.004  24.817  26.809  1.00  0.00     0.135 A 
ATOM     80  C   UNL A   1      42.855  23.219  28.184  1.00  0.00     0.135 A 
ATOM     81  F   UNL A   1      44.421  26.067  26.556  1.00  0.00    -0.206 F 
ATOM     82  C   UNL A   1      44.313  23.818  25.891  1.00  0.00     0.059 A 
ATOM     83  C   UNL A   1      43.177  22.197  27.298  1.00  0.00     0.059 A 
ATOM     84  F   UNL A   1      42.161  22.900  29.289  1.00  0.00    -0.206 F 
ATOM     85  C   UNL A   1      43.896  22.510  26.146  1.00  0.00     0.060 A 
BRANCH  85  86
ATOM     86  S   UNL A   1      44.327  21.216  24.963  1.00  0.00     0.124 S 
ATOM     87  O   UNL A   1      43.252  20.255  25.176  1.00  0.00    -0.237 OA
ATOM     88  O   UNL A   1      44.296  21.940  23.696  1.00  0.00    -0.237 OA
ATOM     89  O   UNL A   1      45.653  20.788  25.400  1.00  0.00    -0.744 OA
ENDBRANCH  85  86
ENDBRANCH  53  78
BRANCH  65  90
ATOM     90  C   UNL A   1      46.433  27.132  33.634  1.00  0.00     0.058 A 
ATOM     91  C   UNL A   1      46.452  26.137  34.623  1.00  0.00     0.135 A 
ATOM     92  C   UNL A   1      47.651  27.731  33.275  1.00  0.00     0.135 A 
ATOM     93  F   UNL A   1      45.312  25.540  35.005  1.00  0.00    -0.206 F 
ATOM     94  C   UNL A   1      47.634  25.770  35.256  1.00  0.00     0.059 A 
ATOM     95  C   UNL A   1      48.849  27.352  33.868  1.00  0.00     0.059 A 
ATOM     96  F   UNL A   1      47.687  28.676  32.324  1.00  0.00    -0.206 F 
ATOM     97  C   UNL A   1      48.828  26.381  34.868  1.00  0.00     0.060 A 
BRANCH  97  98
ATOM     98  S   UNL A   1      50.357  25.871  35.675  1.00  0.00     0.124 S 
ATOM     99  O   UNL A   1      51.344  26.159  34.640  1.00  0.00    -0.237 OA
ATOM    100  O   UNL A   1      50.395  26.738  36.847  1.00  0.00    -0.237 OA
ATOM    101  O   UNL A   1      50.137  24.455  35.957  1.00  0.00    -0.744 OA
ENDBRANCH  97  98
ENDBRANCH  65  90
ENDBRANCH  39  40
ENDBRANCH  32  34
ENDBRANCH  31  32
ENDBRANCH  30  31
ENDBRANCH  29  30
ENDBRANCH   1  29
TORSDOF 20
ENDMDL
