MODEL 1
REMARK VINA RESULT:     -10.6      0.000      0.000
REMARK SMILES COc1ccc(CC(=O)OCCOCCOC(=O)c2ccc(-c3c4nc(c(-c5c(F)cc(S(=O)(=O)[O-])cc5F)c5ccc([nH]5)c(-c5c(F)cc(S(=O)(=O)[O-])cc5F)c5nc(c(-c6c(F)cc(S(=O)(=O)[O-])cc6F)c6ccc3[nH]6)C=C5)C=C4)cc2)cc1S(=O)(=O)Nc1ccccc1Br
REMARK SMILES IDX 12 1 11 2 10 3 8 4 9 5 7 6 6 7 3 8 4 9 86 10 5 11 85 12 2 13
REMARK SMILES IDX 1 14 87 15 88 16 89 17 90 18 91 20 92 21 96 22 93 23 95 24
REMARK SMILES IDX 97 25 94 26 13 27 14 28 15 29 16 30 17 31 18 32 19 33 20 34
REMARK SMILES IDX 84 35 21 36 83 37 22 38 23 39 24 40 77 41 25 42 82 43 76 44
REMARK SMILES IDX 78 45 26 46 81 47 75 48 74 49 27 51 61 52 40 53 60 54 41 55
REMARK SMILES IDX 44 56 59 57 79 58 42 59 43 60 58 62 80 63 45 64 28 65 29 66
REMARK SMILES IDX 38 67 30 68 31 69 37 70 39 71 32 72 33 73 34 74 35 75 36 76
REMARK SMILES IDX 62 77 63 78 72 79 64 80 65 81 71 82 73 83 66 84 67 85 68 86
REMARK SMILES IDX 69 87 70 88 46 89 47 90 56 91 48 92 49 93 55 94 57 95 50 96
REMARK SMILES IDX 51 97 52 98 53 99 54 100
REMARK H PARENT 90 19 78 50 44 61
REMARK Flexibility Score: inf
ROOT
ATOM      1  C   UNL A   1      33.380  30.273  27.254  1.00  0.00     0.202 C 
ENDROOT
BRANCH   1   2
ATOM      2  C   UNL A   1      33.120  29.123  26.277  1.00  0.00     0.261 C 
BRANCH   2   3
ATOM      3  O   UNL A   1      31.726  28.806  26.116  1.00  0.00    -0.463 OA
BRANCH   3   4
ATOM      4  C   UNL A   1      31.471  27.593  25.556  1.00  0.00     0.310 C 
ATOM      5  O   UNL A   1      30.890  27.421  24.489  1.00  0.00    -0.252 OA
BRANCH   4   6
ATOM      6  C   UNL A   1      31.880  26.440  26.428  1.00  0.00     0.158 C 
BRANCH   6   7
ATOM      7  C   UNL A   1      32.916  25.450  25.937  1.00  0.00    -0.035 A 
ATOM      8  C   UNL A   1      34.341  23.547  24.438  1.00  0.00     0.139 A 
ATOM      9  C   UNL A   1      34.681  24.905  24.371  1.00  0.00     0.048 A 
ATOM     10  C   UNL A   1      33.418  23.108  25.378  1.00  0.00     0.129 A 
ATOM     11  C   UNL A   1      33.962  25.855  25.102  1.00  0.00     0.008 A 
ATOM     12  C   UNL A   1      32.708  24.073  26.127  1.00  0.00     0.030 A 
BRANCH   8  13
ATOM     13  O   UNL A   1      34.933  22.744  23.509  1.00  0.00    -0.495 OA
ATOM     14  C   UNL A   1      36.332  23.018  23.396  1.00  0.00     0.278 C 
ENDBRANCH   8  13
BRANCH  10  15
ATOM     15  S   UNL A   1      32.894  21.425  25.586  1.00  0.00     0.265 S 
ATOM     16  O   UNL A   1      33.542  20.919  26.778  1.00  0.00    -0.201 OA
ATOM     17  O   UNL A   1      31.442  21.474  25.540  1.00  0.00    -0.201 OA
BRANCH  15  18
ATOM     18  N   UNL A   1      33.305  20.375  24.334  1.00  0.00    -0.278 N 
ATOM     19  H   UNL A   1      33.344  20.744  23.422  1.00  0.00     0.180 HD
BRANCH  18  20
ATOM     20  C   UNL A   1      33.603  18.986  24.499  1.00  0.00     0.063 A 
ATOM     21  C   UNL A   1      32.497  18.121  24.568  1.00  0.00     0.028 A 
ATOM     22  C   UNL A   1      34.885  18.448  24.627  1.00  0.00     0.042 A 
ATOM     23  C   UNL A   1      32.669  16.739  24.647  1.00  0.00     0.002 A 
ATOM     24  C   UNL A   1      35.059  17.059  24.696  1.00  0.00     0.018 A 
ATOM     25  Br  UNL A   1      36.419  19.534  24.812  1.00  0.00    -0.049 Br
ATOM     26  C   UNL A   1      33.953  16.206  24.686  1.00  0.00     0.001 A 
ENDBRANCH  18  20
ENDBRANCH  15  18
ENDBRANCH  10  15
ENDBRANCH   6   7
ENDBRANCH   4   6
ENDBRANCH   3   4
ENDBRANCH   2   3
ENDBRANCH   1   2
BRANCH   1  27
ATOM     27  O   UNL A   1      34.701  30.809  27.301  1.00  0.00    -0.374 OA
BRANCH  27  28
ATOM     28  C   UNL A   1      34.893  32.019  28.027  1.00  0.00     0.202 C 
BRANCH  28  29
ATOM     29  C   UNL A   1      34.919  31.929  29.559  1.00  0.00     0.261 C 
BRANCH  29  30
ATOM     30  O   UNL A   1      36.240  31.730  30.087  1.00  0.00    -0.460 OA
BRANCH  30  31
ATOM     31  C   UNL A   1      36.611  30.429  30.220  1.00  0.00     0.338 C 
ATOM     32  O   UNL A   1      35.892  29.486  30.498  1.00  0.00    -0.246 OA
BRANCH  31  33
ATOM     33  C   UNL A   1      38.021  30.269  29.815  1.00  0.00     0.060 A 
ATOM     34  C   UNL A   1      38.303  30.057  28.461  1.00  0.00     0.016 A 
ATOM     35  C   UNL A   1      39.048  30.263  30.757  1.00  0.00     0.016 A 
ATOM     36  C   UNL A   1      39.613  29.795  28.056  1.00  0.00     0.010 A 
ATOM     37  C   UNL A   1      40.363  30.019  30.350  1.00  0.00     0.010 A 
ATOM     38  C   UNL A   1      40.646  29.741  29.003  1.00  0.00    -0.014 A 
BRANCH  38  39
ATOM     39  C   UNL A   1      41.984  29.236  28.605  1.00  0.00     0.031 A 
ATOM     40  C   UNL A   1      43.145  30.195  28.583  1.00  0.00     0.074 A 
ATOM     41  C   UNL A   1      42.169  27.940  28.296  1.00  0.00     0.049 A 
ATOM     42  N   UNL A   1      44.397  29.977  28.272  1.00  0.00    -0.248 NA
ATOM     43  C   UNL A   1      42.857  31.589  28.959  1.00  0.00     0.031 C 
ATOM     44  C   UNL A   1      41.125  26.917  28.289  1.00  0.00     0.029 A 
ATOM     45  N   UNL A   1      43.303  27.264  27.923  1.00  0.00    -0.354 N 
ATOM     46  C   UNL A   1      45.041  31.202  28.406  1.00  0.00     0.074 A 
ATOM     47  C   UNL A   1      44.037  32.168  28.792  1.00  0.00     0.031 C 
ATOM     48  C   UNL A   1      41.667  25.741  27.928  1.00  0.00     0.029 A 
ATOM     49  C   UNL A   1      43.090  25.933  27.655  1.00  0.00     0.049 A 
ATOM     50  H   UNL A   1      44.187  27.692  27.853  1.00  0.00     0.167 HD
ATOM     51  C   UNL A   1      46.353  31.493  28.240  1.00  0.00     0.037 A 
ATOM     52  C   UNL A   1      43.944  24.982  27.225  1.00  0.00     0.037 A 
ATOM     53  C   UNL A   1      47.350  30.525  27.865  1.00  0.00     0.049 A 
ATOM     54  C   UNL A   1      45.393  25.335  27.011  1.00  0.00     0.074 A 
ATOM     55  C   UNL A   1      48.711  30.711  27.698  1.00  0.00     0.029 A 
ATOM     56  N   UNL A   1      47.092  29.189  27.592  1.00  0.00    -0.354 N 
ATOM     57  N   UNL A   1      45.995  26.489  27.183  1.00  0.00    -0.248 NA
ATOM     58  C   UNL A   1      46.281  24.259  26.553  1.00  0.00     0.031 C 
ATOM     59  C   UNL A   1      49.270  29.497  27.283  1.00  0.00     0.029 A 
ATOM     60  C   UNL A   1      48.265  28.543  27.237  1.00  0.00     0.049 A 
ATOM     61  H   UNL A   1      46.206  28.763  27.643  1.00  0.00     0.167 HD
ATOM     62  C   UNL A   1      47.334  26.271  26.878  1.00  0.00     0.074 A 
ATOM     63  C   UNL A   1      47.457  24.872  26.522  1.00  0.00     0.031 C 
ATOM     64  C   UNL A   1      48.370  27.148  26.893  1.00  0.00     0.037 A 
BRANCH  51  65
ATOM     65  C   UNL A   1      46.782  32.919  28.448  1.00  0.00     0.058 A 
ATOM     66  C   UNL A   1      46.692  33.874  27.422  1.00  0.00     0.135 A 
ATOM     67  C   UNL A   1      47.264  33.344  29.695  1.00  0.00     0.135 A 
ATOM     68  F   UNL A   1      46.255  33.518  26.203  1.00  0.00    -0.206 F 
ATOM     69  C   UNL A   1      47.093  35.192  27.617  1.00  0.00     0.059 A 
ATOM     70  C   UNL A   1      47.646  34.664  29.922  1.00  0.00     0.059 A 
ATOM     71  F   UNL A   1      47.372  32.473  30.711  1.00  0.00    -0.206 F 
ATOM     72  C   UNL A   1      47.571  35.577  28.871  1.00  0.00     0.060 A 
BRANCH  72  73
ATOM     73  S   UNL A   1      48.087  37.290  29.110  1.00  0.00     0.124 S 
ATOM     74  O   UNL A   1      49.047  37.460  28.024  1.00  0.00    -0.237 OA
ATOM     75  O   UNL A   1      46.831  38.020  28.965  1.00  0.00    -0.237 OA
ATOM     76  O   UNL A   1      48.657  37.291  30.454  1.00  0.00    -0.744 OA
ENDBRANCH  72  73
ENDBRANCH  51  65
BRANCH  52  77
ATOM     77  C   UNL A   1      43.451  23.602  26.973  1.00  0.00     0.058 A 
ATOM     78  C   UNL A   1      43.132  23.170  25.677  1.00  0.00     0.135 A 
ATOM     79  C   UNL A   1      43.298  22.682  28.023  1.00  0.00     0.135 A 
ATOM     80  F   UNL A   1      43.251  24.013  24.640  1.00  0.00    -0.206 F 
ATOM     81  C   UNL A   1      42.668  21.880  25.431  1.00  0.00     0.059 A 
ATOM     82  C   UNL A   1      42.859  21.381  27.800  1.00  0.00     0.059 A 
ATOM     83  F   UNL A   1      43.598  23.043  29.280  1.00  0.00    -0.206 F 
ATOM     84  C   UNL A   1      42.538  20.992  26.500  1.00  0.00     0.060 A 
BRANCH  84  85
ATOM     85  S   UNL A   1      41.989  19.304  26.164  1.00  0.00     0.124 S 
ATOM     86  O   UNL A   1      42.892  18.910  25.089  1.00  0.00    -0.237 OA
ATOM     87  O   UNL A   1      42.204  18.649  27.450  1.00  0.00    -0.237 OA
ATOM     88  O   UNL A   1      40.590  19.474  25.784  1.00  0.00    -0.744 OA
ENDBRANCH  84  85
ENDBRANCH  52  77
BRANCH  64  89
ATOM     89  C   UNL A   1      49.734  26.617  26.550  1.00  0.00     0.058 A 
ATOM     90  C   UNL A   1      50.587  26.086  27.531  1.00  0.00     0.135 A 
ATOM     91  C   UNL A   1      50.169  26.585  25.215  1.00  0.00     0.135 A 
ATOM     92  F   UNL A   1      50.222  26.095  28.822  1.00  0.00    -0.206 F 
ATOM     93  C   UNL A   1      51.832  25.560  27.200  1.00  0.00     0.059 A 
ATOM     94  C   UNL A   1      51.399  26.041  24.860  1.00  0.00     0.059 A 
ATOM     95  F   UNL A   1      49.386  27.070  24.238  1.00  0.00    -0.206 F 
ATOM     96  C   UNL A   1      52.229  25.541  25.862  1.00  0.00     0.060 A 
BRANCH  96  97
ATOM     97  S   UNL A   1      53.831  24.823  25.442  1.00  0.00     0.124 S 
ATOM     98  O   UNL A   1      53.453  23.467  25.054  1.00  0.00    -0.237 OA
ATOM     99  O   UNL A   1      54.290  25.687  24.360  1.00  0.00    -0.237 OA
ATOM    100  O   UNL A   1      54.589  24.931  26.686  1.00  0.00    -0.744 OA
ENDBRANCH  96  97
ENDBRANCH  64  89
ENDBRANCH  38  39
ENDBRANCH  31  33
ENDBRANCH  30  31
ENDBRANCH  29  30
ENDBRANCH  28  29
ENDBRANCH  27  28
ENDBRANCH   1  27
TORSDOF 22
ENDMDL
MODEL 2
REMARK VINA RESULT:     -10.4      6.443     12.171
REMARK SMILES COc1ccc(CC(=O)OCCOCCOC(=O)c2ccc(-c3c4nc(c(-c5c(F)cc(S(=O)(=O)[O-])cc5F)c5ccc([nH]5)c(-c5c(F)cc(S(=O)(=O)[O-])cc5F)c5nc(c(-c6c(F)cc(S(=O)(=O)[O-])cc6F)c6ccc3[nH]6)C=C5)C=C4)cc2)cc1S(=O)(=O)Nc1ccccc1Br
REMARK SMILES IDX 12 1 11 2 10 3 8 4 9 5 7 6 6 7 3 8 4 9 86 10 5 11 85 12 2 13
REMARK SMILES IDX 1 14 87 15 88 16 89 17 90 18 91 20 92 21 96 22 93 23 95 24
REMARK SMILES IDX 97 25 94 26 13 27 14 28 15 29 16 30 17 31 18 32 19 33 20 34
REMARK SMILES IDX 84 35 21 36 83 37 22 38 23 39 24 40 77 41 25 42 82 43 76 44
REMARK SMILES IDX 78 45 26 46 81 47 75 48 74 49 27 51 61 52 40 53 60 54 41 55
REMARK SMILES IDX 44 56 59 57 79 58 42 59 43 60 58 62 80 63 45 64 28 65 29 66
REMARK SMILES IDX 38 67 30 68 31 69 37 70 39 71 32 72 33 73 34 74 35 75 36 76
REMARK SMILES IDX 62 77 63 78 72 79 64 80 65 81 71 82 73 83 66 84 67 85 68 86
REMARK SMILES IDX 69 87 70 88 46 89 47 90 56 91 48 92 49 93 55 94 57 95 50 96
REMARK SMILES IDX 51 97 52 98 53 99 54 100
REMARK H PARENT 90 19 78 50 44 61
REMARK Flexibility Score: inf
ROOT
ATOM      1  C   UNL A   1      39.984  22.278  27.035  1.00  0.00     0.202 C 
ENDROOT
BRANCH   1   2
ATOM      2  C   UNL A   1      39.229  21.463  25.981  1.00  0.00     0.261 C 
BRANCH   2   3
ATOM      3  O   UNL A   1      38.184  22.199  25.320  1.00  0.00    -0.463 OA
BRANCH   3   4
ATOM      4  C   UNL A   1      37.186  21.440  24.796  1.00  0.00     0.310 C 
ATOM      5  O   UNL A   1      37.029  20.242  25.012  1.00  0.00    -0.252 OA
BRANCH   4   6
ATOM      6  C   UNL A   1      36.323  22.187  23.820  1.00  0.00     0.158 C 
BRANCH   6   7
ATOM      7  C   UNL A   1      35.252  23.132  24.326  1.00  0.00    -0.035 A 
ATOM      8  C   UNL A   1      32.807  24.406  24.872  1.00  0.00     0.139 A 
ATOM      9  C   UNL A   1      33.383  23.541  25.811  1.00  0.00     0.048 A 
ATOM     10  C   UNL A   1      33.523  24.781  23.743  1.00  0.00     0.129 A 
ATOM     11  C   UNL A   1      34.590  22.893  25.534  1.00  0.00     0.008 A 
ATOM     12  C   UNL A   1      34.751  24.135  23.478  1.00  0.00     0.030 A 
BRANCH   8  13
ATOM     13  O   UNL A   1      31.524  24.788  25.130  1.00  0.00    -0.495 OA
ATOM     14  C   UNL A   1      31.162  24.522  26.488  1.00  0.00     0.278 C 
ENDBRANCH   8  13
BRANCH  10  15
ATOM     15  S   UNL A   1      32.930  25.870  22.472  1.00  0.00     0.265 S 
ATOM     16  O   UNL A   1      33.658  25.551  21.261  1.00  0.00    -0.201 OA
ATOM     17  O   UNL A   1      31.485  25.715  22.487  1.00  0.00    -0.201 OA
BRANCH  15  18
ATOM     18  N   UNL A   1      33.166  27.514  22.754  1.00  0.00    -0.278 N 
ATOM     19  H   UNL A   1      33.601  28.041  22.045  1.00  0.00     0.180 HD
BRANCH  18  20
ATOM     20  C   UNL A   1      32.781  28.201  23.948  1.00  0.00     0.063 A 
ATOM     21  C   UNL A   1      33.627  28.033  25.057  1.00  0.00     0.028 A 
ATOM     22  C   UNL A   1      31.631  28.980  24.092  1.00  0.00     0.042 A 
ATOM     23  C   UNL A   1      33.394  28.720  26.249  1.00  0.00     0.002 A 
ATOM     24  C   UNL A   1      31.402  29.679  25.285  1.00  0.00     0.018 A 
ATOM     25  Br  UNL A   1      30.295  29.061  22.758  1.00  0.00    -0.049 Br
ATOM     26  C   UNL A   1      32.293  29.563  26.354  1.00  0.00     0.001 A 
ENDBRANCH  18  20
ENDBRANCH  15  18
ENDBRANCH  10  15
ENDBRANCH   6   7
ENDBRANCH   4   6
ENDBRANCH   3   4
ENDBRANCH   2   3
ENDBRANCH   1   2
BRANCH   1  27
ATOM     27  O   UNL A   1      40.895  21.577  27.879  1.00  0.00    -0.374 OA
BRANCH  27  28
ATOM     28  C   UNL A   1      42.287  21.770  27.645  1.00  0.00     0.202 C 
BRANCH  28  29
ATOM     29  C   UNL A   1      42.965  22.954  28.347  1.00  0.00     0.261 C 
BRANCH  29  30
ATOM     30  O   UNL A   1      43.601  23.860  27.431  1.00  0.00    -0.460 OA
BRANCH  30  31
ATOM     31  C   UNL A   1      42.751  24.663  26.741  1.00  0.00     0.338 C 
ATOM     32  O   UNL A   1      42.337  24.494  25.608  1.00  0.00    -0.246 OA
BRANCH  31  33
ATOM     33  C   UNL A   1      42.243  25.730  27.627  1.00  0.00     0.060 A 
ATOM     34  C   UNL A   1      43.057  26.842  27.862  1.00  0.00     0.016 A 
ATOM     35  C   UNL A   1      41.011  25.612  28.267  1.00  0.00     0.016 A 
ATOM     36  C   UNL A   1      42.656  27.817  28.776  1.00  0.00     0.010 A 
ATOM     37  C   UNL A   1      40.599  26.597  29.169  1.00  0.00     0.010 A 
ATOM     38  C   UNL A   1      41.439  27.683  29.461  1.00  0.00    -0.014 A 
BRANCH  38  39
ATOM     39  C   UNL A   1      41.127  28.592  30.592  1.00  0.00     0.031 A 
ATOM     40  C   UNL A   1      41.943  28.489  31.854  1.00  0.00     0.074 A 
ATOM     41  C   UNL A   1      40.152  29.514  30.488  1.00  0.00     0.049 A 
ATOM     42  N   UNL A   1      41.850  29.179  32.962  1.00  0.00    -0.248 NA
ATOM     43  C   UNL A   1      43.005  27.469  31.872  1.00  0.00     0.031 C 
ATOM     44  C   UNL A   1      39.302  29.714  29.316  1.00  0.00     0.029 A 
ATOM     45  N   UNL A   1      39.711  30.452  31.386  1.00  0.00    -0.354 N 
ATOM     46  C   UNL A   1      42.832  28.673  33.807  1.00  0.00     0.074 A 
ATOM     47  C   UNL A   1      43.485  27.595  33.100  1.00  0.00     0.031 C 
ATOM     48  C   UNL A   1      38.439  30.714  29.567  1.00  0.00     0.029 A 
ATOM     49  C   UNL A   1      38.659  31.207  30.925  1.00  0.00     0.049 A 
ATOM     50  H   UNL A   1      40.111  30.574  32.278  1.00  0.00     0.167 HD
ATOM     51  C   UNL A   1      43.169  29.081  35.053  1.00  0.00     0.037 A 
ATOM     52  C   UNL A   1      37.947  32.177  31.535  1.00  0.00     0.037 A 
ATOM     53  C   UNL A   1      42.521  30.162  35.749  1.00  0.00     0.049 A 
ATOM     54  C   UNL A   1      38.316  32.591  32.936  1.00  0.00     0.074 A 
ATOM     55  C   UNL A   1      42.806  30.673  37.003  1.00  0.00     0.029 A 
ATOM     56  N   UNL A   1      41.452  30.894  35.252  1.00  0.00    -0.354 N 
ATOM     57  N   UNL A   1      39.274  32.131  33.707  1.00  0.00    -0.248 NA
ATOM     58  C   UNL A   1      37.515  33.659  33.549  1.00  0.00     0.031 C 
ATOM     59  C   UNL A   1      41.882  31.686  37.282  1.00  0.00     0.029 A 
ATOM     60  C   UNL A   1      41.052  31.839  36.182  1.00  0.00     0.049 A 
ATOM     61  H   UNL A   1      41.040  30.762  34.368  1.00  0.00     0.167 HD
ATOM     62  C   UNL A   1      39.206  32.869  34.883  1.00  0.00     0.074 A 
ATOM     63  C   UNL A   1      38.120  33.814  34.719  1.00  0.00     0.031 C 
ATOM     64  C   UNL A   1      39.973  32.777  35.998  1.00  0.00     0.037 A 
BRANCH  51  65
ATOM     65  C   UNL A   1      44.280  28.345  35.750  1.00  0.00     0.058 A 
ATOM     66  C   UNL A   1      44.028  27.232  36.569  1.00  0.00     0.135 A 
ATOM     67  C   UNL A   1      45.615  28.740  35.577  1.00  0.00     0.135 A 
ATOM     68  F   UNL A   1      42.768  26.821  36.784  1.00  0.00    -0.206 F 
ATOM     69  C   UNL A   1      45.058  26.555  37.214  1.00  0.00     0.059 A 
ATOM     70  C   UNL A   1      46.665  28.062  36.192  1.00  0.00     0.059 A 
ATOM     71  F   UNL A   1      45.914  29.798  34.807  1.00  0.00    -0.206 F 
ATOM     72  C   UNL A   1      46.375  26.979  37.021  1.00  0.00     0.060 A 
BRANCH  72  73
ATOM     73  S   UNL A   1      47.701  26.092  37.864  1.00  0.00     0.124 S 
ATOM     74  O   UNL A   1      47.121  24.760  38.000  1.00  0.00    -0.237 OA
ATOM     75  O   UNL A   1      48.806  26.208  36.918  1.00  0.00    -0.237 OA
ATOM     76  O   UNL A   1      47.868  26.832  39.111  1.00  0.00    -0.744 OA
ENDBRANCH  72  73
ENDBRANCH  51  65
BRANCH  52  77
ATOM     77  C   UNL A   1      36.816  32.827  30.822  1.00  0.00     0.058 A 
ATOM     78  C   UNL A   1      37.036  33.859  29.898  1.00  0.00     0.135 A 
ATOM     79  C   UNL A   1      35.490  32.421  31.043  1.00  0.00     0.135 A 
ATOM     80  F   UNL A   1      38.283  34.290  29.658  1.00  0.00    -0.206 F 
ATOM     81  C   UNL A   1      35.982  34.474  29.227  1.00  0.00     0.059 A 
ATOM     82  C   UNL A   1      34.423  33.004  30.367  1.00  0.00     0.059 A 
ATOM     83  F   UNL A   1      35.226  31.431  31.910  1.00  0.00    -0.206 F 
ATOM     84  C   UNL A   1      34.679  34.037  29.466  1.00  0.00     0.060 A 
BRANCH  84  85
ATOM     85  S   UNL A   1      33.324  34.802  28.549  1.00  0.00     0.124 S 
ATOM     86  O   UNL A   1      32.531  35.382  29.627  1.00  0.00    -0.237 OA
ATOM     87  O   UNL A   1      34.029  35.753  27.695  1.00  0.00    -0.237 OA
ATOM     88  O   UNL A   1      32.713  33.677  27.849  1.00  0.00    -0.744 OA
ENDBRANCH  84  85
ENDBRANCH  52  77
BRANCH  64  89
ATOM     89  C   UNL A   1      39.694  33.743  37.117  1.00  0.00     0.058 A 
ATOM     90  C   UNL A   1      38.818  33.422  38.167  1.00  0.00     0.135 A 
ATOM     91  C   UNL A   1      40.356  34.981  37.168  1.00  0.00     0.135 A 
ATOM     92  F   UNL A   1      38.157  32.254  38.163  1.00  0.00    -0.206 F 
ATOM     93  C   UNL A   1      38.595  34.305  39.218  1.00  0.00     0.059 A 
ATOM     94  C   UNL A   1      40.166  35.867  38.223  1.00  0.00     0.059 A 
ATOM     95  F   UNL A   1      41.212  35.330  36.195  1.00  0.00    -0.206 F 
ATOM     96  C   UNL A   1      39.274  35.524  39.238  1.00  0.00     0.060 A 
BRANCH  96  97
ATOM     97  S   UNL A   1      39.003  36.645  40.628  1.00  0.00     0.124 S 
ATOM     98  O   UNL A   1      38.158  35.834  41.499  1.00  0.00    -0.237 OA
ATOM     99  O   UNL A   1      40.359  36.886  41.107  1.00  0.00    -0.237 OA
ATOM    100  O   UNL A   1      38.348  37.797  40.013  1.00  0.00    -0.744 OA
ENDBRANCH  96  97
ENDBRANCH  64  89
ENDBRANCH  38  39
ENDBRANCH  31  33
ENDBRANCH  30  31
ENDBRANCH  29  30
ENDBRANCH  28  29
ENDBRANCH  27  28
ENDBRANCH   1  27
TORSDOF 22
ENDMDL
MODEL 3
REMARK VINA RESULT:     -10.3      2.410      9.274
REMARK SMILES COc1ccc(CC(=O)OCCOCCOC(=O)c2ccc(-c3c4nc(c(-c5c(F)cc(S(=O)(=O)[O-])cc5F)c5ccc([nH]5)c(-c5c(F)cc(S(=O)(=O)[O-])cc5F)c5nc(c(-c6c(F)cc(S(=O)(=O)[O-])cc6F)c6ccc3[nH]6)C=C5)C=C4)cc2)cc1S(=O)(=O)Nc1ccccc1Br
REMARK SMILES IDX 12 1 11 2 10 3 8 4 9 5 7 6 6 7 3 8 4 9 86 10 5 11 85 12 2 13
REMARK SMILES IDX 1 14 87 15 88 16 89 17 90 18 91 20 92 21 96 22 93 23 95 24
REMARK SMILES IDX 97 25 94 26 13 27 14 28 15 29 16 30 17 31 18 32 19 33 20 34
REMARK SMILES IDX 84 35 21 36 83 37 22 38 23 39 24 40 77 41 25 42 82 43 76 44
REMARK SMILES IDX 78 45 26 46 81 47 75 48 74 49 27 51 61 52 40 53 60 54 41 55
REMARK SMILES IDX 44 56 59 57 79 58 42 59 43 60 58 62 80 63 45 64 28 65 29 66
REMARK SMILES IDX 38 67 30 68 31 69 37 70 39 71 32 72 33 73 34 74 35 75 36 76
REMARK SMILES IDX 62 77 63 78 72 79 64 80 65 81 71 82 73 83 66 84 67 85 68 86
REMARK SMILES IDX 69 87 70 88 46 89 47 90 56 91 48 92 49 93 55 94 57 95 50 96
REMARK SMILES IDX 51 97 52 98 53 99 54 100
REMARK H PARENT 90 19 78 50 44 61
REMARK Flexibility Score: inf
ROOT
ATOM      1  C   UNL A   1      36.994  20.158  24.936  1.00  0.00     0.202 C 
ENDROOT
BRANCH   1   2
ATOM      2  C   UNL A   1      35.476  19.977  25.019  1.00  0.00     0.261 C 
BRANCH   2   3
ATOM      3  O   UNL A   1      35.009  18.738  24.456  1.00  0.00    -0.463 OA
BRANCH   3   4
ATOM      4  C   UNL A   1      33.670  18.528  24.554  1.00  0.00     0.310 C 
ATOM      5  O   UNL A   1      33.051  17.655  23.953  1.00  0.00    -0.252 OA
BRANCH   4   6
ATOM      6  C   UNL A   1      32.970  19.548  25.407  1.00  0.00     0.158 C 
BRANCH   6   7
ATOM      7  C   UNL A   1      32.353  20.774  24.766  1.00  0.00    -0.035 A 
ATOM      8  C   UNL A   1      31.938  23.291  23.587  1.00  0.00     0.139 A 
ATOM      9  C   UNL A   1      32.031  22.141  22.793  1.00  0.00     0.048 A 
ATOM     10  C   UNL A   1      31.870  23.177  24.970  1.00  0.00     0.129 A 
ATOM     11  C   UNL A   1      32.254  20.891  23.376  1.00  0.00     0.008 A 
ATOM     12  C   UNL A   1      32.079  21.907  25.552  1.00  0.00     0.030 A 
BRANCH   8  13
ATOM     13  O   UNL A   1      31.968  24.477  22.915  1.00  0.00    -0.495 OA
ATOM     14  C   UNL A   1      33.305  24.850  22.573  1.00  0.00     0.278 C 
ENDBRANCH   8  13
BRANCH  10  15
ATOM     15  S   UNL A   1      31.745  24.538  26.102  1.00  0.00     0.265 S 
ATOM     16  O   UNL A   1      31.115  24.037  27.306  1.00  0.00    -0.201 OA
ATOM     17  O   UNL A   1      33.089  25.086  26.185  1.00  0.00    -0.201 OA
BRANCH  15  18
ATOM     18  N   UNL A   1      30.809  25.838  25.578  1.00  0.00    -0.278 N 
ATOM     19  H   UNL A   1      29.957  25.635  25.129  1.00  0.00     0.180 HD
BRANCH  18  20
ATOM     20  C   UNL A   1      31.163  27.214  25.736  1.00  0.00     0.063 A 
ATOM     21  C   UNL A   1      31.474  27.626  27.044  1.00  0.00     0.028 A 
ATOM     22  C   UNL A   1      31.186  28.162  24.711  1.00  0.00     0.042 A 
ATOM     23  C   UNL A   1      31.910  28.925  27.304  1.00  0.00     0.002 A 
ATOM     24  C   UNL A   1      31.634  29.465  24.969  1.00  0.00     0.018 A 
ATOM     25  Br  UNL A   1      30.536  27.786  22.977  1.00  0.00    -0.049 Br
ATOM     26  C   UNL A   1      32.014  29.838  26.260  1.00  0.00     0.001 A 
ENDBRANCH  18  20
ENDBRANCH  15  18
ENDBRANCH  10  15
ENDBRANCH   6   7
ENDBRANCH   4   6
ENDBRANCH   3   4
ENDBRANCH   2   3
ENDBRANCH   1   2
BRANCH   1  27
ATOM     27  O   UNL A   1      37.533  21.401  25.381  1.00  0.00    -0.374 OA
BRANCH  27  28
ATOM     28  C   UNL A   1      38.913  21.431  25.730  1.00  0.00     0.202 C 
BRANCH  28  29
ATOM     29  C   UNL A   1      39.582  20.097  26.088  1.00  0.00     0.261 C 
BRANCH  29  30
ATOM     30  O   UNL A   1      40.845  19.908  25.430  1.00  0.00    -0.460 OA
BRANCH  30  31
ATOM     31  C   UNL A   1      41.892  19.669  26.263  1.00  0.00     0.338 C 
ATOM     32  O   UNL A   1      42.243  18.592  26.712  1.00  0.00    -0.246 OA
BRANCH  31  33
ATOM     33  C   UNL A   1      42.681  20.905  26.439  1.00  0.00     0.060 A 
ATOM     34  C   UNL A   1      42.838  21.414  27.732  1.00  0.00     0.016 A 
ATOM     35  C   UNL A   1      43.207  21.589  25.345  1.00  0.00     0.016 A 
ATOM     36  C   UNL A   1      43.486  22.635  27.926  1.00  0.00     0.010 A 
ATOM     37  C   UNL A   1      43.872  22.802  25.539  1.00  0.00     0.010 A 
ATOM     38  C   UNL A   1      43.977  23.353  26.826  1.00  0.00    -0.014 A 
BRANCH  38  39
ATOM     39  C   UNL A   1      44.454  24.747  27.011  1.00  0.00     0.031 A 
ATOM     40  C   UNL A   1      43.462  25.806  27.418  1.00  0.00     0.074 A 
ATOM     41  C   UNL A   1      45.751  25.060  26.846  1.00  0.00     0.049 A 
ATOM     42  N   UNL A   1      43.653  27.081  27.639  1.00  0.00    -0.248 NA
ATOM     43  C   UNL A   1      42.068  25.369  27.599  1.00  0.00     0.031 C 
ATOM     44  C   UNL A   1      46.804  24.121  26.461  1.00  0.00     0.029 A 
ATOM     45  N   UNL A   1      46.404  26.260  26.979  1.00  0.00    -0.354 N 
ATOM     46  C   UNL A   1      42.407  27.598  27.975  1.00  0.00     0.074 A 
ATOM     47  C   UNL A   1      41.461  26.509  27.895  1.00  0.00     0.031 C 
ATOM     48  C   UNL A   1      47.973  24.782  26.387  1.00  0.00     0.029 A 
ATOM     49  C   UNL A   1      47.748  26.192  26.696  1.00  0.00     0.049 A 
ATOM     50  H   UNL A   1      45.953  27.091  27.252  1.00  0.00     0.167 HD
ATOM     51  C   UNL A   1      42.083  28.863  28.334  1.00  0.00     0.037 A 
ATOM     52  C   UNL A   1      48.685  27.162  26.675  1.00  0.00     0.037 A 
ATOM     53  C   UNL A   1      43.032  29.943  28.421  1.00  0.00     0.049 A 
ATOM     54  C   UNL A   1      48.296  28.570  27.043  1.00  0.00     0.074 A 
ATOM     55  C   UNL A   1      42.812  31.254  28.803  1.00  0.00     0.029 A 
ATOM     56  N   UNL A   1      44.381  29.836  28.115  1.00  0.00    -0.354 N 
ATOM     57  N   UNL A   1      47.121  29.036  27.398  1.00  0.00    -0.248 NA
ATOM     58  C   UNL A   1      49.358  29.584  27.014  1.00  0.00     0.031 C 
ATOM     59  C   UNL A   1      44.020  31.951  28.687  1.00  0.00     0.029 A 
ATOM     60  C   UNL A   1      45.002  31.063  28.279  1.00  0.00     0.049 A 
ATOM     61  H   UNL A   1      44.831  29.009  27.824  1.00  0.00     0.167 HD
ATOM     62  C   UNL A   1      47.309  30.388  27.659  1.00  0.00     0.074 A 
ATOM     63  C   UNL A   1      48.713  30.665  27.431  1.00  0.00     0.031 C 
ATOM     64  C   UNL A   1      46.403  31.318  28.054  1.00  0.00     0.037 A 
BRANCH  51  65
ATOM     65  C   UNL A   1      40.640  29.151  28.645  1.00  0.00     0.058 A 
ATOM     66  C   UNL A   1      40.169  29.218  29.966  1.00  0.00     0.135 A 
ATOM     67  C   UNL A   1      39.722  29.388  27.610  1.00  0.00     0.135 A 
ATOM     68  F   UNL A   1      41.000  28.981  30.994  1.00  0.00    -0.206 F 
ATOM     69  C   UNL A   1      38.832  29.481  30.249  1.00  0.00     0.059 A 
ATOM     70  C   UNL A   1      38.386  29.680  27.871  1.00  0.00     0.059 A 
ATOM     71  F   UNL A   1      40.118  29.336  26.329  1.00  0.00    -0.206 F 
ATOM     72  C   UNL A   1      37.947  29.709  29.194  1.00  0.00     0.060 A 
BRANCH  72  73
ATOM     73  S   UNL A   1      36.216  30.051  29.576  1.00  0.00     0.124 S 
ATOM     74  O   UNL A   1      36.065  29.381  30.864  1.00  0.00    -0.237 OA
ATOM     75  O   UNL A   1      36.185  31.509  29.613  1.00  0.00    -0.237 OA
ATOM     76  O   UNL A   1      35.495  29.440  28.465  1.00  0.00    -0.744 OA
ENDBRANCH  72  73
ENDBRANCH  51  65
BRANCH  52  77
ATOM     77  C   UNL A   1      50.085  26.832  26.296  1.00  0.00     0.058 A 
ATOM     78  C   UNL A   1      51.066  26.599  27.271  1.00  0.00     0.135 A 
ATOM     79  C   UNL A   1      50.468  26.734  24.949  1.00  0.00     0.135 A 
ATOM     80  F   UNL A   1      50.753  26.690  28.572  1.00  0.00    -0.206 F 
ATOM     81  C   UNL A   1      52.379  26.292  26.926  1.00  0.00     0.059 A 
ATOM     82  C   UNL A   1      51.768  26.405  24.578  1.00  0.00     0.059 A 
ATOM     83  F   UNL A   1      49.565  26.939  23.977  1.00  0.00    -0.206 F 
ATOM     84  C   UNL A   1      52.720  26.194  25.575  1.00  0.00     0.060 A 
BRANCH  84  85
ATOM     85  S   UNL A   1      54.412  25.740  25.138  1.00  0.00     0.124 S 
ATOM     86  O   UNL A   1      55.149  26.184  26.315  1.00  0.00    -0.237 OA
ATOM     87  O   UNL A   1      54.306  24.294  24.960  1.00  0.00    -0.237 OA
ATOM     88  O   UNL A   1      54.658  26.496  23.914  1.00  0.00    -0.744 OA
ENDBRANCH  84  85
ENDBRANCH  52  77
BRANCH  64  89
ATOM     89  C   UNL A   1      46.903  32.715  28.301  1.00  0.00     0.058 A 
ATOM     90  C   UNL A   1      46.856  33.702  27.304  1.00  0.00     0.135 A 
ATOM     91  C   UNL A   1      47.381  33.084  29.569  1.00  0.00     0.135 A 
ATOM     92  F   UNL A   1      46.412  33.400  26.074  1.00  0.00    -0.206 F 
ATOM     93  C   UNL A   1      47.284  35.003  27.552  1.00  0.00     0.059 A 
ATOM     94  C   UNL A   1      47.790  34.385  29.845  1.00  0.00     0.059 A 
ATOM     95  F   UNL A   1      47.436  32.180  30.560  1.00  0.00    -0.206 F 
ATOM     96  C   UNL A   1      47.748  35.335  28.826  1.00  0.00     0.060 A 
BRANCH  96  97
ATOM     97  S   UNL A   1      48.266  37.035  29.144  1.00  0.00     0.124 S 
ATOM     98  O   UNL A   1      49.248  37.246  28.085  1.00  0.00    -0.237 OA
ATOM     99  O   UNL A   1      47.017  37.775  29.006  1.00  0.00    -0.237 OA
ATOM    100  O   UNL A   1      48.806  36.978  30.500  1.00  0.00    -0.744 OA
ENDBRANCH  96  97
ENDBRANCH  64  89
ENDBRANCH  38  39
ENDBRANCH  31  33
ENDBRANCH  30  31
ENDBRANCH  29  30
ENDBRANCH  28  29
ENDBRANCH  27  28
ENDBRANCH   1  27
TORSDOF 22
ENDMDL
