MODEL 1
REMARK VINA RESULT:     -10.9      0.000      0.000
REMARK SMILES Cc1ccc(S(=O)(=O)n2cc(C(=O)C(=O)NCC(=O)N[C@@H](Cc3c[nH]c4ccccc34)C(=O)OCCOCCOC(=O)c3ccc(-c4c5nc(c(-c6c(F)cc(S(=O)(=O)[O-])cc6F)c6ccc([nH]6)c(-c6c(F)cc(S(=O)(=O)[O-])cc6F)c6nc(c(-c7c(F)cc(S(=O)(=O)[O-])cc7F)c7ccc4[nH]7)C=C6)C=C5)cc3)c3ccccc32)cc1
REMARK SMILES IDX 35 1 34 2 32 3 33 4 21 5 20 6 18 7 19 8 17 10 16 11 14 12
REMARK SMILES IDX 15 13 12 15 13 16 11 17 9 18 10 19 114 20 109 21 113 22
REMARK SMILES IDX 110 23 112 24 111 25 6 26 7 27 8 28 5 29 1 30 2 31 3 32
REMARK SMILES IDX 116 33 4 34 115 35 22 36 23 37 24 38 31 39 25 40 26 41 30 42
REMARK SMILES IDX 27 44 29 45 28 46 36 47 37 48 38 49 39 50 40 51 41 52 42 53
REMARK SMILES IDX 43 54 44 55 108 56 45 57 107 58 46 59 47 60 48 61 101 62
REMARK SMILES IDX 49 63 106 64 100 65 102 66 50 67 105 68 99 69 98 70 51 72
REMARK SMILES IDX 85 73 64 74 84 75 65 76 68 77 83 78 103 79 66 80 67 81 82 83
REMARK SMILES IDX 104 84 69 85 52 86 53 87 62 88 54 89 55 90 61 91 63 92 56 93
REMARK SMILES IDX 57 94 58 95 59 96 60 97 86 98 87 99 96 100 88 101 89 102
REMARK SMILES IDX 95 103 97 104 90 105 91 106 92 107 93 108 94 109 70 110
REMARK SMILES IDX 71 111 80 112 72 113 73 114 79 115 81 116 74 117 75 118
REMARK SMILES IDX 76 119 77 120 78 121
REMARK H PARENT 20 9 16 14 25 43 102 71 68 82
REMARK Flexibility Score: inf
ROOT
ATOM      1  C   UNL A   1      38.431  29.708  27.976  1.00  0.00     0.261 C 
ENDROOT
BRANCH   1   2
ATOM      2  O   UNL A   1      37.099  29.946  27.524  1.00  0.00    -0.462 OA
BRANCH   2   3
ATOM      3  C   UNL A   1      36.092  29.721  28.398  1.00  0.00     0.329 C 
ATOM      4  O   UNL A   1      36.229  29.359  29.561  1.00  0.00    -0.250 OA
BRANCH   3   5
ATOM      5  C   UNL A   1      34.739  30.126  27.817  1.00  0.00     0.196 C 
BRANCH   5   6
ATOM      6  N   UNL A   1      33.636  29.167  27.949  1.00  0.00    -0.341 N 
ATOM      7  C   UNL A   1      32.497  29.041  27.216  1.00  0.00     0.240 C 
ATOM      8  O   UNL A   1      31.744  28.096  27.470  1.00  0.00    -0.273 OA
ATOM      9  H   UNL A   1      33.737  28.514  28.678  1.00  0.00     0.164 HD
BRANCH   7  10
ATOM     10  C   UNL A   1      32.232  29.941  25.996  1.00  0.00     0.216 C 
BRANCH  10  11
ATOM     11  N   UNL A   1      33.174  29.786  24.885  1.00  0.00    -0.340 N 
ATOM     12  C   UNL A   1      33.501  28.625  24.194  1.00  0.00     0.292 C 
ATOM     13  O   UNL A   1      34.460  28.604  23.431  1.00  0.00    -0.265 OA
ATOM     14  H   UNL A   1      33.632  30.606  24.591  1.00  0.00     0.164 HD
BRANCH  12  15
ATOM     15  C   UNL A   1      32.639  27.374  24.397  1.00  0.00     0.252 C 
ATOM     16  O   UNL A   1      31.474  27.476  24.006  1.00  0.00    -0.283 OA
BRANCH  15  17
ATOM     17  C   UNL A   1      33.115  26.164  25.086  1.00  0.00     0.054 A 
ATOM     18  N   UNL A   1      34.333  24.436  25.910  1.00  0.00    -0.240 N 
ATOM     19  C   UNL A   1      34.416  25.702  25.316  1.00  0.00     0.117 A 
ATOM     20  C   UNL A   1      33.009  24.285  26.363  1.00  0.00     0.065 A 
ATOM     21  C   UNL A   1      32.248  25.123  25.550  1.00  0.00     0.012 A 
ATOM     22  C   UNL A   1      32.428  23.240  27.109  1.00  0.00     0.028 A 
ATOM     23  C   UNL A   1      30.888  24.802  25.355  1.00  0.00     0.011 A 
ATOM     24  C   UNL A   1      31.113  22.883  26.816  1.00  0.00     0.002 A 
ATOM     25  C   UNL A   1      30.360  23.633  25.923  1.00  0.00     0.001 A 
BRANCH  18  26
ATOM     26  S   UNL A   1      34.834  22.955  25.102  1.00  0.00     0.268 S 
ATOM     27  O   UNL A   1      35.610  22.277  26.131  1.00  0.00    -0.201 OA
ATOM     28  O   UNL A   1      35.469  23.443  23.888  1.00  0.00    -0.201 OA
BRANCH  26  29
ATOM     29  C   UNL A   1      33.755  21.738  24.464  1.00  0.00     0.088 A 
ATOM     30  C   UNL A   1      32.287  18.041  22.829  1.00  0.00     0.044 C 
ATOM     31  C   UNL A   1      32.674  19.346  23.465  1.00  0.00    -0.051 A 
ATOM     32  C   UNL A   1      33.623  19.298  24.473  1.00  0.00     0.005 A 
ATOM     33  C   UNL A   1      32.235  20.603  22.994  1.00  0.00     0.005 A 
ATOM     34  C   UNL A   1      34.146  20.474  24.964  1.00  0.00     0.022 A 
ATOM     35  C   UNL A   1      32.779  21.817  23.486  1.00  0.00     0.022 A 
ENDBRANCH  26  29
ENDBRANCH  18  26
ENDBRANCH  15  17
ENDBRANCH  12  15
ENDBRANCH  10  11
ENDBRANCH   7  10
ENDBRANCH   5   6
BRANCH   5  36
ATOM     36  C   UNL A   1      34.343  31.583  28.073  1.00  0.00     0.074 C 
BRANCH  36  37
ATOM     37  C   UNL A   1      35.339  32.499  28.706  1.00  0.00    -0.020 A 
ATOM     38  C   UNL A   1      36.240  33.347  28.098  1.00  0.00     0.087 A 
ATOM     39  C   UNL A   1      35.482  32.697  30.124  1.00  0.00     0.003 A 
ATOM     40  N   UNL A   1      36.970  33.951  29.081  1.00  0.00    -0.361 N 
ATOM     41  C   UNL A   1      36.444  33.680  30.315  1.00  0.00     0.046 A 
ATOM     42  C   UNL A   1      34.854  32.159  31.266  1.00  0.00     0.010 A 
ATOM     43  H   UNL A   1      37.769  34.506  28.925  1.00  0.00     0.166 HD
ATOM     44  C   UNL A   1      36.754  34.231  31.561  1.00  0.00     0.026 A 
ATOM     45  C   UNL A   1      35.179  32.666  32.531  1.00  0.00     0.001 A 
ATOM     46  C   UNL A   1      36.095  33.706  32.673  1.00  0.00     0.002 A 
ENDBRANCH  36  37
ENDBRANCH   5  36
ENDBRANCH   3   5
ENDBRANCH   2   3
ENDBRANCH   1   2
BRANCH   1  47
ATOM     47  C   UNL A   1      38.994  28.336  27.631  1.00  0.00     0.202 C 
BRANCH  47  48
ATOM     48  O   UNL A   1      39.352  27.455  28.670  1.00  0.00    -0.374 OA
BRANCH  48  49
ATOM     49  C   UNL A   1      39.586  26.105  28.284  1.00  0.00     0.202 C 
BRANCH  49  50
ATOM     50  C   UNL A   1      41.015  25.642  27.907  1.00  0.00     0.261 C 
BRANCH  50  51
ATOM     51  O   UNL A   1      42.005  26.675  27.715  1.00  0.00    -0.460 OA
BRANCH  51  52
ATOM     52  C   UNL A   1      42.214  27.091  26.407  1.00  0.00     0.338 C 
ATOM     53  O   UNL A   1      41.664  26.720  25.409  1.00  0.00    -0.246 OA
BRANCH  52  54
ATOM     54  C   UNL A   1      42.909  28.410  26.498  1.00  0.00     0.060 A 
ATOM     55  C   UNL A   1      44.296  28.533  26.546  1.00  0.00     0.016 A 
ATOM     56  C   UNL A   1      42.117  29.342  27.135  1.00  0.00     0.016 A 
ATOM     57  C   UNL A   1      44.869  29.304  27.552  1.00  0.00     0.010 A 
ATOM     58  C   UNL A   1      42.667  29.924  28.250  1.00  0.00     0.010 A 
ATOM     59  C   UNL A   1      44.027  29.801  28.533  1.00  0.00    -0.014 A 
BRANCH  59  60
ATOM     60  C   UNL A   1      44.478  29.979  29.920  1.00  0.00     0.031 A 
ATOM     61  C   UNL A   1      44.239  28.859  30.849  1.00  0.00     0.074 A 
ATOM     62  C   UNL A   1      45.073  31.146  30.282  1.00  0.00     0.049 A 
ATOM     63  N   UNL A   1      43.750  28.986  32.033  1.00  0.00    -0.248 NA
ATOM     64  C   UNL A   1      44.329  27.454  30.435  1.00  0.00     0.031 C 
ATOM     65  C   UNL A   1      45.643  31.531  31.569  1.00  0.00     0.029 A 
ATOM     66  N   UNL A   1      45.181  32.316  29.511  1.00  0.00    -0.354 N 
ATOM     67  C   UNL A   1      43.776  27.718  32.578  1.00  0.00     0.074 A 
ATOM     68  C   UNL A   1      43.741  26.845  31.459  1.00  0.00     0.031 C 
ATOM     69  C   UNL A   1      45.806  32.870  31.590  1.00  0.00     0.029 A 
ATOM     70  C   UNL A   1      45.256  33.428  30.352  1.00  0.00     0.049 A 
ATOM     71  H   UNL A   1      45.202  32.347  28.527  1.00  0.00     0.167 HD
ATOM     72  C   UNL A   1      44.128  27.531  33.881  1.00  0.00     0.037 A 
ATOM     73  C   UNL A   1      44.221  34.319  30.308  1.00  0.00     0.037 A 
ATOM     74  C   UNL A   1      44.190  28.854  34.531  1.00  0.00     0.049 A 
ATOM     75  C   UNL A   1      43.316  34.069  31.510  1.00  0.00     0.074 A 
ATOM     76  C   UNL A   1      45.228  29.659  34.965  1.00  0.00     0.029 A 
ATOM     77  N   UNL A   1      43.086  29.715  34.394  1.00  0.00    -0.354 N 
ATOM     78  N   UNL A   1      43.262  32.922  32.156  1.00  0.00    -0.248 NA
ATOM     79  C   UNL A   1      42.559  35.112  32.191  1.00  0.00     0.031 C 
ATOM     80  C   UNL A   1      44.781  31.025  34.896  1.00  0.00     0.029 A 
ATOM     81  C   UNL A   1      43.462  31.053  34.457  1.00  0.00     0.049 A 
ATOM     82  H   UNL A   1      42.159  29.408  34.270  1.00  0.00     0.167 HD
ATOM     83  C   UNL A   1      42.587  33.073  33.336  1.00  0.00     0.074 A 
ATOM     84  C   UNL A   1      42.137  34.460  33.291  1.00  0.00     0.031 C 
ATOM     85  C   UNL A   1      42.448  32.110  34.306  1.00  0.00     0.037 A 
BRANCH  72  86
ATOM     86  C   UNL A   1      44.565  26.170  34.465  1.00  0.00     0.058 A 
ATOM     87  C   UNL A   1      43.615  25.188  34.807  1.00  0.00     0.135 A 
ATOM     88  C   UNL A   1      45.902  25.740  34.698  1.00  0.00     0.135 A 
ATOM     89  F   UNL A   1      42.306  25.480  34.806  1.00  0.00    -0.206 F 
ATOM     90  C   UNL A   1      43.962  23.867  35.171  1.00  0.00     0.059 A 
ATOM     91  C   UNL A   1      46.273  24.429  35.006  1.00  0.00     0.059 A 
ATOM     92  F   UNL A   1      46.946  26.571  34.715  1.00  0.00    -0.206 F 
ATOM     93  C   UNL A   1      45.297  23.479  35.205  1.00  0.00     0.060 A 
BRANCH  93  94
ATOM     94  S   UNL A   1      45.807  21.751  35.344  1.00  0.00     0.124 S 
ATOM     95  O   UNL A   1      44.677  21.023  34.778  1.00  0.00    -0.237 OA
ATOM     96  O   UNL A   1      47.037  21.704  34.561  1.00  0.00    -0.237 OA
ATOM     97  O   UNL A   1      45.983  21.589  36.785  1.00  0.00    -0.744 OA
ENDBRANCH  93  94
ENDBRANCH  72  86
BRANCH  73  98
ATOM     98  C   UNL A   1      43.992  34.925  28.932  1.00  0.00     0.058 A 
ATOM     99  C   UNL A   1      42.662  35.234  28.598  1.00  0.00     0.135 A 
ATOM    100  C   UNL A   1      44.930  35.732  28.277  1.00  0.00     0.135 A 
ATOM    101  F   UNL A   1      41.692  34.372  28.931  1.00  0.00    -0.206 F 
ATOM    102  C   UNL A   1      42.275  36.440  27.989  1.00  0.00     0.059 A 
ATOM    103  C   UNL A   1      44.577  36.943  27.640  1.00  0.00     0.059 A 
ATOM    104  F   UNL A   1      46.215  35.360  28.254  1.00  0.00    -0.206 F 
ATOM    105  C   UNL A   1      43.249  37.340  27.600  1.00  0.00     0.060 A 
BRANCH 105 106
ATOM    106  S   UNL A   1      42.765  39.029  27.164  1.00  0.00     0.124 S 
ATOM    107  O   UNL A   1      43.953  39.521  26.479  1.00  0.00    -0.237 OA
ATOM    108  O   UNL A   1      41.596  38.792  26.321  1.00  0.00    -0.237 OA
ATOM    109  O   UNL A   1      42.482  39.637  28.459  1.00  0.00    -0.744 OA
ENDBRANCH 105 106
ENDBRANCH  73  98
BRANCH  85 110
ATOM    110  C   UNL A   1      41.265  32.094  35.256  1.00  0.00     0.058 A 
ATOM    111  C   UNL A   1      41.344  32.545  36.587  1.00  0.00     0.135 A 
ATOM    112  C   UNL A   1      39.956  31.837  34.777  1.00  0.00     0.135 A 
ATOM    113  F   UNL A   1      42.506  32.924  37.137  1.00  0.00    -0.206 F 
ATOM    114  C   UNL A   1      40.222  32.672  37.399  1.00  0.00     0.059 A 
ATOM    115  C   UNL A   1      38.816  32.046  35.544  1.00  0.00     0.059 A 
ATOM    116  F   UNL A   1      39.735  31.398  33.528  1.00  0.00    -0.206 F 
ATOM    117  C   UNL A   1      38.961  32.429  36.867  1.00  0.00     0.060 A 
BRANCH 117 118
ATOM    118  S   UNL A   1      37.511  32.643  37.907  1.00  0.00     0.124 S 
ATOM    119  O   UNL A   1      38.041  33.513  38.953  1.00  0.00    -0.237 OA
ATOM    120  O   UNL A   1      36.551  33.262  36.998  1.00  0.00    -0.237 OA
ATOM    121  O   UNL A   1      37.189  31.281  38.318  1.00  0.00    -0.744 OA
ENDBRANCH 117 118
ENDBRANCH  85 110
ENDBRANCH  59  60
ENDBRANCH  52  54
ENDBRANCH  51  52
ENDBRANCH  50  51
ENDBRANCH  49  50
ENDBRANCH  48  49
ENDBRANCH  47  48
ENDBRANCH   1  47
TORSDOF 26
ENDMDL
MODEL 2
REMARK VINA RESULT:     -10.8      3.353      6.090
REMARK SMILES Cc1ccc(S(=O)(=O)n2cc(C(=O)C(=O)NCC(=O)N[C@@H](Cc3c[nH]c4ccccc34)C(=O)OCCOCCOC(=O)c3ccc(-c4c5nc(c(-c6c(F)cc(S(=O)(=O)[O-])cc6F)c6ccc([nH]6)c(-c6c(F)cc(S(=O)(=O)[O-])cc6F)c6nc(c(-c7c(F)cc(S(=O)(=O)[O-])cc7F)c7ccc4[nH]7)C=C6)C=C5)cc3)c3ccccc32)cc1
REMARK SMILES IDX 35 1 34 2 32 3 33 4 21 5 20 6 18 7 19 8 17 10 16 11 14 12
REMARK SMILES IDX 15 13 12 15 13 16 11 17 9 18 10 19 114 20 109 21 113 22
REMARK SMILES IDX 110 23 112 24 111 25 6 26 7 27 8 28 5 29 1 30 2 31 3 32
REMARK SMILES IDX 116 33 4 34 115 35 22 36 23 37 24 38 31 39 25 40 26 41 30 42
REMARK SMILES IDX 27 44 29 45 28 46 36 47 37 48 38 49 39 50 40 51 41 52 42 53
REMARK SMILES IDX 43 54 44 55 108 56 45 57 107 58 46 59 47 60 48 61 101 62
REMARK SMILES IDX 49 63 106 64 100 65 102 66 50 67 105 68 99 69 98 70 51 72
REMARK SMILES IDX 85 73 64 74 84 75 65 76 68 77 83 78 103 79 66 80 67 81 82 83
REMARK SMILES IDX 104 84 69 85 52 86 53 87 62 88 54 89 55 90 61 91 63 92 56 93
REMARK SMILES IDX 57 94 58 95 59 96 60 97 86 98 87 99 96 100 88 101 89 102
REMARK SMILES IDX 95 103 97 104 90 105 91 106 92 107 93 108 94 109 70 110
REMARK SMILES IDX 71 111 80 112 72 113 73 114 79 115 81 116 74 117 75 118
REMARK SMILES IDX 76 119 77 120 78 121
REMARK H PARENT 20 9 16 14 25 43 102 71 68 82
REMARK Flexibility Score: inf
ROOT
ATOM      1  C   UNL A   1      38.826  29.834  28.176  1.00  0.00     0.261 C 
ENDROOT
BRANCH   1   2
ATOM      2  O   UNL A   1      37.535  30.064  27.612  1.00  0.00    -0.462 OA
BRANCH   2   3
ATOM      3  C   UNL A   1      36.458  29.760  28.370  1.00  0.00     0.329 C 
ATOM      4  O   UNL A   1      36.496  29.288  29.501  1.00  0.00    -0.250 OA
BRANCH   3   5
ATOM      5  C   UNL A   1      35.158  30.224  27.717  1.00  0.00     0.196 C 
BRANCH   5   6
ATOM      6  N   UNL A   1      33.959  29.413  27.955  1.00  0.00    -0.341 N 
ATOM      7  C   UNL A   1      32.798  29.342  27.248  1.00  0.00     0.240 C 
ATOM      8  O   UNL A   1      31.950  28.518  27.603  1.00  0.00    -0.273 OA
ATOM      9  H   UNL A   1      34.000  28.829  28.746  1.00  0.00     0.164 HD
BRANCH   7  10
ATOM     10  C   UNL A   1      32.610  30.140  25.946  1.00  0.00     0.216 C 
BRANCH  10  11
ATOM     11  N   UNL A   1      33.498  29.761  24.844  1.00  0.00    -0.340 N 
ATOM     12  C   UNL A   1      33.252  28.858  23.816  1.00  0.00     0.292 C 
ATOM     13  O   UNL A   1      34.164  28.481  23.088  1.00  0.00    -0.265 OA
ATOM     14  H   UNL A   1      34.379  30.201  24.830  1.00  0.00     0.164 HD
BRANCH  12  15
ATOM     15  C   UNL A   1      31.823  28.346  23.605  1.00  0.00     0.252 C 
ATOM     16  O   UNL A   1      31.044  29.166  23.115  1.00  0.00    -0.283 OA
BRANCH  15  17
ATOM     17  C   UNL A   1      31.369  27.013  24.032  1.00  0.00     0.054 A 
ATOM     18  N   UNL A   1      30.506  25.235  25.145  1.00  0.00    -0.240 N 
ATOM     19  C   UNL A   1      30.530  26.634  25.087  1.00  0.00     0.117 A 
ATOM     20  C   UNL A   1      31.031  24.767  23.926  1.00  0.00     0.065 A 
ATOM     21  C   UNL A   1      31.858  25.790  23.469  1.00  0.00     0.012 A 
ATOM     22  C   UNL A   1      31.138  23.448  23.442  1.00  0.00     0.028 A 
ATOM     23  C   UNL A   1      32.931  25.448  22.619  1.00  0.00     0.011 A 
ATOM     24  C   UNL A   1      32.266  23.120  22.690  1.00  0.00     0.002 A 
ATOM     25  C   UNL A   1      33.171  24.101  22.311  1.00  0.00     0.001 A 
BRANCH  18  26
ATOM     26  S   UNL A   1      31.212  24.310  26.466  1.00  0.00     0.268 S 
ATOM     27  O   UNL A   1      30.045  23.713  27.099  1.00  0.00    -0.201 OA
ATOM     28  O   UNL A   1      32.016  25.301  27.165  1.00  0.00    -0.201 OA
BRANCH  26  29
ATOM     29  C   UNL A   1      32.356  23.002  26.284  1.00  0.00     0.088 A 
ATOM     30  C   UNL A   1      35.803  20.736  25.067  1.00  0.00     0.044 C 
ATOM     31  C   UNL A   1      34.601  21.453  25.614  1.00  0.00    -0.051 A 
ATOM     32  C   UNL A   1      34.769  22.781  25.972  1.00  0.00     0.005 A 
ATOM     33  C   UNL A   1      33.304  20.894  25.641  1.00  0.00     0.005 A 
ATOM     34  C   UNL A   1      33.666  23.535  26.305  1.00  0.00     0.022 A 
ATOM     35  C   UNL A   1      32.163  21.668  25.972  1.00  0.00     0.022 A 
ENDBRANCH  26  29
ENDBRANCH  18  26
ENDBRANCH  15  17
ENDBRANCH  12  15
ENDBRANCH  10  11
ENDBRANCH   7  10
ENDBRANCH   5   6
BRANCH   5  36
ATOM     36  C   UNL A   1      34.919  31.735  27.769  1.00  0.00     0.074 C 
BRANCH  36  37
ATOM     37  C   UNL A   1      34.665  32.379  29.092  1.00  0.00    -0.020 A 
ATOM     38  C   UNL A   1      34.978  31.915  30.352  1.00  0.00     0.087 A 
ATOM     39  C   UNL A   1      34.075  33.680  29.269  1.00  0.00     0.003 A 
ATOM     40  N   UNL A   1      34.513  32.825  31.258  1.00  0.00    -0.361 N 
ATOM     41  C   UNL A   1      34.085  33.963  30.629  1.00  0.00     0.046 A 
ATOM     42  C   UNL A   1      33.569  34.663  28.396  1.00  0.00     0.010 A 
ATOM     43  H   UNL A   1      34.486  32.682  32.232  1.00  0.00     0.166 HD
ATOM     44  C   UNL A   1      33.712  35.197  31.167  1.00  0.00     0.026 A 
ATOM     45  C   UNL A   1      33.150  35.895  28.916  1.00  0.00     0.001 A 
ATOM     46  C   UNL A   1      33.247  36.166  30.279  1.00  0.00     0.002 A 
ENDBRANCH  36  37
ENDBRANCH   5  36
ENDBRANCH   3   5
ENDBRANCH   2   3
ENDBRANCH   1   2
BRANCH   1  47
ATOM     47  C   UNL A   1      39.604  28.682  27.555  1.00  0.00     0.202 C 
BRANCH  47  48
ATOM     48  O   UNL A   1      39.434  27.380  28.065  1.00  0.00    -0.374 OA
BRANCH  48  49
ATOM     49  C   UNL A   1      40.622  26.607  28.196  1.00  0.00     0.202 C 
BRANCH  49  50
ATOM     50  C   UNL A   1      40.698  25.189  27.578  1.00  0.00     0.261 C 
BRANCH  50  51
ATOM     51  O   UNL A   1      40.979  24.099  28.481  1.00  0.00    -0.460 OA
BRANCH  51  52
ATOM     52  C   UNL A   1      41.536  22.959  27.916  1.00  0.00     0.338 C 
ATOM     53  O   UNL A   1      41.341  22.493  26.829  1.00  0.00    -0.246 OA
BRANCH  52  54
ATOM     54  C   UNL A   1      42.771  22.668  28.705  1.00  0.00     0.060 A 
ATOM     55  C   UNL A   1      42.804  22.700  30.097  1.00  0.00     0.016 A 
ATOM     56  C   UNL A   1      43.903  22.987  27.986  1.00  0.00     0.016 A 
ATOM     57  C   UNL A   1      43.796  23.442  30.730  1.00  0.00     0.010 A 
ATOM     58  C   UNL A   1      44.749  23.889  28.582  1.00  0.00     0.010 A 
ATOM     59  C   UNL A   1      44.620  24.217  29.931  1.00  0.00    -0.014 A 
BRANCH  59  60
ATOM     60  C   UNL A   1      45.168  25.497  30.401  1.00  0.00     0.031 A 
ATOM     61  C   UNL A   1      44.882  25.874  31.798  1.00  0.00     0.074 A 
ATOM     62  C   UNL A   1      45.889  26.266  29.544  1.00  0.00     0.049 A 
ATOM     63  N   UNL A   1      44.480  27.039  32.171  1.00  0.00    -0.248 NA
ATOM     64  C   UNL A   1      44.816  24.892  32.886  1.00  0.00     0.031 C 
ATOM     65  C   UNL A   1      46.569  27.534  29.790  1.00  0.00     0.029 A 
ATOM     66  N   UNL A   1      46.059  26.065  28.163  1.00  0.00    -0.354 N 
ATOM     67  C   UNL A   1      44.421  26.983  33.548  1.00  0.00     0.074 A 
ATOM     68  C   UNL A   1      44.238  25.606  33.844  1.00  0.00     0.031 C 
ATOM     69  C   UNL A   1      46.857  28.111  28.605  1.00  0.00     0.029 A 
ATOM     70  C   UNL A   1      46.288  27.291  27.534  1.00  0.00     0.049 A 
ATOM     71  H   UNL A   1      46.023  25.193  27.709  1.00  0.00     0.167 HD
ATOM     72  C   UNL A   1      44.832  28.040  34.303  1.00  0.00     0.037 A 
ATOM     73  C   UNL A   1      45.339  27.730  26.654  1.00  0.00     0.037 A 
ATOM     74  C   UNL A   1      45.055  29.185  33.400  1.00  0.00     0.049 A 
ATOM     75  C   UNL A   1      44.489  28.789  27.350  1.00  0.00     0.074 A 
ATOM     76  C   UNL A   1      46.188  29.822  32.925  1.00  0.00     0.029 A 
ATOM     77  N   UNL A   1      44.030  29.536  32.504  1.00  0.00    -0.354 N 
ATOM     78  N   UNL A   1      44.367  28.882  28.659  1.00  0.00    -0.248 NA
ATOM     79  C   UNL A   1      43.874  29.920  26.665  1.00  0.00     0.031 C 
ATOM     80  C   UNL A   1      45.866  30.388  31.643  1.00  0.00     0.029 A 
ATOM     81  C   UNL A   1      44.531  30.130  31.350  1.00  0.00     0.049 A 
ATOM     82  H   UNL A   1      43.073  29.379  32.673  1.00  0.00     0.167 HD
ATOM     83  C   UNL A   1      43.781  30.071  28.998  1.00  0.00     0.074 A 
ATOM     84  C   UNL A   1      43.460  30.668  27.705  1.00  0.00     0.031 C 
ATOM     85  C   UNL A   1      43.612  30.543  30.276  1.00  0.00     0.037 A 
BRANCH  72  86
ATOM     86  C   UNL A   1      45.175  27.940  35.805  1.00  0.00     0.058 A 
ATOM     87  C   UNL A   1      44.159  27.872  36.779  1.00  0.00     0.135 A 
ATOM     88  C   UNL A   1      46.479  27.881  36.373  1.00  0.00     0.135 A 
ATOM     89  F   UNL A   1      42.878  28.077  36.440  1.00  0.00    -0.206 F 
ATOM     90  C   UNL A   1      44.410  27.597  38.143  1.00  0.00     0.059 A 
ATOM     91  C   UNL A   1      46.753  27.559  37.704  1.00  0.00     0.059 A 
ATOM     92  F   UNL A   1      47.586  28.199  35.698  1.00  0.00    -0.206 F 
ATOM     93  C   UNL A   1      45.711  27.378  38.584  1.00  0.00     0.060 A 
BRANCH  93  94
ATOM     94  S   UNL A   1      46.085  26.713  40.223  1.00  0.00     0.124 S 
ATOM     95  O   UNL A   1      45.784  27.828  41.112  1.00  0.00    -0.237 OA
ATOM     96  O   UNL A   1      45.187  25.568  40.329  1.00  0.00    -0.237 OA
ATOM     97  O   UNL A   1      47.504  26.380  40.111  1.00  0.00    -0.744 OA
ENDBRANCH  93  94
ENDBRANCH  72  86
BRANCH  73  98
ATOM     98  C   UNL A   1      45.084  26.776  25.498  1.00  0.00     0.058 A 
ATOM     99  C   UNL A   1      46.206  26.105  24.982  1.00  0.00     0.135 A 
ATOM    100  C   UNL A   1      43.887  26.068  25.330  1.00  0.00     0.135 A 
ATOM    101  F   UNL A   1      47.352  26.780  24.828  1.00  0.00    -0.206 F 
ATOM    102  C   UNL A   1      46.218  24.732  24.679  1.00  0.00     0.059 A 
ATOM    103  C   UNL A   1      43.859  24.691  25.010  1.00  0.00     0.059 A 
ATOM    104  F   UNL A   1      42.720  26.702  25.485  1.00  0.00    -0.206 F 
ATOM    105  C   UNL A   1      45.046  24.008  24.793  1.00  0.00     0.060 A 
BRANCH 105 106
ATOM    106  S   UNL A   1      45.122  22.200  24.770  1.00  0.00     0.124 S 
ATOM    107  O   UNL A   1      43.742  21.832  25.056  1.00  0.00    -0.237 OA
ATOM    108  O   UNL A   1      45.580  21.942  23.407  1.00  0.00    -0.237 OA
ATOM    109  O   UNL A   1      46.090  21.896  25.818  1.00  0.00    -0.744 OA
ENDBRANCH 105 106
ENDBRANCH  73  98
BRANCH  85 110
ATOM    110  C   UNL A   1      42.492  31.502  30.636  1.00  0.00     0.058 A 
ATOM    111  C   UNL A   1      42.544  32.881  30.360  1.00  0.00     0.135 A 
ATOM    112  C   UNL A   1      41.232  31.013  31.062  1.00  0.00     0.135 A 
ATOM    113  F   UNL A   1      43.642  33.458  29.851  1.00  0.00    -0.206 F 
ATOM    114  C   UNL A   1      41.453  33.721  30.550  1.00  0.00     0.059 A 
ATOM    115  C   UNL A   1      40.105  31.821  31.170  1.00  0.00     0.059 A 
ATOM    116  F   UNL A   1      41.041  29.720  31.363  1.00  0.00    -0.206 F 
ATOM    117  C   UNL A   1      40.235  33.182  30.947  1.00  0.00     0.060 A 
BRANCH 117 118
ATOM    118  S   UNL A   1      38.815  34.266  31.143  1.00  0.00     0.124 S 
ATOM    119  O   UNL A   1      39.086  35.272  30.121  1.00  0.00    -0.237 OA
ATOM    120  O   UNL A   1      37.690  33.376  30.871  1.00  0.00    -0.237 OA
ATOM    121  O   UNL A   1      38.928  34.720  32.525  1.00  0.00    -0.744 OA
ENDBRANCH 117 118
ENDBRANCH  85 110
ENDBRANCH  59  60
ENDBRANCH  52  54
ENDBRANCH  51  52
ENDBRANCH  50  51
ENDBRANCH  49  50
ENDBRANCH  48  49
ENDBRANCH  47  48
ENDBRANCH   1  47
TORSDOF 26
ENDMDL
MODEL 3
REMARK VINA RESULT:     -10.5      3.350      8.559
REMARK SMILES Cc1ccc(S(=O)(=O)n2cc(C(=O)C(=O)NCC(=O)N[C@@H](Cc3c[nH]c4ccccc34)C(=O)OCCOCCOC(=O)c3ccc(-c4c5nc(c(-c6c(F)cc(S(=O)(=O)[O-])cc6F)c6ccc([nH]6)c(-c6c(F)cc(S(=O)(=O)[O-])cc6F)c6nc(c(-c7c(F)cc(S(=O)(=O)[O-])cc7F)c7ccc4[nH]7)C=C6)C=C5)cc3)c3ccccc32)cc1
REMARK SMILES IDX 35 1 34 2 32 3 33 4 21 5 20 6 18 7 19 8 17 10 16 11 14 12
REMARK SMILES IDX 15 13 12 15 13 16 11 17 9 18 10 19 114 20 109 21 113 22
REMARK SMILES IDX 110 23 112 24 111 25 6 26 7 27 8 28 5 29 1 30 2 31 3 32
REMARK SMILES IDX 116 33 4 34 115 35 22 36 23 37 24 38 31 39 25 40 26 41 30 42
REMARK SMILES IDX 27 44 29 45 28 46 36 47 37 48 38 49 39 50 40 51 41 52 42 53
REMARK SMILES IDX 43 54 44 55 108 56 45 57 107 58 46 59 47 60 48 61 101 62
REMARK SMILES IDX 49 63 106 64 100 65 102 66 50 67 105 68 99 69 98 70 51 72
REMARK SMILES IDX 85 73 64 74 84 75 65 76 68 77 83 78 103 79 66 80 67 81 82 83
REMARK SMILES IDX 104 84 69 85 52 86 53 87 62 88 54 89 55 90 61 91 63 92 56 93
REMARK SMILES IDX 57 94 58 95 59 96 60 97 86 98 87 99 96 100 88 101 89 102
REMARK SMILES IDX 95 103 97 104 90 105 91 106 92 107 93 108 94 109 70 110
REMARK SMILES IDX 71 111 80 112 72 113 73 114 79 115 81 116 74 117 75 118
REMARK SMILES IDX 76 119 77 120 78 121
REMARK H PARENT 20 9 16 14 25 43 102 71 68 82
REMARK Flexibility Score: inf
ROOT
ATOM      1  C   UNL A   1      41.218  26.144  26.928  1.00  0.00     0.261 C 
ENDROOT
BRANCH   1   2
ATOM      2  O   UNL A   1      40.666  25.006  26.265  1.00  0.00    -0.462 OA
BRANCH   2   3
ATOM      3  C   UNL A   1      39.522  24.487  26.764  1.00  0.00     0.329 C 
ATOM      4  O   UNL A   1      38.440  25.059  26.804  1.00  0.00    -0.250 OA
BRANCH   3   5
ATOM      5  C   UNL A   1      39.688  23.015  27.140  1.00  0.00     0.196 C 
BRANCH   5   6
ATOM      6  N   UNL A   1      39.468  22.022  26.082  1.00  0.00    -0.341 N 
ATOM      7  C   UNL A   1      38.305  21.534  25.571  1.00  0.00     0.240 C 
ATOM      8  O   UNL A   1      38.371  20.752  24.619  1.00  0.00    -0.273 OA
ATOM      9  H   UNL A   1      40.286  21.653  25.680  1.00  0.00     0.164 HD
BRANCH   7  10
ATOM     10  C   UNL A   1      36.942  22.069  26.047  1.00  0.00     0.216 C 
BRANCH  10  11
ATOM     11  N   UNL A   1      35.803  21.177  25.817  1.00  0.00    -0.340 N 
ATOM     12  C   UNL A   1      34.741  21.351  24.937  1.00  0.00     0.292 C 
ATOM     13  O   UNL A   1      33.752  20.630  25.005  1.00  0.00    -0.265 OA
ATOM     14  H   UNL A   1      35.786  20.352  26.354  1.00  0.00     0.164 HD
BRANCH  12  15
ATOM     15  C   UNL A   1      34.830  22.454  23.877  1.00  0.00     0.252 C 
ATOM     16  O   UNL A   1      35.950  22.613  23.384  1.00  0.00    -0.283 OA
BRANCH  15  17
ATOM     17  C   UNL A   1      33.704  23.332  23.523  1.00  0.00     0.054 A 
ATOM     18  N   UNL A   1      32.223  24.700  22.482  1.00  0.00    -0.240 N 
ATOM     19  C   UNL A   1      33.264  23.787  22.274  1.00  0.00     0.117 A 
ATOM     20  C   UNL A   1      31.794  24.532  23.812  1.00  0.00     0.065 A 
ATOM     21  C   UNL A   1      32.898  24.017  24.489  1.00  0.00     0.012 A 
ATOM     22  C   UNL A   1      30.718  25.136  24.493  1.00  0.00     0.028 A 
ATOM     23  C   UNL A   1      32.999  24.257  25.875  1.00  0.00     0.011 A 
ATOM     24  C   UNL A   1      30.893  25.453  25.839  1.00  0.00     0.002 A 
ATOM     25  C   UNL A   1      32.035  25.049  26.516  1.00  0.00     0.001 A 
BRANCH  18  26
ATOM     26  S   UNL A   1      32.362  26.421  22.139  1.00  0.00     0.268 S 
ATOM     27  O   UNL A   1      31.148  26.696  21.384  1.00  0.00    -0.201 OA
ATOM     28  O   UNL A   1      33.671  26.524  21.513  1.00  0.00    -0.201 OA
BRANCH  26  29
ATOM     29  C   UNL A   1      32.452  27.687  23.340  1.00  0.00     0.088 A 
ATOM     30  C   UNL A   1      33.208  29.763  27.029  1.00  0.00     0.044 C 
ATOM     31  C   UNL A   1      32.969  29.161  25.674  1.00  0.00    -0.051 A 
ATOM     32  C   UNL A   1      33.917  28.264  25.208  1.00  0.00     0.005 A 
ATOM     33  C   UNL A   1      31.781  29.350  24.934  1.00  0.00     0.005 A 
ATOM     34  C   UNL A   1      33.661  27.547  24.060  1.00  0.00     0.022 A 
ATOM     35  C   UNL A   1      31.507  28.607  23.758  1.00  0.00     0.022 A 
ENDBRANCH  26  29
ENDBRANCH  18  26
ENDBRANCH  15  17
ENDBRANCH  12  15
ENDBRANCH  10  11
ENDBRANCH   7  10
ENDBRANCH   5   6
BRANCH   5  36
ATOM     36  C   UNL A   1      40.885  22.717  28.047  1.00  0.00     0.074 C 
BRANCH  36  37
ATOM     37  C   UNL A   1      42.231  22.533  27.426  1.00  0.00    -0.020 A 
ATOM     38  C   UNL A   1      42.582  21.760  26.340  1.00  0.00     0.087 A 
ATOM     39  C   UNL A   1      43.426  23.216  27.847  1.00  0.00     0.003 A 
ATOM     40  N   UNL A   1      43.932  21.873  26.168  1.00  0.00    -0.361 N 
ATOM     41  C   UNL A   1      44.446  22.850  26.978  1.00  0.00     0.046 A 
ATOM     42  C   UNL A   1      43.729  24.142  28.865  1.00  0.00     0.010 A 
ATOM     43  H   UNL A   1      44.465  21.326  25.547  1.00  0.00     0.166 HD
ATOM     44  C   UNL A   1      45.722  23.418  26.996  1.00  0.00     0.026 A 
ATOM     45  C   UNL A   1      45.015  24.696  28.930  1.00  0.00     0.001 A 
ATOM     46  C   UNL A   1      45.988  24.359  27.991  1.00  0.00     0.002 A 
ENDBRANCH  36  37
ENDBRANCH   5  36
ENDBRANCH   3   5
ENDBRANCH   2   3
ENDBRANCH   1   2
BRANCH   1  47
ATOM     47  C   UNL A   1      40.954  27.479  26.243  1.00  0.00     0.202 C 
BRANCH  47  48
ATOM     48  O   UNL A   1      40.202  28.462  26.916  1.00  0.00    -0.374 OA
BRANCH  48  49
ATOM     49  C   UNL A   1      39.425  28.002  28.015  1.00  0.00     0.202 C 
BRANCH  49  50
ATOM     50  C   UNL A   1      39.230  28.903  29.260  1.00  0.00     0.261 C 
BRANCH  50  51
ATOM     51  O   UNL A   1      37.882  29.329  29.552  1.00  0.00    -0.460 OA
BRANCH  51  52
ATOM     52  C   UNL A   1      37.486  30.540  29.000  1.00  0.00     0.338 C 
ATOM     53  O   UNL A   1      36.678  30.737  28.138  1.00  0.00    -0.246 OA
BRANCH  52  54
ATOM     54  C   UNL A   1      37.891  31.593  29.979  1.00  0.00     0.060 A 
ATOM     55  C   UNL A   1      38.581  32.745  29.609  1.00  0.00     0.016 A 
ATOM     56  C   UNL A   1      38.083  31.053  31.233  1.00  0.00     0.016 A 
ATOM     57  C   UNL A   1      39.738  33.088  30.301  1.00  0.00     0.010 A 
ATOM     58  C   UNL A   1      39.325  31.255  31.781  1.00  0.00     0.010 A 
ATOM     59  C   UNL A   1      40.211  32.187  31.240  1.00  0.00    -0.014 A 
BRANCH  59  60
ATOM     60  C   UNL A   1      41.648  32.030  31.503  1.00  0.00     0.031 A 
ATOM     61  C   UNL A   1      42.393  31.115  30.620  1.00  0.00     0.074 A 
ATOM     62  C   UNL A   1      42.213  32.712  32.534  1.00  0.00     0.049 A 
ATOM     63  N   UNL A   1      43.226  30.223  31.031  1.00  0.00    -0.248 NA
ATOM     64  C   UNL A   1      42.096  30.977  29.190  1.00  0.00     0.031 C 
ATOM     65  C   UNL A   1      43.610  32.759  32.954  1.00  0.00     0.029 A 
ATOM     66  N   UNL A   1      41.549  33.462  33.520  1.00  0.00    -0.354 N 
ATOM     67  C   UNL A   1      43.753  29.658  29.887  1.00  0.00     0.074 A 
ATOM     68  C   UNL A   1      42.757  29.864  28.894  1.00  0.00     0.031 C 
ATOM     69  C   UNL A   1      43.673  33.264  34.203  1.00  0.00     0.029 A 
ATOM     70  C   UNL A   1      42.308  33.477  34.691  1.00  0.00     0.049 A 
ATOM     71  H   UNL A   1      40.679  33.909  33.401  1.00  0.00     0.167 HD
ATOM     72  C   UNL A   1      45.078  29.351  29.812  1.00  0.00     0.037 A 
ATOM     73  C   UNL A   1      41.781  32.855  35.788  1.00  0.00     0.037 A 
ATOM     74  C   UNL A   1      45.656  29.495  31.162  1.00  0.00     0.049 A 
ATOM     75  C   UNL A   1      42.450  31.493  35.938  1.00  0.00     0.074 A 
ATOM     76  C   UNL A   1      46.494  30.426  31.749  1.00  0.00     0.029 A 
ATOM     77  N   UNL A   1      45.017  28.845  32.232  1.00  0.00    -0.354 N 
ATOM     78  N   UNL A   1      43.028  30.849  34.944  1.00  0.00    -0.248 NA
ATOM     79  C   UNL A   1      42.693  30.841  37.220  1.00  0.00     0.031 C 
ATOM     80  C   UNL A   1      46.201  30.453  33.157  1.00  0.00     0.029 A 
ATOM     81  C   UNL A   1      45.212  29.514  33.436  1.00  0.00     0.049 A 
ATOM     82  H   UNL A   1      44.494  28.016  32.141  1.00  0.00     0.167 HD
ATOM     83  C   UNL A   1      43.772  29.806  35.422  1.00  0.00     0.074 A 
ATOM     84  C   UNL A   1      43.498  29.825  36.855  1.00  0.00     0.031 C 
ATOM     85  C   UNL A   1      44.596  29.003  34.672  1.00  0.00     0.037 A 
BRANCH  72  86
ATOM     86  C   UNL A   1      45.826  29.097  28.486  1.00  0.00     0.058 A 
ATOM     87  C   UNL A   1      46.705  28.005  28.346  1.00  0.00     0.135 A 
ATOM     88  C   UNL A   1      45.717  29.865  27.293  1.00  0.00     0.135 A 
ATOM     89  F   UNL A   1      47.053  27.271  29.413  1.00  0.00    -0.206 F 
ATOM     90  C   UNL A   1      47.272  27.620  27.109  1.00  0.00     0.059 A 
ATOM     91  C   UNL A   1      46.222  29.480  26.049  1.00  0.00     0.059 A 
ATOM     92  F   UNL A   1      45.173  31.084  27.254  1.00  0.00    -0.206 F 
ATOM     93  C   UNL A   1      46.972  28.329  25.951  1.00  0.00     0.060 A 
BRANCH  93  94
ATOM     94  S   UNL A   1      47.389  27.723  24.301  1.00  0.00     0.124 S 
ATOM     95  O   UNL A   1      46.851  28.753  23.420  1.00  0.00    -0.237 OA
ATOM     96  O   UNL A   1      48.845  27.630  24.339  1.00  0.00    -0.237 OA
ATOM     97  O   UNL A   1      46.688  26.441  24.250  1.00  0.00    -0.744 OA
ENDBRANCH  93  94
ENDBRANCH  72  86
BRANCH  73  98
ATOM     98  C   UNL A   1      40.436  33.416  36.225  1.00  0.00     0.058 A 
ATOM     99  C   UNL A   1      39.335  32.548  36.128  1.00  0.00     0.135 A 
ATOM    100  C   UNL A   1      40.293  34.386  37.224  1.00  0.00     0.135 A 
ATOM    101  F   UNL A   1      39.221  31.763  35.049  1.00  0.00    -0.206 F 
ATOM    102  C   UNL A   1      38.370  32.403  37.140  1.00  0.00     0.059 A 
ATOM    103  C   UNL A   1      39.324  34.283  38.248  1.00  0.00     0.059 A 
ATOM    104  F   UNL A   1      41.101  35.451  37.228  1.00  0.00    -0.206 F 
ATOM    105  C   UNL A   1      38.435  33.219  38.253  1.00  0.00     0.060 A 
BRANCH 105 106
ATOM    106  S   UNL A   1      37.445  32.802  39.710  1.00  0.00     0.124 S 
ATOM    107  O   UNL A   1      36.170  32.424  39.116  1.00  0.00    -0.237 OA
ATOM    108  O   UNL A   1      38.224  31.711  40.293  1.00  0.00    -0.237 OA
ATOM    109  O   UNL A   1      37.446  34.042  40.476  1.00  0.00    -0.744 OA
ENDBRANCH 105 106
ENDBRANCH  73  98
BRANCH  85 110
ATOM    110  C   UNL A   1      44.910  27.574  35.077  1.00  0.00     0.058 A 
ATOM    111  C   UNL A   1      44.011  26.508  34.886  1.00  0.00     0.135 A 
ATOM    112  C   UNL A   1      46.223  27.203  35.460  1.00  0.00     0.135 A 
ATOM    113  F   UNL A   1      42.768  26.705  34.425  1.00  0.00    -0.206 F 
ATOM    114  C   UNL A   1      44.367  25.183  35.117  1.00  0.00     0.059 A 
ATOM    115  C   UNL A   1      46.622  25.879  35.605  1.00  0.00     0.059 A 
ATOM    116  F   UNL A   1      47.180  28.118  35.679  1.00  0.00    -0.206 F 
ATOM    117  C   UNL A   1      45.676  24.877  35.467  1.00  0.00     0.060 A 
BRANCH 117 118
ATOM    118  S   UNL A   1      46.142  23.158  35.714  1.00  0.00     0.124 S 
ATOM    119  O   UNL A   1      46.301  23.116  37.164  1.00  0.00    -0.237 OA
ATOM    120  O   UNL A   1      44.990  22.434  35.184  1.00  0.00    -0.237 OA
ATOM    121  O   UNL A   1      47.369  23.028  34.936  1.00  0.00    -0.744 OA
ENDBRANCH 117 118
ENDBRANCH  85 110
ENDBRANCH  59  60
ENDBRANCH  52  54
ENDBRANCH  51  52
ENDBRANCH  50  51
ENDBRANCH  49  50
ENDBRANCH  48  49
ENDBRANCH  47  48
ENDBRANCH   1  47
TORSDOF 26
ENDMDL
