MODEL 1
REMARK VINA RESULT:     -10.2      0.000      0.000
REMARK SMILES COC(=O)c1ccc([C@H]([NH3+])CC(=O)OCCOCCOC(=O)c2ccc(-c3c4nc(c(-c5c(F)cc(S(=O)(=O)[O-])cc5F)c5ccc([nH]5)c(-c5c(F)cc(S(=O)(=O)[O-])cc5F)c5nc(c(-c6c(F)cc(S(=O)(=O)[O-])cc6F)c6ccc3[nH]6)C=C5)C=C4)cc2)cc1
REMARK SMILES IDX 16 1 15 2 14 3 12 4 13 5 11 6 9 7 8 8 5 9 6 10 90 11 7 12
REMARK SMILES IDX 89 13 3 14 4 15 2 16 1 17 10 18 17 22 18 23 19 24 20 25
REMARK SMILES IDX 21 26 22 27 23 28 24 29 88 30 25 31 87 32 26 33 27 34 28 35
REMARK SMILES IDX 81 36 29 37 86 38 80 39 82 40 30 41 85 42 79 43 78 44 31 46
REMARK SMILES IDX 65 47 44 48 64 49 45 50 48 51 63 52 83 53 46 54 47 55 62 57
REMARK SMILES IDX 84 58 49 59 32 60 33 61 42 62 34 63 35 64 41 65 43 66 36 67
REMARK SMILES IDX 37 68 38 69 39 70 40 71 66 72 67 73 76 74 68 75 69 76 75 77
REMARK SMILES IDX 77 78 70 79 71 80 72 81 73 82 74 83 50 84 51 85 60 86 52 87
REMARK SMILES IDX 53 88 59 89 61 90 54 91 55 92 56 93 57 94 58 95
REMARK H PARENT 10 19 10 20 10 21 82 45 48 56
REMARK Flexibility Score: inf
ROOT
ATOM      1  C   UNL A   1      36.025  22.502  25.474  1.00  0.00     0.202 C 
ENDROOT
BRANCH   1   2
ATOM      2  C   UNL A   1      34.847  22.954  26.340  1.00  0.00     0.261 C 
BRANCH   2   3
ATOM      3  O   UNL A   1      33.571  22.600  25.778  1.00  0.00    -0.463 OA
BRANCH   3   4
ATOM      4  C   UNL A   1      33.394  22.987  24.489  1.00  0.00     0.312 C 
ATOM      5  O   UNL A   1      33.135  24.128  24.123  1.00  0.00    -0.252 OA
BRANCH   4   6
ATOM      6  C   UNL A   1      33.474  21.845  23.514  1.00  0.00     0.192 C 
BRANCH   6   7
ATOM      7  C   UNL A   1      32.231  20.959  23.309  1.00  0.00     0.223 C 
BRANCH   7   8
ATOM      8  C   UNL A   1      32.443  19.527  23.815  1.00  0.00     0.010 A 
ATOM      9  C   UNL A   1      32.936  16.917  24.778  1.00  0.00     0.060 A 
ATOM     10  C   UNL A   1      32.823  17.983  25.674  1.00  0.00     0.016 A 
ATOM     11  C   UNL A   1      32.761  17.144  23.411  1.00  0.00     0.016 A 
ATOM     12  C   UNL A   1      32.588  19.280  25.194  1.00  0.00     0.011 A 
ATOM     13  C   UNL A   1      32.506  18.430  22.941  1.00  0.00     0.011 A 
BRANCH   9  14
ATOM     14  C   UNL A   1      33.229  15.553  25.276  1.00  0.00     0.337 C 
ATOM     15  O   UNL A   1      32.466  14.884  25.957  1.00  0.00    -0.246 OA
BRANCH  14  16
ATOM     16  O   UNL A   1      34.478  15.201  24.882  1.00  0.00    -0.465 OA
ATOM     17  C   UNL A   1      35.532  16.007  25.403  1.00  0.00     0.282 C 
ENDBRANCH  14  16
ENDBRANCH   9  14
ENDBRANCH   7   8
BRANCH   7  18
ATOM     18  N   UNL A   1      31.790  20.911  21.914  1.00  0.00    -0.351 N 
ATOM     19  H   UNL A   1      32.103  20.038  21.489  1.00  0.00     0.345 HD
ATOM     20  H   UNL A   1      32.190  21.699  21.405  1.00  0.00     0.345 HD
ATOM     21  H   UNL A   1      30.773  20.963  21.877  1.00  0.00     0.345 HD
ENDBRANCH   7  18
ENDBRANCH   6   7
ENDBRANCH   4   6
ENDBRANCH   3   4
ENDBRANCH   2   3
ENDBRANCH   1   2
BRANCH   1  22
ATOM     22  O   UNL A   1      37.175  21.974  26.127  1.00  0.00    -0.374 OA
BRANCH  22  23
ATOM     23  C   UNL A   1      38.457  22.467  25.748  1.00  0.00     0.202 C 
BRANCH  23  24
ATOM     24  C   UNL A   1      38.814  23.919  26.089  1.00  0.00     0.261 C 
BRANCH  24  25
ATOM     25  O   UNL A   1      40.184  24.086  26.495  1.00  0.00    -0.460 OA
BRANCH  25  26
ATOM     26  C   UNL A   1      40.650  25.351  26.342  1.00  0.00     0.338 C 
ATOM     27  O   UNL A   1      40.752  25.972  25.296  1.00  0.00    -0.246 OA
BRANCH  26  28
ATOM     28  C   UNL A   1      40.847  25.999  27.652  1.00  0.00     0.060 A 
ATOM     29  C   UNL A   1      39.884  25.738  28.635  1.00  0.00     0.016 A 
ATOM     30  C   UNL A   1      41.860  26.931  27.879  1.00  0.00     0.016 A 
ATOM     31  C   UNL A   1      39.872  26.478  29.811  1.00  0.00     0.010 A 
ATOM     32  C   UNL A   1      41.846  27.676  29.065  1.00  0.00     0.010 A 
ATOM     33  C   UNL A   1      40.815  27.496  30.006  1.00  0.00    -0.014 A 
BRANCH  33  34
ATOM     34  C   UNL A   1      40.582  28.472  31.100  1.00  0.00     0.031 A 
ATOM     35  C   UNL A   1      41.460  28.418  32.326  1.00  0.00     0.074 A 
ATOM     36  C   UNL A   1      39.673  29.454  30.963  1.00  0.00     0.049 A 
ATOM     37  N   UNL A   1      41.477  29.206  33.370  1.00  0.00    -0.248 NA
ATOM     38  C   UNL A   1      42.451  27.332  32.381  1.00  0.00     0.031 C 
ATOM     39  C   UNL A   1      38.794  29.633  29.808  1.00  0.00     0.029 A 
ATOM     40  N   UNL A   1      39.348  30.494  31.798  1.00  0.00    -0.354 N 
ATOM     41  C   UNL A   1      42.473  28.710  34.205  1.00  0.00     0.074 A 
ATOM     42  C   UNL A   1      43.008  27.528  33.567  1.00  0.00     0.031 C 
ATOM     43  C   UNL A   1      38.033  30.723  30.005  1.00  0.00     0.029 A 
ATOM     44  C   UNL A   1      38.350  31.302  31.309  1.00  0.00     0.049 A 
ATOM     45  H   UNL A   1      39.789  30.646  32.665  1.00  0.00     0.167 HD
ATOM     46  C   UNL A   1      42.912  29.203  35.389  1.00  0.00     0.037 A 
ATOM     47  C   UNL A   1      37.753  32.379  31.857  1.00  0.00     0.037 A 
ATOM     48  C   UNL A   1      42.380  30.385  36.017  1.00  0.00     0.049 A 
ATOM     49  C   UNL A   1      38.226  32.879  33.198  1.00  0.00     0.074 A 
ATOM     50  C   UNL A   1      42.767  30.976  37.207  1.00  0.00     0.029 A 
ATOM     51  N   UNL A   1      41.343  31.155  35.509  1.00  0.00    -0.354 N 
ATOM     52  N   UNL A   1      39.183  32.411  33.966  1.00  0.00    -0.248 NA
ATOM     53  C   UNL A   1      37.545  34.062  33.740  1.00  0.00     0.031 C 
ATOM     54  C   UNL A   1      41.926  32.068  37.447  1.00  0.00     0.029 A 
ATOM     55  C   UNL A   1      41.059  32.200  36.373  1.00  0.00     0.049 A 
ATOM     56  H   UNL A   1      40.877  30.983  34.658  1.00  0.00     0.167 HD
ATOM     57  C   UNL A   1      39.240  33.263  35.065  1.00  0.00     0.074 A 
ATOM     58  C   UNL A   1      38.232  34.282  34.852  1.00  0.00     0.031 C 
ATOM     59  C   UNL A   1      40.053  33.209  36.150  1.00  0.00     0.037 A 
BRANCH  46  60
ATOM     60  C   UNL A   1      44.008  28.449  36.096  1.00  0.00     0.058 A 
ATOM     61  C   UNL A   1      43.740  27.350  36.927  1.00  0.00     0.135 A 
ATOM     62  C   UNL A   1      45.353  28.815  35.914  1.00  0.00     0.135 A 
ATOM     63  F   UNL A   1      42.473  26.966  37.154  1.00  0.00    -0.206 F 
ATOM     64  C   UNL A   1      44.761  26.657  37.574  1.00  0.00     0.059 A 
ATOM     65  C   UNL A   1      46.391  28.117  36.524  1.00  0.00     0.059 A 
ATOM     66  F   UNL A   1      45.669  29.860  35.132  1.00  0.00    -0.206 F 
ATOM     67  C   UNL A   1      46.084  27.048  37.363  1.00  0.00     0.060 A 
BRANCH  67  68
ATOM     68  S   UNL A   1      47.397  26.135  38.201  1.00  0.00     0.124 S 
ATOM     69  O   UNL A   1      48.019  27.185  39.002  1.00  0.00    -0.237 OA
ATOM     70  O   UNL A   1      46.648  25.128  38.947  1.00  0.00    -0.237 OA
ATOM     71  O   UNL A   1      48.210  25.621  37.102  1.00  0.00    -0.744 OA
ENDBRANCH  67  68
ENDBRANCH  46  60
BRANCH  47  72
ATOM     72  C   UNL A   1      36.644  33.060  31.136  1.00  0.00     0.058 A 
ATOM     73  C   UNL A   1      35.311  32.926  31.552  1.00  0.00     0.135 A 
ATOM     74  C   UNL A   1      36.899  33.858  30.009  1.00  0.00     0.135 A 
ATOM     75  F   UNL A   1      35.014  32.167  32.618  1.00  0.00    -0.206 F 
ATOM     76  C   UNL A   1      34.268  33.543  30.868  1.00  0.00     0.059 A 
ATOM     77  C   UNL A   1      35.876  34.510  29.327  1.00  0.00     0.059 A 
ATOM     78  F   UNL A   1      38.157  34.029  29.575  1.00  0.00    -0.206 F 
ATOM     79  C   UNL A   1      34.562  34.337  29.757  1.00  0.00     0.060 A 
BRANCH  79  80
ATOM     80  S   UNL A   1      33.207  35.173  28.907  1.00  0.00     0.124 S 
ATOM     81  O   UNL A   1      32.751  34.136  27.988  1.00  0.00    -0.237 OA
ATOM     82  O   UNL A   1      32.305  35.492  30.010  1.00  0.00    -0.237 OA
ATOM     83  O   UNL A   1      33.858  36.324  28.288  1.00  0.00    -0.744 OA
ENDBRANCH  79  80
ENDBRANCH  47  72
BRANCH  59  84
ATOM     84  C   UNL A   1      39.917  34.310  37.171  1.00  0.00     0.058 A 
ATOM     85  C   UNL A   1      39.143  34.160  38.332  1.00  0.00     0.135 A 
ATOM     86  C   UNL A   1      40.586  35.532  36.988  1.00  0.00     0.135 A 
ATOM     87  F   UNL A   1      38.481  33.014  38.559  1.00  0.00    -0.206 F 
ATOM     88  C   UNL A   1      38.993  35.197  39.248  1.00  0.00     0.059 A 
ATOM     89  C   UNL A   1      40.481  36.570  37.908  1.00  0.00     0.059 A 
ATOM     90  F   UNL A   1      41.355  35.728  35.905  1.00  0.00    -0.206 F 
ATOM     91  C   UNL A   1      39.663  36.401  39.023  1.00  0.00     0.060 A 
BRANCH  91  92
ATOM     92  S   UNL A   1      39.454  37.744  40.212  1.00  0.00     0.124 S 
ATOM     93  O   UNL A   1      38.933  37.028  41.373  1.00  0.00    -0.237 OA
ATOM     94  O   UNL A   1      40.812  38.261  40.343  1.00  0.00    -0.237 OA
ATOM     95  O   UNL A   1      38.508  38.639  39.552  1.00  0.00    -0.744 OA
ENDBRANCH  91  92
ENDBRANCH  59  84
ENDBRANCH  33  34
ENDBRANCH  26  28
ENDBRANCH  25  26
ENDBRANCH  24  25
ENDBRANCH  23  24
ENDBRANCH  22  23
ENDBRANCH   1  22
TORSDOF 22
ENDMDL
MODEL 2
REMARK VINA RESULT:     -10.1      1.700      3.962
REMARK SMILES COC(=O)c1ccc([C@H]([NH3+])CC(=O)OCCOCCOC(=O)c2ccc(-c3c4nc(c(-c5c(F)cc(S(=O)(=O)[O-])cc5F)c5ccc([nH]5)c(-c5c(F)cc(S(=O)(=O)[O-])cc5F)c5nc(c(-c6c(F)cc(S(=O)(=O)[O-])cc6F)c6ccc3[nH]6)C=C5)C=C4)cc2)cc1
REMARK SMILES IDX 16 1 15 2 14 3 12 4 13 5 11 6 9 7 8 8 5 9 6 10 90 11 7 12
REMARK SMILES IDX 89 13 3 14 4 15 2 16 1 17 10 18 17 22 18 23 19 24 20 25
REMARK SMILES IDX 21 26 22 27 23 28 24 29 88 30 25 31 87 32 26 33 27 34 28 35
REMARK SMILES IDX 81 36 29 37 86 38 80 39 82 40 30 41 85 42 79 43 78 44 31 46
REMARK SMILES IDX 65 47 44 48 64 49 45 50 48 51 63 52 83 53 46 54 47 55 62 57
REMARK SMILES IDX 84 58 49 59 32 60 33 61 42 62 34 63 35 64 41 65 43 66 36 67
REMARK SMILES IDX 37 68 38 69 39 70 40 71 66 72 67 73 76 74 68 75 69 76 75 77
REMARK SMILES IDX 77 78 70 79 71 80 72 81 73 82 74 83 50 84 51 85 60 86 52 87
REMARK SMILES IDX 53 88 59 89 61 90 54 91 55 92 56 93 57 94 58 95
REMARK H PARENT 10 19 10 20 10 21 82 45 48 56
REMARK Flexibility Score: inf
ROOT
ATOM      1  C   UNL A   1      37.571  22.148  25.310  1.00  0.00     0.202 C 
ENDROOT
BRANCH   1   2
ATOM      2  C   UNL A   1      36.382  21.186  25.348  1.00  0.00     0.261 C 
BRANCH   2   3
ATOM      3  O   UNL A   1      35.221  21.705  24.674  1.00  0.00    -0.463 OA
BRANCH   3   4
ATOM      4  C   UNL A   1      34.161  20.858  24.640  1.00  0.00     0.312 C 
ATOM      5  O   UNL A   1      34.234  19.636  24.585  1.00  0.00    -0.252 OA
BRANCH   4   6
ATOM      6  C   UNL A   1      32.838  21.572  24.603  1.00  0.00     0.192 C 
BRANCH   6   7
ATOM      7  C   UNL A   1      32.208  22.031  25.932  1.00  0.00     0.223 C 
BRANCH   7   8
ATOM      8  C   UNL A   1      32.115  23.559  26.037  1.00  0.00     0.010 A 
ATOM      9  C   UNL A   1      31.899  26.374  26.131  1.00  0.00     0.060 A 
ATOM     10  C   UNL A   1      30.747  25.584  26.148  1.00  0.00     0.016 A 
ATOM     11  C   UNL A   1      33.155  25.762  26.111  1.00  0.00     0.016 A 
ATOM     12  C   UNL A   1      30.855  24.187  26.091  1.00  0.00     0.011 A 
ATOM     13  C   UNL A   1      33.257  24.374  26.078  1.00  0.00     0.011 A 
BRANCH   9  14
ATOM     14  C   UNL A   1      31.789  27.851  26.145  1.00  0.00     0.337 C 
ATOM     15  O   UNL A   1      31.962  28.551  27.132  1.00  0.00    -0.246 OA
BRANCH  14  16
ATOM     16  O   UNL A   1      31.435  28.276  24.907  1.00  0.00    -0.465 OA
ATOM     17  C   UNL A   1      31.207  29.678  24.784  1.00  0.00     0.282 C 
ENDBRANCH  14  16
ENDBRANCH   9  14
ENDBRANCH   7   8
BRANCH   7  18
ATOM     18  N   UNL A   1      32.916  21.515  27.105  1.00  0.00    -0.351 N 
ATOM     19  H   UNL A   1      33.189  22.293  27.706  1.00  0.00     0.345 HD
ATOM     20  H   UNL A   1      33.749  21.010  26.804  1.00  0.00     0.345 HD
ATOM     21  H   UNL A   1      32.303  20.885  27.621  1.00  0.00     0.345 HD
ENDBRANCH   7  18
ENDBRANCH   6   7
ENDBRANCH   4   6
ENDBRANCH   3   4
ENDBRANCH   2   3
ENDBRANCH   1   2
BRANCH   1  22
ATOM     22  O   UNL A   1      38.872  21.615  25.537  1.00  0.00    -0.374 OA
BRANCH  22  23
ATOM     23  C   UNL A   1      39.617  22.096  26.653  1.00  0.00     0.202 C 
BRANCH  23  24
ATOM     24  C   UNL A   1      40.593  23.260  26.436  1.00  0.00     0.261 C 
BRANCH  24  25
ATOM     25  O   UNL A   1      39.935  24.528  26.270  1.00  0.00    -0.460 OA
BRANCH  25  26
ATOM     26  C   UNL A   1      40.786  25.583  26.214  1.00  0.00     0.338 C 
ATOM     27  O   UNL A   1      41.251  26.096  25.209  1.00  0.00    -0.246 OA
BRANCH  26  28
ATOM     28  C   UNL A   1      40.943  26.199  27.545  1.00  0.00     0.060 A 
ATOM     29  C   UNL A   1      39.921  25.964  28.473  1.00  0.00     0.016 A 
ATOM     30  C   UNL A   1      41.983  27.081  27.840  1.00  0.00     0.016 A 
ATOM     31  C   UNL A   1      39.881  26.684  29.662  1.00  0.00     0.010 A 
ATOM     32  C   UNL A   1      41.941  27.806  29.039  1.00  0.00     0.010 A 
ATOM     33  C   UNL A   1      40.856  27.655  29.924  1.00  0.00    -0.014 A 
BRANCH  33  34
ATOM     34  C   UNL A   1      40.611  28.622  31.023  1.00  0.00     0.031 A 
ATOM     35  C   UNL A   1      41.480  28.563  32.255  1.00  0.00     0.074 A 
ATOM     36  C   UNL A   1      39.697  29.600  30.887  1.00  0.00     0.049 A 
ATOM     37  N   UNL A   1      41.486  29.343  33.305  1.00  0.00    -0.248 NA
ATOM     38  C   UNL A   1      42.477  27.481  32.308  1.00  0.00     0.031 C 
ATOM     39  C   UNL A   1      38.826  29.783  29.727  1.00  0.00     0.029 A 
ATOM     40  N   UNL A   1      39.362  30.631  31.728  1.00  0.00    -0.354 N 
ATOM     41  C   UNL A   1      42.478  28.845  34.143  1.00  0.00     0.074 A 
ATOM     42  C   UNL A   1      43.024  27.671  33.499  1.00  0.00     0.031 C 
ATOM     43  C   UNL A   1      38.058  30.868  29.927  1.00  0.00     0.029 A 
ATOM     44  C   UNL A   1      38.362  31.438  31.238  1.00  0.00     0.049 A 
ATOM     45  H   UNL A   1      39.795  30.779  32.599  1.00  0.00     0.167 HD
ATOM     46  C   UNL A   1      42.907  29.331  35.334  1.00  0.00     0.037 A 
ATOM     47  C   UNL A   1      37.756  32.508  31.789  1.00  0.00     0.037 A 
ATOM     48  C   UNL A   1      42.364  30.506  35.967  1.00  0.00     0.049 A 
ATOM     49  C   UNL A   1      38.217  33.000  33.138  1.00  0.00     0.074 A 
ATOM     50  C   UNL A   1      42.739  31.089  37.165  1.00  0.00     0.029 A 
ATOM     51  N   UNL A   1      41.326  31.274  35.457  1.00  0.00    -0.354 N 
ATOM     52  N   UNL A   1      39.171  32.531  33.909  1.00  0.00    -0.248 NA
ATOM     53  C   UNL A   1      37.526  34.175  33.684  1.00  0.00     0.031 C 
ATOM     54  C   UNL A   1      41.891  32.175  37.407  1.00  0.00     0.029 A 
ATOM     55  C   UNL A   1      41.032  32.311  36.328  1.00  0.00     0.049 A 
ATOM     56  H   UNL A   1      40.867  31.106  34.603  1.00  0.00     0.167 HD
ATOM     57  C   UNL A   1      39.215  33.375  35.016  1.00  0.00     0.074 A 
ATOM     58  C   UNL A   1      38.204  34.390  34.803  1.00  0.00     0.031 C 
ATOM     59  C   UNL A   1      40.021  33.317  36.106  1.00  0.00     0.037 A 
BRANCH  46  60
ATOM     60  C   UNL A   1      44.001  28.578  36.043  1.00  0.00     0.058 A 
ATOM     61  C   UNL A   1      45.352  28.942  35.928  1.00  0.00     0.135 A 
ATOM     62  C   UNL A   1      43.689  27.491  36.878  1.00  0.00     0.135 A 
ATOM     63  F   UNL A   1      45.714  29.960  35.130  1.00  0.00    -0.206 F 
ATOM     64  C   UNL A   1      46.357  28.241  36.591  1.00  0.00     0.059 A 
ATOM     65  C   UNL A   1      44.672  26.796  37.576  1.00  0.00     0.059 A 
ATOM     66  F   UNL A   1      42.414  27.096  37.024  1.00  0.00    -0.206 F 
ATOM     67  C   UNL A   1      46.005  27.170  37.415  1.00  0.00     0.060 A 
BRANCH  67  68
ATOM     68  S   UNL A   1      47.317  26.277  38.275  1.00  0.00     0.124 S 
ATOM     69  O   UNL A   1      46.608  25.088  38.737  1.00  0.00    -0.237 OA
ATOM     70  O   UNL A   1      48.294  26.060  37.212  1.00  0.00    -0.237 OA
ATOM     71  O   UNL A   1      47.732  27.206  39.323  1.00  0.00    -0.744 OA
ENDBRANCH  67  68
ENDBRANCH  46  60
BRANCH  47  72
ATOM     72  C   UNL A   1      36.648  33.189  31.066  1.00  0.00     0.058 A 
ATOM     73  C   UNL A   1      36.893  33.989  29.940  1.00  0.00     0.135 A 
ATOM     74  C   UNL A   1      35.318  33.056  31.496  1.00  0.00     0.135 A 
ATOM     75  F   UNL A   1      38.148  34.157  29.497  1.00  0.00    -0.206 F 
ATOM     76  C   UNL A   1      35.863  34.647  29.275  1.00  0.00     0.059 A 
ATOM     77  C   UNL A   1      34.267  33.678  30.828  1.00  0.00     0.059 A 
ATOM     78  F   UNL A   1      35.027  32.293  32.561  1.00  0.00    -0.206 F 
ATOM     79  C   UNL A   1      34.552  34.481  29.725  1.00  0.00     0.060 A 
BRANCH  79  80
ATOM     80  S   UNL A   1      33.217  35.297  28.824  1.00  0.00     0.124 S 
ATOM     81  O   UNL A   1      32.411  35.833  29.915  1.00  0.00    -0.237 OA
ATOM     82  O   UNL A   1      33.945  36.278  28.025  1.00  0.00    -0.237 OA
ATOM     83  O   UNL A   1      32.610  34.208  28.064  1.00  0.00    -0.744 OA
ENDBRANCH  79  80
ENDBRANCH  47  72
BRANCH  59  84
ATOM     84  C   UNL A   1      39.872  34.409  37.134  1.00  0.00     0.058 A 
ATOM     85  C   UNL A   1      40.415  35.690  36.945  1.00  0.00     0.135 A 
ATOM     86  C   UNL A   1      39.163  34.171  38.323  1.00  0.00     0.135 A 
ATOM     87  F   UNL A   1      41.103  35.974  35.828  1.00  0.00    -0.206 F 
ATOM     88  C   UNL A   1      40.305  36.678  37.919  1.00  0.00     0.059 A 
ATOM     89  C   UNL A   1      39.007  35.155  39.293  1.00  0.00     0.059 A 
ATOM     90  F   UNL A   1      38.606  32.970  38.551  1.00  0.00    -0.206 F 
ATOM     91  C   UNL A   1      39.603  36.398  39.093  1.00  0.00     0.060 A 
BRANCH  91  92
ATOM     92  S   UNL A   1      39.476  37.685  40.353  1.00  0.00     0.124 S 
ATOM     93  O   UNL A   1      40.881  37.981  40.612  1.00  0.00    -0.237 OA
ATOM     94  O   UNL A   1      38.726  38.728  39.661  1.00  0.00    -0.237 OA
ATOM     95  O   UNL A   1      38.762  37.025  41.443  1.00  0.00    -0.744 OA
ENDBRANCH  91  92
ENDBRANCH  59  84
ENDBRANCH  33  34
ENDBRANCH  26  28
ENDBRANCH  25  26
ENDBRANCH  24  25
ENDBRANCH  23  24
ENDBRANCH  22  23
ENDBRANCH   1  22
TORSDOF 22
ENDMDL
MODEL 3
REMARK VINA RESULT:     -10.1      5.617      7.845
REMARK SMILES COC(=O)c1ccc([C@H]([NH3+])CC(=O)OCCOCCOC(=O)c2ccc(-c3c4nc(c(-c5c(F)cc(S(=O)(=O)[O-])cc5F)c5ccc([nH]5)c(-c5c(F)cc(S(=O)(=O)[O-])cc5F)c5nc(c(-c6c(F)cc(S(=O)(=O)[O-])cc6F)c6ccc3[nH]6)C=C5)C=C4)cc2)cc1
REMARK SMILES IDX 16 1 15 2 14 3 12 4 13 5 11 6 9 7 8 8 5 9 6 10 90 11 7 12
REMARK SMILES IDX 89 13 3 14 4 15 2 16 1 17 10 18 17 22 18 23 19 24 20 25
REMARK SMILES IDX 21 26 22 27 23 28 24 29 88 30 25 31 87 32 26 33 27 34 28 35
REMARK SMILES IDX 81 36 29 37 86 38 80 39 82 40 30 41 85 42 79 43 78 44 31 46
REMARK SMILES IDX 65 47 44 48 64 49 45 50 48 51 63 52 83 53 46 54 47 55 62 57
REMARK SMILES IDX 84 58 49 59 32 60 33 61 42 62 34 63 35 64 41 65 43 66 36 67
REMARK SMILES IDX 37 68 38 69 39 70 40 71 66 72 67 73 76 74 68 75 69 76 75 77
REMARK SMILES IDX 77 78 70 79 71 80 72 81 73 82 74 83 50 84 51 85 60 86 52 87
REMARK SMILES IDX 53 88 59 89 61 90 54 91 55 92 56 93 57 94 58 95
REMARK H PARENT 10 19 10 20 10 21 82 45 48 56
REMARK Flexibility Score: inf
ROOT
ATOM      1  C   UNL A   1      34.755  23.156  24.715  1.00  0.00     0.202 C 
ENDROOT
BRANCH   1   2
ATOM      2  C   UNL A   1      33.653  23.779  23.856  1.00  0.00     0.261 C 
BRANCH   2   3
ATOM      3  O   UNL A   1      34.168  24.493  22.718  1.00  0.00    -0.463 OA
BRANCH   3   4
ATOM      4  C   UNL A   1      33.438  25.577  22.352  1.00  0.00     0.312 C 
ATOM      5  O   UNL A   1      33.642  26.264  21.358  1.00  0.00    -0.252 OA
BRANCH   4   6
ATOM      6  C   UNL A   1      32.359  25.922  23.342  1.00  0.00     0.192 C 
BRANCH   6   7
ATOM      7  C   UNL A   1      32.465  27.249  24.117  1.00  0.00     0.223 C 
BRANCH   7   8
ATOM      8  C   UNL A   1      31.298  28.197  23.813  1.00  0.00     0.010 A 
ATOM      9  C   UNL A   1      29.193  29.963  23.156  1.00  0.00     0.060 A 
ATOM     10  C   UNL A   1      29.317  28.743  22.486  1.00  0.00     0.016 A 
ATOM     11  C   UNL A   1      30.089  30.281  24.178  1.00  0.00     0.016 A 
ATOM     12  C   UNL A   1      30.368  27.871  22.806  1.00  0.00     0.011 A 
ATOM     13  C   UNL A   1      31.118  29.403  24.508  1.00  0.00     0.011 A 
BRANCH   9  14
ATOM     14  C   UNL A   1      28.111  30.907  22.790  1.00  0.00     0.337 C 
ATOM     15  O   UNL A   1      27.254  31.312  23.560  1.00  0.00    -0.246 OA
BRANCH  14  16
ATOM     16  O   UNL A   1      28.217  31.204  21.471  1.00  0.00    -0.465 OA
ATOM     17  C   UNL A   1      27.894  32.548  21.120  1.00  0.00     0.282 C 
ENDBRANCH  14  16
ENDBRANCH   9  14
ENDBRANCH   7   8
BRANCH   7  18
ATOM     18  N   UNL A   1      33.726  27.952  23.872  1.00  0.00    -0.351 N 
ATOM     19  H   UNL A   1      33.564  28.959  23.904  1.00  0.00     0.345 HD
ATOM     20  H   UNL A   1      34.086  27.693  22.954  1.00  0.00     0.345 HD
ATOM     21  H   UNL A   1      34.403  27.693  24.589  1.00  0.00     0.345 HD
ENDBRANCH   7  18
ENDBRANCH   6   7
ENDBRANCH   4   6
ENDBRANCH   3   4
ENDBRANCH   2   3
ENDBRANCH   1   2
BRANCH   1  22
ATOM     22  O   UNL A   1      36.086  23.635  24.550  1.00  0.00    -0.374 OA
BRANCH  22  23
ATOM     23  C   UNL A   1      37.069  22.746  24.028  1.00  0.00     0.202 C 
BRANCH  23  24
ATOM     24  C   UNL A   1      37.618  21.643  24.943  1.00  0.00     0.261 C 
BRANCH  24  25
ATOM     25  O   UNL A   1      38.005  22.124  26.242  1.00  0.00    -0.460 OA
BRANCH  25  26
ATOM     26  C   UNL A   1      39.309  22.492  26.324  1.00  0.00     0.338 C 
ATOM     27  O   UNL A   1      40.273  21.864  25.915  1.00  0.00    -0.246 OA
BRANCH  26  28
ATOM     28  C   UNL A   1      39.432  23.881  26.804  1.00  0.00     0.060 A 
ATOM     29  C   UNL A   1      40.084  24.785  25.956  1.00  0.00     0.016 A 
ATOM     30  C   UNL A   1      39.044  24.263  28.088  1.00  0.00     0.016 A 
ATOM     31  C   UNL A   1      40.438  26.045  26.423  1.00  0.00     0.010 A 
ATOM     32  C   UNL A   1      39.402  25.534  28.557  1.00  0.00     0.010 A 
ATOM     33  C   UNL A   1      40.155  26.405  27.747  1.00  0.00    -0.014 A 
BRANCH  33  34
ATOM     34  C   UNL A   1      40.823  27.606  28.310  1.00  0.00     0.031 A 
ATOM     35  C   UNL A   1      42.326  27.708  28.233  1.00  0.00     0.074 A 
ATOM     36  C   UNL A   1      40.099  28.633  28.790  1.00  0.00     0.049 A 
ATOM     37  N   UNL A   1      43.111  28.688  28.601  1.00  0.00    -0.248 NA
ATOM     38  C   UNL A   1      43.039  26.553  27.663  1.00  0.00     0.031 C 
ATOM     39  C   UNL A   1      38.640  28.666  28.879  1.00  0.00     0.029 A 
ATOM     40  N   UNL A   1      40.495  29.852  29.280  1.00  0.00    -0.354 N 
ATOM     41  C   UNL A   1      44.405  28.267  28.313  1.00  0.00     0.074 A 
ATOM     42  C   UNL A   1      44.304  26.926  27.780  1.00  0.00     0.031 C 
ATOM     43  C   UNL A   1      38.262  29.851  29.388  1.00  0.00     0.029 A 
ATOM     44  C   UNL A   1      39.450  30.648  29.687  1.00  0.00     0.049 A 
ATOM     45  H   UNL A   1      41.437  30.130  29.336  1.00  0.00     0.167 HD
ATOM     46  C   UNL A   1      45.571  28.942  28.465  1.00  0.00     0.037 A 
ATOM     47  C   UNL A   1      39.455  31.874  30.245  1.00  0.00     0.037 A 
ATOM     48  C   UNL A   1      45.665  30.279  28.991  1.00  0.00     0.049 A 
ATOM     49  C   UNL A   1      40.768  32.584  30.450  1.00  0.00     0.074 A 
ATOM     50  C   UNL A   1      46.797  31.057  29.170  1.00  0.00     0.029 A 
ATOM     51  N   UNL A   1      44.588  31.038  29.427  1.00  0.00    -0.354 N 
ATOM     52  N   UNL A   1      41.982  32.182  30.154  1.00  0.00    -0.248 NA
ATOM     53  C   UNL A   1      40.710  33.922  31.054  1.00  0.00     0.031 C 
ATOM     54  C   UNL A   1      46.410  32.261  29.767  1.00  0.00     0.029 A 
ATOM     55  C   UNL A   1      45.031  32.264  29.897  1.00  0.00     0.049 A 
ATOM     56  H   UNL A   1      43.648  30.748  29.405  1.00  0.00     0.167 HD
ATOM     57  C   UNL A   1      42.828  33.230  30.505  1.00  0.00     0.074 A 
ATOM     58  C   UNL A   1      41.984  34.289  31.019  1.00  0.00     0.031 C 
ATOM     59  C   UNL A   1      44.179  33.311  30.408  1.00  0.00     0.037 A 
BRANCH  46  60
ATOM     60  C   UNL A   1      46.844  28.233  28.081  1.00  0.00     0.058 A 
ATOM     61  C   UNL A   1      47.602  27.505  29.012  1.00  0.00     0.135 A 
ATOM     62  C   UNL A   1      47.296  28.257  26.751  1.00  0.00     0.135 A 
ATOM     63  F   UNL A   1      47.229  27.461  30.302  1.00  0.00    -0.206 F 
ATOM     64  C   UNL A   1      48.775  26.850  28.646  1.00  0.00     0.059 A 
ATOM     65  C   UNL A   1      48.448  27.584  26.355  1.00  0.00     0.059 A 
ATOM     66  F   UNL A   1      46.613  28.940  25.817  1.00  0.00    -0.206 F 
ATOM     67  C   UNL A   1      49.188  26.894  27.313  1.00  0.00     0.060 A 
BRANCH  67  68
ATOM     68  S   UNL A   1      50.706  26.032  26.852  1.00  0.00     0.124 S 
ATOM     69  O   UNL A   1      51.713  26.812  27.566  1.00  0.00    -0.237 OA
ATOM     70  O   UNL A   1      50.468  24.686  27.363  1.00  0.00    -0.237 OA
ATOM     71  O   UNL A   1      50.738  26.152  25.397  1.00  0.00    -0.744 OA
ENDBRANCH  67  68
ENDBRANCH  46  60
BRANCH  47  72
ATOM     72  C   UNL A   1      38.172  32.511  30.648  1.00  0.00     0.058 A 
ATOM     73  C   UNL A   1      37.658  32.364  31.945  1.00  0.00     0.135 A 
ATOM     74  C   UNL A   1      37.430  33.279  29.736  1.00  0.00     0.135 A 
ATOM     75  F   UNL A   1      38.325  31.632  32.851  1.00  0.00    -0.206 F 
ATOM     76  C   UNL A   1      36.448  32.939  32.320  1.00  0.00     0.059 A 
ATOM     77  C   UNL A   1      36.233  33.890  30.096  1.00  0.00     0.059 A 
ATOM     78  F   UNL A   1      37.881  33.461  28.485  1.00  0.00    -0.206 F 
ATOM     79  C   UNL A   1      35.744  33.704  31.388  1.00  0.00     0.060 A 
BRANCH  79  80
ATOM     80  S   UNL A   1      34.200  34.487  31.899  1.00  0.00     0.124 S 
ATOM     81  O   UNL A   1      34.686  35.701  32.547  1.00  0.00    -0.237 OA
ATOM     82  O   UNL A   1      33.516  34.673  30.623  1.00  0.00    -0.237 OA
ATOM     83  O   UNL A   1      33.598  33.496  32.785  1.00  0.00    -0.744 OA
ENDBRANCH  79  80
ENDBRANCH  47  72
BRANCH  59  84
ATOM     84  C   UNL A   1      44.825  34.607  30.826  1.00  0.00     0.058 A 
ATOM     85  C   UNL A   1      45.284  34.824  32.135  1.00  0.00     0.135 A 
ATOM     86  C   UNL A   1      44.999  35.645  29.895  1.00  0.00     0.135 A 
ATOM     87  F   UNL A   1      45.144  33.868  33.067  1.00  0.00    -0.206 F 
ATOM     88  C   UNL A   1      45.844  36.039  32.519  1.00  0.00     0.059 A 
ATOM     89  C   UNL A   1      45.590  36.854  30.247  1.00  0.00     0.059 A 
ATOM     90  F   UNL A   1      44.597  35.489  28.624  1.00  0.00    -0.206 F 
ATOM     91  C   UNL A   1      45.987  37.050  31.568  1.00  0.00     0.060 A 
BRANCH  91  92
ATOM     92  S   UNL A   1      46.705  38.626  32.080  1.00  0.00     0.124 S 
ATOM     93  O   UNL A   1      48.091  38.247  32.336  1.00  0.00    -0.237 OA
ATOM     94  O   UNL A   1      46.483  39.467  30.908  1.00  0.00    -0.237 OA
ATOM     95  O   UNL A   1      45.925  38.987  33.261  1.00  0.00    -0.744 OA
ENDBRANCH  91  92
ENDBRANCH  59  84
ENDBRANCH  33  34
ENDBRANCH  26  28
ENDBRANCH  25  26
ENDBRANCH  24  25
ENDBRANCH  23  24
ENDBRANCH  22  23
ENDBRANCH   1  22
TORSDOF 22
ENDMDL
