MODEL 1
REMARK VINA RESULT:     -11.2      0.000      0.000
REMARK SMILES Cc1c(Br)c(C)c2c(c1Br)O[C@H](C(F)(F)F)C(C(=O)OCCOCCOC(=O)c1ccc(-c3c4nc(c(-c5c(F)cc(S(=O)(=O)[O-])cc5F)c5ccc([nH]5)c(-c5c(F)cc(S(=O)(=O)[O-])cc5F)c5nc(c(-c6c(F)cc(S(=O)(=O)[O-])cc6F)c6ccc3[nH]6)C=C5)C=C4)cc1)=C2
REMARK SMILES IDX 24 1 23 2 22 3 21 4 20 5 18 6 19 7 17 8 1 9 2 10 3 11 9 12
REMARK SMILES IDX 4 13 5 14 8 15 10 16 6 17 7 18 11 19 95 20 12 21 13 22 14 23
REMARK SMILES IDX 15 24 16 25 25 26 26 27 27 28 28 29 29 30 30 31 94 32 31 33
REMARK SMILES IDX 93 34 32 35 33 36 34 37 87 38 35 39 92 40 86 41 88 42 36 43
REMARK SMILES IDX 91 44 85 45 84 46 37 48 71 49 50 50 70 51 51 52 54 53 69 54
REMARK SMILES IDX 89 55 52 56 53 57 68 59 90 60 55 61 38 62 39 63 48 64 40 65
REMARK SMILES IDX 41 66 47 67 49 68 42 69 43 70 44 71 45 72 46 73 72 74 73 75
REMARK SMILES IDX 82 76 74 77 75 78 81 79 83 80 76 81 77 82 78 83 79 84 80 85
REMARK SMILES IDX 56 86 57 87 66 88 58 89 59 90 65 91 67 92 60 93 61 94 62 95
REMARK SMILES IDX 63 96 64 97
REMARK H PARENT 88 47 54 58
REMARK Flexibility Score: inf
ROOT
ATOM      1  C   UNL A   1      31.789  30.673  26.672  1.00  0.00     0.202 C 
ENDROOT
BRANCH   1   2
ATOM      2  O   UNL A   1      31.783  30.350  25.281  1.00  0.00    -0.374 OA
BRANCH   2   3
ATOM      3  C   UNL A   1      31.191  29.116  24.878  1.00  0.00     0.202 C 
BRANCH   3   4
ATOM      4  C   UNL A   1      31.423  27.897  25.777  1.00  0.00     0.261 C 
BRANCH   4   5
ATOM      5  O   UNL A   1      32.800  27.492  25.790  1.00  0.00    -0.460 OA
BRANCH   5   6
ATOM      6  C   UNL A   1      33.216  26.883  24.658  1.00  0.00     0.338 C 
ATOM      7  O   UNL A   1      33.561  27.423  23.616  1.00  0.00    -0.246 OA
BRANCH   6   8
ATOM      8  C   UNL A   1      33.344  25.432  24.886  1.00  0.00     0.087 C 
ATOM      9  C   UNL A   1      35.593  19.327  24.789  1.00  0.00     0.047 C 
ATOM     10  C   UNL A   1      35.299  20.789  25.036  1.00  0.00    -0.019 A 
ATOM     11  C   UNL A   1      36.364  21.684  25.316  1.00  0.00     0.025 A 
ATOM     12  C   UNL A   1      33.993  21.313  24.950  1.00  0.00     0.064 A 
ATOM     13  Br  UNL A   1      38.154  20.989  25.421  1.00  0.00    -0.050 Br
ATOM     14  C   UNL A   1      36.142  23.071  25.476  1.00  0.00    -0.026 A 
ATOM     15  C   UNL A   1      33.762  22.696  25.063  1.00  0.00     0.142 A 
ATOM     16  Br  UNL A   1      32.482  20.182  24.619  1.00  0.00    -0.046 Br
ATOM     17  C   UNL A   1      37.254  24.038  25.822  1.00  0.00     0.046 C 
ATOM     18  C   UNL A   1      34.834  23.573  25.278  1.00  0.00     0.022 A 
ATOM     19  O   UNL A   1      32.461  23.128  24.981  1.00  0.00    -0.474 OA
ATOM     20  C   UNL A   1      34.574  25.009  25.201  1.00  0.00     0.027 C 
ATOM     21  C   UNL A   1      32.166  24.525  24.728  1.00  0.00     0.316 C 
BRANCH  21  22
ATOM     22  C   UNL A   1      31.499  24.649  23.351  1.00  0.00     0.430 C 
ATOM     23  F   UNL A   1      32.421  24.682  22.361  1.00  0.00    -0.167 F 
ATOM     24  F   UNL A   1      30.683  23.603  23.095  1.00  0.00    -0.167 F 
ATOM     25  F   UNL A   1      30.757  25.777  23.255  1.00  0.00    -0.167 F 
ENDBRANCH  21  22
ENDBRANCH   6   8
ENDBRANCH   5   6
ENDBRANCH   4   5
ENDBRANCH   3   4
ENDBRANCH   2   3
ENDBRANCH   1   2
BRANCH   1  26
ATOM     26  C   UNL A   1      33.049  31.316  27.265  1.00  0.00     0.261 C 
BRANCH  26  27
ATOM     27  O   UNL A   1      33.847  30.389  28.019  1.00  0.00    -0.460 OA
BRANCH  27  28
ATOM     28  C   UNL A   1      34.810  30.970  28.774  1.00  0.00     0.338 C 
ATOM     29  O   UNL A   1      34.674  31.910  29.547  1.00  0.00    -0.246 OA
BRANCH  28  30
ATOM     30  C   UNL A   1      36.060  30.197  28.696  1.00  0.00     0.060 A 
ATOM     31  C   UNL A   1      36.575  29.680  29.891  1.00  0.00     0.016 A 
ATOM     32  C   UNL A   1      36.774  30.085  27.502  1.00  0.00     0.016 A 
ATOM     33  C   UNL A   1      37.840  29.102  29.912  1.00  0.00     0.010 A 
ATOM     34  C   UNL A   1      38.052  29.519  27.528  1.00  0.00     0.010 A 
ATOM     35  C   UNL A   1      38.607  29.069  28.740  1.00  0.00    -0.014 A 
BRANCH  35  36
ATOM     36  C   UNL A   1      40.054  28.762  28.830  1.00  0.00     0.031 A 
ATOM     37  C   UNL A   1      40.986  29.843  29.307  1.00  0.00     0.074 A 
ATOM     38  C   UNL A   1      40.522  27.537  28.539  1.00  0.00     0.049 A 
ATOM     39  N   UNL A   1      42.290  29.834  29.398  1.00  0.00    -0.248 NA
ATOM     40  C   UNL A   1      40.361  31.103  29.745  1.00  0.00     0.031 C 
ATOM     41  C   UNL A   1      39.706  26.392  28.139  1.00  0.00     0.029 A 
ATOM     42  N   UNL A   1      41.806  27.055  28.534  1.00  0.00    -0.354 N 
ATOM     43  C   UNL A   1      42.642  31.082  29.896  1.00  0.00     0.074 A 
ATOM     44  C   UNL A   1      41.418  31.835  30.064  1.00  0.00     0.031 C 
ATOM     45  C   UNL A   1      40.512  25.339  27.919  1.00  0.00     0.029 A 
ATOM     46  C   UNL A   1      41.900  25.747  28.123  1.00  0.00     0.049 A 
ATOM     47  H   UNL A   1      42.585  27.594  28.800  1.00  0.00     0.167 HD
ATOM     48  C   UNL A   1      43.875  31.556  30.194  1.00  0.00     0.037 A 
ATOM     49  C   UNL A   1      42.988  24.980  27.910  1.00  0.00     0.037 A 
ATOM     50  C   UNL A   1      45.089  30.802  30.021  1.00  0.00     0.049 A 
ATOM     51  C   UNL A   1      44.357  25.561  28.157  1.00  0.00     0.074 A 
ATOM     52  C   UNL A   1      46.391  31.193  30.281  1.00  0.00     0.029 A 
ATOM     53  N   UNL A   1      45.150  29.502  29.542  1.00  0.00    -0.354 N 
ATOM     54  N   UNL A   1      44.681  26.753  28.600  1.00  0.00    -0.248 NA
ATOM     55  C   UNL A   1      45.506  24.694  27.867  1.00  0.00     0.031 C 
ATOM     56  C   UNL A   1      47.243  30.145  29.917  1.00  0.00     0.029 A 
ATOM     57  C   UNL A   1      46.469  29.083  29.476  1.00  0.00     0.049 A 
ATOM     58  H   UNL A   1      44.372  28.957  29.286  1.00  0.00     0.167 HD
ATOM     59  C   UNL A   1      46.071  26.774  28.655  1.00  0.00     0.074 A 
ATOM     60  C   UNL A   1      46.523  25.467  28.221  1.00  0.00     0.031 C 
ATOM     61  C   UNL A   1      46.900  27.782  29.027  1.00  0.00     0.037 A 
BRANCH  48  62
ATOM     62  C   UNL A   1      43.974  32.963  30.715  1.00  0.00     0.058 A 
ATOM     63  C   UNL A   1      44.171  34.056  29.858  1.00  0.00     0.135 A 
ATOM     64  C   UNL A   1      43.834  33.225  32.088  1.00  0.00     0.135 A 
ATOM     65  F   UNL A   1      44.337  33.860  28.540  1.00  0.00    -0.206 F 
ATOM     66  C   UNL A   1      44.240  35.358  30.343  1.00  0.00     0.059 A 
ATOM     67  C   UNL A   1      43.874  34.521  32.593  1.00  0.00     0.059 A 
ATOM     68  F   UNL A   1      43.652  32.215  32.953  1.00  0.00    -0.206 F 
ATOM     69  C   UNL A   1      44.086  35.580  31.713  1.00  0.00     0.060 A 
BRANCH  69  70
ATOM     70  S   UNL A   1      44.158  37.278  32.323  1.00  0.00     0.124 S 
ATOM     71  O   UNL A   1      45.576  37.414  32.642  1.00  0.00    -0.237 OA
ATOM     72  O   UNL A   1      43.692  38.042  31.170  1.00  0.00    -0.237 OA
ATOM     73  O   UNL A   1      43.257  37.267  33.471  1.00  0.00    -0.744 OA
ENDBRANCH  69  70
ENDBRANCH  48  62
BRANCH  49  74
ATOM     74  C   UNL A   1      42.829  23.586  27.420  1.00  0.00     0.058 A 
ATOM     75  C   UNL A   1      42.999  23.272  26.063  1.00  0.00     0.135 A 
ATOM     76  C   UNL A   1      42.511  22.538  28.299  1.00  0.00     0.135 A 
ATOM     77  F   UNL A   1      43.288  24.241  25.182  1.00  0.00    -0.206 F 
ATOM     78  C   UNL A   1      42.854  21.970  25.593  1.00  0.00     0.059 A 
ATOM     79  C   UNL A   1      42.386  21.224  27.856  1.00  0.00     0.059 A 
ATOM     80  F   UNL A   1      42.343  22.785  29.606  1.00  0.00    -0.206 F 
ATOM     81  C   UNL A   1      42.554  20.952  26.500  1.00  0.00     0.060 A 
BRANCH  81  82
ATOM     82  S   UNL A   1      42.430  19.258  25.885  1.00  0.00     0.124 S 
ATOM     83  O   UNL A   1      43.200  19.335  24.650  1.00  0.00    -0.237 OA
ATOM     84  O   UNL A   1      43.039  18.496  26.972  1.00  0.00    -0.237 OA
ATOM     85  O   UNL A   1      40.992  19.064  25.723  1.00  0.00    -0.744 OA
ENDBRANCH  81  82
ENDBRANCH  49  74
BRANCH  61  86
ATOM     86  C   UNL A   1      48.379  27.507  28.985  1.00  0.00     0.058 A 
ATOM     87  C   UNL A   1      49.145  27.783  27.842  1.00  0.00     0.135 A 
ATOM     88  C   UNL A   1      49.042  26.989  30.109  1.00  0.00     0.135 A 
ATOM     89  F   UNL A   1      48.560  28.277  26.740  1.00  0.00    -0.206 F 
ATOM     90  C   UNL A   1      50.510  27.519  27.801  1.00  0.00     0.059 A 
ATOM     91  C   UNL A   1      50.412  26.744  30.101  1.00  0.00     0.059 A 
ATOM     92  F   UNL A   1      48.360  26.721  31.235  1.00  0.00    -0.206 F 
ATOM     93  C   UNL A   1      51.135  26.996  28.936  1.00  0.00     0.060 A 
BRANCH  93  94
ATOM     94  S   UNL A   1      52.906  26.658  28.866  1.00  0.00     0.124 S 
ATOM     95  O   UNL A   1      53.456  28.000  28.718  1.00  0.00    -0.237 OA
ATOM     96  O   UNL A   1      53.151  26.010  30.150  1.00  0.00    -0.237 OA
ATOM     97  O   UNL A   1      53.041  25.792  27.698  1.00  0.00    -0.744 OA
ENDBRANCH  93  94
ENDBRANCH  61  86
ENDBRANCH  35  36
ENDBRANCH  28  30
ENDBRANCH  27  28
ENDBRANCH  26  27
ENDBRANCH   1  26
TORSDOF 18
ENDMDL
MODEL 2
REMARK VINA RESULT:     -10.9      1.861      2.343
REMARK SMILES Cc1c(Br)c(C)c2c(c1Br)O[C@H](C(F)(F)F)C(C(=O)OCCOCCOC(=O)c1ccc(-c3c4nc(c(-c5c(F)cc(S(=O)(=O)[O-])cc5F)c5ccc([nH]5)c(-c5c(F)cc(S(=O)(=O)[O-])cc5F)c5nc(c(-c6c(F)cc(S(=O)(=O)[O-])cc6F)c6ccc3[nH]6)C=C5)C=C4)cc1)=C2
REMARK SMILES IDX 24 1 23 2 22 3 21 4 20 5 18 6 19 7 17 8 1 9 2 10 3 11 9 12
REMARK SMILES IDX 4 13 5 14 8 15 10 16 6 17 7 18 11 19 95 20 12 21 13 22 14 23
REMARK SMILES IDX 15 24 16 25 25 26 26 27 27 28 28 29 29 30 30 31 94 32 31 33
REMARK SMILES IDX 93 34 32 35 33 36 34 37 87 38 35 39 92 40 86 41 88 42 36 43
REMARK SMILES IDX 91 44 85 45 84 46 37 48 71 49 50 50 70 51 51 52 54 53 69 54
REMARK SMILES IDX 89 55 52 56 53 57 68 59 90 60 55 61 38 62 39 63 48 64 40 65
REMARK SMILES IDX 41 66 47 67 49 68 42 69 43 70 44 71 45 72 46 73 72 74 73 75
REMARK SMILES IDX 82 76 74 77 75 78 81 79 83 80 76 81 77 82 78 83 79 84 80 85
REMARK SMILES IDX 56 86 57 87 66 88 58 89 59 90 65 91 67 92 60 93 61 94 62 95
REMARK SMILES IDX 63 96 64 97
REMARK H PARENT 88 47 54 58
REMARK Flexibility Score: inf
ROOT
ATOM      1  C   UNL A   1      33.863  30.663  27.588  1.00  0.00     0.202 C 
ENDROOT
BRANCH   1   2
ATOM      2  O   UNL A   1      34.683  29.553  27.223  1.00  0.00    -0.374 OA
BRANCH   2   3
ATOM      3  C   UNL A   1      34.042  28.350  26.802  1.00  0.00     0.202 C 
BRANCH   3   4
ATOM      4  C   UNL A   1      32.634  28.471  26.212  1.00  0.00     0.261 C 
BRANCH   4   5
ATOM      5  O   UNL A   1      32.155  27.219  25.700  1.00  0.00    -0.460 OA
BRANCH   5   6
ATOM      6  C   UNL A   1      32.896  26.706  24.692  1.00  0.00     0.338 C 
ATOM      7  O   UNL A   1      33.434  27.326  23.785  1.00  0.00    -0.246 OA
BRANCH   6   8
ATOM      8  C   UNL A   1      33.105  25.263  24.906  1.00  0.00     0.087 C 
ATOM      9  C   UNL A   1      35.683  19.290  24.740  1.00  0.00     0.047 C 
ATOM     10  C   UNL A   1      35.311  20.732  25.002  1.00  0.00    -0.019 A 
ATOM     11  C   UNL A   1      36.327  21.681  25.284  1.00  0.00     0.025 A 
ATOM     12  C   UNL A   1      33.977  21.185  24.928  1.00  0.00     0.064 A 
ATOM     13  Br  UNL A   1      38.153  21.084  25.374  1.00  0.00    -0.050 Br
ATOM     14  C   UNL A   1      36.031  23.053  25.459  1.00  0.00    -0.026 A 
ATOM     15  C   UNL A   1      33.672  22.552  25.055  1.00  0.00     0.142 A 
ATOM     16  Br  UNL A   1      32.529  19.975  24.594  1.00  0.00    -0.046 Br
ATOM     17  C   UNL A   1      37.090  24.076  25.808  1.00  0.00     0.046 C 
ATOM     18  C   UNL A   1      34.695  23.484  25.272  1.00  0.00     0.022 A 
ATOM     19  O   UNL A   1      32.349  22.913  24.984  1.00  0.00    -0.474 OA
ATOM     20  C   UNL A   1      34.357  24.904  25.211  1.00  0.00     0.027 C 
ATOM     21  C   UNL A   1      31.977  24.294  24.746  1.00  0.00     0.316 C 
BRANCH  21  22
ATOM     22  C   UNL A   1      31.296  24.394  23.374  1.00  0.00     0.430 C 
ATOM     23  F   UNL A   1      30.581  23.278  23.099  1.00  0.00    -0.167 F 
ATOM     24  F   UNL A   1      30.437  25.436  23.316  1.00  0.00    -0.167 F 
ATOM     25  F   UNL A   1      32.199  24.555  22.378  1.00  0.00    -0.167 F 
ENDBRANCH  21  22
ENDBRANCH   6   8
ENDBRANCH   5   6
ENDBRANCH   4   5
ENDBRANCH   3   4
ENDBRANCH   2   3
ENDBRANCH   1   2
BRANCH   1  26
ATOM     26  C   UNL A   1      34.524  31.862  28.278  1.00  0.00     0.261 C 
BRANCH  26  27
ATOM     27  O   UNL A   1      35.959  31.788  28.272  1.00  0.00    -0.460 OA
BRANCH  27  28
ATOM     28  C   UNL A   1      36.497  31.340  29.432  1.00  0.00     0.338 C 
ATOM     29  O   UNL A   1      36.053  31.502  30.561  1.00  0.00    -0.246 OA
BRANCH  28  30
ATOM     30  C   UNL A   1      37.630  30.442  29.159  1.00  0.00     0.060 A 
ATOM     31  C   UNL A   1      38.487  30.140  30.225  1.00  0.00     0.016 A 
ATOM     32  C   UNL A   1      37.918  30.005  27.865  1.00  0.00     0.016 A 
ATOM     33  C   UNL A   1      39.673  29.450  29.994  1.00  0.00     0.010 A 
ATOM     34  C   UNL A   1      39.119  29.327  27.631  1.00  0.00     0.010 A 
ATOM     35  C   UNL A   1      40.020  29.090  28.685  1.00  0.00    -0.014 A 
BRANCH  35  36
ATOM     36  C   UNL A   1      41.408  28.660  28.398  1.00  0.00     0.031 A 
ATOM     37  C   UNL A   1      42.501  29.694  28.438  1.00  0.00     0.074 A 
ATOM     38  C   UNL A   1      41.698  27.371  28.152  1.00  0.00     0.049 A 
ATOM     39  N   UNL A   1      43.770  29.572  28.151  1.00  0.00    -0.248 NA
ATOM     40  C   UNL A   1      42.107  31.049  28.862  1.00  0.00     0.031 C 
ATOM     41  C   UNL A   1      40.736  26.271  28.161  1.00  0.00     0.029 A 
ATOM     42  N   UNL A   1      42.893  26.772  27.845  1.00  0.00    -0.354 N 
ATOM     43  C   UNL A   1      44.325  30.830  28.356  1.00  0.00     0.074 A 
ATOM     44  C   UNL A   1      43.251  31.708  28.764  1.00  0.00     0.031 C 
ATOM     45  C   UNL A   1      41.379  25.129  27.863  1.00  0.00     0.029 A 
ATOM     46  C   UNL A   1      42.786  25.423  27.604  1.00  0.00     0.049 A 
ATOM     47  H   UNL A   1      43.746  27.261  27.802  1.00  0.00     0.167 HD
ATOM     48  C   UNL A   1      45.616  31.215  28.221  1.00  0.00     0.037 A 
ATOM     49  C   UNL A   1      43.716  24.538  27.194  1.00  0.00     0.037 A 
ATOM     50  C   UNL A   1      46.679  30.335  27.811  1.00  0.00     0.049 A 
ATOM     51  C   UNL A   1      45.128  25.011  26.958  1.00  0.00     0.074 A 
ATOM     52  C   UNL A   1      48.020  30.629  27.633  1.00  0.00     0.029 A 
ATOM     53  N   UNL A   1      46.521  28.990  27.514  1.00  0.00    -0.354 N 
ATOM     54  N   UNL A   1      45.637  26.209  27.125  1.00  0.00    -0.248 NA
ATOM     55  C   UNL A   1      46.088  24.013  26.471  1.00  0.00     0.031 C 
ATOM     56  C   UNL A   1      48.664  29.470  27.185  1.00  0.00     0.029 A 
ATOM     57  C   UNL A   1      47.735  28.443  27.131  1.00  0.00     0.049 A 
ATOM     58  H   UNL A   1      45.672  28.496  27.567  1.00  0.00     0.167 HD
ATOM     59  C   UNL A   1      46.979  26.105  26.777  1.00  0.00     0.074 A 
ATOM     60  C   UNL A   1      47.207  24.721  26.412  1.00  0.00     0.031 C 
ATOM     61  C   UNL A   1      47.938  27.066  26.756  1.00  0.00     0.037 A 
BRANCH  48  62
ATOM     62  C   UNL A   1      45.946  32.656  28.498  1.00  0.00     0.058 A 
ATOM     63  C   UNL A   1      45.878  33.635  27.495  1.00  0.00     0.135 A 
ATOM     64  C   UNL A   1      46.299  33.069  29.793  1.00  0.00     0.135 A 
ATOM     65  F   UNL A   1      45.570  33.291  26.234  1.00  0.00    -0.206 F 
ATOM     66  C   UNL A   1      46.162  34.970  27.762  1.00  0.00     0.059 A 
ATOM     67  C   UNL A   1      46.564  34.403  30.088  1.00  0.00     0.059 A 
ATOM     68  F   UNL A   1      46.388  32.172  30.787  1.00  0.00    -0.206 F 
ATOM     69  C   UNL A   1      46.500  35.345  29.063  1.00  0.00     0.060 A 
BRANCH  69  70
ATOM     70  S   UNL A   1      46.847  37.086  29.395  1.00  0.00     0.124 S 
ATOM     71  O   UNL A   1      45.850  37.392  30.417  1.00  0.00    -0.237 OA
ATOM     72  O   UNL A   1      48.232  37.044  29.854  1.00  0.00    -0.237 OA
ATOM     73  O   UNL A   1      46.636  37.728  28.103  1.00  0.00    -0.744 OA
ENDBRANCH  69  70
ENDBRANCH  48  62
BRANCH  49  74
ATOM     74  C   UNL A   1      43.340  23.119  26.962  1.00  0.00     0.058 A 
ATOM     75  C   UNL A   1      43.082  22.641  25.669  1.00  0.00     0.135 A 
ATOM     76  C   UNL A   1      43.236  22.211  28.028  1.00  0.00     0.135 A 
ATOM     77  F   UNL A   1      43.152  23.474  24.620  1.00  0.00    -0.206 F 
ATOM     78  C   UNL A   1      42.729  21.314  25.440  1.00  0.00     0.059 A 
ATOM     79  C   UNL A   1      42.911  20.874  27.821  1.00  0.00     0.059 A 
ATOM     80  F   UNL A   1      43.478  22.617  29.284  1.00  0.00    -0.206 F 
ATOM     81  C   UNL A   1      42.654  20.437  26.523  1.00  0.00     0.060 A 
BRANCH  81  82
ATOM     82  S   UNL A   1      42.256  18.704  26.204  1.00  0.00     0.124 S 
ATOM     83  O   UNL A   1      43.239  18.358  25.185  1.00  0.00    -0.237 OA
ATOM     84  O   UNL A   1      42.456  18.100  27.518  1.00  0.00    -0.237 OA
ATOM     85  O   UNL A   1      40.868  18.756  25.751  1.00  0.00    -0.744 OA
ENDBRANCH  81  82
ENDBRANCH  49  74
BRANCH  61  86
ATOM     86  C   UNL A   1      49.320  26.649  26.330  1.00  0.00     0.058 A 
ATOM     87  C   UNL A   1      49.729  26.726  24.991  1.00  0.00     0.135 A 
ATOM     88  C   UNL A   1      50.253  26.195  27.276  1.00  0.00     0.135 A 
ATOM     89  F   UNL A   1      48.875  27.150  24.046  1.00  0.00    -0.206 F 
ATOM     90  C   UNL A   1      51.004  26.331  24.596  1.00  0.00     0.059 A 
ATOM     91  C   UNL A   1      51.544  25.824  26.909  1.00  0.00     0.059 A 
ATOM     92  F   UNL A   1      49.920  26.117  28.574  1.00  0.00    -0.206 F 
ATOM     93  C   UNL A   1      51.903  25.878  25.563  1.00  0.00     0.060 A 
BRANCH  93  94
ATOM     94  S   UNL A   1      53.552  25.368  25.036  1.00  0.00     0.124 S 
ATOM     95  O   UNL A   1      53.517  25.684  23.613  1.00  0.00    -0.237 OA
ATOM     96  O   UNL A   1      54.417  26.214  25.852  1.00  0.00    -0.237 OA
ATOM     97  O   UNL A   1      53.589  23.945  25.362  1.00  0.00    -0.744 OA
ENDBRANCH  93  94
ENDBRANCH  61  86
ENDBRANCH  35  36
ENDBRANCH  28  30
ENDBRANCH  27  28
ENDBRANCH  26  27
ENDBRANCH   1  26
TORSDOF 18
ENDMDL
MODEL 3
REMARK VINA RESULT:     -10.9      3.601      9.804
REMARK SMILES Cc1c(Br)c(C)c2c(c1Br)O[C@H](C(F)(F)F)C(C(=O)OCCOCCOC(=O)c1ccc(-c3c4nc(c(-c5c(F)cc(S(=O)(=O)[O-])cc5F)c5ccc([nH]5)c(-c5c(F)cc(S(=O)(=O)[O-])cc5F)c5nc(c(-c6c(F)cc(S(=O)(=O)[O-])cc6F)c6ccc3[nH]6)C=C5)C=C4)cc1)=C2
REMARK SMILES IDX 24 1 23 2 22 3 21 4 20 5 18 6 19 7 17 8 1 9 2 10 3 11 9 12
REMARK SMILES IDX 4 13 5 14 8 15 10 16 6 17 7 18 11 19 95 20 12 21 13 22 14 23
REMARK SMILES IDX 15 24 16 25 25 26 26 27 27 28 28 29 29 30 30 31 94 32 31 33
REMARK SMILES IDX 93 34 32 35 33 36 34 37 87 38 35 39 92 40 86 41 88 42 36 43
REMARK SMILES IDX 91 44 85 45 84 46 37 48 71 49 50 50 70 51 51 52 54 53 69 54
REMARK SMILES IDX 89 55 52 56 53 57 68 59 90 60 55 61 38 62 39 63 48 64 40 65
REMARK SMILES IDX 41 66 47 67 49 68 42 69 43 70 44 71 45 72 46 73 72 74 73 75
REMARK SMILES IDX 82 76 74 77 75 78 81 79 83 80 76 81 77 82 78 83 79 84 80 85
REMARK SMILES IDX 56 86 57 87 66 88 58 89 59 90 65 91 67 92 60 93 61 94 62 95
REMARK SMILES IDX 63 96 64 97
REMARK H PARENT 88 47 54 58
REMARK Flexibility Score: inf
ROOT
ATOM      1  C   UNL A   1      36.674  21.220  24.831  1.00  0.00     0.202 C 
ENDROOT
BRANCH   1   2
ATOM      2  O   UNL A   1      35.681  20.742  25.739  1.00  0.00    -0.374 OA
BRANCH   2   3
ATOM      3  C   UNL A   1      34.547  21.569  25.994  1.00  0.00     0.202 C 
BRANCH   3   4
ATOM      4  C   UNL A   1      34.788  23.077  26.115  1.00  0.00     0.261 C 
BRANCH   4   5
ATOM      5  O   UNL A   1      33.646  23.839  25.699  1.00  0.00    -0.460 OA
BRANCH   5   6
ATOM      6  C   UNL A   1      33.699  24.276  24.421  1.00  0.00     0.338 C 
ATOM      7  O   UNL A   1      34.027  23.630  23.435  1.00  0.00    -0.246 OA
BRANCH   6   8
ATOM      8  C   UNL A   1      33.156  25.644  24.334  1.00  0.00     0.087 C 
ATOM      9  C   UNL A   1      31.027  31.574  25.959  1.00  0.00     0.047 C 
ATOM     10  C   UNL A   1      31.814  30.328  25.624  1.00  0.00    -0.019 A 
ATOM     11  C   UNL A   1      33.020  30.048  26.317  1.00  0.00     0.025 A 
ATOM     12  C   UNL A   1      31.363  29.394  24.668  1.00  0.00     0.064 A 
ATOM     13  Br  UNL A   1      33.642  31.302  27.635  1.00  0.00    -0.050 Br
ATOM     14  C   UNL A   1      33.745  28.856  26.090  1.00  0.00    -0.026 A 
ATOM     15  C   UNL A   1      32.049  28.183  24.462  1.00  0.00     0.142 A 
ATOM     16  Br  UNL A   1      29.769  29.699  23.649  1.00  0.00    -0.046 Br
ATOM     17  C   UNL A   1      35.059  28.558  26.781  1.00  0.00     0.046 C 
ATOM     18  C   UNL A   1      33.205  27.896  25.201  1.00  0.00     0.022 A 
ATOM     19  O   UNL A   1      31.555  27.332  23.506  1.00  0.00    -0.474 OA
ATOM     20  C   UNL A   1      33.776  26.556  25.091  1.00  0.00     0.027 C 
ATOM     21  C   UNL A   1      31.968  25.942  23.476  1.00  0.00     0.316 C 
BRANCH  21  22
ATOM     22  C   UNL A   1      30.757  25.059  23.807  1.00  0.00     0.430 C 
ATOM     23  F   UNL A   1      30.796  23.894  23.118  1.00  0.00    -0.167 F 
ATOM     24  F   UNL A   1      30.715  24.739  25.119  1.00  0.00    -0.167 F 
ATOM     25  F   UNL A   1      29.591  25.674  23.500  1.00  0.00    -0.167 F 
ENDBRANCH  21  22
ENDBRANCH   6   8
ENDBRANCH   5   6
ENDBRANCH   4   5
ENDBRANCH   3   4
ENDBRANCH   2   3
ENDBRANCH   1   2
BRANCH   1  26
ATOM     26  C   UNL A   1      38.106  21.402  25.349  1.00  0.00     0.261 C 
BRANCH  26  27
ATOM     27  O   UNL A   1      38.505  22.781  25.415  1.00  0.00    -0.460 OA
BRANCH  27  28
ATOM     28  C   UNL A   1      39.627  23.001  26.141  1.00  0.00     0.338 C 
ATOM     29  O   UNL A   1      40.645  22.321  26.147  1.00  0.00    -0.246 OA
BRANCH  28  30
ATOM     30  C   UNL A   1      39.554  24.306  26.816  1.00  0.00     0.060 A 
ATOM     31  C   UNL A   1      40.313  25.355  26.279  1.00  0.00     0.016 A 
ATOM     32  C   UNL A   1      38.858  24.469  28.014  1.00  0.00     0.016 A 
ATOM     33  C   UNL A   1      40.431  26.555  26.971  1.00  0.00     0.010 A 
ATOM     34  C   UNL A   1      38.992  25.671  28.718  1.00  0.00     0.010 A 
ATOM     35  C   UNL A   1      39.816  26.698  28.221  1.00  0.00    -0.014 A 
BRANCH  35  36
ATOM     36  C   UNL A   1      40.206  27.829  29.095  1.00  0.00     0.031 A 
ATOM     37  C   UNL A   1      41.528  27.757  29.812  1.00  0.00     0.074 A 
ATOM     38  C   UNL A   1      39.425  28.916  29.213  1.00  0.00     0.049 A 
ATOM     39  N   UNL A   1      42.047  28.584  30.680  1.00  0.00    -0.248 NA
ATOM     40  C   UNL A   1      42.379  26.596  29.502  1.00  0.00     0.031 C 
ATOM     41  C   UNL A   1      38.161  29.130  28.510  1.00  0.00     0.029 A 
ATOM     42  N   UNL A   1      39.584  30.046  29.973  1.00  0.00    -0.354 N 
ATOM     43  C   UNL A   1      43.281  28.044  31.024  1.00  0.00     0.074 A 
ATOM     44  C   UNL A   1      43.422  26.804  30.293  1.00  0.00     0.031 C 
ATOM     45  C   UNL A   1      37.654  30.318  28.880  1.00  0.00     0.029 A 
ATOM     46  C   UNL A   1      38.535  30.928  29.873  1.00  0.00     0.049 A 
ATOM     47  H   UNL A   1      40.374  30.210  30.537  1.00  0.00     0.167 HD
ATOM     48  C   UNL A   1      44.214  28.542  31.870  1.00  0.00     0.037 A 
ATOM     49  C   UNL A   1      38.305  32.082  30.531  1.00  0.00     0.037 A 
ATOM     50  C   UNL A   1      44.065  29.774  32.596  1.00  0.00     0.049 A 
ATOM     51  C   UNL A   1      39.315  32.567  31.539  1.00  0.00     0.074 A 
ATOM     52  C   UNL A   1      44.946  30.362  33.487  1.00  0.00     0.029 A 
ATOM     53  N   UNL A   1      42.960  30.610  32.518  1.00  0.00    -0.354 N 
ATOM     54  N   UNL A   1      40.464  32.034  31.880  1.00  0.00    -0.248 NA
ATOM     55  C   UNL A   1      38.991  33.807  32.257  1.00  0.00     0.031 C 
ATOM     56  C   UNL A   1      44.355  31.530  33.981  1.00  0.00     0.029 A 
ATOM     57  C   UNL A   1      43.126  31.696  33.361  1.00  0.00     0.049 A 
ATOM     58  H   UNL A   1      42.174  30.454  31.947  1.00  0.00     0.167 HD
ATOM     59  C   UNL A   1      41.007  32.880  32.841  1.00  0.00     0.074 A 
ATOM     60  C   UNL A   1      40.069  33.972  33.010  1.00  0.00     0.031 C 
ATOM     61  C   UNL A   1      42.173  32.765  33.526  1.00  0.00     0.037 A 
BRANCH  48  62
ATOM     62  C   UNL A   1      45.470  27.739  32.071  1.00  0.00     0.058 A 
ATOM     63  C   UNL A   1      46.563  27.848  31.198  1.00  0.00     0.135 A 
ATOM     64  C   UNL A   1      45.594  26.877  33.172  1.00  0.00     0.135 A 
ATOM     65  F   UNL A   1      46.489  28.640  30.116  1.00  0.00    -0.206 F 
ATOM     66  C   UNL A   1      47.731  27.120  31.402  1.00  0.00     0.059 A 
ATOM     67  C   UNL A   1      46.762  26.157  33.409  1.00  0.00     0.059 A 
ATOM     68  F   UNL A   1      44.575  26.728  34.032  1.00  0.00    -0.206 F 
ATOM     69  C   UNL A   1      47.822  26.280  32.513  1.00  0.00     0.060 A 
BRANCH  69  70
ATOM     70  S   UNL A   1      49.353  25.358  32.772  1.00  0.00     0.124 S 
ATOM     71  O   UNL A   1      50.118  26.288  33.598  1.00  0.00    -0.237 OA
ATOM     72  O   UNL A   1      48.879  24.154  33.446  1.00  0.00    -0.237 OA
ATOM     73  O   UNL A   1      49.864  25.157  31.420  1.00  0.00    -0.744 OA
ENDBRANCH  69  70
ENDBRANCH  48  62
BRANCH  49  74
ATOM     74  C   UNL A   1      37.058  32.848  30.272  1.00  0.00     0.058 A 
ATOM     75  C   UNL A   1      36.972  33.751  29.202  1.00  0.00     0.135 A 
ATOM     76  C   UNL A   1      35.924  32.689  31.085  1.00  0.00     0.135 A 
ATOM     77  F   UNL A   1      38.034  33.950  28.407  1.00  0.00    -0.206 F 
ATOM     78  C   UNL A   1      35.810  34.473  28.949  1.00  0.00     0.059 A 
ATOM     79  C   UNL A   1      34.742  33.380  30.837  1.00  0.00     0.059 A 
ATOM     80  F   UNL A   1      35.953  31.833  32.118  1.00  0.00    -0.206 F 
ATOM     81  C   UNL A   1      34.697  34.275  29.769  1.00  0.00     0.060 A 
BRANCH  81  82
ATOM     82  S   UNL A   1      33.176  35.173  29.392  1.00  0.00     0.124 S 
ATOM     83  O   UNL A   1      32.528  35.216  30.697  1.00  0.00    -0.237 OA
ATOM     84  O   UNL A   1      33.691  36.444  28.890  1.00  0.00    -0.237 OA
ATOM     85  O   UNL A   1      32.528  34.329  28.392  1.00  0.00    -0.744 OA
ENDBRANCH  81  82
ENDBRANCH  49  74
BRANCH  61  86
ATOM     86  C   UNL A   1      42.500  33.852  34.516  1.00  0.00     0.058 A 
ATOM     87  C   UNL A   1      42.156  33.737  35.871  1.00  0.00     0.135 A 
ATOM     88  C   UNL A   1      43.187  35.006  34.109  1.00  0.00     0.135 A 
ATOM     89  F   UNL A   1      41.494  32.655  36.312  1.00  0.00    -0.206 F 
ATOM     90  C   UNL A   1      42.449  34.747  36.782  1.00  0.00     0.059 A 
ATOM     91  C   UNL A   1      43.518  36.015  35.009  1.00  0.00     0.059 A 
ATOM     92  F   UNL A   1      43.555  35.160  32.826  1.00  0.00    -0.206 F 
ATOM     93  C   UNL A   1      43.128  35.884  36.341  1.00  0.00     0.060 A 
BRANCH  93  94
ATOM     94  S   UNL A   1      43.500  37.185  37.535  1.00  0.00     0.124 S 
ATOM     95  O   UNL A   1      44.650  36.623  38.233  1.00  0.00    -0.237 OA
ATOM     96  O   UNL A   1      43.778  38.330  36.675  1.00  0.00    -0.237 OA
ATOM     97  O   UNL A   1      42.274  37.283  38.323  1.00  0.00    -0.744 OA
ENDBRANCH  93  94
ENDBRANCH  61  86
ENDBRANCH  35  36
ENDBRANCH  28  30
ENDBRANCH  27  28
ENDBRANCH  26  27
ENDBRANCH   1  26
TORSDOF 18
ENDMDL
