MODEL 1
REMARK VINA RESULT:     -11.5      0.000      0.000
REMARK SMILES COc1ccc(NC(=O)N[C@@H]2C=C[C@H](C(=O)OCCOCCOC(=O)c3ccc(-c4c5nc(c(-c6c(F)cc(S(=O)(=O)[O-])cc6F)c6ccc([nH]6)c(-c6c(F)cc(S(=O)(=O)[O-])cc6F)c6nc(c(-c7c(F)cc(S(=O)(=O)[O-])cc7F)c7ccc4[nH]7)C=C6)C=C5)cc3)C2)c(C)c1
REMARK SMILES IDX 20 1 19 2 18 3 17 4 15 5 16 6 14 7 11 8 12 9 92 10 13 11
REMARK SMILES IDX 10 12 7 13 8 14 9 16 6 18 3 19 4 20 95 21 5 22 93 23 94 24
REMARK SMILES IDX 2 25 1 26 21 27 22 28 23 29 24 30 25 31 26 32 27 33 91 34
REMARK SMILES IDX 28 35 90 36 29 37 30 38 31 39 84 40 32 41 89 42 83 43 85 44
REMARK SMILES IDX 33 45 88 46 82 47 81 48 34 50 68 51 47 52 67 53 48 54 51 55
REMARK SMILES IDX 66 56 86 57 49 58 50 59 65 61 87 62 52 63 35 64 36 65 45 66
REMARK SMILES IDX 37 67 38 68 44 69 46 70 39 71 40 72 41 73 42 74 43 75 69 76
REMARK SMILES IDX 70 77 79 78 71 79 72 80 78 81 80 82 73 83 74 84 75 85 76 86
REMARK SMILES IDX 77 87 53 88 54 89 63 90 55 91 56 92 62 93 64 94 57 95 58 96
REMARK SMILES IDX 59 97 60 98 61 99
REMARK H PARENT 7 15 10 17 85 49 51 60
REMARK Flexibility Score: inf
ROOT
ATOM      1  O   UNL A   1      35.754  21.146  25.779  1.00  0.00    -0.374 OA
ENDROOT
BRANCH   1   2
ATOM      2  C   UNL A   1      34.785  22.188  25.684  1.00  0.00     0.202 C 
BRANCH   2   3
ATOM      3  C   UNL A   1      34.739  22.491  24.212  1.00  0.00     0.261 C 
BRANCH   3   4
ATOM      4  O   UNL A   1      33.490  23.085  23.829  1.00  0.00    -0.463 OA
BRANCH   4   5
ATOM      5  C   UNL A   1      32.371  22.292  23.846  1.00  0.00     0.312 C 
ATOM      6  O   UNL A   1      32.314  21.141  23.493  1.00  0.00    -0.252 OA
BRANCH   5   7
ATOM      7  C   UNL A   1      31.278  23.125  24.485  1.00  0.00     0.124 C 
ATOM      8  C   UNL A   1      31.061  25.403  23.610  1.00  0.00     0.107 C 
ATOM      9  C   UNL A   1      31.383  25.404  25.031  1.00  0.00    -0.006 C 
ATOM     10  C   UNL A   1      30.552  23.963  23.439  1.00  0.00     0.048 C 
ATOM     11  C   UNL A   1      31.652  24.170  25.462  1.00  0.00    -0.014 C 
BRANCH   8  12
ATOM     12  N   UNL A   1      32.185  25.831  22.774  1.00  0.00    -0.332 N 
ATOM     13  N   UNL A   1      33.561  27.791  23.282  1.00  0.00    -0.308 N 
ATOM     14  C   UNL A   1      33.129  26.744  22.568  1.00  0.00     0.319 C 
ATOM     15  H   UNL A   1      34.258  28.282  22.790  1.00  0.00     0.171 HD
ATOM     16  O   UNL A   1      33.761  26.548  21.512  1.00  0.00    -0.248 OA
ATOM     17  H   UNL A   1      32.284  25.155  22.065  1.00  0.00     0.165 HD
BRANCH  13  18
ATOM     18  C   UNL A   1      33.313  28.395  24.525  1.00  0.00     0.046 A 
ATOM     19  C   UNL A   1      33.181  30.080  26.738  1.00  0.00     0.119 A 
ATOM     20  C   UNL A   1      34.038  28.989  26.762  1.00  0.00     0.048 A 
ATOM     21  C   UNL A   1      32.173  30.118  25.787  1.00  0.00     0.052 A 
ATOM     22  C   UNL A   1      34.080  28.128  25.654  1.00  0.00     0.030 A 
ATOM     23  C   UNL A   1      32.189  29.220  24.700  1.00  0.00    -0.024 A 
ATOM     24  C   UNL A   1      30.978  29.204  23.808  1.00  0.00     0.047 C 
BRANCH  19  25
ATOM     25  O   UNL A   1      33.296  31.091  27.653  1.00  0.00    -0.497 OA
ATOM     26  C   UNL A   1      34.683  31.398  27.869  1.00  0.00     0.278 C 
ENDBRANCH  19  25
ENDBRANCH  13  18
ENDBRANCH   8  12
ENDBRANCH   5   7
ENDBRANCH   4   5
ENDBRANCH   3   4
ENDBRANCH   2   3
ENDBRANCH   1   2
BRANCH   1  27
ATOM     27  C   UNL A   1      36.879  21.153  24.937  1.00  0.00     0.202 C 
BRANCH  27  28
ATOM     28  C   UNL A   1      38.209  21.386  25.645  1.00  0.00     0.261 C 
BRANCH  28  29
ATOM     29  O   UNL A   1      38.467  22.781  25.926  1.00  0.00    -0.460 OA
BRANCH  29  30
ATOM     30  C   UNL A   1      39.694  23.099  26.438  1.00  0.00     0.338 C 
ATOM     31  O   UNL A   1      40.621  22.315  26.517  1.00  0.00    -0.246 OA
BRANCH  30  32
ATOM     32  C   UNL A   1      39.742  24.527  26.864  1.00  0.00     0.060 A 
ATOM     33  C   UNL A   1      40.415  25.504  26.101  1.00  0.00     0.016 A 
ATOM     34  C   UNL A   1      39.340  24.817  28.161  1.00  0.00     0.016 A 
ATOM     35  C   UNL A   1      40.791  26.724  26.693  1.00  0.00     0.010 A 
ATOM     36  C   UNL A   1      39.890  25.912  28.783  1.00  0.00     0.010 A 
ATOM     37  C   UNL A   1      40.586  26.892  28.062  1.00  0.00    -0.014 A 
BRANCH  37  38
ATOM     38  C   UNL A   1      40.999  28.025  28.887  1.00  0.00     0.031 A 
ATOM     39  C   UNL A   1      39.980  29.086  29.076  1.00  0.00     0.074 A 
ATOM     40  C   UNL A   1      42.155  28.085  29.596  1.00  0.00     0.049 A 
ATOM     41  N   UNL A   1      40.275  30.335  29.209  1.00  0.00    -0.248 NA
ATOM     42  C   UNL A   1      38.532  28.847  29.044  1.00  0.00     0.031 C 
ATOM     43  C   UNL A   1      42.378  28.888  30.795  1.00  0.00     0.029 A 
ATOM     44  N   UNL A   1      43.364  27.403  29.435  1.00  0.00    -0.354 N 
ATOM     45  C   UNL A   1      39.119  30.968  29.595  1.00  0.00     0.074 A 
ATOM     46  C   UNL A   1      38.044  30.055  29.315  1.00  0.00     0.031 C 
ATOM     47  C   UNL A   1      43.656  28.774  31.192  1.00  0.00     0.029 A 
ATOM     48  C   UNL A   1      44.376  28.013  30.185  1.00  0.00     0.049 A 
ATOM     49  H   UNL A   1      43.486  26.605  28.873  1.00  0.00     0.167 HD
ATOM     50  C   UNL A   1      39.170  32.096  30.349  1.00  0.00     0.037 A 
ATOM     51  C   UNL A   1      45.585  28.332  29.643  1.00  0.00     0.037 A 
ATOM     52  C   UNL A   1      40.542  32.359  30.778  1.00  0.00     0.049 A 
ATOM     53  C   UNL A   1      45.667  29.833  29.535  1.00  0.00     0.074 A 
ATOM     54  C   UNL A   1      41.202  32.088  31.967  1.00  0.00     0.029 A 
ATOM     55  N   UNL A   1      41.539  32.605  29.835  1.00  0.00    -0.354 N 
ATOM     56  N   UNL A   1      44.608  30.587  29.641  1.00  0.00    -0.248 NA
ATOM     57  C   UNL A   1      46.885  30.620  29.372  1.00  0.00     0.031 C 
ATOM     58  C   UNL A   1      42.596  32.189  31.737  1.00  0.00     0.029 A 
ATOM     59  C   UNL A   1      42.796  32.524  30.408  1.00  0.00     0.049 A 
ATOM     60  H   UNL A   1      41.370  32.808  28.886  1.00  0.00     0.167 HD
ATOM     61  C   UNL A   1      44.949  31.897  29.576  1.00  0.00     0.074 A 
ATOM     62  C   UNL A   1      46.390  31.874  29.396  1.00  0.00     0.031 C 
ATOM     63  C   UNL A   1      43.997  32.870  29.655  1.00  0.00     0.037 A 
BRANCH  50  64
ATOM     64  C   UNL A   1      37.920  32.681  30.964  1.00  0.00     0.058 A 
ATOM     65  C   UNL A   1      37.524  32.370  32.278  1.00  0.00     0.135 A 
ATOM     66  C   UNL A   1      37.058  33.568  30.276  1.00  0.00     0.135 A 
ATOM     67  F   UNL A   1      38.274  31.595  33.070  1.00  0.00    -0.206 F 
ATOM     68  C   UNL A   1      36.338  32.841  32.840  1.00  0.00     0.059 A 
ATOM     69  C   UNL A   1      35.835  34.002  30.793  1.00  0.00     0.059 A 
ATOM     70  F   UNL A   1      37.393  34.060  29.070  1.00  0.00    -0.206 F 
ATOM     71  C   UNL A   1      35.489  33.642  32.088  1.00  0.00     0.060 A 
BRANCH  71  72
ATOM     72  S   UNL A   1      33.967  34.240  32.843  1.00  0.00     0.124 S 
ATOM     73  O   UNL A   1      33.328  33.002  33.284  1.00  0.00    -0.237 OA
ATOM     74  O   UNL A   1      34.479  35.102  33.903  1.00  0.00    -0.237 OA
ATOM     75  O   UNL A   1      33.289  34.927  31.747  1.00  0.00    -0.744 OA
ENDBRANCH  71  72
ENDBRANCH  50  64
BRANCH  51  76
ATOM     76  C   UNL A   1      46.138  27.292  28.723  1.00  0.00     0.058 A 
ATOM     77  C   UNL A   1      46.197  25.964  29.206  1.00  0.00     0.135 A 
ATOM     78  C   UNL A   1      46.189  27.454  27.331  1.00  0.00     0.135 A 
ATOM     79  F   UNL A   1      46.142  25.732  30.529  1.00  0.00    -0.206 F 
ATOM     80  C   UNL A   1      46.163  24.853  28.356  1.00  0.00     0.059 A 
ATOM     81  C   UNL A   1      46.141  26.355  26.459  1.00  0.00     0.059 A 
ATOM     82  F   UNL A   1      46.147  28.684  26.798  1.00  0.00    -0.206 F 
ATOM     83  C   UNL A   1      46.073  25.057  26.981  1.00  0.00     0.060 A 
BRANCH  83  84
ATOM     84  S   UNL A   1      45.466  23.680  25.934  1.00  0.00     0.124 S 
ATOM     85  O   UNL A   1      44.175  23.374  26.533  1.00  0.00    -0.237 OA
ATOM     86  O   UNL A   1      45.419  24.284  24.601  1.00  0.00    -0.237 OA
ATOM     87  O   UNL A   1      46.505  22.667  26.089  1.00  0.00    -0.744 OA
ENDBRANCH  83  84
ENDBRANCH  51  76
BRANCH  63  88
ATOM     88  C   UNL A   1      44.159  34.265  29.123  1.00  0.00     0.058 A 
ATOM     89  C   UNL A   1      44.695  35.319  29.881  1.00  0.00     0.135 A 
ATOM     90  C   UNL A   1      43.931  34.549  27.754  1.00  0.00     0.135 A 
ATOM     91  F   UNL A   1      45.087  35.150  31.151  1.00  0.00    -0.206 F 
ATOM     92  C   UNL A   1      44.894  36.588  29.350  1.00  0.00     0.059 A 
ATOM     93  C   UNL A   1      44.198  35.786  27.186  1.00  0.00     0.059 A 
ATOM     94  F   UNL A   1      43.453  33.626  26.906  1.00  0.00    -0.206 F 
ATOM     95  C   UNL A   1      44.637  36.814  28.003  1.00  0.00     0.060 A 
BRANCH  95  96
ATOM     96  S   UNL A   1      44.895  38.456  27.329  1.00  0.00     0.124 S 
ATOM     97  O   UNL A   1      46.068  38.236  26.488  1.00  0.00    -0.237 OA
ATOM     98  O   UNL A   1      43.645  38.705  26.617  1.00  0.00    -0.237 OA
ATOM     99  O   UNL A   1      45.111  39.279  28.514  1.00  0.00    -0.744 OA
ENDBRANCH  95  96
ENDBRANCH  63  88
ENDBRANCH  37  38
ENDBRANCH  30  32
ENDBRANCH  29  30
ENDBRANCH  28  29
ENDBRANCH  27  28
ENDBRANCH   1  27
TORSDOF 20
ENDMDL
MODEL 2
REMARK VINA RESULT:     -11.2      1.440      2.504
REMARK SMILES COc1ccc(NC(=O)N[C@@H]2C=C[C@H](C(=O)OCCOCCOC(=O)c3ccc(-c4c5nc(c(-c6c(F)cc(S(=O)(=O)[O-])cc6F)c6ccc([nH]6)c(-c6c(F)cc(S(=O)(=O)[O-])cc6F)c6nc(c(-c7c(F)cc(S(=O)(=O)[O-])cc7F)c7ccc4[nH]7)C=C6)C=C5)cc3)C2)c(C)c1
REMARK SMILES IDX 20 1 19 2 18 3 17 4 15 5 16 6 14 7 11 8 12 9 92 10 13 11
REMARK SMILES IDX 10 12 7 13 8 14 9 16 6 18 3 19 4 20 95 21 5 22 93 23 94 24
REMARK SMILES IDX 2 25 1 26 21 27 22 28 23 29 24 30 25 31 26 32 27 33 91 34
REMARK SMILES IDX 28 35 90 36 29 37 30 38 31 39 84 40 32 41 89 42 83 43 85 44
REMARK SMILES IDX 33 45 88 46 82 47 81 48 34 50 68 51 47 52 67 53 48 54 51 55
REMARK SMILES IDX 66 56 86 57 49 58 50 59 65 61 87 62 52 63 35 64 36 65 45 66
REMARK SMILES IDX 37 67 38 68 44 69 46 70 39 71 40 72 41 73 42 74 43 75 69 76
REMARK SMILES IDX 70 77 79 78 71 79 72 80 78 81 80 82 73 83 74 84 75 85 76 86
REMARK SMILES IDX 77 87 53 88 54 89 63 90 55 91 56 92 62 93 64 94 57 95 58 96
REMARK SMILES IDX 59 97 60 98 61 99
REMARK H PARENT 7 15 10 17 85 49 51 60
REMARK Flexibility Score: inf
ROOT
ATOM      1  O   UNL A   1      37.033  21.967  23.904  1.00  0.00    -0.374 OA
ENDROOT
BRANCH   1   2
ATOM      2  C   UNL A   1      36.185  22.797  23.114  1.00  0.00     0.202 C 
BRANCH   2   3
ATOM      3  C   UNL A   1      35.608  23.761  24.113  1.00  0.00     0.261 C 
BRANCH   3   4
ATOM      4  O   UNL A   1      34.174  23.712  24.137  1.00  0.00    -0.463 OA
BRANCH   4   5
ATOM      5  C   UNL A   1      33.543  23.994  25.321  1.00  0.00     0.312 C 
ATOM      6  O   UNL A   1      33.913  24.790  26.149  1.00  0.00    -0.252 OA
BRANCH   5   7
ATOM      7  C   UNL A   1      32.260  23.188  25.314  1.00  0.00     0.124 C 
ATOM      8  C   UNL A   1      30.250  24.426  25.969  1.00  0.00     0.107 C 
ATOM      9  C   UNL A   1      30.510  23.313  26.872  1.00  0.00    -0.006 C 
ATOM     10  C   UNL A   1      31.103  24.012  24.760  1.00  0.00     0.048 C 
ATOM     11  C   UNL A   1      31.686  22.742  26.602  1.00  0.00    -0.014 C 
BRANCH   8  12
ATOM     12  N   UNL A   1      30.523  25.728  26.580  1.00  0.00    -0.332 N 
ATOM     13  N   UNL A   1      31.852  27.469  25.486  1.00  0.00    -0.308 N 
ATOM     14  C   UNL A   1      31.157  26.892  26.474  1.00  0.00     0.319 C 
ATOM     15  H   UNL A   1      32.225  28.331  25.781  1.00  0.00     0.171 HD
ATOM     16  O   UNL A   1      31.037  27.597  27.495  1.00  0.00    -0.248 OA
ATOM     17  H   UNL A   1      30.026  25.753  27.430  1.00  0.00     0.165 HD
BRANCH  13  18
ATOM     18  C   UNL A   1      32.203  27.209  24.151  1.00  0.00     0.046 A 
ATOM     19  C   UNL A   1      32.902  26.072  21.707  1.00  0.00     0.119 A 
ATOM     20  C   UNL A   1      33.877  26.696  22.473  1.00  0.00     0.048 A 
ATOM     21  C   UNL A   1      31.568  26.321  21.990  1.00  0.00     0.052 A 
ATOM     22  C   UNL A   1      33.512  27.291  23.691  1.00  0.00     0.030 A 
ATOM     23  C   UNL A   1      31.205  26.963  23.192  1.00  0.00    -0.024 A 
ATOM     24  C   UNL A   1      29.762  27.355  23.350  1.00  0.00     0.047 C 
BRANCH  19  25
ATOM     25  O   UNL A   1      33.237  25.248  20.667  1.00  0.00    -0.497 OA
ATOM     26  C   UNL A   1      32.449  25.576  19.511  1.00  0.00     0.278 C 
ENDBRANCH  19  25
ENDBRANCH  13  18
ENDBRANCH   8  12
ENDBRANCH   5   7
ENDBRANCH   4   5
ENDBRANCH   3   4
ENDBRANCH   2   3
ENDBRANCH   1   2
BRANCH   1  27
ATOM     27  C   UNL A   1      37.431  22.385  25.186  1.00  0.00     0.202 C 
BRANCH  27  28
ATOM     28  C   UNL A   1      38.614  21.621  25.772  1.00  0.00     0.261 C 
BRANCH  28  29
ATOM     29  O   UNL A   1      39.313  22.358  26.800  1.00  0.00    -0.460 OA
BRANCH  29  30
ATOM     30  C   UNL A   1      40.425  23.058  26.420  1.00  0.00     0.338 C 
ATOM     31  O   UNL A   1      41.330  22.587  25.754  1.00  0.00    -0.246 OA
BRANCH  30  32
ATOM     32  C   UNL A   1      40.369  24.463  26.915  1.00  0.00     0.060 A 
ATOM     33  C   UNL A   1      40.673  25.555  26.075  1.00  0.00     0.016 A 
ATOM     34  C   UNL A   1      40.272  24.651  28.287  1.00  0.00     0.016 A 
ATOM     35  C   UNL A   1      41.003  26.803  26.634  1.00  0.00     0.010 A 
ATOM     36  C   UNL A   1      40.794  25.803  28.824  1.00  0.00     0.010 A 
ATOM     37  C   UNL A   1      41.131  26.900  28.020  1.00  0.00    -0.014 A 
BRANCH  37  38
ATOM     38  C   UNL A   1      41.568  28.062  28.790  1.00  0.00     0.031 A 
ATOM     39  C   UNL A   1      40.513  29.056  29.106  1.00  0.00     0.074 A 
ATOM     40  C   UNL A   1      42.796  28.201  29.350  1.00  0.00     0.049 A 
ATOM     41  N   UNL A   1      40.740  30.322  29.205  1.00  0.00    -0.248 NA
ATOM     42  C   UNL A   1      39.091  28.722  29.254  1.00  0.00     0.031 C 
ATOM     43  C   UNL A   1      43.113  29.024  30.514  1.00  0.00     0.029 A 
ATOM     44  N   UNL A   1      44.018  27.599  29.039  1.00  0.00    -0.354 N 
ATOM     45  C   UNL A   1      39.602  30.880  29.733  1.00  0.00     0.074 A 
ATOM     46  C   UNL A   1      38.563  29.898  29.587  1.00  0.00     0.031 C 
ATOM     47  C   UNL A   1      44.436  28.996  30.749  1.00  0.00     0.029 A 
ATOM     48  C   UNL A   1      45.074  28.277  29.658  1.00  0.00     0.049 A 
ATOM     49  H   UNL A   1      44.121  26.807  28.464  1.00  0.00     0.167 HD
ATOM     50  C   UNL A   1      39.672  32.014  30.477  1.00  0.00     0.037 A 
ATOM     51  C   UNL A   1      46.182  28.672  28.971  1.00  0.00     0.037 A 
ATOM     52  C   UNL A   1      41.067  32.368  30.734  1.00  0.00     0.049 A 
ATOM     53  C   UNL A   1      46.152  30.174  28.858  1.00  0.00     0.074 A 
ATOM     54  C   UNL A   1      41.885  32.148  31.830  1.00  0.00     0.029 A 
ATOM     55  N   UNL A   1      41.921  32.673  29.675  1.00  0.00    -0.354 N 
ATOM     56  N   UNL A   1      45.067  30.859  29.096  1.00  0.00    -0.248 NA
ATOM     57  C   UNL A   1      47.286  31.038  28.547  1.00  0.00     0.031 C 
ATOM     58  C   UNL A   1      43.231  32.338  31.430  1.00  0.00     0.029 A 
ATOM     59  C   UNL A   1      43.241  32.678  30.087  1.00  0.00     0.049 A 
ATOM     60  H   UNL A   1      41.623  32.859  28.755  1.00  0.00     0.167 HD
ATOM     61  C   UNL A   1      45.311  32.188  28.992  1.00  0.00     0.074 A 
ATOM     62  C   UNL A   1      46.717  32.257  28.635  1.00  0.00     0.031 C 
ATOM     63  C   UNL A   1      44.315  33.097  29.192  1.00  0.00     0.037 A 
BRANCH  50  64
ATOM     64  C   UNL A   1      38.472  32.520  31.244  1.00  0.00     0.058 A 
ATOM     65  C   UNL A   1      38.173  32.060  32.540  1.00  0.00     0.135 A 
ATOM     66  C   UNL A   1      37.566  33.474  30.725  1.00  0.00     0.135 A 
ATOM     67  F   UNL A   1      38.976  31.205  33.183  1.00  0.00    -0.206 F 
ATOM     68  C   UNL A   1      37.032  32.459  33.238  1.00  0.00     0.059 A 
ATOM     69  C   UNL A   1      36.385  33.840  31.376  1.00  0.00     0.059 A 
ATOM     70  F   UNL A   1      37.813  34.100  29.562  1.00  0.00    -0.206 F 
ATOM     71  C   UNL A   1      36.133  33.336  32.645  1.00  0.00     0.060 A 
BRANCH  71  72
ATOM     72  S   UNL A   1      34.673  33.838  33.572  1.00  0.00     0.124 S 
ATOM     73  O   UNL A   1      33.691  32.830  33.178  1.00  0.00    -0.237 OA
ATOM     74  O   UNL A   1      35.151  33.754  34.947  1.00  0.00    -0.237 OA
ATOM     75  O   UNL A   1      34.404  35.186  33.081  1.00  0.00    -0.744 OA
ENDBRANCH  71  72
ENDBRANCH  50  64
BRANCH  51  76
ATOM     76  C   UNL A   1      46.684  27.664  27.988  1.00  0.00     0.058 A 
ATOM     77  C   UNL A   1      46.948  26.362  28.470  1.00  0.00     0.135 A 
ATOM     78  C   UNL A   1      46.498  27.793  26.603  1.00  0.00     0.135 A 
ATOM     79  F   UNL A   1      47.126  26.162  29.788  1.00  0.00    -0.206 F 
ATOM     80  C   UNL A   1      46.892  25.230  27.650  1.00  0.00     0.059 A 
ATOM     81  C   UNL A   1      46.423  26.671  25.763  1.00  0.00     0.059 A 
ATOM     82  F   UNL A   1      46.252  28.998  26.069  1.00  0.00    -0.206 F 
ATOM     83  C   UNL A   1      46.566  25.387  26.304  1.00  0.00     0.060 A 
BRANCH  83  84
ATOM     84  S   UNL A   1      45.941  23.930  25.383  1.00  0.00     0.124 S 
ATOM     85  O   UNL A   1      46.404  22.819  26.201  1.00  0.00    -0.237 OA
ATOM     86  O   UNL A   1      44.494  24.151  25.374  1.00  0.00    -0.237 OA
ATOM     87  O   UNL A   1      46.571  24.074  24.075  1.00  0.00    -0.744 OA
ENDBRANCH  83  84
ENDBRANCH  51  76
BRANCH  63  88
ATOM     88  C   UNL A   1      44.318  34.496  28.647  1.00  0.00     0.058 A 
ATOM     89  C   UNL A   1      43.927  34.811  27.335  1.00  0.00     0.135 A 
ATOM     90  C   UNL A   1      44.559  35.603  29.497  1.00  0.00     0.135 A 
ATOM     91  F   UNL A   1      43.536  33.868  26.467  1.00  0.00    -0.206 F 
ATOM     92  C   UNL A   1      43.878  36.120  26.870  1.00  0.00     0.059 A 
ATOM     93  C   UNL A   1      44.438  36.919  29.074  1.00  0.00     0.059 A 
ATOM     94  F   UNL A   1      44.908  35.450  30.783  1.00  0.00    -0.206 F 
ATOM     95  C   UNL A   1      44.140  37.167  27.745  1.00  0.00     0.060 A 
BRANCH  95  96
ATOM     96  S   UNL A   1      44.077  38.852  27.132  1.00  0.00     0.124 S 
ATOM     97  O   UNL A   1      45.217  38.864  26.220  1.00  0.00    -0.237 OA
ATOM     98  O   UNL A   1      42.762  38.908  26.500  1.00  0.00    -0.237 OA
ATOM     99  O   UNL A   1      44.222  39.658  28.339  1.00  0.00    -0.744 OA
ENDBRANCH  95  96
ENDBRANCH  63  88
ENDBRANCH  37  38
ENDBRANCH  30  32
ENDBRANCH  29  30
ENDBRANCH  28  29
ENDBRANCH  27  28
ENDBRANCH   1  27
TORSDOF 20
ENDMDL
MODEL 3
REMARK VINA RESULT:     -11.1      1.811      2.909
REMARK SMILES COc1ccc(NC(=O)N[C@@H]2C=C[C@H](C(=O)OCCOCCOC(=O)c3ccc(-c4c5nc(c(-c6c(F)cc(S(=O)(=O)[O-])cc6F)c6ccc([nH]6)c(-c6c(F)cc(S(=O)(=O)[O-])cc6F)c6nc(c(-c7c(F)cc(S(=O)(=O)[O-])cc7F)c7ccc4[nH]7)C=C6)C=C5)cc3)C2)c(C)c1
REMARK SMILES IDX 20 1 19 2 18 3 17 4 15 5 16 6 14 7 11 8 12 9 92 10 13 11
REMARK SMILES IDX 10 12 7 13 8 14 9 16 6 18 3 19 4 20 95 21 5 22 93 23 94 24
REMARK SMILES IDX 2 25 1 26 21 27 22 28 23 29 24 30 25 31 26 32 27 33 91 34
REMARK SMILES IDX 28 35 90 36 29 37 30 38 31 39 84 40 32 41 89 42 83 43 85 44
REMARK SMILES IDX 33 45 88 46 82 47 81 48 34 50 68 51 47 52 67 53 48 54 51 55
REMARK SMILES IDX 66 56 86 57 49 58 50 59 65 61 87 62 52 63 35 64 36 65 45 66
REMARK SMILES IDX 37 67 38 68 44 69 46 70 39 71 40 72 41 73 42 74 43 75 69 76
REMARK SMILES IDX 70 77 79 78 71 79 72 80 78 81 80 82 73 83 74 84 75 85 76 86
REMARK SMILES IDX 77 87 53 88 54 89 63 90 55 91 56 92 62 93 64 94 57 95 58 96
REMARK SMILES IDX 59 97 60 98 61 99
REMARK H PARENT 7 15 10 17 85 49 51 60
REMARK Flexibility Score: inf
ROOT
ATOM      1  O   UNL A   1      37.222  21.823  25.609  1.00  0.00    -0.374 OA
ENDROOT
BRANCH   1   2
ATOM      2  C   UNL A   1      36.666  21.723  24.300  1.00  0.00     0.202 C 
BRANCH   2   3
ATOM      3  C   UNL A   1      36.505  23.158  23.877  1.00  0.00     0.261 C 
BRANCH   3   4
ATOM      4  O   UNL A   1      35.474  23.312  22.891  1.00  0.00    -0.463 OA
BRANCH   4   5
ATOM      5  C   UNL A   1      34.388  24.085  23.215  1.00  0.00     0.312 C 
ATOM      6  O   UNL A   1      34.397  25.052  23.936  1.00  0.00    -0.252 OA
BRANCH   5   7
ATOM      7  C   UNL A   1      33.228  23.536  22.409  1.00  0.00     0.124 C 
ATOM      8  C   UNL A   1      31.048  23.638  23.524  1.00  0.00     0.107 C 
ATOM      9  C   UNL A   1      31.430  22.265  23.218  1.00  0.00    -0.006 C 
ATOM     10  C   UNL A   1      31.988  24.407  22.581  1.00  0.00     0.048 C 
ATOM     11  C   UNL A   1      32.680  22.207  22.755  1.00  0.00    -0.014 C 
BRANCH   8  12
ATOM     12  N   UNL A   1      31.123  23.942  24.954  1.00  0.00    -0.332 N 
ATOM     13  N   UNL A   1      31.078  26.222  25.843  1.00  0.00    -0.308 N 
ATOM     14  C   UNL A   1      31.189  24.889  25.884  1.00  0.00     0.319 C 
ATOM     15  H   UNL A   1      31.230  26.611  26.734  1.00  0.00     0.171 HD
ATOM     16  O   UNL A   1      31.344  24.424  27.030  1.00  0.00    -0.248 OA
ATOM     17  H   UNL A   1      31.121  23.078  25.428  1.00  0.00     0.165 HD
BRANCH  13  18
ATOM     18  C   UNL A   1      30.807  27.230  24.903  1.00  0.00     0.046 A 
ATOM     19  C   UNL A   1      29.859  29.442  23.503  1.00  0.00     0.119 A 
ATOM     20  C   UNL A   1      29.391  28.177  23.176  1.00  0.00     0.048 A 
ATOM     21  C   UNL A   1      31.017  29.554  24.257  1.00  0.00     0.052 A 
ATOM     22  C   UNL A   1      29.893  27.063  23.868  1.00  0.00     0.030 A 
ATOM     23  C   UNL A   1      31.549  28.424  24.911  1.00  0.00    -0.024 A 
ATOM     24  C   UNL A   1      32.895  28.581  25.563  1.00  0.00     0.047 C 
BRANCH  19  25
ATOM     25  O   UNL A   1      29.217  30.570  23.066  1.00  0.00    -0.497 OA
ATOM     26  C   UNL A   1      28.414  30.259  21.915  1.00  0.00     0.278 C 
ENDBRANCH  19  25
ENDBRANCH  13  18
ENDBRANCH   8  12
ENDBRANCH   5   7
ENDBRANCH   4   5
ENDBRANCH   3   4
ENDBRANCH   2   3
ENDBRANCH   1   2
BRANCH   1  27
ATOM     27  C   UNL A   1      38.616  21.804  25.785  1.00  0.00     0.202 C 
BRANCH  27  28
ATOM     28  C   UNL A   1      39.185  23.005  26.533  1.00  0.00     0.261 C 
BRANCH  28  29
ATOM     29  O   UNL A   1      40.554  22.814  26.956  1.00  0.00    -0.460 OA
BRANCH  29  30
ATOM     30  C   UNL A   1      41.485  23.692  26.473  1.00  0.00     0.338 C 
ATOM     31  O   UNL A   1      42.368  23.386  25.693  1.00  0.00    -0.246 OA
BRANCH  30  32
ATOM     32  C   UNL A   1      41.261  25.063  27.017  1.00  0.00     0.060 A 
ATOM     33  C   UNL A   1      41.214  26.193  26.175  1.00  0.00     0.016 A 
ATOM     34  C   UNL A   1      41.368  25.227  28.391  1.00  0.00     0.016 A 
ATOM     35  C   UNL A   1      41.403  27.479  26.711  1.00  0.00     0.010 A 
ATOM     36  C   UNL A   1      41.758  26.454  28.870  1.00  0.00     0.010 A 
ATOM     37  C   UNL A   1      41.748  27.596  28.058  1.00  0.00    -0.014 A 
BRANCH  37  38
ATOM     38  C   UNL A   1      42.093  28.818  28.781  1.00  0.00     0.031 A 
ATOM     39  C   UNL A   1      40.947  29.665  29.194  1.00  0.00     0.074 A 
ATOM     40  C   UNL A   1      43.337  29.129  29.223  1.00  0.00     0.049 A 
ATOM     41  N   UNL A   1      41.008  30.951  29.268  1.00  0.00    -0.248 NA
ATOM     42  C   UNL A   1      39.603  29.144  29.475  1.00  0.00     0.031 C 
ATOM     43  C   UNL A   1      43.647  30.004  30.351  1.00  0.00     0.029 A 
ATOM     44  N   UNL A   1      44.595  28.693  28.800  1.00  0.00    -0.354 N 
ATOM     45  C   UNL A   1      39.859  31.358  29.900  1.00  0.00     0.074 A 
ATOM     46  C   UNL A   1      38.954  30.243  29.854  1.00  0.00     0.031 C 
ATOM     47  C   UNL A   1      44.977  30.158  30.460  1.00  0.00     0.029 A 
ATOM     48  C   UNL A   1      45.602  29.516  29.316  1.00  0.00     0.049 A 
ATOM     49  H   UNL A   1      44.751  27.914  28.219  1.00  0.00     0.167 HD
ATOM     50  C   UNL A   1      39.843  32.502  30.633  1.00  0.00     0.037 A 
ATOM     51  C   UNL A   1      46.578  30.047  28.527  1.00  0.00     0.037 A 
ATOM     52  C   UNL A   1      41.195  33.044  30.756  1.00  0.00     0.049 A 
ATOM     53  C   UNL A   1      46.334  31.529  28.414  1.00  0.00     0.074 A 
ATOM     54  C   UNL A   1      42.134  32.952  31.771  1.00  0.00     0.029 A 
ATOM     55  N   UNL A   1      41.897  33.446  29.621  1.00  0.00    -0.354 N 
ATOM     56  N   UNL A   1      45.193  32.065  28.752  1.00  0.00    -0.248 NA
ATOM     57  C   UNL A   1      47.307  32.534  27.997  1.00  0.00     0.031 C 
ATOM     58  C   UNL A   1      43.398  33.316  31.246  1.00  0.00     0.029 A 
ATOM     59  C   UNL A   1      43.238  33.635  29.907  1.00  0.00     0.049 A 
ATOM     60  H   UNL A   1      41.493  33.577  28.733  1.00  0.00     0.167 HD
ATOM     61  C   UNL A   1      45.244  33.413  28.623  1.00  0.00     0.074 A 
ATOM     62  C   UNL A   1      46.588  33.666  28.135  1.00  0.00     0.031 C 
ATOM     63  C   UNL A   1      44.157  34.182  28.914  1.00  0.00     0.037 A 
BRANCH  50  64
ATOM     64  C   UNL A   1      38.663  32.852  31.508  1.00  0.00     0.058 A 
ATOM     65  C   UNL A   1      37.578  33.606  31.023  1.00  0.00     0.135 A 
ATOM     66  C   UNL A   1      38.559  32.462  32.864  1.00  0.00     0.135 A 
ATOM     67  F   UNL A   1      37.508  33.991  29.744  1.00  0.00    -0.206 F 
ATOM     68  C   UNL A   1      36.513  34.003  31.832  1.00  0.00     0.059 A 
ATOM     69  C   UNL A   1      37.536  32.899  33.710  1.00  0.00     0.059 A 
ATOM     70  F   UNL A   1      39.453  31.619  33.411  1.00  0.00    -0.206 F 
ATOM     71  C   UNL A   1      36.505  33.661  33.178  1.00  0.00     0.060 A 
BRANCH  71  72
ATOM     72  S   UNL A   1      35.113  34.181  34.196  1.00  0.00     0.124 S 
ATOM     73  O   UNL A   1      35.050  35.616  33.930  1.00  0.00    -0.237 OA
ATOM     74  O   UNL A   1      34.025  33.384  33.641  1.00  0.00    -0.237 OA
ATOM     75  O   UNL A   1      35.528  33.822  35.549  1.00  0.00    -0.744 OA
ENDBRANCH  71  72
ENDBRANCH  50  64
BRANCH  51  76
ATOM     76  C   UNL A   1      47.118  29.102  27.502  1.00  0.00     0.058 A 
ATOM     77  C   UNL A   1      47.733  27.918  27.970  1.00  0.00     0.135 A 
ATOM     78  C   UNL A   1      46.686  29.097  26.167  1.00  0.00     0.135 A 
ATOM     79  F   UNL A   1      48.163  27.848  29.243  1.00  0.00    -0.206 F 
ATOM     80  C   UNL A   1      47.789  26.747  27.207  1.00  0.00     0.059 A 
ATOM     81  C   UNL A   1      46.718  27.929  25.388  1.00  0.00     0.059 A 
ATOM     82  F   UNL A   1      46.101  30.186  25.648  1.00  0.00    -0.206 F 
ATOM     83  C   UNL A   1      47.222  26.743  25.935  1.00  0.00     0.060 A 
BRANCH  83  84
ATOM     84  S   UNL A   1      46.785  25.129  25.182  1.00  0.00     0.124 S 
ATOM     85  O   UNL A   1      47.159  24.184  26.223  1.00  0.00    -0.237 OA
ATOM     86  O   UNL A   1      45.348  25.266  24.935  1.00  0.00    -0.237 OA
ATOM     87  O   UNL A   1      47.595  25.103  23.967  1.00  0.00    -0.744 OA
ENDBRANCH  83  84
ENDBRANCH  51  76
BRANCH  63  88
ATOM     88  C   UNL A   1      43.920  35.561  28.369  1.00  0.00     0.058 A 
ATOM     89  C   UNL A   1      43.573  35.809  27.031  1.00  0.00     0.135 A 
ATOM     90  C   UNL A   1      43.869  36.682  29.233  1.00  0.00     0.135 A 
ATOM     91  F   UNL A   1      43.445  34.819  26.138  1.00  0.00    -0.206 F 
ATOM     92  C   UNL A   1      43.296  37.088  26.561  1.00  0.00     0.059 A 
ATOM     93  C   UNL A   1      43.519  37.953  28.801  1.00  0.00     0.059 A 
ATOM     94  F   UNL A   1      44.144  36.585  30.543  1.00  0.00    -0.206 F 
ATOM     95  C   UNL A   1      43.277  38.154  27.453  1.00  0.00     0.060 A 
BRANCH  95  96
ATOM     96  S   UNL A   1      42.922  39.800  26.834  1.00  0.00     0.124 S 
ATOM     97  O   UNL A   1      43.167  40.609  28.025  1.00  0.00    -0.237 OA
ATOM     98  O   UNL A   1      43.897  39.950  25.758  1.00  0.00    -0.237 OA
ATOM     99  O   UNL A   1      41.531  39.710  26.406  1.00  0.00    -0.744 OA
ENDBRANCH  95  96
ENDBRANCH  63  88
ENDBRANCH  37  38
ENDBRANCH  30  32
ENDBRANCH  29  30
ENDBRANCH  28  29
ENDBRANCH  27  28
ENDBRANCH   1  27
TORSDOF 20
ENDMDL
