MODEL 1
REMARK VINA RESULT:     -10.8      0.000      0.000
REMARK SMILES C[C@@H](C(=O)OCCOCCOC(=O)c1ccc(-c2c3nc(c(-c4c(F)cc(S(=O)(=O)[O-])cc4F)c4ccc([nH]4)c(-c4c(F)cc(S(=O)(=O)[O-])cc4F)c4nc(c(-c5c(F)cc(S(=O)(=O)[O-])cc5F)c5ccc2[nH]5)C=C4)C=C3)cc1)c1cc(C(=O)c2ccccc2)ccc1O
REMARK SMILES IDX 8 1 7 2 6 3 5 4 3 5 4 6 2 7 1 8 80 9 81 10 93 11 82 12 92 13
REMARK SMILES IDX 91 14 94 15 83 17 84 18 85 19 86 20 90 21 87 22 89 23 88 24
REMARK SMILES IDX 9 25 10 26 11 27 12 28 13 29 14 30 15 31 79 32 16 33 78 34
REMARK SMILES IDX 17 35 18 36 19 37 72 38 20 39 77 40 71 41 73 42 21 43 76 44
REMARK SMILES IDX 70 45 69 46 22 48 56 49 35 50 55 51 36 52 39 53 54 54 74 55
REMARK SMILES IDX 37 56 38 57 53 59 75 60 40 61 23 62 24 63 33 64 25 65 26 66
REMARK SMILES IDX 32 67 34 68 27 69 28 70 29 71 30 72 31 73 57 74 58 75 67 76
REMARK SMILES IDX 59 77 60 78 66 79 68 80 61 81 62 82 63 83 64 84 65 85 41 86
REMARK SMILES IDX 42 87 51 88 43 89 44 90 50 91 52 92 45 93 46 94 47 95 48 96
REMARK SMILES IDX 49 97
REMARK H PARENT 94 16 73 47 39 58
REMARK Flexibility Score: inf
ROOT
ATOM      1  O   UNL A   1      30.789  29.568  24.754  1.00  0.00    -0.374 OA
ENDROOT
BRANCH   1   2
ATOM      2  C   UNL A   1      30.648  28.970  23.460  1.00  0.00     0.202 C 
BRANCH   2   3
ATOM      3  C   UNL A   1      30.256  27.488  23.429  1.00  0.00     0.261 C 
BRANCH   3   4
ATOM      4  O   UNL A   1      31.328  26.655  23.920  1.00  0.00    -0.463 OA
BRANCH   4   5
ATOM      5  C   UNL A   1      30.963  25.484  24.515  1.00  0.00     0.313 C 
ATOM      6  O   UNL A   1      30.288  24.617  23.969  1.00  0.00    -0.252 OA
BRANCH   5   7
ATOM      7  C   UNL A   1      31.458  25.379  25.966  1.00  0.00     0.130 C 
ATOM      8  C   UNL A   1      31.968  26.684  26.583  1.00  0.00     0.025 C 
BRANCH   7   9
ATOM      9  C   UNL A   1      32.440  24.216  26.115  1.00  0.00     0.009 A 
ATOM     10  C   UNL A   1      33.650  24.264  25.402  1.00  0.00     0.020 A 
ATOM     11  C   UNL A   1      32.273  23.162  27.023  1.00  0.00     0.119 A 
ATOM     12  C   UNL A   1      34.667  23.329  25.641  1.00  0.00     0.023 A 
ATOM     13  C   UNL A   1      33.313  22.296  27.346  1.00  0.00     0.047 A 
ATOM     14  C   UNL A   1      34.522  22.396  26.673  1.00  0.00     0.016 A 
BRANCH  11  15
ATOM     15  O   UNL A   1      31.083  22.895  27.621  1.00  0.00    -0.508 OA
ATOM     16  H   UNL A   1      30.287  22.964  27.132  1.00  0.00     0.293 HD
ENDBRANCH  11  15
BRANCH  12  17
ATOM     17  C   UNL A   1      35.888  23.360  24.790  1.00  0.00     0.193 C 
ATOM     18  O   UNL A   1      35.813  23.649  23.600  1.00  0.00    -0.289 OA
BRANCH  17  19
ATOM     19  C   UNL A   1      37.212  23.034  25.371  1.00  0.00     0.022 A 
ATOM     20  C   UNL A   1      37.866  24.012  26.125  1.00  0.00     0.012 A 
ATOM     21  C   UNL A   1      37.795  21.771  25.197  1.00  0.00     0.012 A 
ATOM     22  C   UNL A   1      39.072  23.707  26.753  1.00  0.00     0.001 A 
ATOM     23  C   UNL A   1      38.997  21.468  25.837  1.00  0.00     0.001 A 
ATOM     24  C   UNL A   1      39.629  22.433  26.620  1.00  0.00     0.000 A 
ENDBRANCH  17  19
ENDBRANCH  12  17
ENDBRANCH   7   9
ENDBRANCH   5   7
ENDBRANCH   4   5
ENDBRANCH   3   4
ENDBRANCH   2   3
ENDBRANCH   1   2
BRANCH   1  25
ATOM     25  C   UNL A   1      32.115  29.894  25.158  1.00  0.00     0.202 C 
BRANCH  25  26
ATOM     26  C   UNL A   1      32.279  30.502  26.556  1.00  0.00     0.261 C 
BRANCH  26  27
ATOM     27  O   UNL A   1      33.524  30.131  27.165  1.00  0.00    -0.460 OA
BRANCH  27  28
ATOM     28  C   UNL A   1      34.228  31.183  27.642  1.00  0.00     0.338 C 
ATOM     29  O   UNL A   1      33.802  32.302  27.903  1.00  0.00    -0.246 OA
BRANCH  28  30
ATOM     30  C   UNL A   1      35.592  30.760  27.993  1.00  0.00     0.060 A 
ATOM     31  C   UNL A   1      35.791  29.395  28.229  1.00  0.00     0.016 A 
ATOM     32  C   UNL A   1      36.638  31.673  28.145  1.00  0.00     0.016 A 
ATOM     33  C   UNL A   1      37.023  28.942  28.685  1.00  0.00     0.010 A 
ATOM     34  C   UNL A   1      37.876  31.216  28.610  1.00  0.00     0.010 A 
ATOM     35  C   UNL A   1      38.057  29.857  28.921  1.00  0.00    -0.014 A 
BRANCH  35  36
ATOM     36  C   UNL A   1      39.259  29.401  29.657  1.00  0.00     0.031 A 
ATOM     37  C   UNL A   1      39.598  30.063  30.964  1.00  0.00     0.074 A 
ATOM     38  C   UNL A   1      39.995  28.374  29.196  1.00  0.00     0.049 A 
ATOM     39  N   UNL A   1      40.590  29.825  31.781  1.00  0.00    -0.248 NA
ATOM     40  C   UNL A   1      38.697  31.140  31.411  1.00  0.00     0.031 C 
ATOM     41  C   UNL A   1      39.728  27.633  27.964  1.00  0.00     0.029 A 
ATOM     42  N   UNL A   1      41.115  27.778  29.713  1.00  0.00    -0.354 N 
ATOM     43  C   UNL A   1      40.439  30.723  32.832  1.00  0.00     0.074 A 
ATOM     44  C   UNL A   1      39.278  31.532  32.535  1.00  0.00     0.031 C 
ATOM     45  C   UNL A   1      40.663  26.679  27.818  1.00  0.00     0.029 A 
ATOM     46  C   UNL A   1      41.609  26.762  28.930  1.00  0.00     0.049 A 
ATOM     47  H   UNL A   1      41.527  28.050  30.564  1.00  0.00     0.167 HD
ATOM     48  C   UNL A   1      41.196  30.853  33.947  1.00  0.00     0.037 A 
ATOM     49  C   UNL A   1      42.709  26.000  29.087  1.00  0.00     0.037 A 
ATOM     50  C   UNL A   1      42.346  30.035  34.233  1.00  0.00     0.049 A 
ATOM     51  C   UNL A   1      43.571  26.205  30.306  1.00  0.00     0.074 A 
ATOM     52  C   UNL A   1      43.169  30.068  35.344  1.00  0.00     0.029 A 
ATOM     53  N   UNL A   1      42.837  29.042  33.398  1.00  0.00    -0.354 N 
ATOM     54  N   UNL A   1      43.403  27.041  31.304  1.00  0.00    -0.248 NA
ATOM     55  C   UNL A   1      44.768  25.361  30.424  1.00  0.00     0.031 C 
ATOM     56  C   UNL A   1      44.191  29.132  35.156  1.00  0.00     0.029 A 
ATOM     57  C   UNL A   1      43.971  28.474  33.955  1.00  0.00     0.049 A 
ATOM     58  H   UNL A   1      42.439  28.780  32.536  1.00  0.00     0.167 HD
ATOM     59  C   UNL A   1      44.458  26.805  32.182  1.00  0.00     0.074 A 
ATOM     60  C   UNL A   1      45.249  25.740  31.600  1.00  0.00     0.031 C 
ATOM     61  C   UNL A   1      44.743  27.409  33.361  1.00  0.00     0.037 A 
BRANCH  48  62
ATOM     62  C   UNL A   1      40.825  31.936  34.922  1.00  0.00     0.058 A 
ATOM     63  C   UNL A   1      39.905  31.721  35.960  1.00  0.00     0.135 A 
ATOM     64  C   UNL A   1      41.423  33.205  34.832  1.00  0.00     0.135 A 
ATOM     65  F   UNL A   1      39.288  30.533  36.081  1.00  0.00    -0.206 F 
ATOM     66  C   UNL A   1      39.571  32.729  36.859  1.00  0.00     0.059 A 
ATOM     67  C   UNL A   1      41.125  34.220  35.736  1.00  0.00     0.059 A 
ATOM     68  F   UNL A   1      42.305  33.468  33.856  1.00  0.00    -0.206 F 
ATOM     69  C   UNL A   1      40.188  33.977  36.738  1.00  0.00     0.060 A 
BRANCH  69  70
ATOM     70  S   UNL A   1      39.749  35.274  37.914  1.00  0.00     0.124 S 
ATOM     71  O   UNL A   1      38.531  34.731  38.507  1.00  0.00    -0.237 OA
ATOM     72  O   UNL A   1      40.917  35.311  38.788  1.00  0.00    -0.237 OA
ATOM     73  O   UNL A   1      39.565  36.451  37.070  1.00  0.00    -0.744 OA
ENDBRANCH  69  70
ENDBRANCH  48  62
BRANCH  49  74
ATOM     74  C   UNL A   1      43.060  24.981  28.064  1.00  0.00     0.058 A 
ATOM     75  C   UNL A   1      43.763  25.329  26.901  1.00  0.00     0.135 A 
ATOM     76  C   UNL A   1      42.704  23.633  28.230  1.00  0.00     0.135 A 
ATOM     77  F   UNL A   1      44.118  26.606  26.690  1.00  0.00    -0.206 F 
ATOM     78  C   UNL A   1      44.089  24.383  25.934  1.00  0.00     0.059 A 
ATOM     79  C   UNL A   1      43.041  22.663  27.291  1.00  0.00     0.059 A 
ATOM     80  F   UNL A   1      42.041  23.244  29.330  1.00  0.00    -0.206 F 
ATOM     81  C   UNL A   1      43.726  23.051  26.141  1.00  0.00     0.060 A 
BRANCH  81  82
ATOM     82  S   UNL A   1      44.196  21.823  24.903  1.00  0.00     0.124 S 
ATOM     83  O   UNL A   1      43.196  20.786  25.123  1.00  0.00    -0.237 OA
ATOM     84  O   UNL A   1      44.072  22.578  23.660  1.00  0.00    -0.237 OA
ATOM     85  O   UNL A   1      45.563  21.473  25.281  1.00  0.00    -0.744 OA
ENDBRANCH  81  82
ENDBRANCH  49  74
BRANCH  61  86
ATOM     86  C   UNL A   1      45.941  26.913  34.123  1.00  0.00     0.058 A 
ATOM     87  C   UNL A   1      47.233  27.400  33.869  1.00  0.00     0.135 A 
ATOM     88  C   UNL A   1      45.784  25.978  35.159  1.00  0.00     0.135 A 
ATOM     89  F   UNL A   1      47.439  28.291  32.886  1.00  0.00    -0.206 F 
ATOM     90  C   UNL A   1      48.330  26.959  34.600  1.00  0.00     0.059 A 
ATOM     91  C   UNL A   1      46.863  25.545  35.923  1.00  0.00     0.059 A 
ATOM     92  F   UNL A   1      44.568  25.489  35.452  1.00  0.00    -0.206 F 
ATOM     93  C   UNL A   1      48.135  26.033  35.627  1.00  0.00     0.060 A 
BRANCH  93  94
ATOM     94  S   UNL A   1      49.565  25.495  36.590  1.00  0.00     0.124 S 
ATOM     95  O   UNL A   1      50.536  25.210  35.541  1.00  0.00    -0.237 OA
ATOM     96  O   UNL A   1      49.846  26.667  37.414  1.00  0.00    -0.237 OA
ATOM     97  O   UNL A   1      49.066  24.332  37.317  1.00  0.00    -0.744 OA
ENDBRANCH  93  94
ENDBRANCH  61  86
ENDBRANCH  35  36
ENDBRANCH  28  30
ENDBRANCH  27  28
ENDBRANCH  26  27
ENDBRANCH  25  26
ENDBRANCH   1  25
TORSDOF 21
ENDMDL
MODEL 2
REMARK VINA RESULT:     -10.7      3.906      6.914
REMARK SMILES C[C@@H](C(=O)OCCOCCOC(=O)c1ccc(-c2c3nc(c(-c4c(F)cc(S(=O)(=O)[O-])cc4F)c4ccc([nH]4)c(-c4c(F)cc(S(=O)(=O)[O-])cc4F)c4nc(c(-c5c(F)cc(S(=O)(=O)[O-])cc5F)c5ccc2[nH]5)C=C4)C=C3)cc1)c1cc(C(=O)c2ccccc2)ccc1O
REMARK SMILES IDX 8 1 7 2 6 3 5 4 3 5 4 6 2 7 1 8 80 9 81 10 93 11 82 12 92 13
REMARK SMILES IDX 91 14 94 15 83 17 84 18 85 19 86 20 90 21 87 22 89 23 88 24
REMARK SMILES IDX 9 25 10 26 11 27 12 28 13 29 14 30 15 31 79 32 16 33 78 34
REMARK SMILES IDX 17 35 18 36 19 37 72 38 20 39 77 40 71 41 73 42 21 43 76 44
REMARK SMILES IDX 70 45 69 46 22 48 56 49 35 50 55 51 36 52 39 53 54 54 74 55
REMARK SMILES IDX 37 56 38 57 53 59 75 60 40 61 23 62 24 63 33 64 25 65 26 66
REMARK SMILES IDX 32 67 34 68 27 69 28 70 29 71 30 72 31 73 57 74 58 75 67 76
REMARK SMILES IDX 59 77 60 78 66 79 68 80 61 81 62 82 63 83 64 84 65 85 41 86
REMARK SMILES IDX 42 87 51 88 43 89 44 90 50 91 52 92 45 93 46 94 47 95 48 96
REMARK SMILES IDX 49 97
REMARK H PARENT 94 16 73 47 39 58
REMARK Flexibility Score: inf
ROOT
ATOM      1  O   UNL A   1      33.558  34.329  30.627  1.00  0.00    -0.374 OA
ENDROOT
BRANCH   1   2
ATOM      2  C   UNL A   1      34.399  34.242  31.783  1.00  0.00     0.202 C 
BRANCH   2   3
ATOM      3  C   UNL A   1      34.441  32.888  32.501  1.00  0.00     0.261 C 
BRANCH   3   4
ATOM      4  O   UNL A   1      35.787  32.370  32.556  1.00  0.00    -0.463 OA
BRANCH   4   5
ATOM      5  C   UNL A   1      36.571  32.825  33.574  1.00  0.00     0.313 C 
ATOM      6  O   UNL A   1      36.197  32.926  34.737  1.00  0.00    -0.252 OA
BRANCH   5   7
ATOM      7  C   UNL A   1      37.974  33.238  33.099  1.00  0.00     0.130 C 
ATOM      8  C   UNL A   1      38.128  33.428  31.589  1.00  0.00     0.025 C 
BRANCH   7   9
ATOM      9  C   UNL A   1      39.036  32.320  33.705  1.00  0.00     0.009 A 
ATOM     10  C   UNL A   1      39.168  31.017  33.192  1.00  0.00     0.020 A 
ATOM     11  C   UNL A   1      39.982  32.735  34.651  1.00  0.00     0.119 A 
ATOM     12  C   UNL A   1      40.241  30.198  33.572  1.00  0.00     0.023 A 
ATOM     13  C   UNL A   1      41.108  31.974  34.951  1.00  0.00     0.047 A 
ATOM     14  C   UNL A   1      41.252  30.713  34.390  1.00  0.00     0.016 A 
BRANCH  11  15
ATOM     15  O   UNL A   1      39.850  33.886  35.360  1.00  0.00    -0.508 OA
ATOM     16  H   UNL A   1      39.147  34.475  35.170  1.00  0.00     0.293 HD
ENDBRANCH  11  15
BRANCH  12  17
ATOM     17  C   UNL A   1      40.282  28.793  33.081  1.00  0.00     0.193 C 
ATOM     18  O   UNL A   1      39.355  28.335  32.420  1.00  0.00    -0.289 OA
BRANCH  17  19
ATOM     19  C   UNL A   1      41.443  27.927  33.391  1.00  0.00     0.022 A 
ATOM     20  C   UNL A   1      42.491  27.864  32.469  1.00  0.00     0.012 A 
ATOM     21  C   UNL A   1      41.514  27.201  34.589  1.00  0.00     0.012 A 
ATOM     22  C   UNL A   1      43.633  27.124  32.772  1.00  0.00     0.001 A 
ATOM     23  C   UNL A   1      42.663  26.471  34.891  1.00  0.00     0.001 A 
ATOM     24  C   UNL A   1      43.723  26.440  33.986  1.00  0.00     0.000 A 
ENDBRANCH  17  19
ENDBRANCH  12  17
ENDBRANCH   7   9
ENDBRANCH   5   7
ENDBRANCH   4   5
ENDBRANCH   3   4
ENDBRANCH   2   3
ENDBRANCH   1   2
BRANCH   1  25
ATOM     25  C   UNL A   1      34.219  34.481  29.375  1.00  0.00     0.202 C 
BRANCH  25  26
ATOM     26  C   UNL A   1      34.273  33.245  28.469  1.00  0.00     0.261 C 
BRANCH  26  27
ATOM     27  O   UNL A   1      34.752  32.086  29.165  1.00  0.00    -0.460 OA
BRANCH  27  28
ATOM     28  C   UNL A   1      34.688  30.950  28.432  1.00  0.00     0.338 C 
ATOM     29  O   UNL A   1      33.763  30.580  27.720  1.00  0.00    -0.246 OA
BRANCH  28  30
ATOM     30  C   UNL A   1      35.988  30.263  28.453  1.00  0.00     0.060 A 
ATOM     31  C   UNL A   1      36.419  29.759  29.686  1.00  0.00     0.016 A 
ATOM     32  C   UNL A   1      36.794  30.160  27.317  1.00  0.00     0.016 A 
ATOM     33  C   UNL A   1      37.689  29.209  29.805  1.00  0.00     0.010 A 
ATOM     34  C   UNL A   1      38.075  29.611  27.440  1.00  0.00     0.010 A 
ATOM     35  C   UNL A   1      38.540  29.175  28.693  1.00  0.00    -0.014 A 
BRANCH  35  36
ATOM     36  C   UNL A   1      39.969  28.842  28.898  1.00  0.00     0.031 A 
ATOM     37  C   UNL A   1      40.873  29.883  29.499  1.00  0.00     0.074 A 
ATOM     38  C   UNL A   1      40.433  27.613  28.609  1.00  0.00     0.049 A 
ATOM     39  N   UNL A   1      42.148  29.813  29.776  1.00  0.00    -0.248 NA
ATOM     40  C   UNL A   1      40.256  31.178  29.832  1.00  0.00     0.031 C 
ATOM     41  C   UNL A   1      39.632  26.517  28.065  1.00  0.00     0.029 A 
ATOM     42  N   UNL A   1      41.691  27.083  28.736  1.00  0.00    -0.354 N 
ATOM     43  C   UNL A   1      42.488  31.051  30.308  1.00  0.00     0.074 A 
ATOM     44  C   UNL A   1      41.293  31.866  30.287  1.00  0.00     0.031 C 
ATOM     45  C   UNL A   1      40.422  25.440  27.903  1.00  0.00     0.029 A 
ATOM     46  C   UNL A   1      41.785  25.782  28.303  1.00  0.00     0.049 A 
ATOM     47  H   UNL A   1      42.453  27.585  29.103  1.00  0.00     0.167 HD
ATOM     48  C   UNL A   1      43.688  31.467  30.780  1.00  0.00     0.037 A 
ATOM     49  C   UNL A   1      42.857  24.968  28.224  1.00  0.00     0.037 A 
ATOM     50  C   UNL A   1      44.868  30.644  30.802  1.00  0.00     0.049 A 
ATOM     51  C   UNL A   1      44.195  25.475  28.699  1.00  0.00     0.074 A 
ATOM     52  C   UNL A   1      46.128  30.958  31.279  1.00  0.00     0.029 A 
ATOM     53  N   UNL A   1      44.934  29.344  30.320  1.00  0.00    -0.354 N 
ATOM     54  N   UNL A   1      44.498  26.640  29.222  1.00  0.00    -0.248 NA
ATOM     55  C   UNL A   1      45.335  24.556  28.576  1.00  0.00     0.031 C 
ATOM     56  C   UNL A   1      46.970  29.869  31.035  1.00  0.00     0.029 A 
ATOM     57  C   UNL A   1      46.222  28.853  30.460  1.00  0.00     0.049 A 
ATOM     58  H   UNL A   1      44.178  28.845  29.934  1.00  0.00     0.167 HD
ATOM     59  C   UNL A   1      45.857  26.584  29.517  1.00  0.00     0.074 A 
ATOM     60  C   UNL A   1      46.312  25.267  29.123  1.00  0.00     0.031 C 
ATOM     61  C   UNL A   1      46.654  27.534  30.066  1.00  0.00     0.037 A 
BRANCH  48  62
ATOM     62  C   UNL A   1      43.790  32.882  31.280  1.00  0.00     0.058 A 
ATOM     63  C   UNL A   1      43.793  33.982  30.408  1.00  0.00     0.135 A 
ATOM     64  C   UNL A   1      43.856  33.143  32.659  1.00  0.00     0.135 A 
ATOM     65  F   UNL A   1      43.752  33.791  29.078  1.00  0.00    -0.206 F 
ATOM     66  C   UNL A   1      43.883  35.287  30.881  1.00  0.00     0.059 A 
ATOM     67  C   UNL A   1      43.919  34.440  33.157  1.00  0.00     0.059 A 
ATOM     68  F   UNL A   1      43.861  32.129  33.539  1.00  0.00    -0.206 F 
ATOM     69  C   UNL A   1      43.946  35.506  32.259  1.00  0.00     0.060 A 
BRANCH  69  70
ATOM     70  S   UNL A   1      44.059  37.205  32.860  1.00  0.00     0.124 S 
ATOM     71  O   UNL A   1      45.359  37.194  33.523  1.00  0.00    -0.237 OA
ATOM     72  O   UNL A   1      43.986  37.978  31.624  1.00  0.00    -0.237 OA
ATOM     73  O   UNL A   1      42.905  37.331  33.743  1.00  0.00    -0.744 OA
ENDBRANCH  69  70
ENDBRANCH  48  62
BRANCH  49  74
ATOM     74  C   UNL A   1      42.710  23.597  27.669  1.00  0.00     0.058 A 
ATOM     75  C   UNL A   1      42.481  22.495  28.505  1.00  0.00     0.135 A 
ATOM     76  C   UNL A   1      42.790  23.361  26.288  1.00  0.00     0.135 A 
ATOM     77  F   UNL A   1      42.406  22.665  29.834  1.00  0.00    -0.206 F 
ATOM     78  C   UNL A   1      42.351  21.206  27.995  1.00  0.00     0.059 A 
ATOM     79  C   UNL A   1      42.637  22.087  25.751  1.00  0.00     0.059 A 
ATOM     80  F   UNL A   1      42.997  24.383  25.442  1.00  0.00    -0.206 F 
ATOM     81  C   UNL A   1      42.426  21.014  26.615  1.00  0.00     0.060 A 
BRANCH  81  82
ATOM     82  S   UNL A   1      42.207  19.346  25.959  1.00  0.00     0.124 S 
ATOM     83  O   UNL A   1      42.757  18.532  27.036  1.00  0.00    -0.237 OA
ATOM     84  O   UNL A   1      40.760  19.276  25.779  1.00  0.00    -0.237 OA
ATOM     85  O   UNL A   1      42.984  19.367  24.723  1.00  0.00    -0.744 OA
ENDBRANCH  81  82
ENDBRANCH  49  74
BRANCH  61  86
ATOM     86  C   UNL A   1      48.094  27.174  30.310  1.00  0.00     0.058 A 
ATOM     87  C   UNL A   1      49.076  27.348  29.322  1.00  0.00     0.135 A 
ATOM     88  C   UNL A   1      48.504  26.703  31.567  1.00  0.00     0.135 A 
ATOM     89  F   UNL A   1      48.737  27.790  28.101  1.00  0.00    -0.206 F 
ATOM     90  C   UNL A   1      50.411  27.042  29.566  1.00  0.00     0.059 A 
ATOM     91  C   UNL A   1      49.837  26.419  31.843  1.00  0.00     0.059 A 
ATOM     92  F   UNL A   1      47.607  26.530  32.551  1.00  0.00    -0.206 F 
ATOM     93  C   UNL A   1      50.783  26.582  30.831  1.00  0.00     0.060 A 
BRANCH  93  94
ATOM     94  S   UNL A   1      52.524  26.222  31.143  1.00  0.00     0.124 S 
ATOM     95  O   UNL A   1      53.080  26.262  29.796  1.00  0.00    -0.237 OA
ATOM     96  O   UNL A   1      52.916  27.317  32.025  1.00  0.00    -0.237 OA
ATOM     97  O   UNL A   1      52.491  24.904  31.769  1.00  0.00    -0.744 OA
ENDBRANCH  93  94
ENDBRANCH  61  86
ENDBRANCH  35  36
ENDBRANCH  28  30
ENDBRANCH  27  28
ENDBRANCH  26  27
ENDBRANCH  25  26
ENDBRANCH   1  25
TORSDOF 21
ENDMDL
MODEL 3
REMARK VINA RESULT:     -10.7      3.946     10.150
REMARK SMILES C[C@@H](C(=O)OCCOCCOC(=O)c1ccc(-c2c3nc(c(-c4c(F)cc(S(=O)(=O)[O-])cc4F)c4ccc([nH]4)c(-c4c(F)cc(S(=O)(=O)[O-])cc4F)c4nc(c(-c5c(F)cc(S(=O)(=O)[O-])cc5F)c5ccc2[nH]5)C=C4)C=C3)cc1)c1cc(C(=O)c2ccccc2)ccc1O
REMARK SMILES IDX 8 1 7 2 6 3 5 4 3 5 4 6 2 7 1 8 80 9 81 10 93 11 82 12 92 13
REMARK SMILES IDX 91 14 94 15 83 17 84 18 85 19 86 20 90 21 87 22 89 23 88 24
REMARK SMILES IDX 9 25 10 26 11 27 12 28 13 29 14 30 15 31 79 32 16 33 78 34
REMARK SMILES IDX 17 35 18 36 19 37 72 38 20 39 77 40 71 41 73 42 21 43 76 44
REMARK SMILES IDX 70 45 69 46 22 48 56 49 35 50 55 51 36 52 39 53 54 54 74 55
REMARK SMILES IDX 37 56 38 57 53 59 75 60 40 61 23 62 24 63 33 64 25 65 26 66
REMARK SMILES IDX 32 67 34 68 27 69 28 70 29 71 30 72 31 73 57 74 58 75 67 76
REMARK SMILES IDX 59 77 60 78 66 79 68 80 61 81 62 82 63 83 64 84 65 85 41 86
REMARK SMILES IDX 42 87 51 88 43 89 44 90 50 91 52 92 45 93 46 94 47 95 48 96
REMARK SMILES IDX 49 97
REMARK H PARENT 94 16 73 47 39 58
REMARK Flexibility Score: inf
ROOT
ATOM      1  O   UNL A   1      33.560  34.032  30.117  1.00  0.00    -0.374 OA
ENDROOT
BRANCH   1   2
ATOM      2  C   UNL A   1      33.970  35.020  31.069  1.00  0.00     0.202 C 
BRANCH   2   3
ATOM      3  C   UNL A   1      34.253  34.526  32.492  1.00  0.00     0.261 C 
BRANCH   3   4
ATOM      4  O   UNL A   1      34.834  33.204  32.478  1.00  0.00    -0.463 OA
BRANCH   4   5
ATOM      5  C   UNL A   1      35.981  33.039  33.195  1.00  0.00     0.313 C 
ATOM      6  O   UNL A   1      36.014  32.854  34.407  1.00  0.00    -0.252 OA
BRANCH   5   7
ATOM      7  C   UNL A   1      37.244  33.145  32.324  1.00  0.00     0.130 C 
ATOM      8  C   UNL A   1      37.062  32.762  30.854  1.00  0.00     0.025 C 
BRANCH   7   9
ATOM      9  C   UNL A   1      38.419  32.431  32.994  1.00  0.00     0.009 A 
ATOM     10  C   UNL A   1      38.533  31.038  32.841  1.00  0.00     0.020 A 
ATOM     11  C   UNL A   1      39.470  33.092  33.642  1.00  0.00     0.119 A 
ATOM     12  C   UNL A   1      39.682  30.358  33.267  1.00  0.00     0.023 A 
ATOM     13  C   UNL A   1      40.658  32.446  33.968  1.00  0.00     0.047 A 
ATOM     14  C   UNL A   1      40.775  31.080  33.757  1.00  0.00     0.016 A 
BRANCH  11  15
ATOM     15  O   UNL A   1      39.391  34.394  34.022  1.00  0.00    -0.508 OA
ATOM     16  H   UNL A   1      39.300  35.067  33.375  1.00  0.00     0.293 HD
ENDBRANCH  11  15
BRANCH  12  17
ATOM     17  C   UNL A   1      39.713  28.872  33.177  1.00  0.00     0.193 C 
ATOM     18  O   UNL A   1      38.676  28.234  33.023  1.00  0.00    -0.289 OA
BRANCH  17  19
ATOM     19  C   UNL A   1      41.000  28.143  33.279  1.00  0.00     0.022 A 
ATOM     20  C   UNL A   1      41.907  28.245  32.221  1.00  0.00     0.012 A 
ATOM     21  C   UNL A   1      41.323  27.387  34.414  1.00  0.00     0.012 A 
ATOM     22  C   UNL A   1      43.158  27.641  32.324  1.00  0.00     0.001 A 
ATOM     23  C   UNL A   1      42.581  26.793  34.516  1.00  0.00     0.001 A 
ATOM     24  C   UNL A   1      43.499  26.928  33.475  1.00  0.00     0.000 A 
ENDBRANCH  17  19
ENDBRANCH  12  17
ENDBRANCH   7   9
ENDBRANCH   5   7
ENDBRANCH   4   5
ENDBRANCH   3   4
ENDBRANCH   2   3
ENDBRANCH   1   2
BRANCH   1  25
ATOM     25  C   UNL A   1      34.090  34.162  28.802  1.00  0.00     0.202 C 
BRANCH  25  26
ATOM     26  C   UNL A   1      34.487  32.865  28.088  1.00  0.00     0.261 C 
BRANCH  26  27
ATOM     27  O   UNL A   1      34.470  31.734  28.970  1.00  0.00    -0.460 OA
BRANCH  27  28
ATOM     28  C   UNL A   1      34.528  30.545  28.327  1.00  0.00     0.338 C 
ATOM     29  O   UNL A   1      33.649  30.024  27.652  1.00  0.00    -0.246 OA
BRANCH  28  30
ATOM     30  C   UNL A   1      35.894  30.004  28.392  1.00  0.00     0.060 A 
ATOM     31  C   UNL A   1      36.345  29.569  29.644  1.00  0.00     0.016 A 
ATOM     32  C   UNL A   1      36.736  29.973  27.278  1.00  0.00     0.016 A 
ATOM     33  C   UNL A   1      37.664  29.163  29.803  1.00  0.00     0.010 A 
ATOM     34  C   UNL A   1      38.065  29.569  27.442  1.00  0.00     0.010 A 
ATOM     35  C   UNL A   1      38.542  29.205  28.713  1.00  0.00    -0.014 A 
BRANCH  35  36
ATOM     36  C   UNL A   1      39.993  29.033  28.958  1.00  0.00     0.031 A 
ATOM     37  C   UNL A   1      40.632  27.716  28.611  1.00  0.00     0.074 A 
ATOM     38  C   UNL A   1      40.734  30.054  29.425  1.00  0.00     0.049 A 
ATOM     39  N   UNL A   1      41.878  27.342  28.730  1.00  0.00    -0.248 NA
ATOM     40  C   UNL A   1      39.744  26.680  28.054  1.00  0.00     0.031 C 
ATOM     41  C   UNL A   1      40.224  31.385  29.751  1.00  0.00     0.029 A 
ATOM     42  N   UNL A   1      42.075  30.128  29.701  1.00  0.00    -0.354 N 
ATOM     43  C   UNL A   1      41.925  26.030  28.272  1.00  0.00     0.074 A 
ATOM     44  C   UNL A   1      40.577  25.661  27.901  1.00  0.00     0.031 C 
ATOM     45  C   UNL A   1      41.242  32.147  30.186  1.00  0.00     0.029 A 
ATOM     46  C   UNL A   1      42.466  31.349  30.198  1.00  0.00     0.049 A 
ATOM     47  H   UNL A   1      42.697  29.380  29.557  1.00  0.00     0.167 HD
ATOM     48  C   UNL A   1      42.999  25.213  28.163  1.00  0.00     0.037 A 
ATOM     49  C   UNL A   1      43.675  31.764  30.627  1.00  0.00     0.037 A 
ATOM     50  C   UNL A   1      44.337  25.596  28.529  1.00  0.00     0.049 A 
ATOM     51  C   UNL A   1      44.842  30.815  30.553  1.00  0.00     0.074 A 
ATOM     52  C   UNL A   1      45.501  24.853  28.437  1.00  0.00     0.029 A 
ATOM     53  N   UNL A   1      44.689  26.827  29.063  1.00  0.00    -0.354 N 
ATOM     54  N   UNL A   1      44.878  29.585  30.095  1.00  0.00    -0.248 NA
ATOM     55  C   UNL A   1      46.134  31.310  31.048  1.00  0.00     0.031 C 
ATOM     56  C   UNL A   1      46.547  25.614  28.967  1.00  0.00     0.029 A 
ATOM     57  C   UNL A   1      46.047  26.854  29.335  1.00  0.00     0.049 A 
ATOM     58  H   UNL A   1      44.066  27.571  29.227  1.00  0.00     0.167 HD
ATOM     59  C   UNL A   1      46.200  29.169  30.221  1.00  0.00     0.074 A 
ATOM     60  C   UNL A   1      46.932  30.283  30.788  1.00  0.00     0.031 C 
ATOM     61  C   UNL A   1      46.759  27.977  29.895  1.00  0.00     0.037 A 
BRANCH  48  62
ATOM     62  C   UNL A   1      42.765  23.815  27.656  1.00  0.00     0.058 A 
ATOM     63  C   UNL A   1      42.588  22.728  28.526  1.00  0.00     0.135 A 
ATOM     64  C   UNL A   1      42.687  23.567  26.276  1.00  0.00     0.135 A 
ATOM     65  F   UNL A   1      42.672  22.905  29.855  1.00  0.00    -0.206 F 
ATOM     66  C   UNL A   1      42.367  21.440  28.047  1.00  0.00     0.059 A 
ATOM     67  C   UNL A   1      42.441  22.293  25.774  1.00  0.00     0.059 A 
ATOM     68  F   UNL A   1      42.854  24.568  25.398  1.00  0.00    -0.206 F 
ATOM     69  C   UNL A   1      42.296  21.233  26.668  1.00  0.00     0.060 A 
BRANCH  69  70
ATOM     70  S   UNL A   1      42.005  19.558  26.060  1.00  0.00     0.124 S 
ATOM     71  O   UNL A   1      42.500  18.754  27.174  1.00  0.00    -0.237 OA
ATOM     72  O   UNL A   1      40.559  19.544  25.863  1.00  0.00    -0.237 OA
ATOM     73  O   UNL A   1      42.801  19.495  24.839  1.00  0.00    -0.744 OA
ENDBRANCH  69  70
ENDBRANCH  48  62
BRANCH  49  74
ATOM     74  C   UNL A   1      43.838  33.138  31.170  1.00  0.00     0.058 A 
ATOM     75  C   UNL A   1      43.928  34.251  30.321  1.00  0.00     0.135 A 
ATOM     76  C   UNL A   1      43.901  33.368  32.554  1.00  0.00     0.135 A 
ATOM     77  F   UNL A   1      43.882  34.083  28.990  1.00  0.00    -0.206 F 
ATOM     78  C   UNL A   1      44.089  35.539  30.821  1.00  0.00     0.059 A 
ATOM     79  C   UNL A   1      44.035  34.650  33.079  1.00  0.00     0.059 A 
ATOM     80  F   UNL A   1      43.808  32.340  33.412  1.00  0.00    -0.206 F 
ATOM     81  C   UNL A   1      44.138  35.728  32.203  1.00  0.00     0.060 A 
BRANCH  81  82
ATOM     82  S   UNL A   1      44.298  37.410  32.843  1.00  0.00     0.124 S 
ATOM     83  O   UNL A   1      43.310  37.412  33.915  1.00  0.00    -0.237 OA
ATOM     84  O   UNL A   1      45.696  37.446  33.261  1.00  0.00    -0.237 OA
ATOM     85  O   UNL A   1      43.976  38.240  31.685  1.00  0.00    -0.744 OA
ENDBRANCH  81  82
ENDBRANCH  49  74
BRANCH  61  86
ATOM     86  C   UNL A   1      48.239  27.824  30.108  1.00  0.00     0.058 A 
ATOM     87  C   UNL A   1      48.764  27.271  31.287  1.00  0.00     0.135 A 
ATOM     88  C   UNL A   1      49.142  28.183  29.094  1.00  0.00     0.135 A 
ATOM     89  F   UNL A   1      47.944  26.916  32.290  1.00  0.00    -0.206 F 
ATOM     90  C   UNL A   1      50.133  27.103  31.463  1.00  0.00     0.059 A 
ATOM     91  C   UNL A   1      50.514  27.997  29.237  1.00  0.00     0.059 A 
ATOM     92  F   UNL A   1      48.693  28.705  27.941  1.00  0.00    -0.206 F 
ATOM     93  C   UNL A   1      51.000  27.466  30.431  1.00  0.00     0.060 A 
BRANCH  93  94
ATOM     94  S   UNL A   1      52.773  27.211  30.660  1.00  0.00     0.124 S 
ATOM     95  O   UNL A   1      52.810  26.556  31.962  1.00  0.00    -0.237 OA
ATOM     96  O   UNL A   1      53.118  26.371  29.516  1.00  0.00    -0.237 OA
ATOM     97  O   UNL A   1      53.318  28.565  30.621  1.00  0.00    -0.744 OA
ENDBRANCH  93  94
ENDBRANCH  61  86
ENDBRANCH  35  36
ENDBRANCH  28  30
ENDBRANCH  27  28
ENDBRANCH  26  27
ENDBRANCH  25  26
ENDBRANCH   1  25
TORSDOF 21
ENDMDL
