MODEL 1
REMARK VINA RESULT:      -9.2      0.000      0.000
REMARK SMILES CC[NH2+][C@]1(C(=O)OCCOCCOC(=O)c2ccc(-c3c4nc(c(-c5c(F)cc(S(=O)(=O)[O-])cc5F)c5ccc([nH]5)c(-c5c(F)cc(S(=O)(=O)[O-])cc5F)c5nc(c(-c6c(F)cc(S(=O)(=O)[O-])cc6F)c6ccc3[nH]6)C=C5)C=C4)cc2)CC[C@H](OCC)C1
REMARK SMILES IDX 11 1 10 2 9 3 8 4 7 5 5 6 6 7 4 8 82 9 88 10 83 11 84 12
REMARK SMILES IDX 3 13 2 16 1 17 85 18 86 19 87 20 12 21 13 22 14 23 15 24
REMARK SMILES IDX 16 25 17 26 81 27 18 28 80 29 19 30 20 31 21 32 74 33 22 34
REMARK SMILES IDX 79 35 73 36 75 37 23 38 78 39 72 40 71 41 24 43 58 44 37 45
REMARK SMILES IDX 57 46 38 47 41 48 56 49 76 50 39 51 40 52 55 54 77 55 42 56
REMARK SMILES IDX 25 57 26 58 35 59 27 60 28 61 34 62 36 63 29 64 30 65 31 66
REMARK SMILES IDX 32 67 33 68 59 69 60 70 69 71 61 72 62 73 68 74 70 75 63 76
REMARK SMILES IDX 64 77 65 78 66 79 67 80 43 81 44 82 53 83 45 84 46 85 52 86
REMARK SMILES IDX 54 87 47 88 48 89 49 90 50 91 51 92
REMARK H PARENT 3 14 3 15 75 42 41 53
REMARK Flexibility Score: inf
ROOT
ATOM      1  C   UNL A   1      39.112  22.106  26.160  1.00  0.00     0.202 C 
ENDROOT
BRANCH   1   2
ATOM      2  O   UNL A   1      40.010  21.284  26.901  1.00  0.00    -0.374 OA
BRANCH   2   3
ATOM      3  C   UNL A   1      40.500  20.120  26.225  1.00  0.00     0.202 C 
BRANCH   3   4
ATOM      4  C   UNL A   1      41.994  19.843  26.414  1.00  0.00     0.261 C 
BRANCH   4   5
ATOM      5  O   UNL A   1      42.681  21.062  26.763  1.00  0.00    -0.459 OA
BRANCH   5   6
ATOM      6  C   UNL A   1      43.544  21.571  25.840  1.00  0.00     0.368 C 
ATOM      7  O   UNL A   1      43.793  21.023  24.771  1.00  0.00    -0.245 OA
BRANCH   6   8
ATOM      8  C   UNL A   1      44.104  22.964  26.257  1.00  0.00     0.196 C 
ATOM      9  C   UNL A   1      45.630  22.802  26.475  1.00  0.00     0.084 C 
ATOM     10  C   UNL A   1      44.123  23.984  25.102  1.00  0.00     0.113 C 
ATOM     11  C   UNL A   1      46.255  24.176  26.253  1.00  0.00     0.039 C 
ATOM     12  C   UNL A   1      45.246  24.975  25.418  1.00  0.00     0.125 C 
BRANCH   8  13
ATOM     13  N   UNL A   1      43.497  23.466  27.520  1.00  0.00    -0.332 N 
ATOM     14  H   UNL A   1      43.318  24.464  27.406  1.00  0.00     0.347 HD
ATOM     15  H   UNL A   1      42.656  22.907  27.663  1.00  0.00     0.347 HD
BRANCH  13  16
ATOM     16  C   UNL A   1      44.304  23.290  28.730  1.00  0.00     0.257 C 
ATOM     17  C   UNL A   1      44.295  24.572  29.549  1.00  0.00     0.071 C 
ENDBRANCH  13  16
ENDBRANCH   8  13
BRANCH  12  18
ATOM     18  O   UNL A   1      44.863  26.103  26.198  1.00  0.00    -0.378 OA
BRANCH  18  19
ATOM     19  C   UNL A   1      45.640  27.292  26.090  1.00  0.00     0.157 C 
ATOM     20  C   UNL A   1      46.149  27.627  24.699  1.00  0.00     0.035 C 
ENDBRANCH  18  19
ENDBRANCH  12  18
ENDBRANCH   6   8
ENDBRANCH   5   6
ENDBRANCH   4   5
ENDBRANCH   3   4
ENDBRANCH   2   3
ENDBRANCH   1   2
BRANCH   1  21
ATOM     21  C   UNL A   1      39.209  23.609  26.423  1.00  0.00     0.261 C 
BRANCH  21  22
ATOM     22  O   UNL A   1      40.569  24.018  26.647  1.00  0.00    -0.460 OA
BRANCH  22  23
ATOM     23  C   UNL A   1      40.793  25.332  26.414  1.00  0.00     0.338 C 
ATOM     24  O   UNL A   1      40.790  25.897  25.328  1.00  0.00    -0.246 OA
BRANCH  23  25
ATOM     25  C   UNL A   1      40.888  26.071  27.687  1.00  0.00     0.060 A 
ATOM     26  C   UNL A   1      39.829  25.915  28.590  1.00  0.00     0.016 A 
ATOM     27  C   UNL A   1      41.938  26.950  27.967  1.00  0.00     0.016 A 
ATOM     28  C   UNL A   1      39.777  26.692  29.742  1.00  0.00     0.010 A 
ATOM     29  C   UNL A   1      41.882  27.734  29.126  1.00  0.00     0.010 A 
ATOM     30  C   UNL A   1      40.777  27.641  29.992  1.00  0.00    -0.014 A 
BRANCH  30  31
ATOM     31  C   UNL A   1      40.560  28.640  31.066  1.00  0.00     0.031 A 
ATOM     32  C   UNL A   1      41.417  28.575  32.302  1.00  0.00     0.074 A 
ATOM     33  C   UNL A   1      39.662  29.630  30.912  1.00  0.00     0.049 A 
ATOM     34  N   UNL A   1      41.425  29.359  33.348  1.00  0.00    -0.248 NA
ATOM     35  C   UNL A   1      42.399  27.480  32.364  1.00  0.00     0.031 C 
ATOM     36  C   UNL A   1      38.801  29.814  29.746  1.00  0.00     0.029 A 
ATOM     37  N   UNL A   1      39.332  30.669  31.744  1.00  0.00    -0.354 N 
ATOM     38  C   UNL A   1      42.406  28.853  34.194  1.00  0.00     0.074 A 
ATOM     39  C   UNL A   1      42.949  27.675  33.553  1.00  0.00     0.031 C 
ATOM     40  C   UNL A   1      38.034  30.902  29.938  1.00  0.00     0.029 A 
ATOM     41  C   UNL A   1      38.335  31.476  31.248  1.00  0.00     0.049 A 
ATOM     42  H   UNL A   1      39.767  30.823  32.614  1.00  0.00     0.167 HD
ATOM     43  C   UNL A   1      42.823  29.334  35.389  1.00  0.00     0.037 A 
ATOM     44  C   UNL A   1      37.730  32.548  31.796  1.00  0.00     0.037 A 
ATOM     45  C   UNL A   1      42.284  30.510  36.016  1.00  0.00     0.049 A 
ATOM     46  C   UNL A   1      38.180  33.038  33.147  1.00  0.00     0.074 A 
ATOM     47  C   UNL A   1      42.652  31.091  37.218  1.00  0.00     0.029 A 
ATOM     48  N   UNL A   1      41.257  31.286  35.496  1.00  0.00    -0.354 N 
ATOM     49  N   UNL A   1      39.125  32.562  33.925  1.00  0.00    -0.248 NA
ATOM     50  C   UNL A   1      37.489  34.214  33.693  1.00  0.00     0.031 C 
ATOM     51  C   UNL A   1      41.819  32.192  37.445  1.00  0.00     0.029 A 
ATOM     52  C   UNL A   1      40.964  32.326  36.361  1.00  0.00     0.049 A 
ATOM     53  H   UNL A   1      40.805  31.120  34.637  1.00  0.00     0.167 HD
ATOM     54  C   UNL A   1      39.158  33.396  35.039  1.00  0.00     0.074 A 
ATOM     55  C   UNL A   1      38.145  34.411  34.828  1.00  0.00     0.031 C 
ATOM     56  C   UNL A   1      39.955  33.330  36.135  1.00  0.00     0.037 A 
BRANCH  43  57
ATOM     57  C   UNL A   1      43.903  28.570  36.106  1.00  0.00     0.058 A 
ATOM     58  C   UNL A   1      45.257  28.918  35.989  1.00  0.00     0.135 A 
ATOM     59  C   UNL A   1      43.573  27.492  36.944  1.00  0.00     0.135 A 
ATOM     60  F   UNL A   1      45.630  29.927  35.186  1.00  0.00    -0.206 F 
ATOM     61  C   UNL A   1      46.250  28.208  36.658  1.00  0.00     0.059 A 
ATOM     62  C   UNL A   1      44.546  26.784  37.642  1.00  0.00     0.059 A 
ATOM     63  F   UNL A   1      42.292  27.115  37.088  1.00  0.00    -0.206 F 
ATOM     64  C   UNL A   1      45.885  27.142  37.481  1.00  0.00     0.060 A 
BRANCH  64  65
ATOM     65  S   UNL A   1      47.182  26.230  38.344  1.00  0.00     0.124 S 
ATOM     66  O   UNL A   1      48.340  27.092  38.121  1.00  0.00    -0.237 OA
ATOM     67  O   UNL A   1      46.678  26.188  39.713  1.00  0.00    -0.237 OA
ATOM     68  O   UNL A   1      47.215  24.946  37.650  1.00  0.00    -0.744 OA
ENDBRANCH  64  65
ENDBRANCH  43  57
BRANCH  44  69
ATOM     69  C   UNL A   1      36.626  33.226  31.068  1.00  0.00     0.058 A 
ATOM     70  C   UNL A   1      35.291  33.088  31.476  1.00  0.00     0.135 A 
ATOM     71  C   UNL A   1      36.888  34.033  29.949  1.00  0.00     0.135 A 
ATOM     72  F   UNL A   1      34.989  32.319  32.533  1.00  0.00    -0.206 F 
ATOM     73  C   UNL A   1      34.253  33.717  30.795  1.00  0.00     0.059 A 
ATOM     74  C   UNL A   1      35.869  34.691  29.267  1.00  0.00     0.059 A 
ATOM     75  F   UNL A   1      38.150  34.206  29.526  1.00  0.00    -0.206 F 
ATOM     76  C   UNL A   1      34.553  34.519  29.692  1.00  0.00     0.060 A 
BRANCH  76  77
ATOM     77  S   UNL A   1      33.206  35.373  28.847  1.00  0.00     0.124 S 
ATOM     78  O   UNL A   1      32.605  34.288  28.080  1.00  0.00    -0.237 OA
ATOM     79  O   UNL A   1      32.415  35.881  29.964  1.00  0.00    -0.237 OA
ATOM     80  O   UNL A   1      33.897  36.394  28.064  1.00  0.00    -0.744 OA
ENDBRANCH  76  77
ENDBRANCH  44  69
BRANCH  56  81
ATOM     81  C   UNL A   1      39.787  34.401  37.177  1.00  0.00     0.058 A 
ATOM     82  C   UNL A   1      38.993  34.203  38.317  1.00  0.00     0.135 A 
ATOM     83  C   UNL A   1      40.468  35.622  37.056  1.00  0.00     0.135 A 
ATOM     84  F   UNL A   1      38.317  33.054  38.479  1.00  0.00    -0.206 F 
ATOM     85  C   UNL A   1      38.857  35.190  39.288  1.00  0.00     0.059 A 
ATOM     86  C   UNL A   1      40.368  36.614  38.028  1.00  0.00     0.059 A 
ATOM     87  F   UNL A   1      41.251  35.858  35.992  1.00  0.00    -0.206 F 
ATOM     88  C   UNL A   1      39.548  36.393  39.134  1.00  0.00     0.060 A 
BRANCH  88  89
ATOM     89  S   UNL A   1      39.383  37.658  40.411  1.00  0.00     0.124 S 
ATOM     90  O   UNL A   1      40.674  38.334  40.324  1.00  0.00    -0.237 OA
ATOM     91  O   UNL A   1      38.232  38.427  39.946  1.00  0.00    -0.237 OA
ATOM     92  O   UNL A   1      39.161  36.884  41.629  1.00  0.00    -0.744 OA
ENDBRANCH  88  89
ENDBRANCH  56  81
ENDBRANCH  30  31
ENDBRANCH  23  25
ENDBRANCH  22  23
ENDBRANCH  21  22
ENDBRANCH   1  21
TORSDOF 21
ENDMDL
MODEL 2
REMARK VINA RESULT:      -9.1      1.139      3.238
REMARK SMILES CC[NH2+][C@]1(C(=O)OCCOCCOC(=O)c2ccc(-c3c4nc(c(-c5c(F)cc(S(=O)(=O)[O-])cc5F)c5ccc([nH]5)c(-c5c(F)cc(S(=O)(=O)[O-])cc5F)c5nc(c(-c6c(F)cc(S(=O)(=O)[O-])cc6F)c6ccc3[nH]6)C=C5)C=C4)cc2)CC[C@H](OCC)C1
REMARK SMILES IDX 11 1 10 2 9 3 8 4 7 5 5 6 6 7 4 8 82 9 88 10 83 11 84 12
REMARK SMILES IDX 3 13 2 16 1 17 85 18 86 19 87 20 12 21 13 22 14 23 15 24
REMARK SMILES IDX 16 25 17 26 81 27 18 28 80 29 19 30 20 31 21 32 74 33 22 34
REMARK SMILES IDX 79 35 73 36 75 37 23 38 78 39 72 40 71 41 24 43 58 44 37 45
REMARK SMILES IDX 57 46 38 47 41 48 56 49 76 50 39 51 40 52 55 54 77 55 42 56
REMARK SMILES IDX 25 57 26 58 35 59 27 60 28 61 34 62 36 63 29 64 30 65 31 66
REMARK SMILES IDX 32 67 33 68 59 69 60 70 69 71 61 72 62 73 68 74 70 75 63 76
REMARK SMILES IDX 64 77 65 78 66 79 67 80 43 81 44 82 53 83 45 84 46 85 52 86
REMARK SMILES IDX 54 87 47 88 48 89 49 90 50 91 51 92
REMARK H PARENT 3 14 3 15 75 42 41 53
REMARK Flexibility Score: inf
ROOT
ATOM      1  C   UNL A   1      43.606  26.730  25.076  1.00  0.00     0.202 C 
ENDROOT
BRANCH   1   2
ATOM      2  O   UNL A   1      44.927  26.442  25.525  1.00  0.00    -0.374 OA
BRANCH   2   3
ATOM      3  C   UNL A   1      45.117  25.167  26.147  1.00  0.00     0.202 C 
BRANCH   3   4
ATOM      4  C   UNL A   1      46.573  24.701  26.240  1.00  0.00     0.261 C 
BRANCH   4   5
ATOM      5  O   UNL A   1      46.644  23.271  26.066  1.00  0.00    -0.459 OA
BRANCH   5   6
ATOM      6  C   UNL A   1      46.161  22.766  24.897  1.00  0.00     0.368 C 
ATOM      7  O   UNL A   1      46.311  23.314  23.809  1.00  0.00    -0.245 OA
BRANCH   6   8
ATOM      8  C   UNL A   1      45.480  21.378  25.088  1.00  0.00     0.196 C 
ATOM      9  C   UNL A   1      44.729  21.047  23.772  1.00  0.00     0.084 C 
ATOM     10  C   UNL A   1      46.481  20.206  25.106  1.00  0.00     0.113 C 
ATOM     11  C   UNL A   1      44.619  19.527  23.699  1.00  0.00     0.039 C 
ATOM     12  C   UNL A   1      45.712  18.973  24.620  1.00  0.00     0.125 C 
BRANCH   8  13
ATOM     13  N   UNL A   1      44.498  21.374  26.206  1.00  0.00    -0.332 N 
ATOM     14  H   UNL A   1      44.191  20.413  26.350  1.00  0.00     0.347 HD
ATOM     15  H   UNL A   1      44.987  21.779  27.004  1.00  0.00     0.347 HD
BRANCH  13  16
ATOM     16  C   UNL A   1      43.304  22.201  26.010  1.00  0.00     0.257 C 
ATOM     17  C   UNL A   1      42.055  21.385  26.305  1.00  0.00     0.071 C 
ENDBRANCH  13  16
ENDBRANCH   8  13
BRANCH  12  18
ATOM     18  O   UNL A   1      45.056  18.223  25.637  1.00  0.00    -0.378 OA
BRANCH  18  19
ATOM     19  C   UNL A   1      43.637  18.117  25.588  1.00  0.00     0.157 C 
ATOM     20  C   UNL A   1      42.927  18.103  26.930  1.00  0.00     0.035 C 
ENDBRANCH  18  19
ENDBRANCH  12  18
ENDBRANCH   6   8
ENDBRANCH   5   6
ENDBRANCH   4   5
ENDBRANCH   3   4
ENDBRANCH   2   3
ENDBRANCH   1   2
BRANCH   1  21
ATOM     21  C   UNL A   1      42.611  25.569  25.134  1.00  0.00     0.261 C 
BRANCH  21  22
ATOM     22  O   UNL A   1      41.272  26.035  25.370  1.00  0.00    -0.460 OA
BRANCH  22  23
ATOM     23  C   UNL A   1      40.627  25.374  26.358  1.00  0.00     0.338 C 
ATOM     24  O   UNL A   1      40.120  24.262  26.289  1.00  0.00    -0.246 OA
BRANCH  23  25
ATOM     25  C   UNL A   1      40.746  26.107  27.632  1.00  0.00     0.060 A 
ATOM     26  C   UNL A   1      39.704  25.950  28.553  1.00  0.00     0.016 A 
ATOM     27  C   UNL A   1      41.803  26.983  27.897  1.00  0.00     0.016 A 
ATOM     28  C   UNL A   1      39.674  26.722  29.710  1.00  0.00     0.010 A 
ATOM     29  C   UNL A   1      41.769  27.763  29.060  1.00  0.00     0.010 A 
ATOM     30  C   UNL A   1      40.680  27.668  29.945  1.00  0.00    -0.014 A 
BRANCH  30  31
ATOM     31  C   UNL A   1      40.484  28.663  31.026  1.00  0.00     0.031 A 
ATOM     32  C   UNL A   1      41.356  28.586  32.251  1.00  0.00     0.074 A 
ATOM     33  C   UNL A   1      39.592  29.660  30.890  1.00  0.00     0.049 A 
ATOM     34  N   UNL A   1      41.383  29.364  33.301  1.00  0.00    -0.248 NA
ATOM     35  C   UNL A   1      42.331  27.483  32.296  1.00  0.00     0.031 C 
ATOM     36  C   UNL A   1      38.717  29.857  29.735  1.00  0.00     0.029 A 
ATOM     37  N   UNL A   1      39.279  30.698  31.731  1.00  0.00    -0.354 N 
ATOM     38  C   UNL A   1      42.371  28.847  34.132  1.00  0.00     0.074 A 
ATOM     39  C   UNL A   1      42.898  27.668  33.479  1.00  0.00     0.031 C 
ATOM     40  C   UNL A   1      37.961  30.950  29.943  1.00  0.00     0.029 A 
ATOM     41  C   UNL A   1      38.282  31.514  31.252  1.00  0.00     0.049 A 
ATOM     42  H   UNL A   1      39.727  30.844  32.595  1.00  0.00     0.167 HD
ATOM     43  C   UNL A   1      42.807  29.318  35.323  1.00  0.00     0.037 A 
ATOM     44  C   UNL A   1      37.692  32.588  31.813  1.00  0.00     0.037 A 
ATOM     45  C   UNL A   1      42.285  30.496  35.964  1.00  0.00     0.049 A 
ATOM     46  C   UNL A   1      38.163  33.068  33.160  1.00  0.00     0.074 A 
ATOM     47  C   UNL A   1      42.672  31.067  37.164  1.00  0.00     0.029 A 
ATOM     48  N   UNL A   1      41.257  31.281  35.461  1.00  0.00    -0.354 N 
ATOM     49  N   UNL A   1      39.115  32.582  33.923  1.00  0.00    -0.248 NA
ATOM     50  C   UNL A   1      37.488  34.246  33.720  1.00  0.00     0.031 C 
ATOM     51  C   UNL A   1      41.850  32.174  37.407  1.00  0.00     0.029 A 
ATOM     52  C   UNL A   1      40.983  32.319  36.335  1.00  0.00     0.049 A 
ATOM     53  H   UNL A   1      40.793  31.124  34.607  1.00  0.00     0.167 HD
ATOM     54  C   UNL A   1      39.168  33.410  35.041  1.00  0.00     0.074 A 
ATOM     55  C   UNL A   1      38.160  34.433  34.848  1.00  0.00     0.031 C 
ATOM     56  C   UNL A   1      39.978  33.332  36.126  1.00  0.00     0.037 A 
BRANCH  43  57
ATOM     57  C   UNL A   1      43.890  28.543  36.023  1.00  0.00     0.058 A 
ATOM     58  C   UNL A   1      43.597  27.454  36.859  1.00  0.00     0.135 A 
ATOM     59  C   UNL A   1      45.240  28.878  35.833  1.00  0.00     0.135 A 
ATOM     60  F   UNL A   1      42.323  27.103  37.092  1.00  0.00    -0.206 F 
ATOM     61  C   UNL A   1      44.604  26.740  37.502  1.00  0.00     0.059 A 
ATOM     62  C   UNL A   1      46.264  28.163  36.445  1.00  0.00     0.059 A 
ATOM     63  F   UNL A   1      45.574  29.914  35.047  1.00  0.00    -0.206 F 
ATOM     64  C   UNL A   1      45.935  27.103  37.290  1.00  0.00     0.060 A 
BRANCH  64  65
ATOM     65  S   UNL A   1      47.231  26.168  38.128  1.00  0.00     0.124 S 
ATOM     66  O   UNL A   1      46.497  25.598  39.254  1.00  0.00    -0.237 OA
ATOM     67  O   UNL A   1      47.649  25.220  37.099  1.00  0.00    -0.237 OA
ATOM     68  O   UNL A   1      48.217  27.187  38.475  1.00  0.00    -0.744 OA
ENDBRANCH  64  65
ENDBRANCH  43  57
BRANCH  44  69
ATOM     69  C   UNL A   1      36.584  33.278  31.102  1.00  0.00     0.058 A 
ATOM     70  C   UNL A   1      36.839  34.181  30.060  1.00  0.00     0.135 A 
ATOM     71  C   UNL A   1      35.245  33.041  31.449  1.00  0.00     0.135 A 
ATOM     72  F   UNL A   1      38.103  34.449  29.698  1.00  0.00    -0.206 F 
ATOM     73  C   UNL A   1      35.806  34.835  29.394  1.00  0.00     0.059 A 
ATOM     74  C   UNL A   1      34.195  33.663  30.782  1.00  0.00     0.059 A 
ATOM     75  F   UNL A   1      34.949  32.177  32.432  1.00  0.00    -0.206 F 
ATOM     76  C   UNL A   1      34.486  34.566  29.761  1.00  0.00     0.060 A 
BRANCH  76  77
ATOM     77  S   UNL A   1      33.150  35.378  28.856  1.00  0.00     0.124 S 
ATOM     78  O   UNL A   1      33.892  36.274  27.978  1.00  0.00    -0.237 OA
ATOM     79  O   UNL A   1      32.488  34.250  28.209  1.00  0.00    -0.237 OA
ATOM     80  O   UNL A   1      32.377  36.025  29.913  1.00  0.00    -0.744 OA
ENDBRANCH  76  77
ENDBRANCH  44  69
BRANCH  56  81
ATOM     81  C   UNL A   1      39.831  34.398  37.176  1.00  0.00     0.058 A 
ATOM     82  C   UNL A   1      40.460  35.646  37.052  1.00  0.00     0.135 A 
ATOM     83  C   UNL A   1      39.012  34.184  38.296  1.00  0.00     0.135 A 
ATOM     84  F   UNL A   1      41.257  35.901  36.003  1.00  0.00    -0.206 F 
ATOM     85  C   UNL A   1      40.305  36.637  38.017  1.00  0.00     0.059 A 
ATOM     86  C   UNL A   1      38.821  35.170  39.260  1.00  0.00     0.059 A 
ATOM     87  F   UNL A   1      38.377  33.012  38.456  1.00  0.00    -0.206 F 
ATOM     88  C   UNL A   1      39.484  36.388  39.119  1.00  0.00     0.060 A 
BRANCH  88  89
ATOM     89  S   UNL A   1      39.271  37.688  40.353  1.00  0.00     0.124 S 
ATOM     90  O   UNL A   1      38.311  38.567  39.692  1.00  0.00    -0.237 OA
ATOM     91  O   UNL A   1      38.764  36.949  41.506  1.00  0.00    -0.237 OA
ATOM     92  O   UNL A   1      40.617  38.233  40.509  1.00  0.00    -0.744 OA
ENDBRANCH  88  89
ENDBRANCH  56  81
ENDBRANCH  30  31
ENDBRANCH  23  25
ENDBRANCH  22  23
ENDBRANCH  21  22
ENDBRANCH   1  21
TORSDOF 21
ENDMDL
MODEL 3
REMARK VINA RESULT:      -9.0      3.016      5.157
REMARK SMILES CC[NH2+][C@]1(C(=O)OCCOCCOC(=O)c2ccc(-c3c4nc(c(-c5c(F)cc(S(=O)(=O)[O-])cc5F)c5ccc([nH]5)c(-c5c(F)cc(S(=O)(=O)[O-])cc5F)c5nc(c(-c6c(F)cc(S(=O)(=O)[O-])cc6F)c6ccc3[nH]6)C=C5)C=C4)cc2)CC[C@H](OCC)C1
REMARK SMILES IDX 11 1 10 2 9 3 8 4 7 5 5 6 6 7 4 8 82 9 88 10 83 11 84 12
REMARK SMILES IDX 3 13 2 16 1 17 85 18 86 19 87 20 12 21 13 22 14 23 15 24
REMARK SMILES IDX 16 25 17 26 81 27 18 28 80 29 19 30 20 31 21 32 74 33 22 34
REMARK SMILES IDX 79 35 73 36 75 37 23 38 78 39 72 40 71 41 24 43 58 44 37 45
REMARK SMILES IDX 57 46 38 47 41 48 56 49 76 50 39 51 40 52 55 54 77 55 42 56
REMARK SMILES IDX 25 57 26 58 35 59 27 60 28 61 34 62 36 63 29 64 30 65 31 66
REMARK SMILES IDX 32 67 33 68 59 69 60 70 69 71 61 72 62 73 68 74 70 75 63 76
REMARK SMILES IDX 64 77 65 78 66 79 67 80 43 81 44 82 53 83 45 84 46 85 52 86
REMARK SMILES IDX 54 87 47 88 48 89 49 90 50 91 51 92
REMARK H PARENT 3 14 3 15 75 42 41 53
REMARK Flexibility Score: inf
ROOT
ATOM      1  C   UNL A   1      39.244  21.852  26.369  1.00  0.00     0.202 C 
ENDROOT
BRANCH   1   2
ATOM      2  O   UNL A   1      38.415  21.824  25.211  1.00  0.00    -0.374 OA
BRANCH   2   3
ATOM      3  C   UNL A   1      37.389  20.824  25.195  1.00  0.00     0.202 C 
BRANCH   3   4
ATOM      4  C   UNL A   1      36.002  21.326  24.783  1.00  0.00     0.261 C 
BRANCH   4   5
ATOM      5  O   UNL A   1      35.395  22.046  25.875  1.00  0.00    -0.459 OA
BRANCH   5   6
ATOM      6  C   UNL A   1      35.323  23.402  25.757  1.00  0.00     0.368 C 
ATOM      7  O   UNL A   1      36.305  24.136  25.776  1.00  0.00    -0.245 OA
BRANCH   6   8
ATOM      8  C   UNL A   1      33.868  23.897  25.505  1.00  0.00     0.196 C 
ATOM      9  C   UNL A   1      32.992  23.369  26.669  1.00  0.00     0.084 C 
ATOM     10  C   UNL A   1      33.693  25.412  25.728  1.00  0.00     0.113 C 
ATOM     11  C   UNL A   1      31.802  24.316  26.790  1.00  0.00     0.039 C 
ATOM     12  C   UNL A   1      32.227  25.626  26.116  1.00  0.00     0.125 C 
BRANCH   8  13
ATOM     13  N   UNL A   1      33.306  23.389  24.223  1.00  0.00    -0.332 N 
ATOM     14  H   UNL A   1      33.458  22.381  24.193  1.00  0.00     0.347 HD
ATOM     15  H   UNL A   1      32.324  23.662  24.225  1.00  0.00     0.347 HD
BRANCH  13  16
ATOM     16  C   UNL A   1      33.878  23.965  23.003  1.00  0.00     0.257 C 
ATOM     17  C   UNL A   1      33.296  23.271  21.781  1.00  0.00     0.071 C 
ENDBRANCH  13  16
ENDBRANCH   8  13
BRANCH  12  18
ATOM     18  O   UNL A   1      31.333  25.843  25.030  1.00  0.00    -0.378 OA
BRANCH  18  19
ATOM     19  C   UNL A   1      29.943  25.966  25.315  1.00  0.00     0.157 C 
ATOM     20  C   UNL A   1      29.055  26.328  24.138  1.00  0.00     0.035 C 
ENDBRANCH  18  19
ENDBRANCH  12  18
ENDBRANCH   6   8
ENDBRANCH   5   6
ENDBRANCH   4   5
ENDBRANCH   3   4
ENDBRANCH   2   3
ENDBRANCH   1   2
BRANCH   1  21
ATOM     21  C   UNL A   1      40.246  23.005  26.448  1.00  0.00     0.261 C 
BRANCH  21  22
ATOM     22  O   UNL A   1      39.579  24.278  26.501  1.00  0.00    -0.460 OA
BRANCH  22  23
ATOM     23  C   UNL A   1      40.401  25.336  26.312  1.00  0.00     0.338 C 
ATOM     24  O   UNL A   1      40.852  25.736  25.247  1.00  0.00    -0.246 OA
BRANCH  23  25
ATOM     25  C   UNL A   1      40.574  26.084  27.571  1.00  0.00     0.060 A 
ATOM     26  C   UNL A   1      39.587  25.916  28.549  1.00  0.00     0.016 A 
ATOM     27  C   UNL A   1      41.626  26.983  27.771  1.00  0.00     0.016 A 
ATOM     28  C   UNL A   1      39.604  26.698  29.698  1.00  0.00     0.010 A 
ATOM     29  C   UNL A   1      41.640  27.773  28.927  1.00  0.00     0.010 A 
ATOM     30  C   UNL A   1      40.602  27.666  29.871  1.00  0.00    -0.014 A 
BRANCH  30  31
ATOM     31  C   UNL A   1      40.444  28.668  30.953  1.00  0.00     0.031 A 
ATOM     32  C   UNL A   1      41.348  28.586  32.154  1.00  0.00     0.074 A 
ATOM     33  C   UNL A   1      39.559  29.673  30.835  1.00  0.00     0.049 A 
ATOM     34  N   UNL A   1      41.411  29.369  33.200  1.00  0.00    -0.248 NA
ATOM     35  C   UNL A   1      42.313  27.474  32.178  1.00  0.00     0.031 C 
ATOM     36  C   UNL A   1      38.656  29.874  29.703  1.00  0.00     0.029 A 
ATOM     37  N   UNL A   1      39.280  30.717  31.680  1.00  0.00    -0.354 N 
ATOM     38  C   UNL A   1      42.415  28.845  34.006  1.00  0.00     0.074 A 
ATOM     39  C   UNL A   1      42.912  27.658  33.345  1.00  0.00     0.031 C 
ATOM     40  C   UNL A   1      37.917  30.975  29.926  1.00  0.00     0.029 A 
ATOM     41  C   UNL A   1      38.279  31.542  31.223  1.00  0.00     0.049 A 
ATOM     42  H   UNL A   1      39.751  30.863  32.532  1.00  0.00     0.167 HD
ATOM     43  C   UNL A   1      42.887  29.317  35.184  1.00  0.00     0.037 A 
ATOM     44  C   UNL A   1      37.715  32.624  31.795  1.00  0.00     0.037 A 
ATOM     45  C   UNL A   1      42.394  30.502  35.833  1.00  0.00     0.049 A 
ATOM     46  C   UNL A   1      38.226  33.105  33.128  1.00  0.00     0.074 A 
ATOM     47  C   UNL A   1      42.819  31.075  37.019  1.00  0.00     0.029 A 
ATOM     48  N   UNL A   1      41.361  31.296  35.354  1.00  0.00    -0.354 N 
ATOM     49  N   UNL A   1      39.192  32.612  33.867  1.00  0.00    -0.248 NA
ATOM     50  C   UNL A   1      37.578  34.293  33.700  1.00  0.00     0.031 C 
ATOM     51  C   UNL A   1      42.015  32.190  37.279  1.00  0.00     0.029 A 
ATOM     52  C   UNL A   1      41.121  32.340  36.230  1.00  0.00     0.049 A 
ATOM     53  H   UNL A   1      40.873  31.140  34.513  1.00  0.00     0.167 HD
ATOM     54  C   UNL A   1      39.283  33.444  34.980  1.00  0.00     0.074 A 
ATOM     55  C   UNL A   1      38.282  34.477  34.809  1.00  0.00     0.031 C 
ATOM     56  C   UNL A   1      40.121  33.362  36.043  1.00  0.00     0.037 A 
BRANCH  43  57
ATOM     57  C   UNL A   1      43.980  28.533  35.859  1.00  0.00     0.058 A 
ATOM     58  C   UNL A   1      43.697  27.458  36.715  1.00  0.00     0.135 A 
ATOM     59  C   UNL A   1      45.328  28.847  35.622  1.00  0.00     0.135 A 
ATOM     60  F   UNL A   1      42.426  27.128  36.991  1.00  0.00    -0.206 F 
ATOM     61  C   UNL A   1      44.714  26.736  37.334  1.00  0.00     0.059 A 
ATOM     62  C   UNL A   1      46.361  28.123  36.210  1.00  0.00     0.059 A 
ATOM     63  F   UNL A   1      45.653  29.869  34.815  1.00  0.00    -0.206 F 
ATOM     64  C   UNL A   1      46.043  27.077  37.077  1.00  0.00     0.060 A 
BRANCH  64  65
ATOM     65  S   UNL A   1      47.351  26.132  37.885  1.00  0.00     0.124 S 
ATOM     66  O   UNL A   1      48.541  26.871  37.472  1.00  0.00    -0.237 OA
ATOM     67  O   UNL A   1      46.993  26.244  39.296  1.00  0.00    -0.237 OA
ATOM     68  O   UNL A   1      47.212  24.798  37.310  1.00  0.00    -0.744 OA
ENDBRANCH  64  65
ENDBRANCH  43  57
BRANCH  44  69
ATOM     69  C   UNL A   1      36.595  33.323  31.110  1.00  0.00     0.058 A 
ATOM     70  C   UNL A   1      35.273  33.192  31.558  1.00  0.00     0.135 A 
ATOM     71  C   UNL A   1      36.830  34.142  29.995  1.00  0.00     0.135 A 
ATOM     72  F   UNL A   1      34.996  32.412  32.614  1.00  0.00    -0.206 F 
ATOM     73  C   UNL A   1      34.220  33.840  30.918  1.00  0.00     0.059 A 
ATOM     74  C   UNL A   1      35.798  34.819  29.354  1.00  0.00     0.059 A 
ATOM     75  F   UNL A   1      38.080  34.309  29.535  1.00  0.00    -0.206 F 
ATOM     76  C   UNL A   1      34.494  34.654  29.818  1.00  0.00     0.060 A 
BRANCH  76  77
ATOM     77  S   UNL A   1      33.129  35.532  29.026  1.00  0.00     0.124 S 
ATOM     78  O   UNL A   1      32.551  34.486  28.191  1.00  0.00    -0.237 OA
ATOM     79  O   UNL A   1      32.328  35.951  30.172  1.00  0.00    -0.237 OA
ATOM     80  O   UNL A   1      33.799  36.615  28.311  1.00  0.00    -0.744 OA
ENDBRANCH  76  77
ENDBRANCH  44  69
BRANCH  56  81
ATOM     81  C   UNL A   1      40.013  34.435  37.092  1.00  0.00     0.058 A 
ATOM     82  C   UNL A   1      40.807  35.591  37.049  1.00  0.00     0.135 A 
ATOM     83  C   UNL A   1      39.070  34.325  38.126  1.00  0.00     0.135 A 
ATOM     84  F   UNL A   1      41.727  35.744  36.084  1.00  0.00    -0.206 F 
ATOM     85  C   UNL A   1      40.689  36.589  38.011  1.00  0.00     0.059 A 
ATOM     86  C   UNL A   1      38.916  35.323  39.083  1.00  0.00     0.059 A 
ATOM     87  F   UNL A   1      38.276  33.245  38.205  1.00  0.00    -0.206 F 
ATOM     88  C   UNL A   1      39.740  36.445  39.026  1.00  0.00     0.060 A 
BRANCH  88  89
ATOM     89  S   UNL A   1      39.579  37.757  40.256  1.00  0.00     0.124 S 
ATOM     90  O   UNL A   1      38.182  38.145  40.090  1.00  0.00    -0.237 OA
ATOM     91  O   UNL A   1      39.902  37.064  41.499  1.00  0.00    -0.237 OA
ATOM     92  O   UNL A   1      40.562  38.749  39.825  1.00  0.00    -0.744 OA
ENDBRANCH  88  89
ENDBRANCH  56  81
ENDBRANCH  30  31
ENDBRANCH  23  25
ENDBRANCH  22  23
ENDBRANCH  21  22
ENDBRANCH   1  21
TORSDOF 21
ENDMDL
