MODEL 1
REMARK VINA RESULT:     -11.2      0.000      0.000
REMARK SMILES Cc1cc(OC(F)(F)F)cc2c1O[C@H](C(F)(F)F)C(C(=O)OCCOCCOC(=O)c1ccc(-c3c4nc(c(-c5c(F)cc(S(=O)(=O)[O-])cc5F)c5ccc([nH]5)c(-c5c(F)cc(S(=O)(=O)[O-])cc5F)c5nc(c(-c6c(F)cc(S(=O)(=O)[O-])cc6F)c6ccc3[nH]6)C=C5)C=C4)cc1)=C2
REMARK SMILES IDX 26 1 25 2 24 3 23 4 22 5 20 6 21 7 19 8 1 9 2 10 3 11 12 12
REMARK SMILES IDX 4 13 11 14 13 15 10 16 97 17 14 18 5 19 6 20 7 21 8 22 9 23
REMARK SMILES IDX 15 24 16 25 17 26 18 27 27 28 28 29 29 30 30 31 31 32 32 33
REMARK SMILES IDX 96 34 33 35 95 36 34 37 35 38 36 39 89 40 37 41 94 42 88 43
REMARK SMILES IDX 90 44 38 45 93 46 87 47 86 48 39 50 73 51 52 52 72 53 53 54
REMARK SMILES IDX 56 55 71 56 91 57 54 58 55 59 70 61 92 62 57 63 40 64 41 65
REMARK SMILES IDX 50 66 42 67 43 68 49 69 51 70 44 71 45 72 46 73 47 74 48 75
REMARK SMILES IDX 74 76 75 77 84 78 76 79 77 80 83 81 85 82 78 83 79 84 80 85
REMARK SMILES IDX 81 86 82 87 58 88 59 89 68 90 60 91 61 92 67 93 69 94 62 95
REMARK SMILES IDX 63 96 64 97 65 98 66 99
REMARK H PARENT 90 49 56 60
REMARK Flexibility Score: inf
ROOT
ATOM      1  C   UNL A   1      40.037  22.053  26.869  1.00  0.00     0.202 C 
ENDROOT
BRANCH   1   2
ATOM      2  O   UNL A   1      39.422  21.400  25.756  1.00  0.00    -0.374 OA
BRANCH   2   3
ATOM      3  C   UNL A   1      38.103  21.807  25.400  1.00  0.00     0.202 C 
BRANCH   3   4
ATOM      4  C   UNL A   1      37.058  20.693  25.277  1.00  0.00     0.261 C 
BRANCH   4   5
ATOM      5  O   UNL A   1      35.876  21.146  24.598  1.00  0.00    -0.460 OA
BRANCH   5   6
ATOM      6  C   UNL A   1      34.977  21.773  25.391  1.00  0.00     0.338 C 
ATOM      7  O   UNL A   1      34.713  21.506  26.553  1.00  0.00    -0.246 OA
BRANCH   6   8
ATOM      8  C   UNL A   1      34.418  22.944  24.690  1.00  0.00     0.087 C 
ATOM      9  C   UNL A   1      31.698  26.180  21.783  1.00  0.00     0.048 C 
ATOM     10  C   UNL A   1      32.476  26.263  23.068  1.00  0.00    -0.005 A 
ATOM     11  C   UNL A   1      32.486  27.474  23.787  1.00  0.00     0.054 A 
ATOM     12  C   UNL A   1      33.210  25.168  23.552  1.00  0.00     0.131 A 
ATOM     13  C   UNL A   1      33.197  27.590  24.982  1.00  0.00     0.130 A 
ATOM     14  C   UNL A   1      33.894  25.274  24.763  1.00  0.00     0.021 A 
ATOM     15  O   UNL A   1      33.230  24.034  22.787  1.00  0.00    -0.475 OA
ATOM     16  C   UNL A   1      33.903  26.485  25.460  1.00  0.00     0.058 A 
ATOM     17  C   UNL A   1      34.542  24.111  25.336  1.00  0.00     0.027 C 
ATOM     18  C   UNL A   1      33.733  22.793  23.360  1.00  0.00     0.316 C 
BRANCH  13  19
ATOM     19  O   UNL A   1      33.287  28.696  25.777  1.00  0.00    -0.406 OA
BRANCH  19  20
ATOM     20  C   UNL A   1      32.366  28.821  26.844  1.00  0.00     0.573 C 
ATOM     21  F   UNL A   1      32.116  30.117  27.123  1.00  0.00    -0.132 F 
ATOM     22  F   UNL A   1      31.207  28.185  26.570  1.00  0.00    -0.132 F 
ATOM     23  F   UNL A   1      32.905  28.252  27.947  1.00  0.00    -0.132 F 
ENDBRANCH  19  20
ENDBRANCH  13  19
BRANCH  18  24
ATOM     24  C   UNL A   1      32.580  21.779  23.400  1.00  0.00     0.430 C 
ATOM     25  F   UNL A   1      31.797  21.974  24.488  1.00  0.00    -0.167 F 
ATOM     26  F   UNL A   1      31.780  21.886  22.315  1.00  0.00    -0.167 F 
ATOM     27  F   UNL A   1      33.033  20.506  23.447  1.00  0.00    -0.167 F 
ENDBRANCH  18  24
ENDBRANCH   6   8
ENDBRANCH   5   6
ENDBRANCH   4   5
ENDBRANCH   3   4
ENDBRANCH   2   3
ENDBRANCH   1   2
BRANCH   1  28
ATOM     28  C   UNL A   1      40.939  23.255  26.563  1.00  0.00     0.261 C 
BRANCH  28  29
ATOM     29  O   UNL A   1      40.175  24.460  26.359  1.00  0.00    -0.460 OA
BRANCH  29  30
ATOM     30  C   UNL A   1      40.914  25.587  26.227  1.00  0.00     0.338 C 
ATOM     31  O   UNL A   1      41.286  26.111  25.189  1.00  0.00    -0.246 OA
BRANCH  30  32
ATOM     32  C   UNL A   1      41.082  26.231  27.541  1.00  0.00     0.060 A 
ATOM     33  C   UNL A   1      40.086  26.030  28.505  1.00  0.00     0.016 A 
ATOM     34  C   UNL A   1      42.133  27.119  27.775  1.00  0.00     0.016 A 
ATOM     35  C   UNL A   1      40.117  26.748  29.698  1.00  0.00     0.010 A 
ATOM     36  C   UNL A   1      42.151  27.854  28.964  1.00  0.00     0.010 A 
ATOM     37  C   UNL A   1      41.123  27.698  29.912  1.00  0.00    -0.014 A 
BRANCH  37  38
ATOM     38  C   UNL A   1      40.993  28.651  31.039  1.00  0.00     0.031 A 
ATOM     39  C   UNL A   1      39.948  29.731  30.950  1.00  0.00     0.074 A 
ATOM     40  C   UNL A   1      41.758  28.530  32.139  1.00  0.00     0.049 A 
ATOM     41  N   UNL A   1      39.671  30.685  31.799  1.00  0.00    -0.248 NA
ATOM     42  C   UNL A   1      39.097  29.731  29.748  1.00  0.00     0.031 C 
ATOM     43  C   UNL A   1      42.761  27.489  32.362  1.00  0.00     0.029 A 
ATOM     44  N   UNL A   1      41.808  29.293  33.278  1.00  0.00    -0.354 N 
ATOM     45  C   UNL A   1      38.605  31.385  31.246  1.00  0.00     0.074 A 
ATOM     46  C   UNL A   1      38.307  30.771  29.972  1.00  0.00     0.031 C 
ATOM     47  C   UNL A   1      43.332  27.683  33.564  1.00  0.00     0.029 A 
ATOM     48  C   UNL A   1      42.756  28.875  34.183  1.00  0.00     0.049 A 
ATOM     49  H   UNL A   1      41.220  30.067  33.433  1.00  0.00     0.167 HD
ATOM     50  C   UNL A   1      37.926  32.435  31.764  1.00  0.00     0.037 A 
ATOM     51  C   UNL A   1      43.124  29.410  35.364  1.00  0.00     0.037 A 
ATOM     52  C   UNL A   1      38.232  33.050  33.027  1.00  0.00     0.049 A 
ATOM     53  C   UNL A   1      42.427  30.652  35.861  1.00  0.00     0.074 A 
ATOM     54  C   UNL A   1      37.612  34.131  33.629  1.00  0.00     0.029 A 
ATOM     55  N   UNL A   1      39.241  32.639  33.884  1.00  0.00    -0.354 N 
ATOM     56  N   UNL A   1      41.423  31.305  35.325  1.00  0.00    -0.248 NA
ATOM     57  C   UNL A   1      42.918  31.233  37.120  1.00  0.00     0.031 C 
ATOM     58  C   UNL A   1      38.272  34.398  34.831  1.00  0.00     0.029 A 
ATOM     59  C   UNL A   1      39.275  33.457  34.999  1.00  0.00     0.049 A 
ATOM     60  H   UNL A   1      39.845  31.878  33.722  1.00  0.00     0.167 HD
ATOM     61  C   UNL A   1      41.145  32.354  36.196  1.00  0.00     0.074 A 
ATOM     62  C   UNL A   1      42.078  32.245  37.297  1.00  0.00     0.031 C 
ATOM     63  C   UNL A   1      40.202  33.322  36.094  1.00  0.00     0.037 A 
BRANCH  50  64
ATOM     64  C   UNL A   1      36.778  32.990  30.972  1.00  0.00     0.058 A 
ATOM     65  C   UNL A   1      35.449  32.718  31.332  1.00  0.00     0.135 A 
ATOM     66  C   UNL A   1      37.003  33.872  29.904  1.00  0.00     0.135 A 
ATOM     67  F   UNL A   1      35.181  31.863  32.332  1.00  0.00    -0.206 F 
ATOM     68  C   UNL A   1      34.381  33.307  30.663  1.00  0.00     0.059 A 
ATOM     69  C   UNL A   1      35.950  34.489  29.233  1.00  0.00     0.059 A 
ATOM     70  F   UNL A   1      38.256  34.157  29.516  1.00  0.00    -0.206 F 
ATOM     71  C   UNL A   1      34.642  34.200  29.622  1.00  0.00     0.060 A 
BRANCH  71  72
ATOM     72  S   UNL A   1      33.244  34.998  28.805  1.00  0.00     0.124 S 
ATOM     73  O   UNL A   1      32.387  35.322  29.942  1.00  0.00    -0.237 OA
ATOM     74  O   UNL A   1      33.879  36.134  28.146  1.00  0.00    -0.237 OA
ATOM     75  O   UNL A   1      32.734  33.963  27.912  1.00  0.00    -0.744 OA
ENDBRANCH  71  72
ENDBRANCH  50  64
BRANCH  51  76
ATOM     76  C   UNL A   1      44.216  28.794  36.164  1.00  0.00     0.058 A 
ATOM     77  C   UNL A   1      43.956  27.732  37.044  1.00  0.00     0.135 A 
ATOM     78  C   UNL A   1      45.531  29.281  36.099  1.00  0.00     0.135 A 
ATOM     79  F   UNL A   1      42.713  27.240  37.149  1.00  0.00    -0.206 F 
ATOM     80  C   UNL A   1      44.952  27.194  37.851  1.00  0.00     0.059 A 
ATOM     81  C   UNL A   1      46.550  28.743  36.878  1.00  0.00     0.059 A 
ATOM     82  F   UNL A   1      45.835  30.289  35.267  1.00  0.00    -0.206 F 
ATOM     83  C   UNL A   1      46.247  27.709  37.764  1.00  0.00     0.060 A 
BRANCH  83  84
ATOM     84  S   UNL A   1      47.534  27.001  38.813  1.00  0.00     0.124 S 
ATOM     85  O   UNL A   1      48.549  26.642  37.830  1.00  0.00    -0.237 OA
ATOM     86  O   UNL A   1      47.862  28.119  39.692  1.00  0.00    -0.237 OA
ATOM     87  O   UNL A   1      46.858  25.881  39.462  1.00  0.00    -0.744 OA
ENDBRANCH  83  84
ENDBRANCH  51  76
BRANCH  63  88
ATOM     88  C   UNL A   1      40.105  34.327  37.207  1.00  0.00     0.058 A 
ATOM     89  C   UNL A   1      40.830  35.527  37.175  1.00  0.00     0.135 A 
ATOM     90  C   UNL A   1      39.212  34.125  38.272  1.00  0.00     0.135 A 
ATOM     91  F   UNL A   1      41.699  35.766  36.181  1.00  0.00    -0.206 F 
ATOM     92  C   UNL A   1      40.680  36.490  38.168  1.00  0.00     0.059 A 
ATOM     93  C   UNL A   1      39.028  35.085  39.262  1.00  0.00     0.059 A 
ATOM     94  F   UNL A   1      38.486  32.997  38.342  1.00  0.00    -0.206 F 
ATOM     95  C   UNL A   1      39.772  36.262  39.204  1.00  0.00     0.060 A 
BRANCH  95  96
ATOM     96  S   UNL A   1      39.548  37.548  40.452  1.00  0.00     0.124 S 
ATOM     97  O   UNL A   1      38.584  38.427  39.799  1.00  0.00    -0.237 OA
ATOM     98  O   UNL A   1      39.044  36.790  41.593  1.00  0.00    -0.237 OA
ATOM     99  O   UNL A   1      40.889  38.100  40.617  1.00  0.00    -0.744 OA
ENDBRANCH  95  96
ENDBRANCH  63  88
ENDBRANCH  37  38
ENDBRANCH  30  32
ENDBRANCH  29  30
ENDBRANCH  28  29
ENDBRANCH   1  28
TORSDOF 20
ENDMDL
MODEL 2
REMARK VINA RESULT:     -11.0      1.226      8.148
REMARK SMILES Cc1cc(OC(F)(F)F)cc2c1O[C@H](C(F)(F)F)C(C(=O)OCCOCCOC(=O)c1ccc(-c3c4nc(c(-c5c(F)cc(S(=O)(=O)[O-])cc5F)c5ccc([nH]5)c(-c5c(F)cc(S(=O)(=O)[O-])cc5F)c5nc(c(-c6c(F)cc(S(=O)(=O)[O-])cc6F)c6ccc3[nH]6)C=C5)C=C4)cc1)=C2
REMARK SMILES IDX 26 1 25 2 24 3 23 4 22 5 20 6 21 7 19 8 1 9 2 10 3 11 12 12
REMARK SMILES IDX 4 13 11 14 13 15 10 16 97 17 14 18 5 19 6 20 7 21 8 22 9 23
REMARK SMILES IDX 15 24 16 25 17 26 18 27 27 28 28 29 29 30 30 31 31 32 32 33
REMARK SMILES IDX 96 34 33 35 95 36 34 37 35 38 36 39 89 40 37 41 94 42 88 43
REMARK SMILES IDX 90 44 38 45 93 46 87 47 86 48 39 50 73 51 52 52 72 53 53 54
REMARK SMILES IDX 56 55 71 56 91 57 54 58 55 59 70 61 92 62 57 63 40 64 41 65
REMARK SMILES IDX 50 66 42 67 43 68 49 69 51 70 44 71 45 72 46 73 47 74 48 75
REMARK SMILES IDX 74 76 75 77 84 78 76 79 77 80 83 81 85 82 78 83 79 84 80 85
REMARK SMILES IDX 81 86 82 87 58 88 59 89 68 90 60 91 61 92 67 93 69 94 62 95
REMARK SMILES IDX 63 96 64 97 65 98 66 99
REMARK H PARENT 90 49 56 60
REMARK Flexibility Score: inf
ROOT
ATOM      1  C   UNL A   1      39.798  21.096  26.335  1.00  0.00     0.202 C 
ENDROOT
BRANCH   1   2
ATOM      2  O   UNL A   1      38.770  21.282  25.359  1.00  0.00    -0.374 OA
BRANCH   2   3
ATOM      3  C   UNL A   1      37.671  22.120  25.711  1.00  0.00     0.202 C 
BRANCH   3   4
ATOM      4  C   UNL A   1      36.277  21.492  25.610  1.00  0.00     0.261 C 
BRANCH   4   5
ATOM      5  O   UNL A   1      35.297  22.442  25.163  1.00  0.00    -0.460 OA
BRANCH   5   6
ATOM      6  C   UNL A   1      34.638  23.080  26.157  1.00  0.00     0.338 C 
ATOM      7  O   UNL A   1      34.843  22.977  27.357  1.00  0.00    -0.246 OA
BRANCH   6   8
ATOM      8  C   UNL A   1      33.682  24.048  25.587  1.00  0.00     0.087 C 
ATOM      9  C   UNL A   1      29.538  26.523  23.849  1.00  0.00     0.048 C 
ATOM     10  C   UNL A   1      30.860  26.907  24.455  1.00  0.00    -0.005 A 
ATOM     11  C   UNL A   1      31.124  28.265  24.724  1.00  0.00     0.054 A 
ATOM     12  C   UNL A   1      31.843  25.945  24.738  1.00  0.00     0.131 A 
ATOM     13  C   UNL A   1      32.339  28.659  25.285  1.00  0.00     0.130 A 
ATOM     14  C   UNL A   1      33.045  26.336  25.329  1.00  0.00     0.021 A 
ATOM     15  O   UNL A   1      31.574  24.649  24.398  1.00  0.00    -0.475 OA
ATOM     16  C   UNL A   1      33.296  27.688  25.580  1.00  0.00     0.058 A 
ATOM     17  C   UNL A   1      34.008  25.337  25.747  1.00  0.00     0.027 C 
ATOM     18  C   UNL A   1      32.422  23.582  24.912  1.00  0.00     0.316 C 
BRANCH  13  19
ATOM     19  O   UNL A   1      32.721  29.932  25.598  1.00  0.00    -0.406 OA
BRANCH  19  20
ATOM     20  C   UNL A   1      32.208  30.502  26.788  1.00  0.00     0.573 C 
ATOM     21  F   UNL A   1      31.452  31.589  26.522  1.00  0.00    -0.132 F 
ATOM     22  F   UNL A   1      31.482  29.606  27.490  1.00  0.00    -0.132 F 
ATOM     23  F   UNL A   1      33.247  30.895  27.559  1.00  0.00    -0.132 F 
ENDBRANCH  19  20
ENDBRANCH  13  19
BRANCH  18  24
ATOM     24  C   UNL A   1      31.567  22.678  25.812  1.00  0.00     0.430 C 
ATOM     25  F   UNL A   1      30.257  23.017  25.739  1.00  0.00    -0.167 F 
ATOM     26  F   UNL A   1      31.657  21.379  25.452  1.00  0.00    -0.167 F 
ATOM     27  F   UNL A   1      31.938  22.767  27.110  1.00  0.00    -0.167 F 
ENDBRANCH  18  24
ENDBRANCH   6   8
ENDBRANCH   5   6
ENDBRANCH   4   5
ENDBRANCH   3   4
ENDBRANCH   2   3
ENDBRANCH   1   2
BRANCH   1  28
ATOM     28  C   UNL A   1      41.046  21.980  26.210  1.00  0.00     0.261 C 
BRANCH  28  29
ATOM     29  O   UNL A   1      40.765  23.354  26.540  1.00  0.00    -0.460 OA
BRANCH  29  30
ATOM     30  C   UNL A   1      41.846  24.086  26.902  1.00  0.00     0.338 C 
ATOM     31  O   UNL A   1      43.006  23.907  26.566  1.00  0.00    -0.246 OA
BRANCH  30  32
ATOM     32  C   UNL A   1      41.414  25.280  27.647  1.00  0.00     0.060 A 
ATOM     33  C   UNL A   1      42.328  26.332  27.792  1.00  0.00     0.016 A 
ATOM     34  C   UNL A   1      40.181  25.311  28.300  1.00  0.00     0.016 A 
ATOM     35  C   UNL A   1      42.026  27.406  28.625  1.00  0.00     0.010 A 
ATOM     36  C   UNL A   1      39.888  26.380  29.152  1.00  0.00     0.010 A 
ATOM     37  C   UNL A   1      40.825  27.412  29.345  1.00  0.00    -0.014 A 
BRANCH  37  38
ATOM     38  C   UNL A   1      40.636  28.399  30.434  1.00  0.00     0.031 A 
ATOM     39  C   UNL A   1      41.529  28.316  31.643  1.00  0.00     0.074 A 
ATOM     40  C   UNL A   1      39.719  29.379  30.327  1.00  0.00     0.049 A 
ATOM     41  N   UNL A   1      41.530  29.054  32.722  1.00  0.00    -0.248 NA
ATOM     42  C   UNL A   1      42.563  27.267  31.631  1.00  0.00     0.031 C 
ATOM     43  C   UNL A   1      38.841  29.594  29.178  1.00  0.00     0.029 A 
ATOM     44  N   UNL A   1      39.378  30.378  31.202  1.00  0.00    -0.354 N 
ATOM     45  C   UNL A   1      42.572  28.573  33.506  1.00  0.00     0.074 A 
ATOM     46  C   UNL A   1      43.159  27.457  32.799  1.00  0.00     0.031 C 
ATOM     47  C   UNL A   1      38.055  30.658  29.423  1.00  0.00     0.029 A 
ATOM     48  C   UNL A   1      38.355  31.181  30.755  1.00  0.00     0.049 A 
ATOM     49  H   UNL A   1      39.824  30.509  32.070  1.00  0.00     0.167 HD
ATOM     50  C   UNL A   1      43.009  29.033  34.701  1.00  0.00     0.037 A 
ATOM     51  C   UNL A   1      37.726  32.206  31.362  1.00  0.00     0.037 A 
ATOM     52  C   UNL A   1      42.416  30.137  35.408  1.00  0.00     0.049 A 
ATOM     53  C   UNL A   1      38.159  32.621  32.746  1.00  0.00     0.074 A 
ATOM     54  C   UNL A   1      42.778  30.666  36.634  1.00  0.00     0.029 A 
ATOM     55  N   UNL A   1      41.341  30.882  34.951  1.00  0.00    -0.354 N 
ATOM     56  N   UNL A   1      39.143  32.155  33.478  1.00  0.00    -0.248 NA
ATOM     57  C   UNL A   1      37.391  33.698  33.390  1.00  0.00     0.031 C 
ATOM     58  C   UNL A   1      41.895  31.706  36.937  1.00  0.00     0.029 A 
ATOM     59  C   UNL A   1      41.012  31.853  35.879  1.00  0.00     0.049 A 
ATOM     60  H   UNL A   1      40.879  30.741  34.092  1.00  0.00     0.167 HD
ATOM     61  C   UNL A   1      39.130  32.901  34.652  1.00  0.00     0.074 A 
ATOM     62  C   UNL A   1      38.047  33.854  34.532  1.00  0.00     0.031 C 
ATOM     63  C   UNL A   1      39.940  32.805  35.735  1.00  0.00     0.037 A 
BRANCH  50  64
ATOM     64  C   UNL A   1      44.191  28.352  35.329  1.00  0.00     0.058 A 
ATOM     65  C   UNL A   1      44.026  27.237  36.165  1.00  0.00     0.135 A 
ATOM     66  C   UNL A   1      45.499  28.758  35.024  1.00  0.00     0.135 A 
ATOM     67  F   UNL A   1      42.796  26.822  36.505  1.00  0.00    -0.206 F 
ATOM     68  C   UNL A   1      45.120  26.542  36.670  1.00  0.00     0.059 A 
ATOM     69  C   UNL A   1      46.608  28.067  35.502  1.00  0.00     0.059 A 
ATOM     70  F   UNL A   1      45.708  29.825  34.236  1.00  0.00    -0.206 F 
ATOM     71  C   UNL A   1      46.407  26.958  36.324  1.00  0.00     0.060 A 
BRANCH  71  72
ATOM     72  S   UNL A   1      47.812  26.009  36.944  1.00  0.00     0.124 S 
ATOM     73  O   UNL A   1      47.290  24.646  36.893  1.00  0.00    -0.237 OA
ATOM     74  O   UNL A   1      48.852  26.326  35.972  1.00  0.00    -0.237 OA
ATOM     75  O   UNL A   1      48.023  26.547  38.284  1.00  0.00    -0.744 OA
ENDBRANCH  71  72
ENDBRANCH  50  64
BRANCH  51  76
ATOM     76  C   UNL A   1      36.606  32.913  30.685  1.00  0.00     0.058 A 
ATOM     77  C   UNL A   1      36.851  33.830  29.651  1.00  0.00     0.135 A 
ATOM     78  C   UNL A   1      35.275  32.720  31.085  1.00  0.00     0.135 A 
ATOM     79  F   UNL A   1      38.108  34.057  29.242  1.00  0.00    -0.206 F 
ATOM     80  C   UNL A   1      35.821  34.551  29.058  1.00  0.00     0.059 A 
ATOM     81  C   UNL A   1      34.224  33.411  30.490  1.00  0.00     0.059 A 
ATOM     82  F   UNL A   1      34.986  31.847  32.063  1.00  0.00    -0.206 F 
ATOM     83  C   UNL A   1      34.510  34.337  29.487  1.00  0.00     0.060 A 
BRANCH  83  84
ATOM     84  S   UNL A   1      33.179  35.276  28.708  1.00  0.00     0.124 S 
ATOM     85  O   UNL A   1      32.468  35.797  29.869  1.00  0.00    -0.237 OA
ATOM     86  O   UNL A   1      33.919  36.257  27.918  1.00  0.00    -0.237 OA
ATOM     87  O   UNL A   1      32.467  34.266  27.931  1.00  0.00    -0.744 OA
ENDBRANCH  83  84
ENDBRANCH  51  76
BRANCH  63  88
ATOM     88  C   UNL A   1      39.714  33.767  36.867  1.00  0.00     0.058 A 
ATOM     89  C   UNL A   1      38.893  33.438  37.955  1.00  0.00     0.135 A 
ATOM     90  C   UNL A   1      40.396  34.995  36.904  1.00  0.00     0.135 A 
ATOM     91  F   UNL A   1      38.217  32.279  37.965  1.00  0.00    -0.206 F 
ATOM     92  C   UNL A   1      38.747  34.297  39.038  1.00  0.00     0.059 A 
ATOM     93  C   UNL A   1      40.284  35.859  37.988  1.00  0.00     0.059 A 
ATOM     94  F   UNL A   1      41.203  35.351  35.892  1.00  0.00    -0.206 F 
ATOM     95  C   UNL A   1      39.451  35.504  39.049  1.00  0.00     0.060 A 
BRANCH  95  96
ATOM     96  S   UNL A   1      39.295  36.581  40.489  1.00  0.00     0.124 S 
ATOM     97  O   UNL A   1      38.728  37.787  39.894  1.00  0.00    -0.237 OA
ATOM     98  O   UNL A   1      38.398  35.819  41.352  1.00  0.00    -0.237 OA
ATOM     99  O   UNL A   1      40.666  36.705  40.973  1.00  0.00    -0.744 OA
ENDBRANCH  95  96
ENDBRANCH  63  88
ENDBRANCH  37  38
ENDBRANCH  30  32
ENDBRANCH  29  30
ENDBRANCH  28  29
ENDBRANCH   1  28
TORSDOF 20
ENDMDL
MODEL 3
REMARK VINA RESULT:     -11.0      6.442     11.975
REMARK SMILES Cc1cc(OC(F)(F)F)cc2c1O[C@H](C(F)(F)F)C(C(=O)OCCOCCOC(=O)c1ccc(-c3c4nc(c(-c5c(F)cc(S(=O)(=O)[O-])cc5F)c5ccc([nH]5)c(-c5c(F)cc(S(=O)(=O)[O-])cc5F)c5nc(c(-c6c(F)cc(S(=O)(=O)[O-])cc6F)c6ccc3[nH]6)C=C5)C=C4)cc1)=C2
REMARK SMILES IDX 26 1 25 2 24 3 23 4 22 5 20 6 21 7 19 8 1 9 2 10 3 11 12 12
REMARK SMILES IDX 4 13 11 14 13 15 10 16 97 17 14 18 5 19 6 20 7 21 8 22 9 23
REMARK SMILES IDX 15 24 16 25 17 26 18 27 27 28 28 29 29 30 30 31 31 32 32 33
REMARK SMILES IDX 96 34 33 35 95 36 34 37 35 38 36 39 89 40 37 41 94 42 88 43
REMARK SMILES IDX 90 44 38 45 93 46 87 47 86 48 39 50 73 51 52 52 72 53 53 54
REMARK SMILES IDX 56 55 71 56 91 57 54 58 55 59 70 61 92 62 57 63 40 64 41 65
REMARK SMILES IDX 50 66 42 67 43 68 49 69 51 70 44 71 45 72 46 73 47 74 48 75
REMARK SMILES IDX 74 76 75 77 84 78 76 79 77 80 83 81 85 82 78 83 79 84 80 85
REMARK SMILES IDX 81 86 82 87 58 88 59 89 68 90 60 91 61 92 67 93 69 94 62 95
REMARK SMILES IDX 63 96 64 97 65 98 66 99
REMARK H PARENT 90 49 56 60
REMARK Flexibility Score: inf
ROOT
ATOM      1  C   UNL A   1      34.558  32.463  28.026  1.00  0.00     0.202 C 
ENDROOT
BRANCH   1   2
ATOM      2  O   UNL A   1      33.400  31.696  27.688  1.00  0.00    -0.374 OA
BRANCH   2   3
ATOM      3  C   UNL A   1      33.592  30.523  26.901  1.00  0.00     0.202 C 
BRANCH   3   4
ATOM      4  C   UNL A   1      32.377  29.601  26.745  1.00  0.00     0.261 C 
BRANCH   4   5
ATOM      5  O   UNL A   1      31.936  29.529  25.381  1.00  0.00    -0.460 OA
BRANCH   5   6
ATOM      6  C   UNL A   1      32.630  28.660  24.611  1.00  0.00     0.338 C 
ATOM      7  O   UNL A   1      33.404  28.937  23.707  1.00  0.00    -0.246 OA
BRANCH   6   8
ATOM      8  C   UNL A   1      32.423  27.282  25.095  1.00  0.00     0.087 C 
ATOM      9  C   UNL A   1      30.647  22.585  26.142  1.00  0.00     0.048 C 
ATOM     10  C   UNL A   1      31.998  23.231  26.005  1.00  0.00    -0.005 A 
ATOM     11  C   UNL A   1      33.154  22.433  26.108  1.00  0.00     0.054 A 
ATOM     12  C   UNL A   1      32.130  24.614  25.800  1.00  0.00     0.131 A 
ATOM     13  C   UNL A   1      34.425  22.998  25.988  1.00  0.00     0.130 A 
ATOM     14  C   UNL A   1      33.399  25.173  25.647  1.00  0.00     0.021 A 
ATOM     15  O   UNL A   1      30.985  25.361  25.776  1.00  0.00    -0.475 OA
ATOM     16  C   UNL A   1      34.538  24.371  25.761  1.00  0.00     0.058 A 
ATOM     17  C   UNL A   1      33.540  26.574  25.302  1.00  0.00     0.027 C 
ATOM     18  C   UNL A   1      31.037  26.735  25.295  1.00  0.00     0.316 C 
BRANCH  13  19
ATOM     19  O   UNL A   1      35.620  22.345  26.062  1.00  0.00    -0.406 OA
BRANCH  19  20
ATOM     20  C   UNL A   1      36.117  21.738  24.883  1.00  0.00     0.573 C 
ATOM     21  F   UNL A   1      37.327  22.235  24.551  1.00  0.00    -0.132 F 
ATOM     22  F   UNL A   1      36.198  20.397  25.017  1.00  0.00    -0.132 F 
ATOM     23  F   UNL A   1      35.263  22.006  23.868  1.00  0.00    -0.132 F 
ENDBRANCH  19  20
ENDBRANCH  13  19
BRANCH  18  24
ATOM     24  C   UNL A   1      30.171  26.835  24.030  1.00  0.00     0.430 C 
ATOM     25  F   UNL A   1      29.143  25.955  24.073  1.00  0.00    -0.167 F 
ATOM     26  F   UNL A   1      29.630  28.066  23.887  1.00  0.00    -0.167 F 
ATOM     27  F   UNL A   1      30.886  26.573  22.912  1.00  0.00    -0.167 F 
ENDBRANCH  18  24
ENDBRANCH   6   8
ENDBRANCH   5   6
ENDBRANCH   4   5
ENDBRANCH   3   4
ENDBRANCH   2   3
ENDBRANCH   1   2
BRANCH   1  28
ATOM     28  C   UNL A   1      35.097  32.321  29.455  1.00  0.00     0.261 C 
BRANCH  28  29
ATOM     29  O   UNL A   1      35.834  31.096  29.631  1.00  0.00    -0.460 OA
BRANCH  29  30
ATOM     30  C   UNL A   1      36.816  31.151  30.562  1.00  0.00     0.338 C 
ATOM     31  O   UNL A   1      36.739  31.606  31.693  1.00  0.00    -0.246 OA
BRANCH  30  32
ATOM     32  C   UNL A   1      37.997  30.411  30.088  1.00  0.00     0.060 A 
ATOM     33  C   UNL A   1      38.976  30.060  31.026  1.00  0.00     0.016 A 
ATOM     34  C   UNL A   1      38.198  30.179  28.726  1.00  0.00     0.016 A 
ATOM     35  C   UNL A   1      40.182  29.508  30.601  1.00  0.00     0.010 A 
ATOM     36  C   UNL A   1      39.417  29.644  28.299  1.00  0.00     0.010 A 
ATOM     37  C   UNL A   1      40.426  29.342  29.232  1.00  0.00    -0.014 A 
BRANCH  37  38
ATOM     38  C   UNL A   1      41.800  29.028  28.772  1.00  0.00     0.031 A 
ATOM     39  C   UNL A   1      42.115  27.616  28.358  1.00  0.00     0.074 A 
ATOM     40  C   UNL A   1      42.735  29.992  28.681  1.00  0.00     0.049 A 
ATOM     41  N   UNL A   1      43.247  27.108  27.947  1.00  0.00    -0.248 NA
ATOM     42  C   UNL A   1      41.005  26.649  28.406  1.00  0.00     0.031 C 
ATOM     43  C   UNL A   1      42.527  31.404  28.997  1.00  0.00     0.029 A 
ATOM     44  N   UNL A   1      44.049  29.924  28.293  1.00  0.00    -0.354 N 
ATOM     45  C   UNL A   1      42.983  25.772  27.670  1.00  0.00     0.074 A 
ATOM     46  C   UNL A   1      41.593  25.536  27.993  1.00  0.00     0.031 C 
ATOM     47  C   UNL A   1      43.679  32.070  28.796  1.00  0.00     0.029 A 
ATOM     48  C   UNL A   1      44.709  31.128  28.364  1.00  0.00     0.049 A 
ATOM     49  H   UNL A   1      44.479  29.091  27.992  1.00  0.00     0.167 HD
ATOM     50  C   UNL A   1      43.820  24.832  27.175  1.00  0.00     0.037 A 
ATOM     51  C   UNL A   1      46.002  31.425  28.124  1.00  0.00     0.037 A 
ATOM     52  C   UNL A   1      45.205  25.067  26.865  1.00  0.00     0.049 A 
ATOM     53  C   UNL A   1      46.941  30.329  27.686  1.00  0.00     0.074 A 
ATOM     54  C   UNL A   1      46.140  24.172  26.375  1.00  0.00     0.029 A 
ATOM     55  N   UNL A   1      45.853  26.283  27.011  1.00  0.00    -0.354 N 
ATOM     56  N   UNL A   1      46.678  29.069  27.431  1.00  0.00    -0.248 NA
ATOM     57  C   UNL A   1      48.355  30.695  27.507  1.00  0.00     0.031 C 
ATOM     58  C   UNL A   1      47.363  24.837  26.263  1.00  0.00     0.029 A 
ATOM     59  C   UNL A   1      47.180  26.158  26.642  1.00  0.00     0.049 A 
ATOM     60  H   UNL A   1      45.431  27.113  27.332  1.00  0.00     0.167 HD
ATOM     61  C   UNL A   1      47.885  28.501  27.035  1.00  0.00     0.074 A 
ATOM     62  C   UNL A   1      48.878  29.554  27.075  1.00  0.00     0.031 C 
ATOM     63  C   UNL A   1      48.150  27.223  26.672  1.00  0.00     0.037 A 
BRANCH  50  64
ATOM     64  C   UNL A   1      43.270  23.457  26.929  1.00  0.00     0.058 A 
ATOM     65  C   UNL A   1      43.044  22.988  25.626  1.00  0.00     0.135 A 
ATOM     66  C   UNL A   1      43.051  22.570  27.994  1.00  0.00     0.135 A 
ATOM     67  F   UNL A   1      43.216  23.804  24.574  1.00  0.00    -0.206 F 
ATOM     68  C   UNL A   1      42.627  21.683  25.387  1.00  0.00     0.059 A 
ATOM     69  C   UNL A   1      42.653  21.254  27.778  1.00  0.00     0.059 A 
ATOM     70  F   UNL A   1      43.245  22.974  29.260  1.00  0.00    -0.206 F 
ATOM     71  C   UNL A   1      42.445  20.820  26.469  1.00  0.00     0.060 A 
BRANCH  71  72
ATOM     72  S   UNL A   1      41.959  19.114  26.134  1.00  0.00     0.124 S 
ATOM     73  O   UNL A   1      42.822  18.780  25.005  1.00  0.00    -0.237 OA
ATOM     74  O   UNL A   1      42.278  18.449  27.393  1.00  0.00    -0.237 OA
ATOM     75  O   UNL A   1      40.537  19.218  25.825  1.00  0.00    -0.744 OA
ENDBRANCH  71  72
ENDBRANCH  50  64
BRANCH  51  76
ATOM     76  C   UNL A   1      46.504  32.813  28.304  1.00  0.00     0.058 A 
ATOM     77  C   UNL A   1      46.990  33.249  29.546  1.00  0.00     0.135 A 
ATOM     78  C   UNL A   1      46.467  33.743  27.254  1.00  0.00     0.135 A 
ATOM     79  F   UNL A   1      47.034  32.400  30.583  1.00  0.00    -0.206 F 
ATOM     80  C   UNL A   1      47.396  34.564  29.749  1.00  0.00     0.059 A 
ATOM     81  C   UNL A   1      46.890  35.058  27.425  1.00  0.00     0.059 A 
ATOM     82  F   UNL A   1      46.018  33.375  26.043  1.00  0.00    -0.206 F 
ATOM     83  C   UNL A   1      47.338  35.463  28.682  1.00  0.00     0.060 A 
BRANCH  83  84
ATOM     84  S   UNL A   1      47.871  37.166  28.955  1.00  0.00     0.124 S 
ATOM     85  O   UNL A   1      49.070  37.235  28.128  1.00  0.00    -0.237 OA
ATOM     86  O   UNL A   1      46.720  37.927  28.476  1.00  0.00    -0.237 OA
ATOM     87  O   UNL A   1      48.093  37.221  30.396  1.00  0.00    -0.744 OA
ENDBRANCH  83  84
ENDBRANCH  51  76
BRANCH  63  88
ATOM     88  C   UNL A   1      49.556  26.887  26.261  1.00  0.00     0.058 A 
ATOM     89  C   UNL A   1      50.452  26.274  27.150  1.00  0.00     0.135 A 
ATOM     90  C   UNL A   1      49.982  27.102  24.941  1.00  0.00     0.135 A 
ATOM     91  F   UNL A   1      50.095  26.051  28.424  1.00  0.00    -0.206 F 
ATOM     92  C   UNL A   1      51.727  25.894  26.745  1.00  0.00     0.059 A 
ATOM     93  C   UNL A   1      51.244  26.708  24.507  1.00  0.00     0.059 A 
ATOM     94  F   UNL A   1      49.157  27.675  24.049  1.00  0.00    -0.206 F 
ATOM     95  C   UNL A   1      52.112  26.109  25.419  1.00  0.00     0.060 A 
BRANCH  95  96
ATOM     96  S   UNL A   1      53.749  25.557  24.896  1.00  0.00     0.124 S 
ATOM     97  O   UNL A   1      53.683  24.128  25.183  1.00  0.00    -0.237 OA
ATOM     98  O   UNL A   1      53.764  25.920  23.483  1.00  0.00    -0.237 OA
ATOM     99  O   UNL A   1      54.655  26.326  25.744  1.00  0.00    -0.744 OA
ENDBRANCH  95  96
ENDBRANCH  63  88
ENDBRANCH  37  38
ENDBRANCH  30  32
ENDBRANCH  29  30
ENDBRANCH  28  29
ENDBRANCH   1  28
TORSDOF 20
ENDMDL
