MODEL 1
REMARK VINA RESULT:      -9.7      0.000      0.000
REMARK SMILES C#CCN(CC(=O)OCCOCCOC(=O)c1ccc(-c2c3nc(c(-c4c(F)cc(S(=O)(=O)[O-])cc4F)c4ccc([nH]4)c(-c4c(F)cc(S(=O)(=O)[O-])cc4F)c4nc(c(-c5c(F)cc(S(=O)(=O)[O-])cc5F)c5ccc2[nH]5)C=C4)C=C3)cc1)C(=O)N1CC[N@@H+]2CCC[C@H]2C1
REMARK SMILES IDX 11 1 10 2 9 3 8 4 6 5 7 6 5 7 4 8 3 9 2 10 1 11 83 12 84 13
REMARK SMILES IDX 85 14 86 15 93 16 87 17 92 18 88 19 91 20 89 21 90 23 12 24
REMARK SMILES IDX 13 25 14 26 15 27 16 28 17 29 18 30 82 31 19 32 81 33 20 34
REMARK SMILES IDX 21 35 22 36 75 37 23 38 80 39 74 40 76 41 24 42 79 43 73 44
REMARK SMILES IDX 72 45 25 47 59 48 38 49 58 50 39 51 42 52 57 53 77 54 40 55
REMARK SMILES IDX 41 56 56 58 78 59 43 60 26 61 27 62 36 63 28 64 29 65 35 66
REMARK SMILES IDX 37 67 30 68 31 69 32 70 33 71 34 72 60 73 61 74 70 75 62 76
REMARK SMILES IDX 63 77 69 78 71 79 64 80 65 81 66 82 67 83 68 84 44 85 45 86
REMARK SMILES IDX 54 87 46 88 47 89 53 90 55 91 48 92 49 93 50 94 51 95 52 96
REMARK H PARENT 88 22 76 46 42 57
REMARK Flexibility Score: inf
ROOT
ATOM      1  O   UNL A   1      31.762  28.135  24.938  1.00  0.00    -0.374 OA
ENDROOT
BRANCH   1   2
ATOM      2  C   UNL A   1      31.407  27.278  26.027  1.00  0.00     0.202 C 
BRANCH   2   3
ATOM      3  C   UNL A   1      30.638  25.997  25.679  1.00  0.00     0.261 C 
BRANCH   3   4
ATOM      4  O   UNL A   1      30.710  25.007  26.742  1.00  0.00    -0.462 OA
BRANCH   4   5
ATOM      5  C   UNL A   1      31.179  23.790  26.343  1.00  0.00     0.325 C 
ATOM      6  O   UNL A   1      30.482  22.779  26.280  1.00  0.00    -0.250 OA
BRANCH   5   7
ATOM      7  C   UNL A   1      32.664  23.756  25.927  1.00  0.00     0.245 C 
BRANCH   7   8
ATOM      8  N   UNL A   1      33.111  22.916  24.813  1.00  0.00    -0.302 N 
BRANCH   8   9
ATOM      9  C   UNL A   1      32.587  23.324  23.443  1.00  0.00     0.211 C 
BRANCH   9  10
ATOM     10  C   UNL A   1      33.127  24.721  23.183  1.00  0.00    -0.085 C 
ATOM     11  C   UNL A   1      33.591  25.919  22.959  1.00  0.00     0.006 C 
ENDBRANCH   9  10
ENDBRANCH   8   9
BRANCH   8  12
ATOM     12  C   UNL A   1      34.113  21.926  24.880  1.00  0.00     0.321 C 
ATOM     13  O   UNL A   1      33.847  20.739  24.662  1.00  0.00    -0.248 OA
BRANCH  12  14
ATOM     14  N   UNL A   1      35.456  22.274  25.131  1.00  0.00    -0.313 N 
ATOM     15  C   UNL A   1      35.821  23.343  26.056  1.00  0.00     0.183 C 
ATOM     16  C   UNL A   1      36.431  21.138  25.205  1.00  0.00     0.186 C 
ATOM     17  C   UNL A   1      37.285  23.789  26.081  1.00  0.00     0.284 C 
ATOM     18  C   UNL A   1      37.904  21.619  25.299  1.00  0.00     0.204 C 
ATOM     19  N   UNL A   1      38.082  22.609  26.373  1.00  0.00    -0.330 N 
ATOM     20  C   UNL A   1      38.959  20.593  25.702  1.00  0.00     0.073 C 
ATOM     21  C   UNL A   1      39.506  22.832  26.515  1.00  0.00     0.262 C 
ATOM     22  H   UNL A   1      37.739  22.291  27.279  1.00  0.00     0.348 HD
ATOM     23  C   UNL A   1      40.053  21.414  26.411  1.00  0.00     0.068 C 
ENDBRANCH  12  14
ENDBRANCH   8  12
ENDBRANCH   7   8
ENDBRANCH   5   7
ENDBRANCH   4   5
ENDBRANCH   3   4
ENDBRANCH   2   3
ENDBRANCH   1   2
BRANCH   1  24
ATOM     24  C   UNL A   1      32.867  29.001  25.131  1.00  0.00     0.202 C 
BRANCH  24  25
ATOM     25  C   UNL A   1      32.952  29.816  26.437  1.00  0.00     0.261 C 
BRANCH  25  26
ATOM     26  O   UNL A   1      34.124  29.603  27.185  1.00  0.00    -0.460 OA
BRANCH  26  27
ATOM     27  C   UNL A   1      34.708  30.733  27.616  1.00  0.00     0.338 C 
ATOM     28  O   UNL A   1      34.223  31.840  27.760  1.00  0.00    -0.246 OA
BRANCH  27  29
ATOM     29  C   UNL A   1      35.988  30.256  28.120  1.00  0.00     0.060 A 
ATOM     30  C   UNL A   1      35.981  29.604  29.353  1.00  0.00     0.016 A 
ATOM     31  C   UNL A   1      37.124  30.307  27.302  1.00  0.00     0.016 A 
ATOM     32  C   UNL A   1      37.156  29.046  29.813  1.00  0.00     0.010 A 
ATOM     33  C   UNL A   1      38.298  29.734  27.756  1.00  0.00     0.010 A 
ATOM     34  C   UNL A   1      38.316  29.154  29.033  1.00  0.00    -0.014 A 
BRANCH  34  35
ATOM     35  C   UNL A   1      39.605  28.861  29.665  1.00  0.00     0.031 A 
ATOM     36  C   UNL A   1      40.001  29.713  30.832  1.00  0.00     0.074 A 
ATOM     37  C   UNL A   1      40.342  27.834  29.221  1.00  0.00     0.049 A 
ATOM     38  N   UNL A   1      41.068  29.648  31.574  1.00  0.00    -0.248 NA
ATOM     39  C   UNL A   1      39.068  30.792  31.209  1.00  0.00     0.031 C 
ATOM     40  C   UNL A   1      39.989  26.967  28.095  1.00  0.00     0.029 A 
ATOM     41  N   UNL A   1      41.538  27.349  29.664  1.00  0.00    -0.354 N 
ATOM     42  C   UNL A   1      40.940  30.677  32.498  1.00  0.00     0.074 A 
ATOM     43  C   UNL A   1      39.717  31.381  32.199  1.00  0.00     0.031 C 
ATOM     44  C   UNL A   1      40.957  26.050  27.936  1.00  0.00     0.029 A 
ATOM     45  C   UNL A   1      42.003  26.291  28.926  1.00  0.00     0.049 A 
ATOM     46  H   UNL A   1      42.020  27.722  30.438  1.00  0.00     0.167 HD
ATOM     47  C   UNL A   1      41.772  30.986  33.517  1.00  0.00     0.037 A 
ATOM     48  C   UNL A   1      43.161  25.616  29.039  1.00  0.00     0.037 A 
ATOM     49  C   UNL A   1      42.982  30.256  33.774  1.00  0.00     0.049 A 
ATOM     50  C   UNL A   1      44.092  26.004  30.157  1.00  0.00     0.074 A 
ATOM     51  C   UNL A   1      43.909  30.447  34.780  1.00  0.00     0.029 A 
ATOM     52  N   UNL A   1      43.438  29.193  33.000  1.00  0.00    -0.354 N 
ATOM     53  N   UNL A   1      43.948  26.951  31.055  1.00  0.00    -0.248 NA
ATOM     54  C   UNL A   1      45.329  25.229  30.286  1.00  0.00     0.031 C 
ATOM     55  C   UNL A   1      44.955  29.542  34.576  1.00  0.00     0.029 A 
ATOM     56  C   UNL A   1      44.648  28.738  33.486  1.00  0.00     0.049 A 
ATOM     57  H   UNL A   1      42.966  28.820  32.220  1.00  0.00     0.167 HD
ATOM     58  C   UNL A   1      45.068  26.876  31.874  1.00  0.00     0.074 A 
ATOM     59  C   UNL A   1      45.868  25.775  31.369  1.00  0.00     0.031 C 
ATOM     60  C   UNL A   1      45.410  27.637  32.944  1.00  0.00     0.037 A 
BRANCH  47  61
ATOM     61  C   UNL A   1      41.417  32.170  34.372  1.00  0.00     0.058 A 
ATOM     62  C   UNL A   1      40.580  32.058  35.496  1.00  0.00     0.135 A 
ATOM     63  C   UNL A   1      41.915  33.443  34.056  1.00  0.00     0.135 A 
ATOM     64  F   UNL A   1      40.049  30.870  35.829  1.00  0.00    -0.206 F 
ATOM     65  C   UNL A   1      40.228  33.168  36.257  1.00  0.00     0.059 A 
ATOM     66  C   UNL A   1      41.602  34.563  34.821  1.00  0.00     0.059 A 
ATOM     67  F   UNL A   1      42.705  33.614  32.984  1.00  0.00    -0.206 F 
ATOM     68  C   UNL A   1      40.747  34.418  35.912  1.00  0.00     0.060 A 
BRANCH  68  69
ATOM     69  S   UNL A   1      40.292  35.848  36.915  1.00  0.00     0.124 S 
ATOM     70  O   UNL A   1      39.310  35.266  37.824  1.00  0.00    -0.237 OA
ATOM     71  O   UNL A   1      41.567  36.224  37.516  1.00  0.00    -0.237 OA
ATOM     72  O   UNL A   1      39.759  36.793  35.939  1.00  0.00    -0.744 OA
ENDBRANCH  68  69
ENDBRANCH  47  61
BRANCH  48  73
ATOM     73  C   UNL A   1      43.483  24.536  28.073  1.00  0.00     0.058 A 
ATOM     74  C   UNL A   1      43.048  23.220  28.273  1.00  0.00     0.135 A 
ATOM     75  C   UNL A   1      44.197  24.815  26.895  1.00  0.00     0.135 A 
ATOM     76  F   UNL A   1      42.360  22.901  29.380  1.00  0.00    -0.206 F 
ATOM     77  C   UNL A   1      43.318  22.214  27.348  1.00  0.00     0.059 A 
ATOM     78  C   UNL A   1      44.455  23.835  25.943  1.00  0.00     0.059 A 
ATOM     79  F   UNL A   1      44.618  26.065  26.643  1.00  0.00    -0.206 F 
ATOM     80  C   UNL A   1      44.018  22.534  26.183  1.00  0.00     0.060 A 
BRANCH  80  81
ATOM     81  S   UNL A   1      44.313  21.235  24.964  1.00  0.00     0.124 S 
ATOM     82  O   UNL A   1      45.646  20.778  25.339  1.00  0.00    -0.237 OA
ATOM     83  O   UNL A   1      43.218  20.308  25.236  1.00  0.00    -0.237 OA
ATOM     84  O   UNL A   1      44.222  21.943  23.690  1.00  0.00    -0.744 OA
ENDBRANCH  80  81
ENDBRANCH  48  73
BRANCH  60  85
ATOM     85  C   UNL A   1      46.688  27.284  33.650  1.00  0.00     0.058 A 
ATOM     86  C   UNL A   1      47.907  27.893  33.318  1.00  0.00     0.135 A 
ATOM     87  C   UNL A   1      46.675  26.367  34.713  1.00  0.00     0.135 A 
ATOM     88  F   UNL A   1      47.971  28.772  32.305  1.00  0.00    -0.206 F 
ATOM     89  C   UNL A   1      49.078  27.582  33.997  1.00  0.00     0.059 A 
ATOM     90  C   UNL A   1      47.827  26.069  35.430  1.00  0.00     0.059 A 
ATOM     91  F   UNL A   1      45.530  25.770  35.079  1.00  0.00    -0.206 F 
ATOM     92  C   UNL A   1      49.027  26.671  35.054  1.00  0.00     0.060 A 
BRANCH  92  93
ATOM     93  S   UNL A   1      50.549  26.302  35.947  1.00  0.00     0.124 S 
ATOM     94  O   UNL A   1      51.549  26.448  34.895  1.00  0.00    -0.237 OA
ATOM     95  O   UNL A   1      50.561  27.331  36.982  1.00  0.00    -0.237 OA
ATOM     96  O   UNL A   1      50.339  24.940  36.429  1.00  0.00    -0.744 OA
ENDBRANCH  92  93
ENDBRANCH  60  85
ENDBRANCH  34  35
ENDBRANCH  27  29
ENDBRANCH  26  27
ENDBRANCH  25  26
ENDBRANCH  24  25
ENDBRANCH   1  24
TORSDOF 22
ENDMDL
MODEL 2
REMARK VINA RESULT:      -9.6      0.896      1.959
REMARK SMILES C#CCN(CC(=O)OCCOCCOC(=O)c1ccc(-c2c3nc(c(-c4c(F)cc(S(=O)(=O)[O-])cc4F)c4ccc([nH]4)c(-c4c(F)cc(S(=O)(=O)[O-])cc4F)c4nc(c(-c5c(F)cc(S(=O)(=O)[O-])cc5F)c5ccc2[nH]5)C=C4)C=C3)cc1)C(=O)N1CC[N@@H+]2CCC[C@H]2C1
REMARK SMILES IDX 11 1 10 2 9 3 8 4 6 5 7 6 5 7 4 8 3 9 2 10 1 11 83 12 84 13
REMARK SMILES IDX 85 14 86 15 93 16 87 17 92 18 88 19 91 20 89 21 90 23 12 24
REMARK SMILES IDX 13 25 14 26 15 27 16 28 17 29 18 30 82 31 19 32 81 33 20 34
REMARK SMILES IDX 21 35 22 36 75 37 23 38 80 39 74 40 76 41 24 42 79 43 73 44
REMARK SMILES IDX 72 45 25 47 59 48 38 49 58 50 39 51 42 52 57 53 77 54 40 55
REMARK SMILES IDX 41 56 56 58 78 59 43 60 26 61 27 62 36 63 28 64 29 65 35 66
REMARK SMILES IDX 37 67 30 68 31 69 32 70 33 71 34 72 60 73 61 74 70 75 62 76
REMARK SMILES IDX 63 77 69 78 71 79 64 80 65 81 66 82 67 83 68 84 44 85 45 86
REMARK SMILES IDX 54 87 46 88 47 89 53 90 55 91 48 92 49 93 50 94 51 95 52 96
REMARK H PARENT 88 22 76 46 42 57
REMARK Flexibility Score: inf
ROOT
ATOM      1  O   UNL A   1      31.350  29.444  25.116  1.00  0.00    -0.374 OA
ENDROOT
BRANCH   1   2
ATOM      2  C   UNL A   1      32.058  28.244  24.792  1.00  0.00     0.202 C 
BRANCH   2   3
ATOM      3  C   UNL A   1      31.241  27.103  24.171  1.00  0.00     0.261 C 
BRANCH   3   4
ATOM      4  O   UNL A   1      30.406  26.429  25.152  1.00  0.00    -0.462 OA
BRANCH   4   5
ATOM      5  C   UNL A   1      30.923  25.254  25.614  1.00  0.00     0.325 C 
ATOM      6  O   UNL A   1      30.968  24.950  26.804  1.00  0.00    -0.250 OA
BRANCH   5   7
ATOM      7  C   UNL A   1      31.428  24.281  24.528  1.00  0.00     0.245 C 
BRANCH   7   8
ATOM      8  N   UNL A   1      32.659  23.512  24.725  1.00  0.00    -0.302 N 
BRANCH   8   9
ATOM      9  C   UNL A   1      32.469  22.125  25.321  1.00  0.00     0.211 C 
BRANCH   9  10
ATOM     10  C   UNL A   1      32.373  21.168  24.144  1.00  0.00    -0.085 C 
ATOM     11  C   UNL A   1      32.290  20.348  23.134  1.00  0.00     0.006 C 
ENDBRANCH   9  10
ENDBRANCH   8   9
BRANCH   8  12
ATOM     12  C   UNL A   1      33.934  23.862  24.234  1.00  0.00     0.321 C 
ATOM     13  O   UNL A   1      34.068  24.766  23.403  1.00  0.00    -0.248 OA
BRANCH  12  14
ATOM     14  N   UNL A   1      35.095  23.234  24.729  1.00  0.00    -0.313 N 
ATOM     15  C   UNL A   1      35.835  22.244  23.952  1.00  0.00     0.183 C 
ATOM     16  C   UNL A   1      36.024  24.097  25.529  1.00  0.00     0.186 C 
ATOM     17  C   UNL A   1      36.939  21.462  24.666  1.00  0.00     0.284 C 
ATOM     18  C   UNL A   1      37.175  23.288  26.187  1.00  0.00     0.204 C 
ATOM     19  N   UNL A   1      37.869  22.439  25.206  1.00  0.00    -0.330 N 
ATOM     20  C   UNL A   1      38.357  24.070  26.751  1.00  0.00     0.073 C 
ATOM     21  C   UNL A   1      39.039  21.898  25.865  1.00  0.00     0.262 C 
ATOM     22  H   UNL A   1      38.199  22.952  24.388  1.00  0.00     0.348 HD
ATOM     23  C   UNL A   1      39.556  23.111  26.627  1.00  0.00     0.068 C 
ENDBRANCH  12  14
ENDBRANCH   8  12
ENDBRANCH   7   8
ENDBRANCH   5   7
ENDBRANCH   4   5
ENDBRANCH   3   4
ENDBRANCH   2   3
ENDBRANCH   1   2
BRANCH   1  24
ATOM     24  C   UNL A   1      32.026  30.395  25.921  1.00  0.00     0.202 C 
BRANCH  24  25
ATOM     25  C   UNL A   1      32.796  29.903  27.163  1.00  0.00     0.261 C 
BRANCH  25  26
ATOM     26  O   UNL A   1      34.183  30.129  27.119  1.00  0.00    -0.460 OA
BRANCH  26  27
ATOM     27  C   UNL A   1      34.602  31.103  27.946  1.00  0.00     0.338 C 
ATOM     28  O   UNL A   1      33.984  32.055  28.384  1.00  0.00    -0.246 OA
BRANCH  27  29
ATOM     29  C   UNL A   1      35.890  30.599  28.401  1.00  0.00     0.060 A 
ATOM     30  C   UNL A   1      35.895  29.825  29.562  1.00  0.00     0.016 A 
ATOM     31  C   UNL A   1      37.025  30.753  27.594  1.00  0.00     0.016 A 
ATOM     32  C   UNL A   1      37.080  29.244  29.964  1.00  0.00     0.010 A 
ATOM     33  C   UNL A   1      38.209  30.157  27.990  1.00  0.00     0.010 A 
ATOM     34  C   UNL A   1      38.238  29.451  29.201  1.00  0.00    -0.014 A 
BRANCH  34  35
ATOM     35  C   UNL A   1      39.532  29.118  29.802  1.00  0.00     0.031 A 
ATOM     36  C   UNL A   1      39.969  29.939  30.976  1.00  0.00     0.074 A 
ATOM     37  C   UNL A   1      40.237  28.084  29.324  1.00  0.00     0.049 A 
ATOM     38  N   UNL A   1      41.049  29.836  31.696  1.00  0.00    -0.248 NA
ATOM     39  C   UNL A   1      39.068  31.031  31.391  1.00  0.00     0.031 C 
ATOM     40  C   UNL A   1      39.843  27.246  28.190  1.00  0.00     0.029 A 
ATOM     41  N   UNL A   1      41.430  27.564  29.735  1.00  0.00    -0.354 N 
ATOM     42  C   UNL A   1      40.961  30.850  32.641  1.00  0.00     0.074 A 
ATOM     43  C   UNL A   1      39.749  31.586  32.379  1.00  0.00     0.031 C 
ATOM     44  C   UNL A   1      40.787  26.311  27.994  1.00  0.00     0.029 A 
ATOM     45  C   UNL A   1      41.857  26.510  28.967  1.00  0.00     0.049 A 
ATOM     46  H   UNL A   1      41.935  27.911  30.505  1.00  0.00     0.167 HD
ATOM     47  C   UNL A   1      41.819  31.121  33.648  1.00  0.00     0.037 A 
ATOM     48  C   UNL A   1      43.002  25.809  29.045  1.00  0.00     0.037 A 
ATOM     49  C   UNL A   1      43.018  30.360  33.868  1.00  0.00     0.049 A 
ATOM     50  C   UNL A   1      43.963  26.154  30.151  1.00  0.00     0.074 A 
ATOM     51  C   UNL A   1      43.968  30.512  34.859  1.00  0.00     0.029 A 
ATOM     52  N   UNL A   1      43.435  29.303  33.066  1.00  0.00    -0.354 N 
ATOM     53  N   UNL A   1      43.858  27.087  31.070  1.00  0.00    -0.248 NA
ATOM     54  C   UNL A   1      45.185  25.350  30.242  1.00  0.00     0.031 C 
ATOM     55  C   UNL A   1      44.989  29.588  34.618  1.00  0.00     0.029 A 
ATOM     56  C   UNL A   1      44.644  28.812  33.520  1.00  0.00     0.049 A 
ATOM     57  H   UNL A   1      42.939  28.955  32.289  1.00  0.00     0.167 HD
ATOM     58  C   UNL A   1      44.991  26.972  31.865  1.00  0.00     0.074 A 
ATOM     59  C   UNL A   1      45.757  25.864  31.323  1.00  0.00     0.031 C 
ATOM     60  C   UNL A   1      45.371  27.705  32.942  1.00  0.00     0.037 A 
BRANCH  47  61
ATOM     61  C   UNL A   1      41.508  32.296  34.532  1.00  0.00     0.058 A 
ATOM     62  C   UNL A   1      42.037  33.576  34.292  1.00  0.00     0.135 A 
ATOM     63  C   UNL A   1      40.672  32.137  35.649  1.00  0.00     0.135 A 
ATOM     64  F   UNL A   1      42.867  33.782  33.257  1.00  0.00    -0.206 F 
ATOM     65  C   UNL A   1      41.771  34.646  35.141  1.00  0.00     0.059 A 
ATOM     66  C   UNL A   1      40.367  33.200  36.493  1.00  0.00     0.059 A 
ATOM     67  F   UNL A   1      40.152  30.934  35.938  1.00  0.00    -0.206 F 
ATOM     68  C   UNL A   1      40.932  34.448  36.239  1.00  0.00     0.060 A 
BRANCH  68  69
ATOM     69  S   UNL A   1      40.587  35.848  37.325  1.00  0.00     0.124 S 
ATOM     70  O   UNL A   1      41.928  36.373  37.560  1.00  0.00    -0.237 OA
ATOM     71  O   UNL A   1      39.718  36.677  36.495  1.00  0.00    -0.237 OA
ATOM     72  O   UNL A   1      39.944  35.232  38.481  1.00  0.00    -0.744 OA
ENDBRANCH  68  69
ENDBRANCH  47  61
BRANCH  48  73
ATOM     73  C   UNL A   1      43.281  24.741  28.053  1.00  0.00     0.058 A 
ATOM     74  C   UNL A   1      43.965  25.009  26.860  1.00  0.00     0.135 A 
ATOM     75  C   UNL A   1      42.908  23.410  28.305  1.00  0.00     0.135 A 
ATOM     76  F   UNL A   1      44.345  26.263  26.572  1.00  0.00    -0.206 F 
ATOM     77  C   UNL A   1      44.260  24.000  25.946  1.00  0.00     0.059 A 
ATOM     78  C   UNL A   1      43.215  22.380  27.422  1.00  0.00     0.059 A 
ATOM     79  F   UNL A   1      42.269  23.094  29.443  1.00  0.00    -0.206 F 
ATOM     80  C   UNL A   1      43.884  22.688  26.240  1.00  0.00     0.060 A 
BRANCH  80  81
ATOM     81  S   UNL A   1      44.322  21.379  25.075  1.00  0.00     0.124 S 
ATOM     82  O   UNL A   1      44.161  22.060  23.795  1.00  0.00    -0.237 OA
ATOM     83  O   UNL A   1      45.694  21.070  25.467  1.00  0.00    -0.237 OA
ATOM     84  O   UNL A   1      43.346  20.333  25.362  1.00  0.00    -0.744 OA
ENDBRANCH  80  81
ENDBRANCH  48  73
BRANCH  60  85
ATOM     85  C   UNL A   1      46.654  27.311  33.616  1.00  0.00     0.058 A 
ATOM     86  C   UNL A   1      47.880  27.897  33.268  1.00  0.00     0.135 A 
ATOM     87  C   UNL A   1      46.641  26.377  34.664  1.00  0.00     0.135 A 
ATOM     88  F   UNL A   1      47.944  28.790  32.268  1.00  0.00    -0.206 F 
ATOM     89  C   UNL A   1      49.057  27.547  33.918  1.00  0.00     0.059 A 
ATOM     90  C   UNL A   1      47.800  26.041  35.353  1.00  0.00     0.059 A 
ATOM     91  F   UNL A   1      45.489  25.801  35.044  1.00  0.00    -0.206 F 
ATOM     92  C   UNL A   1      49.005  26.621  34.962  1.00  0.00     0.060 A 
BRANCH  92  93
ATOM     93  S   UNL A   1      50.536  26.201  35.818  1.00  0.00     0.124 S 
ATOM     94  O   UNL A   1      50.156  26.399  37.212  1.00  0.00    -0.237 OA
ATOM     95  O   UNL A   1      50.752  24.817  35.408  1.00  0.00    -0.237 OA
ATOM     96  O   UNL A   1      51.498  27.163  35.286  1.00  0.00    -0.744 OA
ENDBRANCH  92  93
ENDBRANCH  60  85
ENDBRANCH  34  35
ENDBRANCH  27  29
ENDBRANCH  26  27
ENDBRANCH  25  26
ENDBRANCH  24  25
ENDBRANCH   1  24
TORSDOF 22
ENDMDL
MODEL 3
REMARK VINA RESULT:      -9.6      3.305      9.825
REMARK SMILES C#CCN(CC(=O)OCCOCCOC(=O)c1ccc(-c2c3nc(c(-c4c(F)cc(S(=O)(=O)[O-])cc4F)c4ccc([nH]4)c(-c4c(F)cc(S(=O)(=O)[O-])cc4F)c4nc(c(-c5c(F)cc(S(=O)(=O)[O-])cc5F)c5ccc2[nH]5)C=C4)C=C3)cc1)C(=O)N1CC[N@@H+]2CCC[C@H]2C1
REMARK SMILES IDX 11 1 10 2 9 3 8 4 6 5 7 6 5 7 4 8 3 9 2 10 1 11 83 12 84 13
REMARK SMILES IDX 85 14 86 15 93 16 87 17 92 18 88 19 91 20 89 21 90 23 12 24
REMARK SMILES IDX 13 25 14 26 15 27 16 28 17 29 18 30 82 31 19 32 81 33 20 34
REMARK SMILES IDX 21 35 22 36 75 37 23 38 80 39 74 40 76 41 24 42 79 43 73 44
REMARK SMILES IDX 72 45 25 47 59 48 38 49 58 50 39 51 42 52 57 53 77 54 40 55
REMARK SMILES IDX 41 56 56 58 78 59 43 60 26 61 27 62 36 63 28 64 29 65 35 66
REMARK SMILES IDX 37 67 30 68 31 69 32 70 33 71 34 72 60 73 61 74 70 75 62 76
REMARK SMILES IDX 63 77 69 78 71 79 64 80 65 81 66 82 67 83 68 84 44 85 45 86
REMARK SMILES IDX 54 87 46 88 47 89 53 90 55 91 48 92 49 93 50 94 51 95 52 96
REMARK H PARENT 88 22 76 46 42 57
REMARK Flexibility Score: inf
ROOT
ATOM      1  O   UNL A   1      38.917  22.067  25.953  1.00  0.00    -0.374 OA
ENDROOT
BRANCH   1   2
ATOM      2  C   UNL A   1      37.952  21.205  25.343  1.00  0.00     0.202 C 
BRANCH   2   3
ATOM      3  C   UNL A   1      37.051  21.825  24.267  1.00  0.00     0.261 C 
BRANCH   3   4
ATOM      4  O   UNL A   1      35.702  22.069  24.753  1.00  0.00    -0.462 OA
BRANCH   4   5
ATOM      5  C   UNL A   1      35.607  23.090  25.652  1.00  0.00     0.325 C 
ATOM      6  O   UNL A   1      36.343  24.074  25.645  1.00  0.00    -0.250 OA
BRANCH   5   7
ATOM      7  C   UNL A   1      34.469  22.959  26.685  1.00  0.00     0.245 C 
BRANCH   7   8
ATOM      8  N   UNL A   1      33.080  22.788  26.254  1.00  0.00    -0.302 N 
BRANCH   8   9
ATOM      9  C   UNL A   1      32.693  21.368  25.865  1.00  0.00     0.211 C 
BRANCH   9  10
ATOM     10  C   UNL A   1      32.398  21.404  24.374  1.00  0.00    -0.085 C 
ATOM     11  C   UNL A   1      32.145  21.435  23.095  1.00  0.00     0.006 C 
ENDBRANCH   9  10
ENDBRANCH   8   9
BRANCH   8  12
ATOM     12  C   UNL A   1      32.060  23.756  26.363  1.00  0.00     0.321 C 
ATOM     13  O   UNL A   1      31.216  23.690  27.262  1.00  0.00    -0.248 OA
BRANCH  12  14
ATOM     14  N   UNL A   1      32.018  24.861  25.487  1.00  0.00    -0.313 N 
ATOM     15  C   UNL A   1      32.785  24.898  24.246  1.00  0.00     0.183 C 
ATOM     16  C   UNL A   1      30.682  25.519  25.317  1.00  0.00     0.186 C 
ATOM     17  C   UNL A   1      32.846  26.227  23.489  1.00  0.00     0.284 C 
ATOM     18  C   UNL A   1      30.762  26.828  24.487  1.00  0.00     0.204 C 
ATOM     19  N   UNL A   1      31.475  26.621  23.217  1.00  0.00    -0.330 N 
ATOM     20  C   UNL A   1      29.454  27.418  23.968  1.00  0.00     0.073 C 
ATOM     21  C   UNL A   1      31.312  27.830  22.435  1.00  0.00     0.262 C 
ATOM     22  H   UNL A   1      31.097  25.855  22.660  1.00  0.00     0.348 HD
ATOM     23  C   UNL A   1      29.844  28.158  22.675  1.00  0.00     0.068 C 
ENDBRANCH  12  14
ENDBRANCH   8  12
ENDBRANCH   7   8
ENDBRANCH   5   7
ENDBRANCH   4   5
ENDBRANCH   3   4
ENDBRANCH   2   3
ENDBRANCH   1   2
BRANCH   1  24
ATOM     24  C   UNL A   1      40.131  21.474  26.382  1.00  0.00     0.202 C 
BRANCH  24  25
ATOM     25  C   UNL A   1      41.008  22.231  27.400  1.00  0.00     0.261 C 
BRANCH  25  26
ATOM     26  O   UNL A   1      40.530  23.506  27.750  1.00  0.00    -0.460 OA
BRANCH  26  27
ATOM     27  C   UNL A   1      41.256  24.518  27.243  1.00  0.00     0.338 C 
ATOM     28  O   UNL A   1      41.823  24.591  26.169  1.00  0.00    -0.246 OA
BRANCH  27  29
ATOM     29  C   UNL A   1      40.979  25.603  28.174  1.00  0.00     0.060 A 
ATOM     30  C   UNL A   1      41.970  26.573  28.331  1.00  0.00     0.016 A 
ATOM     31  C   UNL A   1      39.702  25.735  28.733  1.00  0.00     0.016 A 
ATOM     32  C   UNL A   1      41.701  27.670  29.122  1.00  0.00     0.010 A 
ATOM     33  C   UNL A   1      39.428  26.842  29.514  1.00  0.00     0.010 A 
ATOM     34  C   UNL A   1      40.449  27.775  29.745  1.00  0.00    -0.014 A 
BRANCH  34  35
ATOM     35  C   UNL A   1      40.294  28.750  30.828  1.00  0.00     0.031 A 
ATOM     36  C   UNL A   1      41.192  28.595  32.017  1.00  0.00     0.074 A 
ATOM     37  C   UNL A   1      39.413  29.750  30.697  1.00  0.00     0.049 A 
ATOM     38  N   UNL A   1      41.271  29.330  33.089  1.00  0.00    -0.248 NA
ATOM     39  C   UNL A   1      42.122  27.450  31.999  1.00  0.00     0.031 C 
ATOM     40  C   UNL A   1      38.527  29.950  29.548  1.00  0.00     0.029 A 
ATOM     41  N   UNL A   1      39.121  30.785  31.537  1.00  0.00    -0.354 N 
ATOM     42  C   UNL A   1      42.251  28.735  33.873  1.00  0.00     0.074 A 
ATOM     43  C   UNL A   1      42.707  27.555  33.180  1.00  0.00     0.031 C 
ATOM     44  C   UNL A   1      37.784  31.048  29.760  1.00  0.00     0.029 A 
ATOM     45  C   UNL A   1      38.123  31.602  31.067  1.00  0.00     0.049 A 
ATOM     46  H   UNL A   1      39.580  30.931  32.395  1.00  0.00     0.167 HD
ATOM     47  C   UNL A   1      42.732  29.158  35.062  1.00  0.00     0.037 A 
ATOM     48  C   UNL A   1      37.546  32.665  31.654  1.00  0.00     0.037 A 
ATOM     49  C   UNL A   1      42.244  30.340  35.717  1.00  0.00     0.049 A 
ATOM     50  C   UNL A   1      38.071  33.095  32.998  1.00  0.00     0.074 A 
ATOM     51  C   UNL A   1      42.652  30.895  36.913  1.00  0.00     0.029 A 
ATOM     52  N   UNL A   1      41.221  31.144  35.224  1.00  0.00    -0.354 N 
ATOM     53  N   UNL A   1      39.027  32.555  33.719  1.00  0.00    -0.248 NA
ATOM     54  C   UNL A   1      37.455  34.280  33.601  1.00  0.00     0.031 C 
ATOM     55  C   UNL A   1      41.833  31.998  37.174  1.00  0.00     0.029 A 
ATOM     56  C   UNL A   1      40.962  32.174  36.107  1.00  0.00     0.049 A 
ATOM     57  H   UNL A   1      40.751  31.000  34.370  1.00  0.00     0.167 HD
ATOM     58  C   UNL A   1      39.144  33.345  34.856  1.00  0.00     0.074 A 
ATOM     59  C   UNL A   1      38.169  34.411  34.712  1.00  0.00     0.031 C 
ATOM     60  C   UNL A   1      39.975  33.212  35.920  1.00  0.00     0.037 A 
BRANCH  47  61
ATOM     61  C   UNL A   1      43.788  28.319  35.725  1.00  0.00     0.058 A 
ATOM     62  C   UNL A   1      45.159  28.509  35.480  1.00  0.00     0.135 A 
ATOM     63  C   UNL A   1      43.422  27.297  36.615  1.00  0.00     0.135 A 
ATOM     64  F   UNL A   1      45.568  29.451  34.614  1.00  0.00    -0.206 F 
ATOM     65  C   UNL A   1      46.125  27.700  36.071  1.00  0.00     0.059 A 
ATOM     66  C   UNL A   1      44.372  26.497  37.242  1.00  0.00     0.059 A 
ATOM     67  F   UNL A   1      42.127  27.058  36.875  1.00  0.00    -0.206 F 
ATOM     68  C   UNL A   1      45.721  26.696  36.954  1.00  0.00     0.060 A 
BRANCH  68  69
ATOM     69  S   UNL A   1      46.985  25.662  37.722  1.00  0.00     0.124 S 
ATOM     70  O   UNL A   1      48.154  25.975  36.906  1.00  0.00    -0.237 OA
ATOM     71  O   UNL A   1      47.012  26.170  39.090  1.00  0.00    -0.237 OA
ATOM     72  O   UNL A   1      46.458  24.310  37.569  1.00  0.00    -0.744 OA
ENDBRANCH  68  69
ENDBRANCH  47  61
BRANCH  48  73
ATOM     73  C   UNL A   1      36.425  33.363  30.977  1.00  0.00     0.058 A 
ATOM     74  C   UNL A   1      35.108  33.261  31.443  1.00  0.00     0.135 A 
ATOM     75  C   UNL A   1      36.661  34.194  29.868  1.00  0.00     0.135 A 
ATOM     76  F   UNL A   1      34.829  32.483  32.500  1.00  0.00    -0.206 F 
ATOM     77  C   UNL A   1      34.062  33.946  30.830  1.00  0.00     0.059 A 
ATOM     78  C   UNL A   1      35.639  34.910  29.255  1.00  0.00     0.059 A 
ATOM     79  F   UNL A   1      37.908  34.345  29.394  1.00  0.00    -0.206 F 
ATOM     80  C   UNL A   1      34.340  34.772  29.739  1.00  0.00     0.060 A 
BRANCH  80  81
ATOM     81  S   UNL A   1      32.985  35.700  28.987  1.00  0.00     0.124 S 
ATOM     82  O   UNL A   1      33.702  36.797  28.346  1.00  0.00    -0.237 OA
ATOM     83  O   UNL A   1      32.397  34.709  28.091  1.00  0.00    -0.237 OA
ATOM     84  O   UNL A   1      32.156  36.070  30.130  1.00  0.00    -0.744 OA
ENDBRANCH  80  81
ENDBRANCH  48  73
BRANCH  60  85
ATOM     85  C   UNL A   1      39.880  34.260  36.992  1.00  0.00     0.058 A 
ATOM     86  C   UNL A   1      40.465  35.526  36.841  1.00  0.00     0.135 A 
ATOM     87  C   UNL A   1      39.140  34.009  38.159  1.00  0.00     0.135 A 
ATOM     88  F   UNL A   1      41.186  35.812  35.745  1.00  0.00    -0.206 F 
ATOM     89  C   UNL A   1      40.345  36.499  37.825  1.00  0.00     0.059 A 
ATOM     90  C   UNL A   1      38.976  34.979  39.139  1.00  0.00     0.059 A 
ATOM     91  F   UNL A   1      38.548  32.817  38.343  1.00  0.00    -0.206 F 
ATOM     92  C   UNL A   1      39.595  36.216  38.969  1.00  0.00     0.060 A 
BRANCH  92  93
ATOM     93  S   UNL A   1      39.422  37.500  40.224  1.00  0.00     0.124 S 
ATOM     94  O   UNL A   1      38.793  36.762  41.313  1.00  0.00    -0.237 OA
ATOM     95  O   UNL A   1      40.807  37.905  40.447  1.00  0.00    -0.237 OA
ATOM     96  O   UNL A   1      38.581  38.500  39.574  1.00  0.00    -0.744 OA
ENDBRANCH  92  93
ENDBRANCH  60  85
ENDBRANCH  34  35
ENDBRANCH  27  29
ENDBRANCH  26  27
ENDBRANCH  25  26
ENDBRANCH  24  25
ENDBRANCH   1  24
TORSDOF 22
ENDMDL
