MODEL 1
REMARK VINA RESULT:     -10.5      0.000      0.000
REMARK SMILES CC[NH2+][C@]1(C(=O)OCCOCCOC(=O)c2ccc(-c3c4nc(c(-c5c(F)cc(S(=O)(=O)[O-])cc5F)c5ccc([nH]5)c(-c5c(F)cc(S(=O)(=O)[O-])cc5F)c5nc(c(-c6c(F)cc(S(=O)(=O)[O-])cc6F)c6ccc3[nH]6)C=C5)C=C4)cc2)CC[C@@H]([N@@H+]2CCO[C@@H](CC)C2)C1
REMARK SMILES IDX 11 1 10 2 9 3 8 4 7 5 5 6 6 7 4 8 82 9 93 10 83 11 84 12
REMARK SMILES IDX 3 13 2 16 1 17 85 18 86 19 92 20 87 22 89 23 88 24 90 25
REMARK SMILES IDX 91 26 12 27 13 28 14 29 15 30 16 31 17 32 81 33 18 34 80 35
REMARK SMILES IDX 19 36 20 37 21 38 74 39 22 40 79 41 73 42 75 43 23 44 78 45
REMARK SMILES IDX 72 46 71 47 24 49 58 50 37 51 57 52 38 53 41 54 56 55 76 56
REMARK SMILES IDX 39 57 40 58 55 60 77 61 42 62 25 63 26 64 35 65 27 66 28 67
REMARK SMILES IDX 34 68 36 69 29 70 30 71 31 72 32 73 33 74 59 75 60 76 69 77
REMARK SMILES IDX 61 78 62 79 68 80 70 81 63 82 64 83 65 84 66 85 67 86 43 87
REMARK SMILES IDX 44 88 53 89 45 90 46 91 52 92 54 93 47 94 48 95 49 96 50 97
REMARK SMILES IDX 51 98
REMARK H PARENT 3 14 3 15 85 21 75 48 41 59
REMARK Flexibility Score: inf
ROOT
ATOM      1  C   UNL A   1      40.350  21.596  26.470  1.00  0.00     0.202 C 
ENDROOT
BRANCH   1   2
ATOM      2  O   UNL A   1      38.953  21.784  26.237  1.00  0.00    -0.374 OA
BRANCH   2   3
ATOM      3  C   UNL A   1      38.286  20.849  25.396  1.00  0.00     0.202 C 
BRANCH   3   4
ATOM      4  C   UNL A   1      37.133  21.372  24.535  1.00  0.00     0.261 C 
BRANCH   4   5
ATOM      5  O   UNL A   1      35.862  20.767  24.826  1.00  0.00    -0.459 OA
BRANCH   5   6
ATOM      6  C   UNL A   1      34.840  21.664  24.877  1.00  0.00     0.368 C 
ATOM      7  O   UNL A   1      34.793  22.661  24.167  1.00  0.00    -0.245 OA
BRANCH   6   8
ATOM      8  C   UNL A   1      33.752  21.344  25.924  1.00  0.00     0.200 C 
ATOM      9  C   UNL A   1      34.201  21.984  27.248  1.00  0.00     0.087 C 
ATOM     10  C   UNL A   1      32.447  22.117  25.559  1.00  0.00     0.146 C 
ATOM     11  C   UNL A   1      32.923  22.426  27.930  1.00  0.00     0.072 C 
ATOM     12  C   UNL A   1      32.007  22.918  26.799  1.00  0.00     0.191 C 
BRANCH   8  13
ATOM     13  N   UNL A   1      33.361  19.910  25.964  1.00  0.00    -0.332 N 
ATOM     14  H   UNL A   1      34.216  19.359  26.048  1.00  0.00     0.347 HD
ATOM     15  H   UNL A   1      32.724  19.826  26.756  1.00  0.00     0.347 HD
BRANCH  13  16
ATOM     16  C   UNL A   1      32.618  19.404  24.815  1.00  0.00     0.257 C 
ATOM     17  C   UNL A   1      33.259  18.106  24.339  1.00  0.00     0.071 C 
ENDBRANCH  13  16
ENDBRANCH   8  13
BRANCH  12  18
ATOM     18  N   UNL A   1      31.911  24.383  26.705  1.00  0.00    -0.328 N 
ATOM     19  C   UNL A   1      30.595  24.904  26.302  1.00  0.00     0.291 C 
ATOM     20  C   UNL A   1      32.986  25.137  26.039  1.00  0.00     0.294 C 
ATOM     21  H   UNL A   1      32.060  24.575  27.695  1.00  0.00     0.348 HD
ATOM     22  C   UNL A   1      30.436  25.233  24.807  1.00  0.00     0.222 C 
ATOM     23  C   UNL A   1      32.771  25.372  24.528  1.00  0.00     0.173 C 
ATOM     24  O   UNL A   1      31.512  26.048  24.321  1.00  0.00    -0.367 OA
BRANCH  23  25
ATOM     25  C   UNL A   1      33.877  26.205  23.866  1.00  0.00     0.034 C 
ATOM     26  C   UNL A   1      33.730  27.712  24.030  1.00  0.00     0.007 C 
ENDBRANCH  23  25
ENDBRANCH  12  18
ENDBRANCH   6   8
ENDBRANCH   5   6
ENDBRANCH   4   5
ENDBRANCH   3   4
ENDBRANCH   2   3
ENDBRANCH   1   2
BRANCH   1  27
ATOM     27  C   UNL A   1      41.209  22.864  26.555  1.00  0.00     0.261 C 
BRANCH  27  28
ATOM     28  O   UNL A   1      40.398  24.051  26.456  1.00  0.00    -0.460 OA
BRANCH  28  29
ATOM     29  C   UNL A   1      41.084  25.200  26.245  1.00  0.00     0.338 C 
ATOM     30  O   UNL A   1      41.477  25.637  25.171  1.00  0.00    -0.246 OA
BRANCH  29  31
ATOM     31  C   UNL A   1      41.119  25.995  27.485  1.00  0.00     0.060 A 
ATOM     32  C   UNL A   1      40.038  25.875  28.367  1.00  0.00     0.016 A 
ATOM     33  C   UNL A   1      42.154  26.894  27.745  1.00  0.00     0.016 A 
ATOM     34  C   UNL A   1      39.969  26.686  29.497  1.00  0.00     0.010 A 
ATOM     35  C   UNL A   1      42.075  27.718  28.874  1.00  0.00     0.010 A 
ATOM     36  C   UNL A   1      40.967  27.638  29.738  1.00  0.00    -0.014 A 
BRANCH  36  37
ATOM     37  C   UNL A   1      40.779  28.625  30.827  1.00  0.00     0.031 A 
ATOM     38  C   UNL A   1      41.674  28.567  32.036  1.00  0.00     0.074 A 
ATOM     39  C   UNL A   1      39.849  29.591  30.718  1.00  0.00     0.049 A 
ATOM     40  N   UNL A   1      41.693  29.339  33.091  1.00  0.00    -0.248 NA
ATOM     41  C   UNL A   1      42.682  27.494  32.057  1.00  0.00     0.031 C 
ATOM     42  C   UNL A   1      38.943  29.764  29.584  1.00  0.00     0.029 A 
ATOM     43  N   UNL A   1      39.514  30.608  31.576  1.00  0.00    -0.354 N 
ATOM     44  C   UNL A   1      42.711  28.850  33.901  1.00  0.00     0.074 A 
ATOM     45  C   UNL A   1      43.265  27.693  33.230  1.00  0.00     0.031 C 
ATOM     46  C   UNL A   1      38.150  30.823  29.818  1.00  0.00     0.029 A 
ATOM     47  C   UNL A   1      38.476  31.387  31.126  1.00  0.00     0.049 A 
ATOM     48  H   UNL A   1      39.975  30.764  32.432  1.00  0.00     0.167 HD
ATOM     49  C   UNL A   1      43.150  29.327  35.090  1.00  0.00     0.037 A 
ATOM     50  C   UNL A   1      37.853  32.429  31.710  1.00  0.00     0.037 A 
ATOM     51  C   UNL A   1      42.593  30.477  35.755  1.00  0.00     0.049 A 
ATOM     52  C   UNL A   1      38.327  32.912  33.055  1.00  0.00     0.074 A 
ATOM     53  C   UNL A   1      42.979  31.051  36.955  1.00  0.00     0.029 A 
ATOM     54  N   UNL A   1      41.522  31.224  35.284  1.00  0.00    -0.354 N 
ATOM     55  N   UNL A   1      39.309  32.456  33.797  1.00  0.00    -0.248 NA
ATOM     56  C   UNL A   1      37.615  34.057  33.638  1.00  0.00     0.031 C 
ATOM     57  C   UNL A   1      42.114  32.118  37.230  1.00  0.00     0.029 A 
ATOM     58  C   UNL A   1      41.221  32.239  36.178  1.00  0.00     0.049 A 
ATOM     59  H   UNL A   1      41.047  31.057  34.438  1.00  0.00     0.167 HD
ATOM     60  C   UNL A   1      39.344  33.270  34.925  1.00  0.00     0.074 A 
ATOM     61  C   UNL A   1      38.297  34.258  34.757  1.00  0.00     0.031 C 
ATOM     62  C   UNL A   1      40.169  33.209  36.001  1.00  0.00     0.037 A 
BRANCH  49  63
ATOM     63  C   UNL A   1      44.278  28.592  35.760  1.00  0.00     0.058 A 
ATOM     64  C   UNL A   1      45.621  28.926  35.524  1.00  0.00     0.135 A 
ATOM     65  C   UNL A   1      44.013  27.558  36.672  1.00  0.00     0.135 A 
ATOM     66  F   UNL A   1      45.933  29.894  34.647  1.00  0.00    -0.206 F 
ATOM     67  C   UNL A   1      46.662  28.246  36.148  1.00  0.00     0.059 A 
ATOM     68  C   UNL A   1      45.036  26.880  37.327  1.00  0.00     0.059 A 
ATOM     69  F   UNL A   1      42.746  27.196  36.932  1.00  0.00    -0.206 F 
ATOM     70  C   UNL A   1      46.359  27.223  37.048  1.00  0.00     0.060 A 
BRANCH  70  71
ATOM     71  S   UNL A   1      47.718  26.349  37.855  1.00  0.00     0.124 S 
ATOM     72  O   UNL A   1      48.254  25.562  36.749  1.00  0.00    -0.237 OA
ATOM     73  O   UNL A   1      48.562  27.446  38.320  1.00  0.00    -0.237 OA
ATOM     74  O   UNL A   1      47.055  25.584  38.906  1.00  0.00    -0.744 OA
ENDBRANCH  70  71
ENDBRANCH  49  63
BRANCH  50  75
ATOM     75  C   UNL A   1      36.707  33.085  31.026  1.00  0.00     0.058 A 
ATOM     76  C   UNL A   1      35.389  32.876  31.455  1.00  0.00     0.135 A 
ATOM     77  C   UNL A   1      36.912  33.940  29.932  1.00  0.00     0.135 A 
ATOM     78  F   UNL A   1      35.143  32.059  32.490  1.00  0.00    -0.206 F 
ATOM     79  C   UNL A   1      34.311  33.481  30.817  1.00  0.00     0.059 A 
ATOM     80  C   UNL A   1      35.853  34.576  29.294  1.00  0.00     0.059 A 
ATOM     81  F   UNL A   1      38.156  34.183  29.492  1.00  0.00    -0.206 F 
ATOM     82  C   UNL A   1      34.554  34.333  29.738  1.00  0.00     0.060 A 
BRANCH  82  83
ATOM     83  S   UNL A   1      33.155  35.164  28.954  1.00  0.00     0.124 S 
ATOM     84  O   UNL A   1      33.802  36.326  28.357  1.00  0.00    -0.237 OA
ATOM     85  O   UNL A   1      32.679  34.147  28.021  1.00  0.00    -0.237 OA
ATOM     86  O   UNL A   1      32.262  35.442  30.074  1.00  0.00    -0.744 OA
ENDBRANCH  82  83
ENDBRANCH  50  75
BRANCH  62  87
ATOM     87  C   UNL A   1      39.980  34.253  37.068  1.00  0.00     0.058 A 
ATOM     88  C   UNL A   1      39.200  34.009  38.209  1.00  0.00     0.135 A 
ATOM     89  C   UNL A   1      40.601  35.508  36.955  1.00  0.00     0.135 A 
ATOM     90  F   UNL A   1      38.582  32.827  38.364  1.00  0.00    -0.206 F 
ATOM     91  C   UNL A   1      39.005  34.986  39.179  1.00  0.00     0.059 A 
ATOM     92  C   UNL A   1      40.443  36.491  37.927  1.00  0.00     0.059 A 
ATOM     93  F   UNL A   1      41.370  35.788  35.892  1.00  0.00    -0.206 F 
ATOM     94  C   UNL A   1      39.626  36.227  39.026  1.00  0.00     0.060 A 
BRANCH  94  95
ATOM     95  S   UNL A   1      39.364  37.492  40.288  1.00  0.00     0.124 S 
ATOM     96  O   UNL A   1      38.509  38.438  39.579  1.00  0.00    -0.237 OA
ATOM     97  O   UNL A   1      38.722  36.738  41.360  1.00  0.00    -0.237 OA
ATOM     98  O   UNL A   1      40.715  37.962  40.582  1.00  0.00    -0.744 OA
ENDBRANCH  94  95
ENDBRANCH  62  87
ENDBRANCH  36  37
ENDBRANCH  29  31
ENDBRANCH  28  29
ENDBRANCH  27  28
ENDBRANCH   1  27
TORSDOF 21
ENDMDL
MODEL 2
REMARK VINA RESULT:     -10.3      1.109      2.011
REMARK SMILES CC[NH2+][C@]1(C(=O)OCCOCCOC(=O)c2ccc(-c3c4nc(c(-c5c(F)cc(S(=O)(=O)[O-])cc5F)c5ccc([nH]5)c(-c5c(F)cc(S(=O)(=O)[O-])cc5F)c5nc(c(-c6c(F)cc(S(=O)(=O)[O-])cc6F)c6ccc3[nH]6)C=C5)C=C4)cc2)CC[C@@H]([N@@H+]2CCO[C@@H](CC)C2)C1
REMARK SMILES IDX 11 1 10 2 9 3 8 4 7 5 5 6 6 7 4 8 82 9 93 10 83 11 84 12
REMARK SMILES IDX 3 13 2 16 1 17 85 18 86 19 92 20 87 22 89 23 88 24 90 25
REMARK SMILES IDX 91 26 12 27 13 28 14 29 15 30 16 31 17 32 81 33 18 34 80 35
REMARK SMILES IDX 19 36 20 37 21 38 74 39 22 40 79 41 73 42 75 43 23 44 78 45
REMARK SMILES IDX 72 46 71 47 24 49 58 50 37 51 57 52 38 53 41 54 56 55 76 56
REMARK SMILES IDX 39 57 40 58 55 60 77 61 42 62 25 63 26 64 35 65 27 66 28 67
REMARK SMILES IDX 34 68 36 69 29 70 30 71 31 72 32 73 33 74 59 75 60 76 69 77
REMARK SMILES IDX 61 78 62 79 68 80 70 81 63 82 64 83 65 84 66 85 67 86 43 87
REMARK SMILES IDX 44 88 53 89 45 90 46 91 52 92 54 93 47 94 48 95 49 96 50 97
REMARK SMILES IDX 51 98
REMARK H PARENT 3 14 3 15 85 21 75 48 41 59
REMARK Flexibility Score: inf
ROOT
ATOM      1  C   UNL A   1      38.995  22.637  26.288  1.00  0.00     0.202 C 
ENDROOT
BRANCH   1   2
ATOM      2  O   UNL A   1      38.282  21.607  25.601  1.00  0.00    -0.374 OA
BRANCH   2   3
ATOM      3  C   UNL A   1      36.877  21.764  25.439  1.00  0.00     0.202 C 
BRANCH   3   4
ATOM      4  C   UNL A   1      36.310  23.182  25.537  1.00  0.00     0.261 C 
BRANCH   4   5
ATOM      5  O   UNL A   1      35.193  23.307  26.434  1.00  0.00    -0.459 OA
BRANCH   5   6
ATOM      6  C   UNL A   1      34.195  24.091  25.943  1.00  0.00     0.368 C 
ATOM      7  O   UNL A   1      34.303  25.305  25.817  1.00  0.00    -0.245 OA
BRANCH   6   8
ATOM      8  C   UNL A   1      32.898  23.335  25.585  1.00  0.00     0.200 C 
ATOM      9  C   UNL A   1      32.045  23.276  26.864  1.00  0.00     0.087 C 
ATOM     10  C   UNL A   1      32.050  24.210  24.610  1.00  0.00     0.146 C 
ATOM     11  C   UNL A   1      30.609  23.368  26.389  1.00  0.00     0.072 C 
ATOM     12  C   UNL A   1      30.634  24.346  25.204  1.00  0.00     0.191 C 
BRANCH   8  13
ATOM     13  N   UNL A   1      33.128  22.055  24.865  1.00  0.00    -0.332 N 
ATOM     14  H   UNL A   1      33.981  21.639  25.241  1.00  0.00     0.347 HD
ATOM     15  H   UNL A   1      32.284  21.504  25.019  1.00  0.00     0.347 HD
BRANCH  13  16
ATOM     16  C   UNL A   1      33.277  22.140  23.416  1.00  0.00     0.257 C 
ATOM     17  C   UNL A   1      32.219  21.267  22.754  1.00  0.00     0.071 C 
ENDBRANCH  13  16
ENDBRANCH   8  13
BRANCH  12  18
ATOM     18  N   UNL A   1      30.122  25.686  25.527  1.00  0.00    -0.328 N 
ATOM     19  C   UNL A   1      29.329  26.330  24.467  1.00  0.00     0.291 C 
ATOM     20  C   UNL A   1      31.013  26.667  26.167  1.00  0.00     0.294 C 
ATOM     21  H   UNL A   1      29.500  25.396  26.281  1.00  0.00     0.348 HD
ATOM     22  C   UNL A   1      30.095  27.316  23.567  1.00  0.00     0.222 C 
ATOM     23  C   UNL A   1      31.785  27.576  25.187  1.00  0.00     0.173 C 
ATOM     24  O   UNL A   1      30.848  28.267  24.333  1.00  0.00    -0.367 OA
BRANCH  23  25
ATOM     25  C   UNL A   1      32.667  28.625  25.877  1.00  0.00     0.034 C 
ATOM     26  C   UNL A   1      32.153  29.108  27.228  1.00  0.00     0.007 C 
ENDBRANCH  23  25
ENDBRANCH  12  18
ENDBRANCH   6   8
ENDBRANCH   5   6
ENDBRANCH   4   5
ENDBRANCH   3   4
ENDBRANCH   2   3
ENDBRANCH   1   2
BRANCH   1  27
ATOM     27  C   UNL A   1      40.481  22.376  26.566  1.00  0.00     0.261 C 
BRANCH  27  28
ATOM     28  O   UNL A   1      41.013  23.332  27.505  1.00  0.00    -0.460 OA
BRANCH  28  29
ATOM     29  C   UNL A   1      41.446  24.493  26.959  1.00  0.00     0.338 C 
ATOM     30  O   UNL A   1      41.905  24.654  25.835  1.00  0.00    -0.246 OA
BRANCH  29  31
ATOM     31  C   UNL A   1      41.091  25.621  27.838  1.00  0.00     0.060 A 
ATOM     32  C   UNL A   1      42.029  26.650  27.988  1.00  0.00     0.016 A 
ATOM     33  C   UNL A   1      39.896  25.637  28.558  1.00  0.00     0.016 A 
ATOM     34  C   UNL A   1      41.792  27.683  28.892  1.00  0.00     0.010 A 
ATOM     35  C   UNL A   1      39.666  26.668  29.476  1.00  0.00     0.010 A 
ATOM     36  C   UNL A   1      40.626  27.678  29.669  1.00  0.00    -0.014 A 
BRANCH  36  37
ATOM     37  C   UNL A   1      40.481  28.667  30.763  1.00  0.00     0.031 A 
ATOM     38  C   UNL A   1      41.379  28.571  31.967  1.00  0.00     0.074 A 
ATOM     39  C   UNL A   1      39.587  29.668  30.662  1.00  0.00     0.049 A 
ATOM     40  N   UNL A   1      41.432  29.338  33.024  1.00  0.00    -0.248 NA
ATOM     41  C   UNL A   1      42.346  27.461  31.979  1.00  0.00     0.031 C 
ATOM     42  C   UNL A   1      38.682  29.879  29.533  1.00  0.00     0.029 A 
ATOM     43  N   UNL A   1      39.296  30.694  31.525  1.00  0.00    -0.354 N 
ATOM     44  C   UNL A   1      42.436  28.808  33.827  1.00  0.00     0.074 A 
ATOM     45  C   UNL A   1      42.942  27.634  33.149  1.00  0.00     0.031 C 
ATOM     46  C   UNL A   1      37.931  30.966  29.775  1.00  0.00     0.029 A 
ATOM     47  C   UNL A   1      38.285  31.513  31.083  1.00  0.00     0.049 A 
ATOM     48  H   UNL A   1      39.766  30.830  32.379  1.00  0.00     0.167 HD
ATOM     49  C   UNL A   1      42.899  29.264  35.015  1.00  0.00     0.037 A 
ATOM     50  C   UNL A   1      37.705  32.576  31.674  1.00  0.00     0.037 A 
ATOM     51  C   UNL A   1      42.389  30.433  35.687  1.00  0.00     0.049 A 
ATOM     52  C   UNL A   1      38.204  33.036  33.018  1.00  0.00     0.074 A 
ATOM     53  C   UNL A   1      42.803  30.987  36.886  1.00  0.00     0.029 A 
ATOM     54  N   UNL A   1      41.345  31.221  35.224  1.00  0.00    -0.354 N 
ATOM     55  N   UNL A   1      39.172  32.540  33.754  1.00  0.00    -0.248 NA
ATOM     56  C   UNL A   1      37.538  34.205  33.609  1.00  0.00     0.031 C 
ATOM     57  C   UNL A   1      41.981  32.085  37.169  1.00  0.00     0.029 A 
ATOM     58  C   UNL A   1      41.086  32.243  36.123  1.00  0.00     0.049 A 
ATOM     59  H   UNL A   1      40.859  31.075  34.381  1.00  0.00     0.167 HD
ATOM     60  C   UNL A   1      39.243  33.349  34.883  1.00  0.00     0.074 A 
ATOM     61  C   UNL A   1      38.234  34.376  34.724  1.00  0.00     0.031 C 
ATOM     62  C   UNL A   1      40.071  33.253  35.955  1.00  0.00     0.037 A 
BRANCH  49  63
ATOM     63  C   UNL A   1      44.002  28.485  35.677  1.00  0.00     0.058 A 
ATOM     64  C   UNL A   1      43.733  27.459  36.596  1.00  0.00     0.135 A 
ATOM     65  C   UNL A   1      45.346  28.748  35.365  1.00  0.00     0.135 A 
ATOM     66  F   UNL A   1      42.467  27.178  36.944  1.00  0.00    -0.206 F 
ATOM     67  C   UNL A   1      44.757  26.738  37.203  1.00  0.00     0.059 A 
ATOM     68  C   UNL A   1      46.385  28.024  35.941  1.00  0.00     0.059 A 
ATOM     69  F   UNL A   1      45.659  29.721  34.494  1.00  0.00    -0.206 F 
ATOM     70  C   UNL A   1      46.081  27.029  36.869  1.00  0.00     0.060 A 
BRANCH  70  71
ATOM     71  S   UNL A   1      47.400  26.084  37.660  1.00  0.00     0.124 S 
ATOM     72  O   UNL A   1      47.793  26.983  38.741  1.00  0.00    -0.237 OA
ATOM     73  O   UNL A   1      46.709  24.865  38.070  1.00  0.00    -0.237 OA
ATOM     74  O   UNL A   1      48.384  25.915  36.596  1.00  0.00    -0.744 OA
ENDBRANCH  70  71
ENDBRANCH  49  63
BRANCH  50  75
ATOM     75  C   UNL A   1      36.581  33.277  30.999  1.00  0.00     0.058 A 
ATOM     76  C   UNL A   1      36.796  34.063  29.857  1.00  0.00     0.135 A 
ATOM     77  C   UNL A   1      35.267  33.168  31.480  1.00  0.00     0.135 A 
ATOM     78  F   UNL A   1      38.036  34.205  29.366  1.00  0.00    -0.206 F 
ATOM     79  C   UNL A   1      35.751  34.726  29.223  1.00  0.00     0.059 A 
ATOM     80  C   UNL A   1      34.203  33.801  30.850  1.00  0.00     0.059 A 
ATOM     81  F   UNL A   1      35.008  32.417  32.562  1.00  0.00    -0.206 F 
ATOM     82  C   UNL A   1      34.456  34.586  29.725  1.00  0.00     0.060 A 
BRANCH  82  83
ATOM     83  S   UNL A   1      33.095  35.400  28.861  1.00  0.00     0.124 S 
ATOM     84  O   UNL A   1      32.552  34.302  28.070  1.00  0.00    -0.237 OA
ATOM     85  O   UNL A   1      32.263  35.864  29.967  1.00  0.00    -0.237 OA
ATOM     86  O   UNL A   1      33.763  36.455  28.106  1.00  0.00    -0.744 OA
ENDBRANCH  82  83
ENDBRANCH  50  75
BRANCH  62  87
ATOM     87  C   UNL A   1      39.927  34.299  37.026  1.00  0.00     0.058 A 
ATOM     88  C   UNL A   1      39.158  34.074  38.178  1.00  0.00     0.135 A 
ATOM     89  C   UNL A   1      40.580  35.537  36.905  1.00  0.00     0.135 A 
ATOM     90  F   UNL A   1      38.511  32.910  38.342  1.00  0.00    -0.206 F 
ATOM     91  C   UNL A   1      39.006  35.055  39.153  1.00  0.00     0.059 A 
ATOM     92  C   UNL A   1      40.465  36.522  37.881  1.00  0.00     0.059 A 
ATOM     93  F   UNL A   1      41.341  35.798  35.831  1.00  0.00    -0.206 F 
ATOM     94  C   UNL A   1      39.658  36.278  38.993  1.00  0.00     0.060 A 
BRANCH  94  95
ATOM     95  S   UNL A   1      39.450  37.548  40.260  1.00  0.00     0.124 S 
ATOM     96  O   UNL A   1      38.595  38.510  39.573  1.00  0.00    -0.237 OA
ATOM     97  O   UNL A   1      38.821  36.806  41.348  1.00  0.00    -0.237 OA
ATOM     98  O   UNL A   1      40.816  37.993  40.521  1.00  0.00    -0.744 OA
ENDBRANCH  94  95
ENDBRANCH  62  87
ENDBRANCH  36  37
ENDBRANCH  29  31
ENDBRANCH  28  29
ENDBRANCH  27  28
ENDBRANCH   1  27
TORSDOF 21
ENDMDL
MODEL 3
REMARK VINA RESULT:      -9.9      1.242      1.888
REMARK SMILES CC[NH2+][C@]1(C(=O)OCCOCCOC(=O)c2ccc(-c3c4nc(c(-c5c(F)cc(S(=O)(=O)[O-])cc5F)c5ccc([nH]5)c(-c5c(F)cc(S(=O)(=O)[O-])cc5F)c5nc(c(-c6c(F)cc(S(=O)(=O)[O-])cc6F)c6ccc3[nH]6)C=C5)C=C4)cc2)CC[C@@H]([N@@H+]2CCO[C@@H](CC)C2)C1
REMARK SMILES IDX 11 1 10 2 9 3 8 4 7 5 5 6 6 7 4 8 82 9 93 10 83 11 84 12
REMARK SMILES IDX 3 13 2 16 1 17 85 18 86 19 92 20 87 22 89 23 88 24 90 25
REMARK SMILES IDX 91 26 12 27 13 28 14 29 15 30 16 31 17 32 81 33 18 34 80 35
REMARK SMILES IDX 19 36 20 37 21 38 74 39 22 40 79 41 73 42 75 43 23 44 78 45
REMARK SMILES IDX 72 46 71 47 24 49 58 50 37 51 57 52 38 53 41 54 56 55 76 56
REMARK SMILES IDX 39 57 40 58 55 60 77 61 42 62 25 63 26 64 35 65 27 66 28 67
REMARK SMILES IDX 34 68 36 69 29 70 30 71 31 72 32 73 33 74 59 75 60 76 69 77
REMARK SMILES IDX 61 78 62 79 68 80 70 81 63 82 64 83 65 84 66 85 67 86 43 87
REMARK SMILES IDX 44 88 53 89 45 90 46 91 52 92 54 93 47 94 48 95 49 96 50 97
REMARK SMILES IDX 51 98
REMARK H PARENT 3 14 3 15 85 21 75 48 41 59
REMARK Flexibility Score: inf
ROOT
ATOM      1  C   UNL A   1      39.565  21.438  26.273  1.00  0.00     0.202 C 
ENDROOT
BRANCH   1   2
ATOM      2  O   UNL A   1      38.483  22.199  25.733  1.00  0.00    -0.374 OA
BRANCH   2   3
ATOM      3  C   UNL A   1      37.568  21.536  24.868  1.00  0.00     0.202 C 
BRANCH   3   4
ATOM      4  C   UNL A   1      36.822  22.390  23.841  1.00  0.00     0.261 C 
BRANCH   4   5
ATOM      5  O   UNL A   1      35.393  22.238  23.876  1.00  0.00    -0.459 OA
BRANCH   5   6
ATOM      6  C   UNL A   1      34.733  23.410  24.083  1.00  0.00     0.368 C 
ATOM      7  O   UNL A   1      35.303  24.449  24.395  1.00  0.00    -0.245 OA
BRANCH   6   8
ATOM      8  C   UNL A   1      33.200  23.323  23.925  1.00  0.00     0.200 C 
ATOM      9  C   UNL A   1      32.592  24.378  24.864  1.00  0.00     0.087 C 
ATOM     10  C   UNL A   1      32.805  23.819  22.499  1.00  0.00     0.146 C 
ATOM     11  C   UNL A   1      31.356  24.884  24.147  1.00  0.00     0.072 C 
ATOM     12  C   UNL A   1      31.734  24.916  22.658  1.00  0.00     0.191 C 
BRANCH   8  13
ATOM     13  N   UNL A   1      32.664  21.941  24.022  1.00  0.00    -0.332 N 
ATOM     14  H   UNL A   1      31.712  21.952  23.656  1.00  0.00     0.347 HD
ATOM     15  H   UNL A   1      33.315  21.361  23.493  1.00  0.00     0.347 HD
BRANCH  13  16
ATOM     16  C   UNL A   1      32.619  21.351  25.357  1.00  0.00     0.257 C 
ATOM     17  C   UNL A   1      33.669  20.251  25.452  1.00  0.00     0.071 C 
ENDBRANCH  13  16
ENDBRANCH   8  13
BRANCH  12  18
ATOM     18  N   UNL A   1      32.014  26.266  22.144  1.00  0.00    -0.328 N 
ATOM     19  C   UNL A   1      33.384  26.755  22.371  1.00  0.00     0.291 C 
ATOM     20  C   UNL A   1      31.040  27.345  22.377  1.00  0.00     0.294 C 
ATOM     21  H   UNL A   1      31.896  26.043  21.156  1.00  0.00     0.348 HD
ATOM     22  C   UNL A   1      33.575  27.657  23.603  1.00  0.00     0.222 C 
ATOM     23  C   UNL A   1      31.276  28.162  23.666  1.00  0.00     0.173 C 
ATOM     24  O   UNL A   1      32.609  28.716  23.647  1.00  0.00    -0.367 OA
BRANCH  23  25
ATOM     25  C   UNL A   1      30.281  29.314  23.860  1.00  0.00     0.034 C 
ATOM     26  C   UNL A   1      29.214  29.431  22.779  1.00  0.00     0.007 C 
ENDBRANCH  23  25
ENDBRANCH  12  18
ENDBRANCH   6   8
ENDBRANCH   5   6
ENDBRANCH   4   5
ENDBRANCH   3   4
ENDBRANCH   2   3
ENDBRANCH   1   2
BRANCH   1  27
ATOM     27  C   UNL A   1      40.745  22.232  26.845  1.00  0.00     0.261 C 
BRANCH  27  28
ATOM     28  O   UNL A   1      40.543  23.651  26.693  1.00  0.00    -0.460 OA
BRANCH  28  29
ATOM     29  C   UNL A   1      41.631  24.417  26.943  1.00  0.00     0.338 C 
ATOM     30  O   UNL A   1      42.729  24.337  26.406  1.00  0.00    -0.246 OA
BRANCH  29  31
ATOM     31  C   UNL A   1      41.261  25.538  27.824  1.00  0.00     0.060 A 
ATOM     32  C   UNL A   1      42.186  26.578  27.980  1.00  0.00     0.016 A 
ATOM     33  C   UNL A   1      40.064  25.537  28.542  1.00  0.00     0.016 A 
ATOM     34  C   UNL A   1      41.933  27.605  28.886  1.00  0.00     0.010 A 
ATOM     35  C   UNL A   1      39.818  26.563  29.462  1.00  0.00     0.010 A 
ATOM     36  C   UNL A   1      40.766  27.584  29.660  1.00  0.00    -0.014 A 
BRANCH  36  37
ATOM     37  C   UNL A   1      40.606  28.568  30.756  1.00  0.00     0.031 A 
ATOM     38  C   UNL A   1      41.506  28.484  31.959  1.00  0.00     0.074 A 
ATOM     39  C   UNL A   1      39.696  29.555  30.658  1.00  0.00     0.049 A 
ATOM     40  N   UNL A   1      41.548  29.250  33.018  1.00  0.00    -0.248 NA
ATOM     41  C   UNL A   1      42.491  27.389  31.967  1.00  0.00     0.031 C 
ATOM     42  C   UNL A   1      38.787  29.753  29.530  1.00  0.00     0.029 A 
ATOM     43  N   UNL A   1      39.389  30.574  31.523  1.00  0.00    -0.354 N 
ATOM     44  C   UNL A   1      42.561  28.734  33.819  1.00  0.00     0.074 A 
ATOM     45  C   UNL A   1      43.086  27.570  33.137  1.00  0.00     0.031 C 
ATOM     46  C   UNL A   1      38.018  30.828  29.775  1.00  0.00     0.029 A 
ATOM     47  C   UNL A   1      38.365  31.378  31.084  1.00  0.00     0.049 A 
ATOM     48  H   UNL A   1      39.858  30.716  32.377  1.00  0.00     0.167 HD
ATOM     49  C   UNL A   1      43.018  29.195  35.007  1.00  0.00     0.037 A 
ATOM     50  C   UNL A   1      37.768  32.430  31.678  1.00  0.00     0.037 A 
ATOM     51  C   UNL A   1      42.490  30.354  35.682  1.00  0.00     0.049 A 
ATOM     52  C   UNL A   1      38.261  32.895  33.022  1.00  0.00     0.074 A 
ATOM     53  C   UNL A   1      42.896  30.912  36.882  1.00  0.00     0.029 A 
ATOM     54  N   UNL A   1      41.433  31.126  35.222  1.00  0.00    -0.354 N 
ATOM     55  N   UNL A   1      39.238  32.413  33.756  1.00  0.00    -0.248 NA
ATOM     56  C   UNL A   1      37.577  34.052  33.616  1.00  0.00     0.031 C 
ATOM     57  C   UNL A   1      42.056  31.996  37.168  1.00  0.00     0.029 A 
ATOM     58  C   UNL A   1      41.159  32.142  36.123  1.00  0.00     0.049 A 
ATOM     59  H   UNL A   1      40.949  30.975  34.378  1.00  0.00     0.167 HD
ATOM     60  C   UNL A   1      39.297  33.221  34.887  1.00  0.00     0.074 A 
ATOM     61  C   UNL A   1      38.271  34.232  34.731  1.00  0.00     0.031 C 
ATOM     62  C   UNL A   1      40.127  33.136  35.958  1.00  0.00     0.037 A 
BRANCH  49  63
ATOM     63  C   UNL A   1      44.134  28.433  35.666  1.00  0.00     0.058 A 
ATOM     64  C   UNL A   1      45.480  28.677  35.354  1.00  0.00     0.135 A 
ATOM     65  C   UNL A   1      43.855  27.464  36.643  1.00  0.00     0.135 A 
ATOM     66  F   UNL A   1      45.804  29.579  34.413  1.00  0.00    -0.206 F 
ATOM     67  C   UNL A   1      46.510  27.971  35.968  1.00  0.00     0.059 A 
ATOM     68  C   UNL A   1      44.869  26.762  37.289  1.00  0.00     0.059 A 
ATOM     69  F   UNL A   1      42.584  27.188  36.978  1.00  0.00    -0.206 F 
ATOM     70  C   UNL A   1      46.194  27.015  36.934  1.00  0.00     0.060 A 
BRANCH  70  71
ATOM     71  S   UNL A   1      47.539  26.107  37.727  1.00  0.00     0.124 S 
ATOM     72  O   UNL A   1      46.915  24.809  37.961  1.00  0.00    -0.237 OA
ATOM     73  O   UNL A   1      48.580  26.134  36.703  1.00  0.00    -0.237 OA
ATOM     74  O   UNL A   1      47.821  26.893  38.924  1.00  0.00    -0.744 OA
ENDBRANCH  70  71
ENDBRANCH  49  63
BRANCH  50  75
ATOM     75  C   UNL A   1      36.633  33.114  31.005  1.00  0.00     0.058 A 
ATOM     76  C   UNL A   1      35.312  32.926  31.437  1.00  0.00     0.135 A 
ATOM     77  C   UNL A   1      36.849  33.976  29.919  1.00  0.00     0.135 A 
ATOM     78  F   UNL A   1      35.054  32.104  32.465  1.00  0.00    -0.206 F 
ATOM     79  C   UNL A   1      34.244  33.558  30.809  1.00  0.00     0.059 A 
ATOM     80  C   UNL A   1      35.801  34.638  29.291  1.00  0.00     0.059 A 
ATOM     81  F   UNL A   1      38.097  34.200  29.476  1.00  0.00    -0.206 F 
ATOM     82  C   UNL A   1      34.499  34.416  29.738  1.00  0.00     0.060 A 
BRANCH  82  83
ATOM     83  S   UNL A   1      33.113  35.281  28.967  1.00  0.00     0.124 S 
ATOM     84  O   UNL A   1      32.616  34.270  28.041  1.00  0.00    -0.237 OA
ATOM     85  O   UNL A   1      32.259  35.573  30.114  1.00  0.00    -0.237 OA
ATOM     86  O   UNL A   1      33.745  36.445  28.355  1.00  0.00    -0.744 OA
ENDBRANCH  82  83
ENDBRANCH  50  75
BRANCH  62  87
ATOM     87  C   UNL A   1      39.968  34.178  37.032  1.00  0.00     0.058 A 
ATOM     88  C   UNL A   1      39.065  34.011  38.093  1.00  0.00     0.135 A 
ATOM     89  C   UNL A   1      40.740  35.351  37.007  1.00  0.00     0.135 A 
ATOM     90  F   UNL A   1      38.300  32.909  38.163  1.00  0.00    -0.206 F 
ATOM     91  C   UNL A   1      38.900  34.989  39.068  1.00  0.00     0.059 A 
ATOM     92  C   UNL A   1      40.613  36.330  37.987  1.00  0.00     0.059 A 
ATOM     93  F   UNL A   1      41.630  35.554  36.022  1.00  0.00    -0.206 F 
ATOM     94  C   UNL A   1      39.674  36.148  39.003  1.00  0.00     0.060 A 
BRANCH  94  95
ATOM     95  S   UNL A   1      39.452  37.415  40.270  1.00  0.00     0.124 S 
ATOM     96  O   UNL A   1      38.526  38.330  39.609  1.00  0.00    -0.237 OA
ATOM     97  O   UNL A   1      38.899  36.652  41.385  1.00  0.00    -0.237 OA
ATOM     98  O   UNL A   1      40.803  37.928  40.479  1.00  0.00    -0.744 OA
ENDBRANCH  94  95
ENDBRANCH  62  87
ENDBRANCH  36  37
ENDBRANCH  29  31
ENDBRANCH  28  29
ENDBRANCH  27  28
ENDBRANCH   1  27
TORSDOF 21
ENDMDL
