MODEL 1
REMARK VINA RESULT:     -11.0      0.000      0.000
REMARK SMILES O=C(OCCOCCOC(=O)[C@@H]1CC[C@@H](CS(=O)(=O)c2cccc(F)c2)O1)c1ccc(-c2c3nc(c(-c4c(F)cc(S(=O)(=O)[O-])cc4F)c4ccc([nH]4)c(-c4c(F)cc(S(=O)(=O)[O-])cc4F)c4nc(c(-c5c(F)cc(S(=O)(=O)[O-])cc5F)c5ccc2[nH]5)C=C4)C=C3)cc1
REMARK SMILES IDX 6 1 5 2 4 3 3 4 2 5 1 6 28 7 29 8 93 9 30 10 92 11 31 12
REMARK SMILES IDX 32 13 33 14 86 15 34 16 91 17 85 18 87 19 35 20 90 21 84 22
REMARK SMILES IDX 83 23 36 25 70 26 49 27 69 28 50 29 53 30 68 31 88 32 51 33
REMARK SMILES IDX 52 34 67 36 89 37 54 38 37 39 38 40 47 41 39 42 40 43 46 44
REMARK SMILES IDX 48 45 41 46 42 47 43 48 44 49 45 50 71 51 72 52 81 53 73 54
REMARK SMILES IDX 74 55 80 56 82 57 75 58 76 59 77 60 78 61 79 62 55 63 56 64
REMARK SMILES IDX 65 65 57 66 58 67 64 68 66 69 59 70 60 71 61 72 62 73 63 74
REMARK SMILES IDX 7 75 8 76 9 77 10 78 11 79 12 80 13 81 27 82 14 83 15 84
REMARK SMILES IDX 16 85 17 86 18 87 19 88 20 89 21 90 26 91 22 92 24 93 23 94
REMARK SMILES IDX 25 95
REMARK H PARENT 87 24 53 35
REMARK Flexibility Score: inf
ROOT
ATOM      1  O   UNL A   1      32.959  29.364  25.856  1.00  0.00    -0.374 OA
ENDROOT
BRANCH   1   2
ATOM      2  C   UNL A   1      33.174  29.971  27.132  1.00  0.00     0.202 C 
BRANCH   2   3
ATOM      3  C   UNL A   1      34.561  30.569  27.367  1.00  0.00     0.261 C 
BRANCH   3   4
ATOM      4  O   UNL A   1      35.261  29.791  28.347  1.00  0.00    -0.460 OA
BRANCH   4   5
ATOM      5  C   UNL A   1      36.296  30.188  29.120  1.00  0.00     0.338 C 
ATOM      6  O   UNL A   1      36.061  30.854  30.126  1.00  0.00    -0.246 OA
BRANCH   5   7
ATOM      7  C   UNL A   1      37.710  29.814  28.834  1.00  0.00     0.060 A 
ATOM      8  C   UNL A   1      38.256  29.649  27.557  1.00  0.00     0.016 A 
ATOM      9  C   UNL A   1      38.563  29.718  29.941  1.00  0.00     0.016 A 
ATOM     10  C   UNL A   1      39.591  29.355  27.368  1.00  0.00     0.010 A 
ATOM     11  C   UNL A   1      39.915  29.435  29.765  1.00  0.00     0.010 A 
ATOM     12  C   UNL A   1      40.416  29.239  28.475  1.00  0.00    -0.014 A 
BRANCH  12  13
ATOM     13  C   UNL A   1      41.775  28.748  28.249  1.00  0.00     0.031 A 
ATOM     14  C   UNL A   1      42.885  29.735  28.378  1.00  0.00     0.074 A 
ATOM     15  C   UNL A   1      41.978  27.438  28.050  1.00  0.00     0.049 A 
ATOM     16  N   UNL A   1      44.146  29.596  28.093  1.00  0.00    -0.248 NA
ATOM     17  C   UNL A   1      42.522  31.063  28.907  1.00  0.00     0.031 C 
ATOM     18  C   UNL A   1      40.935  26.408  28.092  1.00  0.00     0.029 A 
ATOM     19  N   UNL A   1      43.124  26.746  27.784  1.00  0.00    -0.354 N 
ATOM     20  C   UNL A   1      44.720  30.830  28.359  1.00  0.00     0.074 A 
ATOM     21  C   UNL A   1      43.678  31.704  28.842  1.00  0.00     0.031 C 
ATOM     22  C   UNL A   1      41.495  25.212  27.848  1.00  0.00     0.029 A 
ATOM     23  C   UNL A   1      42.910  25.410  27.554  1.00  0.00     0.049 A 
ATOM     24  H   UNL A   1      44.015  27.164  27.760  1.00  0.00     0.167 HD
ATOM     25  C   UNL A   1      46.012  31.185  28.184  1.00  0.00     0.037 A 
ATOM     26  C   UNL A   1      43.763  24.475  27.098  1.00  0.00     0.037 A 
ATOM     27  C   UNL A   1      46.996  30.264  27.692  1.00  0.00     0.049 A 
ATOM     28  C   UNL A   1      45.170  24.912  26.802  1.00  0.00     0.074 A 
ATOM     29  C   UNL A   1      48.327  30.492  27.406  1.00  0.00     0.029 A 
ATOM     30  N   UNL A   1      46.739  28.926  27.403  1.00  0.00    -0.354 N 
ATOM     31  N   UNL A   1      45.707  26.101  26.967  1.00  0.00    -0.248 NA
ATOM     32  C   UNL A   1      46.082  23.911  26.242  1.00  0.00     0.031 C 
ATOM     33  C   UNL A   1      48.859  29.305  26.891  1.00  0.00     0.029 A 
ATOM     34  C   UNL A   1      47.880  28.319  26.919  1.00  0.00     0.049 A 
ATOM     35  H   UNL A   1      45.871  28.479  27.526  1.00  0.00     0.167 HD
ATOM     36  C   UNL A   1      47.025  25.990  26.550  1.00  0.00     0.074 A 
ATOM     37  C   UNL A   1      47.203  24.614  26.123  1.00  0.00     0.031 C 
ATOM     38  C   UNL A   1      48.001  26.932  26.524  1.00  0.00     0.037 A 
BRANCH  25  39
ATOM     39  C   UNL A   1      46.370  32.623  28.429  1.00  0.00     0.058 A 
ATOM     40  C   UNL A   1      46.240  33.561  27.393  1.00  0.00     0.135 A 
ATOM     41  C   UNL A   1      46.789  33.091  29.685  1.00  0.00     0.135 A 
ATOM     42  F   UNL A   1      45.821  33.175  26.178  1.00  0.00    -0.206 F 
ATOM     43  C   UNL A   1      46.510  34.911  27.593  1.00  0.00     0.059 A 
ATOM     44  C   UNL A   1      47.036  34.442  29.916  1.00  0.00     0.059 A 
ATOM     45  F   UNL A   1      46.889  32.245  30.724  1.00  0.00    -0.206 F 
ATOM     46  C   UNL A   1      46.899  35.344  28.860  1.00  0.00     0.060 A 
BRANCH  46  47
ATOM     47  S   UNL A   1      47.155  37.112  29.124  1.00  0.00     0.124 S 
ATOM     48  O   UNL A   1      48.596  37.238  28.936  1.00  0.00    -0.237 OA
ATOM     49  O   UNL A   1      46.322  37.701  28.080  1.00  0.00    -0.237 OA
ATOM     50  O   UNL A   1      46.675  37.323  30.486  1.00  0.00    -0.744 OA
ENDBRANCH  46  47
ENDBRANCH  25  39
BRANCH  26  51
ATOM     51  C   UNL A   1      43.273  23.090  26.871  1.00  0.00     0.058 A 
ATOM     52  C   UNL A   1      43.052  22.214  27.949  1.00  0.00     0.135 A 
ATOM     53  C   UNL A   1      43.126  22.576  25.576  1.00  0.00     0.135 A 
ATOM     54  F   UNL A   1      43.188  22.651  29.211  1.00  0.00    -0.206 F 
ATOM     55  C   UNL A   1      42.755  20.870  27.750  1.00  0.00     0.059 A 
ATOM     56  C   UNL A   1      42.805  21.238  25.352  1.00  0.00     0.059 A 
ATOM     57  F   UNL A   1      43.316  23.372  24.514  1.00  0.00    -0.206 F 
ATOM     58  C   UNL A   1      42.647  20.387  26.447  1.00  0.00     0.060 A 
BRANCH  58  59
ATOM     59  S   UNL A   1      42.328  18.625  26.212  1.00  0.00     0.124 S 
ATOM     60  O   UNL A   1      42.561  18.103  27.554  1.00  0.00    -0.237 OA
ATOM     61  O   UNL A   1      40.938  18.625  25.764  1.00  0.00    -0.237 OA
ATOM     62  O   UNL A   1      43.310  18.233  25.206  1.00  0.00    -0.744 OA
ENDBRANCH  58  59
ENDBRANCH  26  51
BRANCH  38  63
ATOM     63  C   UNL A   1      49.361  26.511  26.054  1.00  0.00     0.058 A 
ATOM     64  C   UNL A   1      50.283  25.991  26.976  1.00  0.00     0.135 A 
ATOM     65  C   UNL A   1      49.802  26.792  24.755  1.00  0.00     0.135 A 
ATOM     66  F   UNL A   1      49.901  25.715  28.234  1.00  0.00    -0.206 F 
ATOM     67  C   UNL A   1      51.617  25.818  26.639  1.00  0.00     0.059 A 
ATOM     68  C   UNL A   1      51.129  26.601  24.388  1.00  0.00     0.059 A 
ATOM     69  F   UNL A   1      48.948  27.279  23.840  1.00  0.00    -0.206 F 
ATOM     70  C   UNL A   1      52.033  26.144  25.348  1.00  0.00     0.060 A 
BRANCH  70  71
ATOM     71  S   UNL A   1      53.787  25.988  24.955  1.00  0.00     0.124 S 
ATOM     72  O   UNL A   1      54.098  24.671  25.500  1.00  0.00    -0.237 OA
ATOM     73  O   UNL A   1      53.784  26.089  23.499  1.00  0.00    -0.237 OA
ATOM     74  O   UNL A   1      54.393  27.117  25.654  1.00  0.00    -0.744 OA
ENDBRANCH  70  71
ENDBRANCH  38  63
ENDBRANCH  12  13
ENDBRANCH   5   7
ENDBRANCH   4   5
ENDBRANCH   3   4
ENDBRANCH   2   3
ENDBRANCH   1   2
BRANCH   1  75
ATOM     75  C   UNL A   1      31.597  29.121  25.473  1.00  0.00     0.202 C 
BRANCH  75  76
ATOM     76  C   UNL A   1      31.445  27.671  25.009  1.00  0.00     0.261 C 
BRANCH  76  77
ATOM     77  O   UNL A   1      32.621  26.963  25.415  1.00  0.00    -0.461 OA
BRANCH  77  78
ATOM     78  C   UNL A   1      32.375  25.803  26.100  1.00  0.00     0.335 C 
ATOM     79  O   UNL A   1      31.294  25.453  26.550  1.00  0.00    -0.249 OA
BRANCH  78  80
ATOM     80  C   UNL A   1      33.637  24.949  26.065  1.00  0.00     0.228 C 
ATOM     81  C   UNL A   1      34.566  25.195  24.891  1.00  0.00     0.047 C 
ATOM     82  O   UNL A   1      33.294  23.563  26.058  1.00  0.00    -0.362 OA
ATOM     83  C   UNL A   1      34.957  23.792  24.478  1.00  0.00     0.036 C 
ATOM     84  C   UNL A   1      33.697  23.009  24.807  1.00  0.00     0.135 C 
BRANCH  84  85
ATOM     85  C   UNL A   1      33.899  21.531  25.033  1.00  0.00     0.174 C 
BRANCH  85  86
ATOM     86  S   UNL A   1      32.518  20.559  24.497  1.00  0.00     0.181 S 
ATOM     87  O   UNL A   1      31.447  20.821  25.448  1.00  0.00    -0.224 OA
ATOM     88  O   UNL A   1      32.317  20.833  23.087  1.00  0.00    -0.224 OA
BRANCH  86  89
ATOM     89  C   UNL A   1      32.875  18.819  24.605  1.00  0.00     0.070 A 
ATOM     90  C   UNL A   1      32.636  18.073  25.763  1.00  0.00     0.020 A 
ATOM     91  C   UNL A   1      33.442  18.205  23.483  1.00  0.00     0.059 A 
ATOM     92  C   UNL A   1      32.919  16.701  25.777  1.00  0.00     0.004 A 
ATOM     93  C   UNL A   1      33.747  16.850  23.525  1.00  0.00     0.124 A 
ATOM     94  C   UNL A   1      33.478  16.089  24.657  1.00  0.00     0.039 A 
ATOM     95  F   UNL A   1      34.316  16.270  22.461  1.00  0.00    -0.207 F 
ENDBRANCH  86  89
ENDBRANCH  85  86
ENDBRANCH  84  85
ENDBRANCH  78  80
ENDBRANCH  77  78
ENDBRANCH  76  77
ENDBRANCH  75  76
ENDBRANCH   1  75
TORSDOF 20
ENDMDL
MODEL 2
REMARK VINA RESULT:     -11.0      2.506      3.316
REMARK SMILES O=C(OCCOCCOC(=O)[C@@H]1CC[C@@H](CS(=O)(=O)c2cccc(F)c2)O1)c1ccc(-c2c3nc(c(-c4c(F)cc(S(=O)(=O)[O-])cc4F)c4ccc([nH]4)c(-c4c(F)cc(S(=O)(=O)[O-])cc4F)c4nc(c(-c5c(F)cc(S(=O)(=O)[O-])cc5F)c5ccc2[nH]5)C=C4)C=C3)cc1
REMARK SMILES IDX 6 1 5 2 4 3 3 4 2 5 1 6 28 7 29 8 93 9 30 10 92 11 31 12
REMARK SMILES IDX 32 13 33 14 86 15 34 16 91 17 85 18 87 19 35 20 90 21 84 22
REMARK SMILES IDX 83 23 36 25 70 26 49 27 69 28 50 29 53 30 68 31 88 32 51 33
REMARK SMILES IDX 52 34 67 36 89 37 54 38 37 39 38 40 47 41 39 42 40 43 46 44
REMARK SMILES IDX 48 45 41 46 42 47 43 48 44 49 45 50 71 51 72 52 81 53 73 54
REMARK SMILES IDX 74 55 80 56 82 57 75 58 76 59 77 60 78 61 79 62 55 63 56 64
REMARK SMILES IDX 65 65 57 66 58 67 64 68 66 69 59 70 60 71 61 72 62 73 63 74
REMARK SMILES IDX 7 75 8 76 9 77 10 78 11 79 12 80 13 81 27 82 14 83 15 84
REMARK SMILES IDX 16 85 17 86 18 87 19 88 20 89 21 90 26 91 22 92 24 93 23 94
REMARK SMILES IDX 25 95
REMARK H PARENT 87 24 53 35
REMARK Flexibility Score: inf
ROOT
ATOM      1  O   UNL A   1      31.204  29.520  24.860  1.00  0.00    -0.374 OA
ENDROOT
BRANCH   1   2
ATOM      2  C   UNL A   1      32.489  29.747  25.442  1.00  0.00     0.202 C 
BRANCH   2   3
ATOM      3  C   UNL A   1      32.573  29.611  26.962  1.00  0.00     0.261 C 
BRANCH   3   4
ATOM      4  O   UNL A   1      33.929  29.347  27.347  1.00  0.00    -0.460 OA
BRANCH   4   5
ATOM      5  C   UNL A   1      34.767  30.175  28.009  1.00  0.00     0.338 C 
ATOM      6  O   UNL A   1      34.312  31.203  28.506  1.00  0.00    -0.246 OA
BRANCH   5   7
ATOM      7  C   UNL A   1      36.214  29.874  28.206  1.00  0.00     0.060 A 
ATOM      8  C   UNL A   1      37.212  30.055  27.243  1.00  0.00     0.016 A 
ATOM      9  C   UNL A   1      36.594  29.467  29.491  1.00  0.00     0.016 A 
ATOM     10  C   UNL A   1      38.541  29.806  27.516  1.00  0.00     0.010 A 
ATOM     11  C   UNL A   1      37.933  29.224  29.786  1.00  0.00     0.010 A 
ATOM     12  C   UNL A   1      38.898  29.381  28.786  1.00  0.00    -0.014 A 
BRANCH  12  13
ATOM     13  C   UNL A   1      40.281  28.952  28.985  1.00  0.00     0.031 A 
ATOM     14  C   UNL A   1      41.217  29.935  29.602  1.00  0.00     0.074 A 
ATOM     15  C   UNL A   1      40.623  27.684  28.715  1.00  0.00     0.049 A 
ATOM     16  N   UNL A   1      42.506  29.861  29.753  1.00  0.00    -0.248 NA
ATOM     17  C   UNL A   1      40.612  31.175  30.125  1.00  0.00     0.031 C 
ATOM     18  C   UNL A   1      39.696  26.637  28.277  1.00  0.00     0.029 A 
ATOM     19  N   UNL A   1      41.834  27.057  28.781  1.00  0.00    -0.354 N 
ATOM     20  C   UNL A   1      42.876  31.060  30.343  1.00  0.00     0.074 A 
ATOM     21  C   UNL A   1      41.679  31.842  30.537  1.00  0.00     0.031 C 
ATOM     22  C   UNL A   1      40.381  25.495  28.101  1.00  0.00     0.029 A 
ATOM     23  C   UNL A   1      41.796  25.758  28.337  1.00  0.00     0.049 A 
ATOM     24  H   UNL A   1      42.652  27.492  29.113  1.00  0.00     0.167 HD
ATOM     25  C   UNL A   1      44.125  31.462  30.665  1.00  0.00     0.037 A 
ATOM     26  C   UNL A   1      42.812  24.909  28.095  1.00  0.00     0.037 A 
ATOM     27  C   UNL A   1      45.275  30.634  30.436  1.00  0.00     0.049 A 
ATOM     28  C   UNL A   1      44.204  25.410  28.353  1.00  0.00     0.074 A 
ATOM     29  C   UNL A   1      46.606  30.924  30.654  1.00  0.00     0.029 A 
ATOM     30  N   UNL A   1      45.217  29.341  29.923  1.00  0.00    -0.354 N 
ATOM     31  N   UNL A   1      44.577  26.577  28.831  1.00  0.00    -0.248 NA
ATOM     32  C   UNL A   1      45.314  24.510  28.027  1.00  0.00     0.031 C 
ATOM     33  C   UNL A   1      47.356  29.826  30.218  1.00  0.00     0.029 A 
ATOM     34  C   UNL A   1      46.491  28.826  29.792  1.00  0.00     0.049 A 
ATOM     35  H   UNL A   1      44.389  28.864  29.687  1.00  0.00     0.167 HD
ATOM     36  C   UNL A   1      45.963  26.549  28.883  1.00  0.00     0.074 A 
ATOM     37  C   UNL A   1      46.362  25.245  28.385  1.00  0.00     0.031 C 
ATOM     38  C   UNL A   1      46.827  27.506  29.303  1.00  0.00     0.037 A 
BRANCH  25  39
ATOM     39  C   UNL A   1      44.287  32.861  31.184  1.00  0.00     0.058 A 
ATOM     40  C   UNL A   1      44.291  33.096  32.569  1.00  0.00     0.135 A 
ATOM     41  C   UNL A   1      44.489  33.961  30.335  1.00  0.00     0.135 A 
ATOM     42  F   UNL A   1      44.126  32.079  33.428  1.00  0.00    -0.206 F 
ATOM     43  C   UNL A   1      44.492  34.369  33.092  1.00  0.00     0.059 A 
ATOM     44  C   UNL A   1      44.722  35.239  30.838  1.00  0.00     0.059 A 
ATOM     45  F   UNL A   1      44.538  33.788  29.004  1.00  0.00    -0.206 F 
ATOM     46  C   UNL A   1      44.715  35.433  32.219  1.00  0.00     0.060 A 
BRANCH  46  47
ATOM     47  S   UNL A   1      45.066  37.061  32.920  1.00  0.00     0.124 S 
ATOM     48  O   UNL A   1      43.724  37.578  33.163  1.00  0.00    -0.237 OA
ATOM     49  O   UNL A   1      45.844  36.721  34.107  1.00  0.00    -0.237 OA
ATOM     50  O   UNL A   1      45.818  37.728  31.861  1.00  0.00    -0.744 OA
ENDBRANCH  46  47
ENDBRANCH  25  39
BRANCH  26  51
ATOM     51  C   UNL A   1      42.517  23.557  27.553  1.00  0.00     0.058 A 
ATOM     52  C   UNL A   1      42.320  22.459  28.411  1.00  0.00     0.135 A 
ATOM     53  C   UNL A   1      42.540  23.307  26.174  1.00  0.00     0.135 A 
ATOM     54  F   UNL A   1      42.298  22.640  29.741  1.00  0.00    -0.206 F 
ATOM     55  C   UNL A   1      42.209  21.161  27.924  1.00  0.00     0.059 A 
ATOM     56  C   UNL A   1      42.407  22.018  25.662  1.00  0.00     0.059 A 
ATOM     57  F   UNL A   1      42.715  24.320  25.314  1.00  0.00    -0.206 F 
ATOM     58  C   UNL A   1      42.267  20.948  26.548  1.00  0.00     0.060 A 
BRANCH  58  59
ATOM     59  S   UNL A   1      42.189  19.248  25.943  1.00  0.00     0.124 S 
ATOM     60  O   UNL A   1      43.066  19.311  24.779  1.00  0.00    -0.237 OA
ATOM     61  O   UNL A   1      42.702  18.496  27.084  1.00  0.00    -0.237 OA
ATOM     62  O   UNL A   1      40.772  19.057  25.652  1.00  0.00    -0.744 OA
ENDBRANCH  58  59
ENDBRANCH  26  51
BRANCH  38  63
ATOM     63  C   UNL A   1      48.290  27.178  29.284  1.00  0.00     0.058 A 
ATOM     64  C   UNL A   1      48.900  26.658  30.436  1.00  0.00     0.135 A 
ATOM     65  C   UNL A   1      49.105  27.548  28.206  1.00  0.00     0.135 A 
ATOM     66  F   UNL A   1      48.154  26.299  31.494  1.00  0.00    -0.206 F 
ATOM     67  C   UNL A   1      50.280  26.570  30.541  1.00  0.00     0.059 A 
ATOM     68  C   UNL A   1      50.489  27.442  28.280  1.00  0.00     0.059 A 
ATOM     69  F   UNL A   1      48.559  28.038  27.081  1.00  0.00    -0.206 F 
ATOM     70  C   UNL A   1      51.065  26.982  29.464  1.00  0.00     0.060 A 
BRANCH  70  71
ATOM     71  S   UNL A   1      52.859  26.934  29.653  1.00  0.00     0.124 S 
ATOM     72  O   UNL A   1      53.267  26.225  28.445  1.00  0.00    -0.237 OA
ATOM     73  O   UNL A   1      53.199  28.352  29.703  1.00  0.00    -0.237 OA
ATOM     74  O   UNL A   1      53.049  26.206  30.904  1.00  0.00    -0.744 OA
ENDBRANCH  70  71
ENDBRANCH  38  63
ENDBRANCH  12  13
ENDBRANCH   5   7
ENDBRANCH   4   5
ENDBRANCH   3   4
ENDBRANCH   2   3
ENDBRANCH   1   2
BRANCH   1  75
ATOM     75  C   UNL A   1      31.165  29.262  23.448  1.00  0.00     0.202 C 
BRANCH  75  76
ATOM     76  C   UNL A   1      30.102  28.204  23.147  1.00  0.00     0.261 C 
BRANCH  76  77
ATOM     77  O   UNL A   1      30.550  26.969  23.715  1.00  0.00    -0.461 OA
BRANCH  77  78
ATOM     78  C   UNL A   1      29.623  26.338  24.500  1.00  0.00     0.335 C 
ATOM     79  O   UNL A   1      28.433  26.220  24.248  1.00  0.00    -0.249 OA
BRANCH  78  80
ATOM     80  C   UNL A   1      30.352  25.668  25.659  1.00  0.00     0.228 C 
ATOM     81  C   UNL A   1      31.783  26.117  25.884  1.00  0.00     0.047 C 
ATOM     82  O   UNL A   1      30.368  24.251  25.479  1.00  0.00    -0.362 OA
ATOM     83  C   UNL A   1      32.502  24.811  26.149  1.00  0.00     0.036 C 
ATOM     84  C   UNL A   1      31.719  23.843  25.277  1.00  0.00     0.135 C 
BRANCH  84  85
ATOM     85  C   UNL A   1      31.800  22.394  25.692  1.00  0.00     0.174 C 
BRANCH  85  86
ATOM     86  S   UNL A   1      32.473  21.353  24.426  1.00  0.00     0.181 S 
ATOM     87  O   UNL A   1      32.056  19.998  24.755  1.00  0.00    -0.224 OA
ATOM     88  O   UNL A   1      32.106  21.934  23.149  1.00  0.00    -0.224 OA
BRANCH  86  89
ATOM     89  C   UNL A   1      34.252  21.360  24.466  1.00  0.00     0.070 A 
ATOM     90  C   UNL A   1      34.993  20.335  25.063  1.00  0.00     0.020 A 
ATOM     91  C   UNL A   1      34.908  22.457  23.898  1.00  0.00     0.059 A 
ATOM     92  C   UNL A   1      36.393  20.387  25.043  1.00  0.00     0.004 A 
ATOM     93  C   UNL A   1      36.296  22.508  23.916  1.00  0.00     0.124 A 
ATOM     94  C   UNL A   1      37.046  21.478  24.470  1.00  0.00     0.039 A 
ATOM     95  F   UNL A   1      36.922  23.573  23.396  1.00  0.00    -0.207 F 
ENDBRANCH  86  89
ENDBRANCH  85  86
ENDBRANCH  84  85
ENDBRANCH  78  80
ENDBRANCH  77  78
ENDBRANCH  76  77
ENDBRANCH  75  76
ENDBRANCH   1  75
TORSDOF 20
ENDMDL
MODEL 3
REMARK VINA RESULT:     -10.9      7.157     13.112
REMARK SMILES O=C(OCCOCCOC(=O)[C@@H]1CC[C@@H](CS(=O)(=O)c2cccc(F)c2)O1)c1ccc(-c2c3nc(c(-c4c(F)cc(S(=O)(=O)[O-])cc4F)c4ccc([nH]4)c(-c4c(F)cc(S(=O)(=O)[O-])cc4F)c4nc(c(-c5c(F)cc(S(=O)(=O)[O-])cc5F)c5ccc2[nH]5)C=C4)C=C3)cc1
REMARK SMILES IDX 6 1 5 2 4 3 3 4 2 5 1 6 28 7 29 8 93 9 30 10 92 11 31 12
REMARK SMILES IDX 32 13 33 14 86 15 34 16 91 17 85 18 87 19 35 20 90 21 84 22
REMARK SMILES IDX 83 23 36 25 70 26 49 27 69 28 50 29 53 30 68 31 88 32 51 33
REMARK SMILES IDX 52 34 67 36 89 37 54 38 37 39 38 40 47 41 39 42 40 43 46 44
REMARK SMILES IDX 48 45 41 46 42 47 43 48 44 49 45 50 71 51 72 52 81 53 73 54
REMARK SMILES IDX 74 55 80 56 82 57 75 58 76 59 77 60 78 61 79 62 55 63 56 64
REMARK SMILES IDX 65 65 57 66 58 67 64 68 66 69 59 70 60 71 61 72 62 73 63 74
REMARK SMILES IDX 7 75 8 76 9 77 10 78 11 79 12 80 13 81 27 82 14 83 15 84
REMARK SMILES IDX 16 85 17 86 18 87 19 88 20 89 21 90 26 91 22 92 24 93 23 94
REMARK SMILES IDX 25 95
REMARK H PARENT 87 24 53 35
REMARK Flexibility Score: inf
ROOT
ATOM      1  O   UNL A   1      45.835  23.304  23.876  1.00  0.00    -0.374 OA
ENDROOT
BRANCH   1   2
ATOM      2  C   UNL A   1      45.918  24.191  24.993  1.00  0.00     0.202 C 
BRANCH   2   3
ATOM      3  C   UNL A   1      44.587  24.638  25.598  1.00  0.00     0.261 C 
BRANCH   3   4
ATOM      4  O   UNL A   1      44.828  25.337  26.827  1.00  0.00    -0.460 OA
BRANCH   4   5
ATOM      5  C   UNL A   1      44.946  26.672  26.999  1.00  0.00     0.338 C 
ATOM      6  O   UNL A   1      45.574  27.322  26.166  1.00  0.00    -0.246 OA
BRANCH   5   7
ATOM      7  C   UNL A   1      44.308  27.402  28.131  1.00  0.00     0.060 A 
ATOM      8  C   UNL A   1      44.411  28.778  28.362  1.00  0.00     0.016 A 
ATOM      9  C   UNL A   1      43.470  26.648  28.962  1.00  0.00     0.016 A 
ATOM     10  C   UNL A   1      43.746  29.393  29.402  1.00  0.00     0.010 A 
ATOM     11  C   UNL A   1      42.782  27.257  30.008  1.00  0.00     0.010 A 
ATOM     12  C   UNL A   1      42.939  28.629  30.230  1.00  0.00    -0.014 A 
BRANCH  12  13
ATOM     13  C   UNL A   1      42.400  29.276  31.425  1.00  0.00     0.031 A 
ATOM     14  C   UNL A   1      41.101  29.995  31.282  1.00  0.00     0.074 A 
ATOM     15  C   UNL A   1      43.021  29.111  32.601  1.00  0.00     0.049 A 
ATOM     16  N   UNL A   1      40.487  30.760  32.134  1.00  0.00    -0.248 NA
ATOM     17  C   UNL A   1      40.394  29.820  29.999  1.00  0.00     0.031 C 
ATOM     18  C   UNL A   1      44.200  28.268  32.820  1.00  0.00     0.029 A 
ATOM     19  N   UNL A   1      42.744  29.630  33.833  1.00  0.00    -0.354 N 
ATOM     20  C   UNL A   1      39.348  31.200  31.477  1.00  0.00     0.074 A 
ATOM     21  C   UNL A   1      39.344  30.608  30.161  1.00  0.00     0.031 C 
ATOM     22  C   UNL A   1      44.552  28.339  34.114  1.00  0.00     0.029 A 
ATOM     23  C   UNL A   1      43.674  29.292  34.785  1.00  0.00     0.049 A 
ATOM     24  H   UNL A   1      41.957  30.192  34.019  1.00  0.00     0.167 HD
ATOM     25  C   UNL A   1      38.409  32.049  31.948  1.00  0.00     0.037 A 
ATOM     26  C   UNL A   1      43.820  29.757  36.039  1.00  0.00     0.037 A 
ATOM     27  C   UNL A   1      38.480  32.609  33.269  1.00  0.00     0.049 A 
ATOM     28  C   UNL A   1      42.831  30.785  36.511  1.00  0.00     0.074 A 
ATOM     29  C   UNL A   1      37.639  33.525  33.866  1.00  0.00     0.029 A 
ATOM     30  N   UNL A   1      39.472  32.299  34.196  1.00  0.00    -0.354 N 
ATOM     31  N   UNL A   1      41.795  31.277  35.868  1.00  0.00    -0.248 NA
ATOM     32  C   UNL A   1      43.028  31.342  37.853  1.00  0.00     0.031 C 
ATOM     33  C   UNL A   1      38.156  33.812  35.134  1.00  0.00     0.029 A 
ATOM     34  C   UNL A   1      39.279  33.024  35.354  1.00  0.00     0.049 A 
ATOM     35  H   UNL A   1      40.202  31.656  34.047  1.00  0.00     0.167 HD
ATOM     36  C   UNL A   1      41.202  32.188  36.730  1.00  0.00     0.074 A 
ATOM     37  C   UNL A   1      41.999  32.178  37.944  1.00  0.00     0.031 C 
ATOM     38  C   UNL A   1      40.102  32.959  36.543  1.00  0.00     0.037 A 
BRANCH  25  39
ATOM     39  C   UNL A   1      37.325  32.474  31.000  1.00  0.00     0.058 A 
ATOM     40  C   UNL A   1      36.113  31.766  30.961  1.00  0.00     0.135 A 
ATOM     41  C   UNL A   1      37.449  33.600  30.171  1.00  0.00     0.135 A 
ATOM     42  F   UNL A   1      35.930  30.696  31.750  1.00  0.00    -0.206 F 
ATOM     43  C   UNL A   1      35.064  32.159  30.137  1.00  0.00     0.059 A 
ATOM     44  C   UNL A   1      36.401  34.029  29.359  1.00  0.00     0.059 A 
ATOM     45  F   UNL A   1      38.570  34.341  30.198  1.00  0.00    -0.206 F 
ATOM     46  C   UNL A   1      35.214  33.297  29.345  1.00  0.00     0.060 A 
BRANCH  46  47
ATOM     47  S   UNL A   1      33.809  33.844  28.351  1.00  0.00     0.124 S 
ATOM     48  O   UNL A   1      32.996  34.544  29.340  1.00  0.00    -0.237 OA
ATOM     49  O   UNL A   1      34.454  34.681  27.345  1.00  0.00    -0.237 OA
ATOM     50  O   UNL A   1      33.248  32.594  27.844  1.00  0.00    -0.744 OA
ENDBRANCH  46  47
ENDBRANCH  25  39
BRANCH  26  51
ATOM     51  C   UNL A   1      44.955  29.274  36.868  1.00  0.00     0.058 A 
ATOM     52  C   UNL A   1      44.863  28.074  37.596  1.00  0.00     0.135 A 
ATOM     53  C   UNL A   1      46.108  30.052  37.043  1.00  0.00     0.135 A 
ATOM     54  F   UNL A   1      43.777  27.295  37.474  1.00  0.00    -0.206 F 
ATOM     55  C   UNL A   1      45.844  27.691  38.503  1.00  0.00     0.059 A 
ATOM     56  C   UNL A   1      47.116  29.677  37.928  1.00  0.00     0.059 A 
ATOM     57  F   UNL A   1      46.249  31.200  36.364  1.00  0.00    -0.206 F 
ATOM     58  C   UNL A   1      46.962  28.507  38.673  1.00  0.00     0.060 A 
BRANCH  58  59
ATOM     59  S   UNL A   1      48.192  28.025  39.905  1.00  0.00     0.124 S 
ATOM     60  O   UNL A   1      49.143  29.128  39.818  1.00  0.00    -0.237 OA
ATOM     61  O   UNL A   1      47.393  27.971  41.126  1.00  0.00    -0.237 OA
ATOM     62  O   UNL A   1      48.676  26.738  39.416  1.00  0.00    -0.744 OA
ENDBRANCH  58  59
ENDBRANCH  26  51
BRANCH  38  63
ATOM     63  C   UNL A   1      39.664  33.832  37.680  1.00  0.00     0.058 A 
ATOM     64  C   UNL A   1      40.286  35.074  37.881  1.00  0.00     0.135 A 
ATOM     65  C   UNL A   1      38.778  33.363  38.659  1.00  0.00     0.135 A 
ATOM     66  F   UNL A   1      41.148  35.556  36.970  1.00  0.00    -0.206 F 
ATOM     67  C   UNL A   1      40.087  35.798  39.047  1.00  0.00     0.059 A 
ATOM     68  C   UNL A   1      38.543  34.085  39.823  1.00  0.00     0.059 A 
ATOM     69  F   UNL A   1      38.154  32.185  38.498  1.00  0.00    -0.206 F 
ATOM     70  C   UNL A   1      39.228  35.285  40.020  1.00  0.00     0.060 A 
BRANCH  70  71
ATOM     71  S   UNL A   1      39.045  36.203  41.562  1.00  0.00     0.124 S 
ATOM     72  O   UNL A   1      38.930  37.575  41.081  1.00  0.00    -0.237 OA
ATOM     73  O   UNL A   1      37.829  35.621  42.121  1.00  0.00    -0.237 OA
ATOM     74  O   UNL A   1      40.273  35.892  42.288  1.00  0.00    -0.744 OA
ENDBRANCH  70  71
ENDBRANCH  38  63
ENDBRANCH  12  13
ENDBRANCH   5   7
ENDBRANCH   4   5
ENDBRANCH   3   4
ENDBRANCH   2   3
ENDBRANCH   1   2
BRANCH   1  75
ATOM     75  C   UNL A   1      44.652  22.499  23.771  1.00  0.00     0.202 C 
BRANCH  75  76
ATOM     76  C   UNL A   1      44.920  21.111  24.359  1.00  0.00     0.261 C 
BRANCH  76  77
ATOM     77  O   UNL A   1      44.230  21.033  25.610  1.00  0.00    -0.461 OA
BRANCH  77  78
ATOM     78  C   UNL A   1      43.167  20.170  25.617  1.00  0.00     0.335 C 
ATOM     79  O   UNL A   1      43.032  19.194  24.894  1.00  0.00    -0.249 OA
BRANCH  78  80
ATOM     80  C   UNL A   1      42.259  20.536  26.786  1.00  0.00     0.228 C 
ATOM     81  C   UNL A   1      40.775  20.317  26.561  1.00  0.00     0.047 C 
ATOM     82  O   UNL A   1      42.443  21.907  27.142  1.00  0.00    -0.362 OA
ATOM     83  C   UNL A   1      40.163  21.569  27.152  1.00  0.00     0.036 C 
ATOM     84  C   UNL A   1      41.233  22.608  26.860  1.00  0.00     0.135 C 
BRANCH  84  85
ATOM     85  C   UNL A   1      41.215  23.820  27.758  1.00  0.00     0.174 C 
BRANCH  85  86
ATOM     86  S   UNL A   1      39.901  24.943  27.369  1.00  0.00     0.181 S 
ATOM     87  O   UNL A   1      39.190  24.357  26.242  1.00  0.00    -0.224 OA
ATOM     88  O   UNL A   1      39.193  25.224  28.604  1.00  0.00    -0.224 OA
BRANCH  86  89
ATOM     89  C   UNL A   1      40.536  26.508  26.810  1.00  0.00     0.070 A 
ATOM     90  C   UNL A   1      40.067  27.729  27.304  1.00  0.00     0.020 A 
ATOM     91  C   UNL A   1      41.522  26.489  25.818  1.00  0.00     0.059 A 
ATOM     92  C   UNL A   1      40.623  28.927  26.838  1.00  0.00     0.004 A 
ATOM     93  C   UNL A   1      42.040  27.687  25.344  1.00  0.00     0.124 A 
ATOM     94  C   UNL A   1      41.610  28.906  25.854  1.00  0.00     0.039 A 
ATOM     95  F   UNL A   1      42.964  27.668  24.374  1.00  0.00    -0.207 F 
ENDBRANCH  86  89
ENDBRANCH  85  86
ENDBRANCH  84  85
ENDBRANCH  78  80
ENDBRANCH  77  78
ENDBRANCH  76  77
ENDBRANCH  75  76
ENDBRANCH   1  75
TORSDOF 20
ENDMDL
