MODEL 1
REMARK VINA RESULT:     -12.7      0.000      0.000
REMARK SMILES O=C(OCCOCCOC(=O)c1ccc(-c2c3nc(c(-c4c(F)cc(S(=O)(=O)[O-])cc4F)c4ccc([nH]4)c(-c4c(F)cc(S(=O)(=O)[O-])cc4F)c4nc(c(-c5c(F)cc(S(=O)(=O)[O-])cc5F)c5ccc2[nH]5)C=C4)C=C3)cc1)C1=Cc2cc(Cl)cc(-c3ccccc3)c2O[C@@H]1C(F)(F)F
REMARK SMILES IDX 7 1 6 2 5 3 4 4 3 5 2 6 1 7 78 8 79 9 94 10 80 11 93 12
REMARK SMILES IDX 81 13 92 14 82 15 85 16 83 17 84 18 95 19 96 20 97 21 98 22
REMARK SMILES IDX 86 23 87 24 91 25 88 26 90 27 89 28 8 29 9 30 10 31 11 32
REMARK SMILES IDX 12 33 13 34 77 35 14 36 76 37 15 38 16 39 17 40 70 41 18 42
REMARK SMILES IDX 75 43 69 44 71 45 19 46 74 47 68 48 67 49 20 51 54 52 33 53
REMARK SMILES IDX 53 54 34 55 37 56 52 57 72 58 35 59 36 60 51 62 73 63 38 64
REMARK SMILES IDX 21 65 22 66 31 67 23 68 24 69 30 70 32 71 25 72 26 73 27 74
REMARK SMILES IDX 28 75 29 76 55 77 56 78 65 79 57 80 58 81 64 82 66 83 59 84
REMARK SMILES IDX 60 85 61 86 62 87 63 88 39 89 40 90 49 91 41 92 42 93 48 94
REMARK SMILES IDX 50 95 43 96 44 97 45 98 46 99 47 100
REMARK H PARENT 71 50 37 61
REMARK Flexibility Score: inf
ROOT
ATOM      1  C   UNL A   1      40.303  20.924  26.504  1.00  0.00     0.202 C 
ENDROOT
BRANCH   1   2
ATOM      2  O   UNL A   1      39.637  19.949  25.661  1.00  0.00    -0.374 OA
BRANCH   2   3
ATOM      3  C   UNL A   1      38.117  19.806  25.067  1.00  0.00     0.202 C 
BRANCH   3   4
ATOM      4  C   UNL A   1      36.402  21.130  25.276  1.00  0.00     0.261 C 
BRANCH   4   5
ATOM      5  O   UNL A   1      36.386  22.659  24.893  1.00  0.00    -0.460 OA
BRANCH   5   6
ATOM      6  C   UNL A   1      35.506  22.963  23.934  1.00  0.00     0.338 C 
ATOM      7  O   UNL A   1      35.661  23.271  22.780  1.00  0.00    -0.246 OA
BRANCH   6   8
ATOM      8  C   UNL A   1      34.402  23.124  24.841  1.00  0.00     0.087 C 
ATOM      9  C   UNL A   1      34.607  24.289  25.709  1.00  0.00     0.027 C 
ATOM     10  C   UNL A   1      32.973  22.945  23.546  1.00  0.00     0.316 C 
ATOM     11  C   UNL A   1      33.670  25.822  25.549  1.00  0.00     0.019 A 
ATOM     12  O   UNL A   1      31.956  24.601  23.363  1.00  0.00    -0.475 OA
ATOM     13  C   UNL A   1      34.170  26.881  26.260  1.00  0.00     0.032 A 
ATOM     14  C   UNL A   1      32.405  26.070  24.366  1.00  0.00     0.135 A 
ATOM     15  C   UNL A   1      33.654  28.125  25.902  1.00  0.00     0.042 A 
ATOM     16  C   UNL A   1      31.874  27.382  24.163  1.00  0.00     0.026 A 
ATOM     17  Cl  UNL A   1      34.292  29.505  26.736  1.00  0.00    -0.084 Cl
ATOM     18  C   UNL A   1      32.632  28.354  24.904  1.00  0.00     0.033 A 
BRANCH  10  19
ATOM     19  C   UNL A   1      32.596  21.436  23.962  1.00  0.00     0.430 C 
ATOM     20  F   UNL A   1      32.040  21.302  25.183  1.00  0.00    -0.167 F 
ATOM     21  F   UNL A   1      31.623  20.993  23.108  1.00  0.00    -0.167 F 
ATOM     22  F   UNL A   1      33.592  20.531  23.826  1.00  0.00    -0.167 F 
ENDBRANCH  10  19
BRANCH  16  23
ATOM     23  C   UNL A   1      30.626  27.924  23.298  1.00  0.00    -0.015 A 
ATOM     24  C   UNL A   1      29.194  27.071  24.008  1.00  0.00     0.009 A 
ATOM     25  C   UNL A   1      30.208  29.527  22.115  1.00  0.00     0.009 A 
ATOM     26  C   UNL A   1      27.576  27.686  23.681  1.00  0.00     0.001 A 
ATOM     27  C   UNL A   1      28.498  30.041  21.888  1.00  0.00     0.001 A 
ATOM     28  C   UNL A   1      27.250  29.110  22.677  1.00  0.00     0.000 A 
ENDBRANCH  16  23
ENDBRANCH   6   8
ENDBRANCH   5   6
ENDBRANCH   4   5
ENDBRANCH   3   4
ENDBRANCH   2   3
ENDBRANCH   1   2
BRANCH   1  29
ATOM     29  C   UNL A   1      41.823  21.025  26.389  1.00  0.00     0.261 C 
BRANCH  29  30
ATOM     30  O   UNL A   1      42.242  22.257  26.910  1.00  0.00    -0.460 OA
BRANCH  30  31
ATOM     31  C   UNL A   1      42.396  23.183  25.948  1.00  0.00     0.338 C 
ATOM     32  O   UNL A   1      42.709  23.055  24.781  1.00  0.00    -0.246 OA
BRANCH  31  33
ATOM     33  C   UNL A   1      42.028  24.414  26.589  1.00  0.00     0.060 A 
ATOM     34  C   UNL A   1      43.152  25.791  26.552  1.00  0.00     0.016 A 
ATOM     35  C   UNL A   1      40.577  24.499  27.678  1.00  0.00     0.016 A 
ATOM     36  C   UNL A   1      42.943  27.232  27.584  1.00  0.00     0.010 A 
ATOM     37  C   UNL A   1      40.393  26.163  28.810  1.00  0.00     0.010 A 
ATOM     38  C   UNL A   1      41.622  27.448  28.713  1.00  0.00    -0.014 A 
BRANCH  38  39
ATOM     39  C   UNL A   1      41.580  28.424  29.846  1.00  0.00     0.031 A 
ATOM     40  C   UNL A   1      42.348  28.174  31.135  1.00  0.00     0.074 A 
ATOM     41  C   UNL A   1      40.594  29.340  29.860  1.00  0.00     0.049 A 
ATOM     42  N   UNL A   1      42.273  28.789  32.293  1.00  0.00    -0.248 NA
ATOM     43  C   UNL A   1      43.276  27.039  31.147  1.00  0.00     0.031 C 
ATOM     44  C   UNL A   1      39.650  29.567  28.769  1.00  0.00     0.029 A 
ATOM     45  N   UNL A   1      40.180  30.200  30.847  1.00  0.00    -0.354 N 
ATOM     46  C   UNL A   1      43.131  28.105  33.157  1.00  0.00     0.074 A 
ATOM     47  C   UNL A   1      43.640  26.974  32.419  1.00  0.00     0.031 C 
ATOM     48  C   UNL A   1      38.754  30.492  29.151  1.00  0.00     0.029 A 
ATOM     49  C   UNL A   1      39.060  30.924  30.512  1.00  0.00     0.049 A 
ATOM     50  H   UNL A   1      40.642  30.291  31.711  1.00  0.00     0.167 HD
ATOM     51  C   UNL A   1      43.502  28.404  34.430  1.00  0.00     0.037 A 
ATOM     52  C   UNL A   1      38.361  31.835  31.218  1.00  0.00     0.037 A 
ATOM     53  C   UNL A   1      42.988  29.532  35.165  1.00  0.00     0.049 A 
ATOM     54  C   UNL A   1      38.818  32.214  32.603  1.00  0.00     0.074 A 
ATOM     55  C   UNL A   1      43.385  30.016  36.399  1.00  0.00     0.029 A 
ATOM     56  N   UNL A   1      41.945  30.339  34.737  1.00  0.00    -0.354 N 
ATOM     57  N   UNL A   1      39.778  31.693  33.329  1.00  0.00    -0.248 NA
ATOM     58  C   UNL A   1      38.116  33.330  33.253  1.00  0.00     0.031 C 
ATOM     59  C   UNL A   1      42.543  31.080  36.743  1.00  0.00     0.029 A 
ATOM     60  C   UNL A   1      41.669  31.303  35.692  1.00  0.00     0.049 A 
ATOM     61  H   UNL A   1      41.471  30.242  33.880  1.00  0.00     0.167 HD
ATOM     62  C   UNL A   1      39.830  32.450  34.495  1.00  0.00     0.074 A 
ATOM     63  C   UNL A   1      38.806  33.466  34.377  1.00  0.00     0.031 C 
ATOM     64  C   UNL A   1      40.658  32.323  35.563  1.00  0.00     0.037 A 
BRANCH  51  65
ATOM     65  C   UNL A   1      44.555  27.543  35.096  1.00  0.00     0.058 A 
ATOM     66  C   UNL A   1      45.924  27.845  34.978  1.00  0.00     0.135 A 
ATOM     67  C   UNL A   1      44.207  26.461  35.923  1.00  0.00     0.135 A 
ATOM     68  F   UNL A   1      46.327  28.870  34.209  1.00  0.00    -0.206 F 
ATOM     69  C   UNL A   1      46.903  27.087  35.613  1.00  0.00     0.059 A 
ATOM     70  C   UNL A   1      45.170  25.710  36.600  1.00  0.00     0.059 A 
ATOM     71  F   UNL A   1      42.919  26.125  36.094  1.00  0.00    -0.206 F 
ATOM     72  C   UNL A   1      46.517  26.022  36.426  1.00  0.00     0.060 A 
BRANCH  72  73
ATOM     73  S   UNL A   1      47.807  25.065  37.252  1.00  0.00     0.124 S 
ATOM     74  O   UNL A   1      48.449  24.403  36.120  1.00  0.00    -0.237 OA
ATOM     75  O   UNL A   1      48.595  26.105  37.905  1.00  0.00    -0.237 OA
ATOM     76  O   UNL A   1      47.062  24.189  38.150  1.00  0.00    -0.744 OA
ENDBRANCH  72  73
ENDBRANCH  51  65
BRANCH  52  77
ATOM     77  C   UNL A   1      37.216  32.537  30.579  1.00  0.00     0.058 A 
ATOM     78  C   UNL A   1      35.904  32.285  31.011  1.00  0.00     0.135 A 
ATOM     79  C   UNL A   1      37.397  33.481  29.557  1.00  0.00     0.135 A 
ATOM     80  F   UNL A   1      35.681  31.393  31.987  1.00  0.00    -0.206 F 
ATOM     81  C   UNL A   1      34.811  32.919  30.434  1.00  0.00     0.059 A 
ATOM     82  C   UNL A   1      36.320  34.151  28.982  1.00  0.00     0.059 A 
ATOM     83  F   UNL A   1      38.634  33.780  29.128  1.00  0.00    -0.206 F 
ATOM     84  C   UNL A   1      35.030  33.855  29.422  1.00  0.00     0.060 A 
BRANCH  84  85
ATOM     85  S   UNL A   1      33.599  34.701  28.716  1.00  0.00     0.124 S 
ATOM     86  O   UNL A   1      33.321  33.881  27.542  1.00  0.00    -0.237 OA
ATOM     87  O   UNL A   1      32.628  34.611  29.802  1.00  0.00    -0.237 OA
ATOM     88  O   UNL A   1      34.103  36.043  28.443  1.00  0.00    -0.744 OA
ENDBRANCH  84  85
ENDBRANCH  52  77
BRANCH  64  89
ATOM     89  C   UNL A   1      40.543  33.335  36.671  1.00  0.00     0.058 A 
ATOM     90  C   UNL A   1      39.641  33.178  37.736  1.00  0.00     0.135 A 
ATOM     91  C   UNL A   1      41.398  34.450  36.699  1.00  0.00     0.135 A 
ATOM     92  F   UNL A   1      38.797  32.135  37.759  1.00  0.00    -0.206 F 
ATOM     93  C   UNL A   1      39.576  34.101  38.775  1.00  0.00     0.059 A 
ATOM     94  C   UNL A   1      41.374  35.366  37.745  1.00  0.00     0.059 A 
ATOM     95  F   UNL A   1      42.287  34.645  35.712  1.00  0.00    -0.206 F 
ATOM     96  C   UNL A   1      40.452  35.189  38.774  1.00  0.00     0.060 A 
BRANCH  96  97
ATOM     97  S   UNL A   1      40.385  36.353  40.152  1.00  0.00     0.124 S 
ATOM     98  O   UNL A   1      40.610  37.625  39.475  1.00  0.00    -0.237 OA
ATOM     99  O   UNL A   1      39.039  36.140  40.673  1.00  0.00    -0.237 OA
ATOM    100  O   UNL A   1      41.467  35.909  41.026  1.00  0.00    -0.744 OA
ENDBRANCH  96  97
ENDBRANCH  64  89
ENDBRANCH  38  39
ENDBRANCH  31  33
ENDBRANCH  30  31
ENDBRANCH  29  30
ENDBRANCH   1  29
TORSDOF 19
ENDMDL
MODEL 2
REMARK VINA RESULT:     -12.7      6.030     11.799
REMARK SMILES O=C(OCCOCCOC(=O)c1ccc(-c2c3nc(c(-c4c(F)cc(S(=O)(=O)[O-])cc4F)c4ccc([nH]4)c(-c4c(F)cc(S(=O)(=O)[O-])cc4F)c4nc(c(-c5c(F)cc(S(=O)(=O)[O-])cc5F)c5ccc2[nH]5)C=C4)C=C3)cc1)C1=Cc2cc(Cl)cc(-c3ccccc3)c2O[C@@H]1C(F)(F)F
REMARK SMILES IDX 7 1 6 2 5 3 4 4 3 5 2 6 1 7 78 8 79 9 94 10 80 11 93 12
REMARK SMILES IDX 81 13 92 14 82 15 85 16 83 17 84 18 95 19 96 20 97 21 98 22
REMARK SMILES IDX 86 23 87 24 91 25 88 26 90 27 89 28 8 29 9 30 10 31 11 32
REMARK SMILES IDX 12 33 13 34 77 35 14 36 76 37 15 38 16 39 17 40 70 41 18 42
REMARK SMILES IDX 75 43 69 44 71 45 19 46 74 47 68 48 67 49 20 51 54 52 33 53
REMARK SMILES IDX 53 54 34 55 37 56 52 57 72 58 35 59 36 60 51 62 73 63 38 64
REMARK SMILES IDX 21 65 22 66 31 67 23 68 24 69 30 70 32 71 25 72 26 73 27 74
REMARK SMILES IDX 28 75 29 76 55 77 56 78 65 79 57 80 58 81 64 82 66 83 59 84
REMARK SMILES IDX 60 85 61 86 62 87 63 88 39 89 40 90 49 91 41 92 42 93 48 94
REMARK SMILES IDX 50 95 43 96 44 97 45 98 46 99 47 100
REMARK H PARENT 71 50 37 61
REMARK Flexibility Score: inf
ROOT
ATOM      1  C   UNL A   1      34.654  32.672  28.831  1.00  0.00     0.202 C 
ENDROOT
BRANCH   1   2
ATOM      2  O   UNL A   1      34.663  31.247  28.561  1.00  0.00    -0.374 OA
BRANCH   2   3
ATOM      3  C   UNL A   1      33.992  30.304  27.401  1.00  0.00     0.202 C 
BRANCH   3   4
ATOM      4  C   UNL A   1      31.913  29.744  27.082  1.00  0.00     0.261 C 
BRANCH   4   5
ATOM      5  O   UNL A   1      31.402  28.761  25.961  1.00  0.00    -0.460 OA
BRANCH   5   6
ATOM      6  C   UNL A   1      31.436  27.473  26.320  1.00  0.00     0.338 C 
ATOM      7  O   UNL A   1      31.399  26.948  27.402  1.00  0.00    -0.246 OA
BRANCH   6   8
ATOM      8  C   UNL A   1      31.870  27.008  25.030  1.00  0.00     0.087 C 
ATOM      9  C   UNL A   1      33.298  26.671  25.052  1.00  0.00     0.027 C 
ATOM     10  C   UNL A   1      30.438  25.744  24.713  1.00  0.00     0.316 C 
ATOM     11  C   UNL A   1      33.919  24.978  24.990  1.00  0.00     0.019 A 
ATOM     12  O   UNL A   1      31.099  23.909  24.649  1.00  0.00    -0.475 OA
ATOM     13  C   UNL A   1      35.249  24.840  25.284  1.00  0.00     0.032 A 
ATOM     14  C   UNL A   1      32.889  23.568  24.869  1.00  0.00     0.135 A 
ATOM     15  C   UNL A   1      35.660  23.534  25.548  1.00  0.00     0.042 A 
ATOM     16  C   UNL A   1      33.448  22.265  25.052  1.00  0.00     0.026 A 
ATOM     17  Cl  UNL A   1      37.325  23.310  25.976  1.00  0.00    -0.084 Cl
ATOM     18  C   UNL A   1      34.817  22.361  25.485  1.00  0.00     0.033 A 
BRANCH  10  19
ATOM     19  C   UNL A   1      29.645  26.689  23.679  1.00  0.00     0.430 C 
ATOM     20  F   UNL A   1      30.222  26.820  22.467  1.00  0.00    -0.167 F 
ATOM     21  F   UNL A   1      28.440  26.099  23.407  1.00  0.00    -0.167 F 
ATOM     22  F   UNL A   1      29.314  27.913  24.148  1.00  0.00    -0.167 F 
ENDBRANCH  10  19
BRANCH  16  23
ATOM     23  C   UNL A   1      32.839  20.786  24.853  1.00  0.00    -0.015 A 
ATOM     24  C   UNL A   1      32.479  20.694  23.079  1.00  0.00     0.009 A 
ATOM     25  C   UNL A   1      32.861  19.012  25.848  1.00  0.00     0.009 A 
ATOM     26  C   UNL A   1      32.223  19.118  22.334  1.00  0.00     0.001 A 
ATOM     27  C   UNL A   1      32.593  17.481  24.941  1.00  0.00     0.001 A 
ATOM     28  C   UNL A   1      32.288  17.587  23.225  1.00  0.00     0.000 A 
ENDBRANCH  16  23
ENDBRANCH   6   8
ENDBRANCH   5   6
ENDBRANCH   4   5
ENDBRANCH   3   4
ENDBRANCH   2   3
ENDBRANCH   1   2
BRANCH   1  29
ATOM     29  C   UNL A   1      34.794  33.107  30.290  1.00  0.00     0.261 C 
BRANCH  29  30
ATOM     30  O   UNL A   1      35.635  32.208  30.958  1.00  0.00    -0.460 OA
BRANCH  30  31
ATOM     31  C   UNL A   1      36.806  32.774  31.299  1.00  0.00     0.338 C 
ATOM     32  O   UNL A   1      37.032  33.829  31.858  1.00  0.00    -0.246 OA
BRANCH  31  33
ATOM     33  C   UNL A   1      37.788  31.799  30.914  1.00  0.00     0.060 A 
ATOM     34  C   UNL A   1      38.878  31.121  32.144  1.00  0.00     0.016 A 
ATOM     35  C   UNL A   1      38.134  31.467  29.162  1.00  0.00     0.016 A 
ATOM     36  C   UNL A   1      40.330  30.170  31.726  1.00  0.00     0.010 A 
ATOM     37  C   UNL A   1      39.785  30.376  28.758  1.00  0.00     0.010 A 
ATOM     38  C   UNL A   1      40.820  29.798  30.086  1.00  0.00    -0.014 A 
BRANCH  38  39
ATOM     39  C   UNL A   1      42.179  29.343  29.653  1.00  0.00     0.031 A 
ATOM     40  C   UNL A   1      43.286  30.339  29.347  1.00  0.00     0.074 A 
ATOM     41  C   UNL A   1      42.312  28.083  29.201  1.00  0.00     0.049 A 
ATOM     42  N   UNL A   1      44.449  30.154  28.766  1.00  0.00    -0.248 NA
ATOM     43  C   UNL A   1      43.026  31.745  29.676  1.00  0.00     0.031 C 
ATOM     44  C   UNL A   1      41.269  27.063  29.250  1.00  0.00     0.029 A 
ATOM     45  N   UNL A   1      43.354  27.467  28.551  1.00  0.00    -0.354 N 
ATOM     46  C   UNL A   1      45.039  31.415  28.655  1.00  0.00     0.074 A 
ATOM     47  C   UNL A   1      44.067  32.366  29.140  1.00  0.00     0.031 C 
ATOM     48  C   UNL A   1      41.713  25.952  28.640  1.00  0.00     0.029 A 
ATOM     49  C   UNL A   1      43.073  26.180  28.157  1.00  0.00     0.049 A 
ATOM     50  H   UNL A   1      44.219  27.906  28.385  1.00  0.00     0.167 HD
ATOM     51  C   UNL A   1      46.284  31.758  28.235  1.00  0.00     0.037 A 
ATOM     52  C   UNL A   1      43.824  25.284  27.487  1.00  0.00     0.037 A 
ATOM     53  C   UNL A   1      47.251  30.806  27.747  1.00  0.00     0.049 A 
ATOM     54  C   UNL A   1      45.231  25.646  27.084  1.00  0.00     0.074 A 
ATOM     55  C   UNL A   1      48.581  31.008  27.425  1.00  0.00     0.029 A 
ATOM     56  N   UNL A   1      46.978  29.471  27.492  1.00  0.00    -0.354 N 
ATOM     57  N   UNL A   1      45.849  26.798  27.183  1.00  0.00    -0.248 NA
ATOM     58  C   UNL A   1      46.054  24.573  26.509  1.00  0.00     0.031 C 
ATOM     59  C   UNL A   1      49.096  29.809  26.919  1.00  0.00     0.029 A 
ATOM     60  C   UNL A   1      48.107  28.843  26.995  1.00  0.00     0.049 A 
ATOM     61  H   UNL A   1      46.109  29.033  27.643  1.00  0.00     0.167 HD
ATOM     62  C   UNL A   1      47.147  26.575  26.732  1.00  0.00     0.074 A 
ATOM     63  C   UNL A   1      47.225  25.178  26.363  1.00  0.00     0.031 C 
ATOM     64  C   UNL A   1      48.184  27.447  26.642  1.00  0.00     0.037 A 
BRANCH  51  65
ATOM     65  C   UNL A   1      46.707  33.209  28.335  1.00  0.00     0.058 A 
ATOM     66  C   UNL A   1      47.315  33.712  29.501  1.00  0.00     0.135 A 
ATOM     67  C   UNL A   1      46.586  34.089  27.246  1.00  0.00     0.135 A 
ATOM     68  F   UNL A   1      47.468  32.924  30.577  1.00  0.00    -0.206 F 
ATOM     69  C   UNL A   1      47.742  35.032  29.597  1.00  0.00     0.059 A 
ATOM     70  C   UNL A   1      47.042  35.407  27.307  1.00  0.00     0.059 A 
ATOM     71  F   UNL A   1      46.030  33.673  26.097  1.00  0.00    -0.206 F 
ATOM     72  C   UNL A   1      47.605  35.873  28.493  1.00  0.00     0.060 A 
BRANCH  72  73
ATOM     73  S   UNL A   1      48.184  37.578  28.641  1.00  0.00     0.124 S 
ATOM     74  O   UNL A   1      46.939  38.324  28.485  1.00  0.00    -0.237 OA
ATOM     75  O   UNL A   1      48.768  37.594  29.978  1.00  0.00    -0.237 OA
ATOM     76  O   UNL A   1      49.135  37.712  27.542  1.00  0.00    -0.744 OA
ENDBRANCH  72  73
ENDBRANCH  51  65
BRANCH  52  77
ATOM     77  C   UNL A   1      43.298  23.912  27.256  1.00  0.00     0.058 A 
ATOM     78  C   UNL A   1      43.318  22.966  28.293  1.00  0.00     0.135 A 
ATOM     79  C   UNL A   1      42.749  23.522  26.025  1.00  0.00     0.135 A 
ATOM     80  F   UNL A   1      43.831  23.293  29.489  1.00  0.00    -0.206 F 
ATOM     81  C   UNL A   1      42.839  21.674  28.112  1.00  0.00     0.059 A 
ATOM     82  C   UNL A   1      42.238  22.242  25.827  1.00  0.00     0.059 A 
ATOM     83  F   UNL A   1      42.681  24.398  25.011  1.00  0.00    -0.206 F 
ATOM     84  C   UNL A   1      42.297  21.323  26.875  1.00  0.00     0.060 A 
BRANCH  84  85
ATOM     85  S   UNL A   1      41.641  19.653  26.673  1.00  0.00     0.124 S 
ATOM     86  O   UNL A   1      40.628  19.606  27.722  1.00  0.00    -0.237 OA
ATOM     87  O   UNL A   1      41.140  19.688  25.302  1.00  0.00    -0.237 OA
ATOM     88  O   UNL A   1      42.809  18.804  26.886  1.00  0.00    -0.744 OA
ENDBRANCH  84  85
ENDBRANCH  52  77
BRANCH  64  89
ATOM     89  C   UNL A   1      49.515  26.916  26.182  1.00  0.00     0.058 A 
ATOM     90  C   UNL A   1      49.942  27.024  24.849  1.00  0.00     0.135 A 
ATOM     91  C   UNL A   1      50.406  26.346  27.109  1.00  0.00     0.135 A 
ATOM     92  F   UNL A   1      49.132  27.554  23.920  1.00  0.00    -0.206 F 
ATOM     93  C   UNL A   1      51.193  26.566  24.448  1.00  0.00     0.059 A 
ATOM     94  C   UNL A   1      51.674  25.914  26.736  1.00  0.00     0.059 A 
ATOM     95  F   UNL A   1      50.054  26.226  28.399  1.00  0.00    -0.206 F 
ATOM     96  C   UNL A   1      52.055  26.019  25.400  1.00  0.00     0.060 A 
BRANCH  96  97
ATOM     97  S   UNL A   1      53.692  25.470  24.872  1.00  0.00     0.124 S 
ATOM     98  O   UNL A   1      53.701  25.879  23.471  1.00  0.00    -0.237 OA
ATOM     99  O   UNL A   1      54.573  26.223  25.759  1.00  0.00    -0.237 OA
ATOM    100  O   UNL A   1      53.660  24.030  25.103  1.00  0.00    -0.744 OA
ENDBRANCH  96  97
ENDBRANCH  64  89
ENDBRANCH  38  39
ENDBRANCH  31  33
ENDBRANCH  30  31
ENDBRANCH  29  30
ENDBRANCH   1  29
TORSDOF 19
ENDMDL
MODEL 3
REMARK VINA RESULT:     -11.6      6.071     11.543
REMARK SMILES O=C(OCCOCCOC(=O)c1ccc(-c2c3nc(c(-c4c(F)cc(S(=O)(=O)[O-])cc4F)c4ccc([nH]4)c(-c4c(F)cc(S(=O)(=O)[O-])cc4F)c4nc(c(-c5c(F)cc(S(=O)(=O)[O-])cc5F)c5ccc2[nH]5)C=C4)C=C3)cc1)C1=Cc2cc(Cl)cc(-c3ccccc3)c2O[C@@H]1C(F)(F)F
REMARK SMILES IDX 7 1 6 2 5 3 4 4 3 5 2 6 1 7 78 8 79 9 94 10 80 11 93 12
REMARK SMILES IDX 81 13 92 14 82 15 85 16 83 17 84 18 95 19 96 20 97 21 98 22
REMARK SMILES IDX 86 23 87 24 91 25 88 26 90 27 89 28 8 29 9 30 10 31 11 32
REMARK SMILES IDX 12 33 13 34 77 35 14 36 76 37 15 38 16 39 17 40 70 41 18 42
REMARK SMILES IDX 75 43 69 44 71 45 19 46 74 47 68 48 67 49 20 51 54 52 33 53
REMARK SMILES IDX 53 54 34 55 37 56 52 57 72 58 35 59 36 60 51 62 73 63 38 64
REMARK SMILES IDX 21 65 22 66 31 67 23 68 24 69 30 70 32 71 25 72 26 73 27 74
REMARK SMILES IDX 28 75 29 76 55 77 56 78 65 79 57 80 58 81 64 82 66 83 59 84
REMARK SMILES IDX 60 85 61 86 62 87 63 88 39 89 40 90 49 91 41 92 42 93 48 94
REMARK SMILES IDX 50 95 43 96 44 97 45 98 46 99 47 100
REMARK H PARENT 71 50 37 61
REMARK Flexibility Score: inf
ROOT
ATOM      1  C   UNL A   1      34.404  32.187  28.248  1.00  0.00     0.202 C 
ENDROOT
BRANCH   1   2
ATOM      2  O   UNL A   1      33.940  30.871  27.853  1.00  0.00    -0.374 OA
BRANCH   2   3
ATOM      3  C   UNL A   1      34.685  29.514  27.314  1.00  0.00     0.202 C 
BRANCH   3   4
ATOM      4  C   UNL A   1      34.010  28.022  25.881  1.00  0.00     0.261 C 
BRANCH   4   5
ATOM      5  O   UNL A   1      32.520  27.537  25.713  1.00  0.00    -0.460 OA
BRANCH   5   6
ATOM      6  C   UNL A   1      32.339  26.245  26.008  1.00  0.00     0.338 C 
ATOM      7  O   UNL A   1      32.102  25.693  27.052  1.00  0.00    -0.246 OA
BRANCH   6   8
ATOM      8  C   UNL A   1      32.859  25.768  24.755  1.00  0.00     0.087 C 
ATOM      9  C   UNL A   1      34.295  25.482  24.863  1.00  0.00     0.027 C 
ATOM     10  C   UNL A   1      31.490  24.448  24.390  1.00  0.00     0.316 C 
ATOM     11  C   UNL A   1      34.975  23.811  24.874  1.00  0.00     0.019 A 
ATOM     12  O   UNL A   1      32.216  22.636  24.404  1.00  0.00    -0.475 OA
ATOM     13  C   UNL A   1      36.291  23.726  25.243  1.00  0.00     0.032 A 
ATOM     14  C   UNL A   1      34.001  22.364  24.730  1.00  0.00     0.135 A 
ATOM     15  C   UNL A   1      36.731  22.442  25.559  1.00  0.00     0.042 A 
ATOM     16  C   UNL A   1      34.594  21.086  24.973  1.00  0.00     0.026 A 
ATOM     17  Cl  UNL A   1      38.376  22.286  26.082  1.00  0.00    -0.084 Cl
ATOM     18  C   UNL A   1      35.932  21.238  25.477  1.00  0.00     0.033 A 
BRANCH  10  19
ATOM     19  C   UNL A   1      30.724  25.343  23.293  1.00  0.00     0.430 C 
ATOM     20  F   UNL A   1      31.291  25.355  22.069  1.00  0.00    -0.167 F 
ATOM     21  F   UNL A   1      29.493  24.784  23.078  1.00  0.00    -0.167 F 
ATOM     22  F   UNL A   1      30.450  26.612  23.668  1.00  0.00    -0.167 F 
ENDBRANCH  10  19
BRANCH  16  23
ATOM     23  C   UNL A   1      34.047  19.582  24.774  1.00  0.00    -0.015 A 
ATOM     24  C   UNL A   1      35.552  18.579  24.651  1.00  0.00     0.009 A 
ATOM     25  C   UNL A   1      32.323  18.559  25.121  1.00  0.00     0.009 A 
ATOM     26  C   UNL A   1      35.444  16.835  24.879  1.00  0.00     0.001 A 
ATOM     27  C   UNL A   1      32.380  16.774  25.345  1.00  0.00     0.001 A 
ATOM     28  C   UNL A   1      33.930  15.980  25.219  1.00  0.00     0.000 A 
ENDBRANCH  16  23
ENDBRANCH   6   8
ENDBRANCH   5   6
ENDBRANCH   4   5
ENDBRANCH   3   4
ENDBRANCH   2   3
ENDBRANCH   1   2
BRANCH   1  29
ATOM     29  C   UNL A   1      34.490  32.476  29.747  1.00  0.00     0.261 C 
BRANCH  29  30
ATOM     30  O   UNL A   1      35.472  31.656  30.317  1.00  0.00    -0.460 OA
BRANCH  30  31
ATOM     31  C   UNL A   1      36.604  32.335  30.576  1.00  0.00     0.338 C 
ATOM     32  O   UNL A   1      36.764  33.421  31.097  1.00  0.00    -0.246 OA
BRANCH  31  33
ATOM     33  C   UNL A   1      37.648  31.442  30.155  1.00  0.00     0.060 A 
ATOM     34  C   UNL A   1      39.027  31.138  31.235  1.00  0.00     0.016 A 
ATOM     35  C   UNL A   1      37.734  30.853  28.440  1.00  0.00     0.016 A 
ATOM     36  C   UNL A   1      40.518  30.324  30.687  1.00  0.00     0.010 A 
ATOM     37  C   UNL A   1      39.444  29.929  27.887  1.00  0.00     0.010 A 
ATOM     38  C   UNL A   1      40.771  29.733  29.057  1.00  0.00    -0.014 A 
BRANCH  38  39
ATOM     39  C   UNL A   1      42.089  29.388  28.438  1.00  0.00     0.031 A 
ATOM     40  C   UNL A   1      42.435  27.956  28.061  1.00  0.00     0.074 A 
ATOM     41  C   UNL A   1      43.091  30.279  28.540  1.00  0.00     0.049 A 
ATOM     42  N   UNL A   1      43.587  27.431  27.712  1.00  0.00    -0.248 NA
ATOM     43  C   UNL A   1      41.356  26.965  28.151  1.00  0.00     0.031 C 
ATOM     44  C   UNL A   1      42.953  31.635  29.065  1.00  0.00     0.029 A 
ATOM     45  N   UNL A   1      44.433  30.158  28.272  1.00  0.00    -0.354 N 
ATOM     46  C   UNL A   1      43.364  26.061  27.559  1.00  0.00     0.074 A 
ATOM     47  C   UNL A   1      41.994  25.822  27.944  1.00  0.00     0.031 C 
ATOM     48  C   UNL A   1      44.164  32.217  29.099  1.00  0.00     0.029 A 
ATOM     49  C   UNL A   1      45.163  31.276  28.598  1.00  0.00     0.049 A 
ATOM     50  H   UNL A   1      44.833  29.347  27.881  1.00  0.00     0.167 HD
ATOM     51  C   UNL A   1      44.199  25.092  27.099  1.00  0.00     0.037 A 
ATOM     52  C   UNL A   1      46.485  31.520  28.501  1.00  0.00     0.037 A 
ATOM     53  C   UNL A   1      45.568  25.333  26.719  1.00  0.00     0.049 A 
ATOM     54  C   UNL A   1      47.396  30.466  27.924  1.00  0.00     0.074 A 
ATOM     55  C   UNL A   1      46.465  24.471  26.113  1.00  0.00     0.029 A 
ATOM     56  N   UNL A   1      46.242  26.526  26.930  1.00  0.00    -0.354 N 
ATOM     57  N   UNL A   1      47.119  29.230  27.583  1.00  0.00    -0.248 NA
ATOM     58  C   UNL A   1      48.794  30.853  27.689  1.00  0.00     0.031 C 
ATOM     59  C   UNL A   1      47.699  25.123  26.012  1.00  0.00     0.029 A 
ATOM     60  C   UNL A   1      47.550  26.415  26.489  1.00  0.00     0.049 A 
ATOM     61  H   UNL A   1      45.849  27.333  27.333  1.00  0.00     0.167 HD
ATOM     62  C   UNL A   1      48.293  28.711  27.045  1.00  0.00     0.074 A 
ATOM     63  C   UNL A   1      49.280  29.766  27.105  1.00  0.00     0.031 C 
ATOM     64  C   UNL A   1      48.527  27.474  26.537  1.00  0.00     0.037 A 
BRANCH  51  65
ATOM     65  C   UNL A   1      43.649  23.692  26.919  1.00  0.00     0.058 A 
ATOM     66  C   UNL A   1      43.473  22.831  28.018  1.00  0.00     0.135 A 
ATOM     67  C   UNL A   1      43.217  23.225  25.665  1.00  0.00     0.135 A 
ATOM     68  F   UNL A   1      43.857  23.215  29.247  1.00  0.00    -0.206 F 
ATOM     69  C   UNL A   1      42.935  21.556  27.876  1.00  0.00     0.059 A 
ATOM     70  C   UNL A   1      42.640  21.964  25.505  1.00  0.00     0.059 A 
ATOM     71  F   UNL A   1      43.340  23.999  24.575  1.00  0.00    -0.206 F 
ATOM     72  C   UNL A   1      42.518  21.131  26.615  1.00  0.00     0.060 A 
BRANCH  72  73
ATOM     73  S   UNL A   1      41.808  19.476  26.463  1.00  0.00     0.124 S 
ATOM     74  O   UNL A   1      42.456  18.992  25.247  1.00  0.00    -0.237 OA
ATOM     75  O   UNL A   1      42.236  18.839  27.703  1.00  0.00    -0.237 OA
ATOM     76  O   UNL A   1      40.375  19.728  26.351  1.00  0.00    -0.744 OA
ENDBRANCH  72  73
ENDBRANCH  51  65
BRANCH  52  77
ATOM     77  C   UNL A   1      47.011  32.865  28.855  1.00  0.00     0.058 A 
ATOM     78  C   UNL A   1      47.508  33.110  30.145  1.00  0.00     0.135 A 
ATOM     79  C   UNL A   1      47.056  33.916  27.927  1.00  0.00     0.135 A 
ATOM     80  F   UNL A   1      47.488  32.135  31.067  1.00  0.00    -0.206 F 
ATOM     81  C   UNL A   1      48.003  34.355  30.513  1.00  0.00     0.059 A 
ATOM     82  C   UNL A   1      47.574  35.165  28.263  1.00  0.00     0.059 A 
ATOM     83  F   UNL A   1      46.621  33.726  26.672  1.00  0.00    -0.206 F 
ATOM     84  C   UNL A   1      48.035  35.376  29.563  1.00  0.00     0.060 A 
BRANCH  84  85
ATOM     85  S   UNL A   1      48.724  36.973  30.048  1.00  0.00     0.124 S 
ATOM     86  O   UNL A   1      49.771  37.158  29.049  1.00  0.00    -0.237 OA
ATOM     87  O   UNL A   1      47.564  37.852  29.927  1.00  0.00    -0.237 OA
ATOM     88  O   UNL A   1      49.186  36.740  31.412  1.00  0.00    -0.744 OA
ENDBRANCH  84  85
ENDBRANCH  52  77
BRANCH  64  89
ATOM     89  C   UNL A   1      49.884  27.199  25.947  1.00  0.00     0.058 A 
ATOM     90  C   UNL A   1      50.971  26.787  26.735  1.00  0.00     0.135 A 
ATOM     91  C   UNL A   1      50.081  27.287  24.558  1.00  0.00     0.135 A 
ATOM     92  F   UNL A   1      50.843  26.691  28.067  1.00  0.00    -0.206 F 
ATOM     93  C   UNL A   1      52.209  26.496  26.170  1.00  0.00     0.059 A 
ATOM     94  C   UNL A   1      51.299  26.966  23.968  1.00  0.00     0.059 A 
ATOM     95  F   UNL A   1      49.074  27.665  23.756  1.00  0.00    -0.206 F 
ATOM     96  C   UNL A   1      52.361  26.582  24.784  1.00  0.00     0.060 A 
BRANCH  96  97
ATOM     97  S   UNL A   1      53.960  26.156  24.062  1.00  0.00     0.124 S 
ATOM     98  O   UNL A   1      54.194  24.830  24.623  1.00  0.00    -0.237 OA
ATOM     99  O   UNL A   1      53.676  26.200  22.632  1.00  0.00    -0.237 OA
ATOM    100  O   UNL A   1      54.846  27.208  24.552  1.00  0.00    -0.744 OA
ENDBRANCH  96  97
ENDBRANCH  64  89
ENDBRANCH  38  39
ENDBRANCH  31  33
ENDBRANCH  30  31
ENDBRANCH  29  30
ENDBRANCH   1  29
TORSDOF 19
ENDMDL
