MODEL 1
REMARK VINA RESULT:     -12.2      0.000      0.000
REMARK SMILES Cc1c(CC(=O)OCCOCCOC(=O)c2ccc(-c3c4nc(c(-c5c(F)cc(S(=O)(=O)[O-])cc5F)c5ccc([nH]5)c(-c5c(F)cc(S(=O)(=O)[O-])cc5F)c5nc(c(-c6c(F)cc(S(=O)(=O)[O-])cc6F)c6ccc3[nH]6)C=C5)C=C4)cc2)cccc1-c1ccn(C(F)F)c(=O)c1
REMARK SMILES IDX 10 1 9 2 8 3 7 4 5 5 6 6 4 7 3 8 1 9 2 10 85 11 82 12 84 13
REMARK SMILES IDX 83 14 86 15 87 16 95 17 88 18 93 19 89 20 94 21 90 22 91 23
REMARK SMILES IDX 92 24 11 25 12 26 13 27 14 28 15 29 16 30 17 31 81 32 18 33
REMARK SMILES IDX 80 34 19 35 20 36 21 37 74 38 22 39 79 40 73 41 75 42 23 43
REMARK SMILES IDX 78 44 72 45 71 46 24 48 58 49 37 50 57 51 38 52 41 53 56 54
REMARK SMILES IDX 76 55 39 56 40 57 55 59 77 60 42 61 25 62 26 63 35 64 27 65
REMARK SMILES IDX 28 66 34 67 36 68 29 69 30 70 31 71 32 72 33 73 59 74 60 75
REMARK SMILES IDX 69 76 61 77 62 78 68 79 70 80 63 81 64 82 65 83 66 84 67 85
REMARK SMILES IDX 43 86 44 87 53 88 45 89 46 90 52 91 54 92 47 93 48 94 49 95
REMARK SMILES IDX 50 96 51 97
REMARK H PARENT 75 47 41 58
REMARK Flexibility Score: inf
ROOT
ATOM      1  O   UNL A   1      31.451  30.216  25.421  1.00  0.00    -0.374 OA
ENDROOT
BRANCH   1   2
ATOM      2  C   UNL A   1      32.174  29.211  24.715  1.00  0.00     0.202 C 
BRANCH   2   3
ATOM      3  C   UNL A   1      31.417  28.063  24.051  1.00  0.00     0.261 C 
BRANCH   3   4
ATOM      4  O   UNL A   1      30.414  27.476  24.881  1.00  0.00    -0.463 OA
BRANCH   4   5
ATOM      5  C   UNL A   1      30.667  26.288  25.466  1.00  0.00     0.310 C 
ATOM      6  O   UNL A   1      31.118  26.148  26.598  1.00  0.00    -0.252 OA
BRANCH   5   7
ATOM      7  C   UNL A   1      30.260  25.114  24.597  1.00  0.00     0.158 C 
BRANCH   7   8
ATOM      8  C   UNL A   1      31.359  24.327  23.885  1.00  0.00    -0.033 A 
ATOM      9  C   UNL A   1      31.117  22.367  25.476  1.00  0.00     0.045 C 
ATOM     10  C   UNL A   1      31.731  23.009  24.255  1.00  0.00    -0.039 A 
ATOM     11  C   UNL A   1      32.667  22.296  23.455  1.00  0.00    -0.015 A 
ATOM     12  C   UNL A   1      31.975  24.913  22.764  1.00  0.00     0.004 A 
ATOM     13  C   UNL A   1      33.313  22.943  22.393  1.00  0.00     0.009 A 
ATOM     14  C   UNL A   1      32.974  24.249  22.057  1.00  0.00     0.001 A 
BRANCH  11  15
ATOM     15  C   UNL A   1      32.855  20.829  23.598  1.00  0.00    -0.011 A 
ATOM     16  C   UNL A   1      33.698  20.309  24.661  1.00  0.00     0.027 A 
ATOM     17  C   UNL A   1      32.247  19.961  22.770  1.00  0.00     0.080 A 
ATOM     18  C   UNL A   1      33.967  19.005  24.746  1.00  0.00     0.095 A 
ATOM     19  C   UNL A   1      32.526  18.496  22.862  1.00  0.00     0.255 A 
ATOM     20  N   UNL A   1      33.422  18.109  23.849  1.00  0.00    -0.258 N 
ATOM     21  O   UNL A   1      31.976  17.727  22.080  1.00  0.00    -0.269 OA
BRANCH  20  22
ATOM     22  C   UNL A   1      33.778  16.718  23.909  1.00  0.00     0.451 C 
ATOM     23  F   UNL A   1      34.370  16.302  22.763  1.00  0.00    -0.185 F 
ATOM     24  F   UNL A   1      34.624  16.463  24.936  1.00  0.00    -0.185 F 
ENDBRANCH  20  22
ENDBRANCH  11  15
ENDBRANCH   7   8
ENDBRANCH   5   7
ENDBRANCH   4   5
ENDBRANCH   3   4
ENDBRANCH   2   3
ENDBRANCH   1   2
BRANCH   1  25
ATOM     25  C   UNL A   1      32.062  30.819  26.561  1.00  0.00     0.202 C 
BRANCH  25  26
ATOM     26  C   UNL A   1      33.123  30.019  27.323  1.00  0.00     0.261 C 
BRANCH  26  27
ATOM     27  O   UNL A   1      34.450  30.496  27.091  1.00  0.00    -0.460 OA
BRANCH  27  28
ATOM     28  C   UNL A   1      35.085  31.105  28.131  1.00  0.00     0.338 C 
ATOM     29  O   UNL A   1      34.880  32.199  28.629  1.00  0.00    -0.246 OA
BRANCH  28  30
ATOM     30  C   UNL A   1      35.844  30.013  28.767  1.00  0.00     0.060 A 
ATOM     31  C   UNL A   1      36.236  30.140  30.098  1.00  0.00     0.016 A 
ATOM     32  C   UNL A   1      36.579  29.236  27.875  1.00  0.00     0.016 A 
ATOM     33  C   UNL A   1      37.533  29.780  30.436  1.00  0.00     0.010 A 
ATOM     34  C   UNL A   1      37.885  28.929  28.208  1.00  0.00     0.010 A 
ATOM     35  C   UNL A   1      38.408  29.407  29.414  1.00  0.00    -0.014 A 
BRANCH  35  36
ATOM     36  C   UNL A   1      39.835  29.776  29.467  1.00  0.00     0.031 A 
ATOM     37  C   UNL A   1      40.797  28.936  28.749  1.00  0.00     0.074 A 
ATOM     38  C   UNL A   1      40.289  30.895  30.083  1.00  0.00     0.049 A 
ATOM     39  N   UNL A   1      41.430  27.933  29.257  1.00  0.00    -0.248 NA
ATOM     40  C   UNL A   1      41.041  29.163  27.322  1.00  0.00     0.031 C 
ATOM     41  C   UNL A   1      41.681  31.304  30.242  1.00  0.00     0.029 A 
ATOM     42  N   UNL A   1      39.591  31.854  30.815  1.00  0.00    -0.354 N 
ATOM     43  C   UNL A   1      42.355  27.582  28.294  1.00  0.00     0.074 A 
ATOM     44  C   UNL A   1      41.903  28.182  27.051  1.00  0.00     0.031 C 
ATOM     45  C   UNL A   1      41.749  32.166  31.275  1.00  0.00     0.029 A 
ATOM     46  C   UNL A   1      40.411  32.319  31.838  1.00  0.00     0.049 A 
ATOM     47  H   UNL A   1      38.670  32.152  30.638  1.00  0.00     0.167 HD
ATOM     48  C   UNL A   1      43.663  27.336  28.595  1.00  0.00     0.037 A 
ATOM     49  C   UNL A   1      40.074  32.152  33.150  1.00  0.00     0.037 A 
ATOM     50  C   UNL A   1      44.011  27.964  29.870  1.00  0.00     0.049 A 
ATOM     51  C   UNL A   1      40.878  31.026  33.769  1.00  0.00     0.074 A 
ATOM     52  C   UNL A   1      44.666  29.156  30.136  1.00  0.00     0.029 A 
ATOM     53  N   UNL A   1      43.390  27.589  31.059  1.00  0.00    -0.354 N 
ATOM     54  N   UNL A   1      41.634  30.223  33.065  1.00  0.00    -0.248 NA
ATOM     55  C   UNL A   1      40.937  30.715  35.196  1.00  0.00     0.031 C 
ATOM     56  C   UNL A   1      44.396  29.524  31.477  1.00  0.00     0.029 A 
ATOM     57  C   UNL A   1      43.590  28.549  32.039  1.00  0.00     0.049 A 
ATOM     58  H   UNL A   1      42.879  26.757  31.186  1.00  0.00     0.167 HD
ATOM     59  C   UNL A   1      42.257  29.319  33.881  1.00  0.00     0.074 A 
ATOM     60  C   UNL A   1      41.796  29.678  35.211  1.00  0.00     0.031 C 
ATOM     61  C   UNL A   1      43.100  28.357  33.398  1.00  0.00     0.037 A 
BRANCH  48  62
ATOM     62  C   UNL A   1      44.652  26.960  27.506  1.00  0.00     0.058 A 
ATOM     63  C   UNL A   1      44.915  25.627  27.142  1.00  0.00     0.135 A 
ATOM     64  C   UNL A   1      45.343  27.935  26.746  1.00  0.00     0.135 A 
ATOM     65  F   UNL A   1      44.255  24.606  27.704  1.00  0.00    -0.206 F 
ATOM     66  C   UNL A   1      45.861  25.283  26.173  1.00  0.00     0.059 A 
ATOM     67  C   UNL A   1      46.323  27.616  25.803  1.00  0.00     0.059 A 
ATOM     68  F   UNL A   1      45.084  29.244  26.903  1.00  0.00    -0.206 F 
ATOM     69  C   UNL A   1      46.577  26.282  25.522  1.00  0.00     0.060 A 
BRANCH  69  70
ATOM     70  S   UNL A   1      47.810  25.814  24.292  1.00  0.00     0.124 S 
ATOM     71  O   UNL A   1      49.044  25.818  25.072  1.00  0.00    -0.237 OA
ATOM     72  O   UNL A   1      47.329  24.503  23.868  1.00  0.00    -0.237 OA
ATOM     73  O   UNL A   1      47.709  26.871  23.289  1.00  0.00    -0.744 OA
ENDBRANCH  69  70
ENDBRANCH  48  62
BRANCH  49  74
ATOM     74  C   UNL A   1      38.696  32.633  33.470  1.00  0.00     0.058 A 
ATOM     75  C   UNL A   1      38.424  33.969  33.116  1.00  0.00     0.135 A 
ATOM     76  C   UNL A   1      37.586  31.799  33.649  1.00  0.00     0.135 A 
ATOM     77  F   UNL A   1      39.435  34.846  33.023  1.00  0.00    -0.206 F 
ATOM     78  C   UNL A   1      37.156  34.396  32.735  1.00  0.00     0.059 A 
ATOM     79  C   UNL A   1      36.294  32.214  33.286  1.00  0.00     0.059 A 
ATOM     80  F   UNL A   1      37.752  30.532  34.053  1.00  0.00    -0.206 F 
ATOM     81  C   UNL A   1      36.103  33.494  32.764  1.00  0.00     0.060 A 
BRANCH  81  82
ATOM     82  S   UNL A   1      34.549  33.926  31.936  1.00  0.00     0.124 S 
ATOM     83  O   UNL A   1      33.917  34.800  32.915  1.00  0.00    -0.237 OA
ATOM     84  O   UNL A   1      35.001  34.572  30.707  1.00  0.00    -0.237 OA
ATOM     85  O   UNL A   1      33.925  32.620  31.750  1.00  0.00    -0.744 OA
ENDBRANCH  81  82
ENDBRANCH  49  74
BRANCH  61  86
ATOM     86  C   UNL A   1      43.644  27.197  34.192  1.00  0.00     0.058 A 
ATOM     87  C   UNL A   1      42.840  26.183  34.734  1.00  0.00     0.135 A 
ATOM     88  C   UNL A   1      45.044  26.996  34.298  1.00  0.00     0.135 A 
ATOM     89  F   UNL A   1      41.507  26.210  34.605  1.00  0.00    -0.206 F 
ATOM     90  C   UNL A   1      43.380  25.079  35.395  1.00  0.00     0.059 A 
ATOM     91  C   UNL A   1      45.603  25.872  34.897  1.00  0.00     0.059 A 
ATOM     92  F   UNL A   1      45.921  27.886  33.808  1.00  0.00    -0.206 F 
ATOM     93  C   UNL A   1      44.762  24.931  35.470  1.00  0.00     0.060 A 
BRANCH  93  94
ATOM     94  S   UNL A   1      45.459  23.486  36.286  1.00  0.00     0.124 S 
ATOM     95  O   UNL A   1      45.190  23.789  37.688  1.00  0.00    -0.237 OA
ATOM     96  O   UNL A   1      44.680  22.390  35.717  1.00  0.00    -0.237 OA
ATOM     97  O   UNL A   1      46.862  23.520  35.888  1.00  0.00    -0.744 OA
ENDBRANCH  93  94
ENDBRANCH  61  86
ENDBRANCH  35  36
ENDBRANCH  28  30
ENDBRANCH  27  28
ENDBRANCH  26  27
ENDBRANCH  25  26
ENDBRANCH   1  25
TORSDOF 20
ENDMDL
MODEL 2
REMARK VINA RESULT:     -11.5      4.415     10.691
REMARK SMILES Cc1c(CC(=O)OCCOCCOC(=O)c2ccc(-c3c4nc(c(-c5c(F)cc(S(=O)(=O)[O-])cc5F)c5ccc([nH]5)c(-c5c(F)cc(S(=O)(=O)[O-])cc5F)c5nc(c(-c6c(F)cc(S(=O)(=O)[O-])cc6F)c6ccc3[nH]6)C=C5)C=C4)cc2)cccc1-c1ccn(C(F)F)c(=O)c1
REMARK SMILES IDX 10 1 9 2 8 3 7 4 5 5 6 6 4 7 3 8 1 9 2 10 85 11 82 12 84 13
REMARK SMILES IDX 83 14 86 15 87 16 95 17 88 18 93 19 89 20 94 21 90 22 91 23
REMARK SMILES IDX 92 24 11 25 12 26 13 27 14 28 15 29 16 30 17 31 81 32 18 33
REMARK SMILES IDX 80 34 19 35 20 36 21 37 74 38 22 39 79 40 73 41 75 42 23 43
REMARK SMILES IDX 78 44 72 45 71 46 24 48 58 49 37 50 57 51 38 52 41 53 56 54
REMARK SMILES IDX 76 55 39 56 40 57 55 59 77 60 42 61 25 62 26 63 35 64 27 65
REMARK SMILES IDX 28 66 34 67 36 68 29 69 30 70 31 71 32 72 33 73 59 74 60 75
REMARK SMILES IDX 69 76 61 77 62 78 68 79 70 80 63 81 64 82 65 83 66 84 67 85
REMARK SMILES IDX 43 86 44 87 53 88 45 89 46 90 52 91 54 92 47 93 48 94 49 95
REMARK SMILES IDX 50 96 51 97
REMARK H PARENT 75 47 41 58
REMARK Flexibility Score: inf
ROOT
ATOM      1  O   UNL A   1      44.381  23.414  26.728  1.00  0.00    -0.374 OA
ENDROOT
BRANCH   1   2
ATOM      2  C   UNL A   1      44.888  22.396  25.871  1.00  0.00     0.202 C 
BRANCH   2   3
ATOM      3  C   UNL A   1      43.961  21.284  25.387  1.00  0.00     0.261 C 
BRANCH   3   4
ATOM      4  O   UNL A   1      42.638  21.363  25.920  1.00  0.00    -0.463 OA
BRANCH   4   5
ATOM      5  C   UNL A   1      41.869  20.255  25.922  1.00  0.00     0.310 C 
ATOM      6  O   UNL A   1      42.154  19.205  25.354  1.00  0.00    -0.252 OA
BRANCH   5   7
ATOM      7  C   UNL A   1      40.627  20.413  26.775  1.00  0.00     0.158 C 
BRANCH   7   8
ATOM      8  C   UNL A   1      39.711  21.605  26.505  1.00  0.00    -0.033 A 
ATOM      9  C   UNL A   1      38.198  20.227  25.009  1.00  0.00     0.045 C 
ATOM     10  C   UNL A   1      38.532  21.516  25.721  1.00  0.00    -0.039 A 
ATOM     11  C   UNL A   1      37.664  22.639  25.633  1.00  0.00    -0.015 A 
ATOM     12  C   UNL A   1      40.017  22.830  27.127  1.00  0.00     0.004 A 
ATOM     13  C   UNL A   1      38.044  23.861  26.204  1.00  0.00     0.009 A 
ATOM     14  C   UNL A   1      39.220  23.957  26.939  1.00  0.00     0.001 A 
BRANCH  11  15
ATOM     15  C   UNL A   1      36.281  22.514  25.104  1.00  0.00    -0.011 A 
ATOM     16  C   UNL A   1      35.275  21.804  25.874  1.00  0.00     0.027 A 
ATOM     17  C   UNL A   1      35.929  23.060  23.927  1.00  0.00     0.080 A 
ATOM     18  C   UNL A   1      34.056  21.587  25.376  1.00  0.00     0.095 A 
ATOM     19  C   UNL A   1      34.563  22.839  23.362  1.00  0.00     0.255 A 
ATOM     20  N   UNL A   1      33.706  22.063  24.129  1.00  0.00    -0.258 N 
ATOM     21  O   UNL A   1      34.275  23.329  22.274  1.00  0.00    -0.269 OA
BRANCH  20  22
ATOM     22  C   UNL A   1      32.415  21.760  23.575  1.00  0.00     0.451 C 
ATOM     23  F   UNL A   1      32.518  21.071  22.412  1.00  0.00    -0.185 F 
ATOM     24  F   UNL A   1      31.663  21.029  24.432  1.00  0.00    -0.185 F 
ENDBRANCH  20  22
ENDBRANCH  11  15
ENDBRANCH   7   8
ENDBRANCH   5   7
ENDBRANCH   4   5
ENDBRANCH   3   4
ENDBRANCH   2   3
ENDBRANCH   1   2
BRANCH   1  25
ATOM     25  C   UNL A   1      44.528  24.776  26.328  1.00  0.00     0.202 C 
BRANCH  25  26
ATOM     26  C   UNL A   1      43.844  25.228  25.034  1.00  0.00     0.261 C 
BRANCH  26  27
ATOM     27  O   UNL A   1      42.510  25.696  25.247  1.00  0.00    -0.460 OA
BRANCH  27  28
ATOM     28  C   UNL A   1      42.315  27.045  25.253  1.00  0.00     0.338 C 
ATOM     29  O   UNL A   1      42.656  27.879  24.433  1.00  0.00    -0.246 OA
BRANCH  28  30
ATOM     30  C   UNL A   1      41.287  27.246  26.290  1.00  0.00     0.060 A 
ATOM     31  C   UNL A   1      40.818  28.533  26.544  1.00  0.00     0.016 A 
ATOM     32  C   UNL A   1      41.284  26.273  27.286  1.00  0.00     0.016 A 
ATOM     33  C   UNL A   1      40.680  28.930  27.867  1.00  0.00     0.010 A 
ATOM     34  C   UNL A   1      41.195  26.692  28.600  1.00  0.00     0.010 A 
ATOM     35  C   UNL A   1      41.112  28.061  28.871  1.00  0.00    -0.014 A 
BRANCH  35  36
ATOM     36  C   UNL A   1      41.753  28.578  30.095  1.00  0.00     0.031 A 
ATOM     37  C   UNL A   1      40.923  29.302  31.061  1.00  0.00     0.074 A 
ATOM     38  C   UNL A   1      43.054  28.351  30.403  1.00  0.00     0.049 A 
ATOM     39  N   UNL A   1      40.743  30.579  31.073  1.00  0.00    -0.248 NA
ATOM     40  C   UNL A   1      40.159  28.559  32.067  1.00  0.00     0.031 C 
ATOM     41  C   UNL A   1      43.786  28.875  31.552  1.00  0.00     0.029 A 
ATOM     42  N   UNL A   1      44.039  27.689  29.673  1.00  0.00    -0.354 N 
ATOM     43  C   UNL A   1      40.070  30.823  32.254  1.00  0.00     0.074 A 
ATOM     44  C   UNL A   1      39.516  29.551  32.682  1.00  0.00     0.031 C 
ATOM     45  C   UNL A   1      45.102  28.831  31.264  1.00  0.00     0.029 A 
ATOM     46  C   UNL A   1      45.263  28.309  29.912  1.00  0.00     0.049 A 
ATOM     47  H   UNL A   1      43.895  26.914  29.085  1.00  0.00     0.167 HD
ATOM     48  C   UNL A   1      40.432  31.827  33.105  1.00  0.00     0.037 A 
ATOM     49  C   UNL A   1      45.966  28.904  28.905  1.00  0.00     0.037 A 
ATOM     50  C   UNL A   1      41.822  32.213  32.863  1.00  0.00     0.049 A 
ATOM     51  C   UNL A   1      45.820  30.411  28.969  1.00  0.00     0.074 A 
ATOM     52  C   UNL A   1      42.981  31.865  33.539  1.00  0.00     0.029 A 
ATOM     53  N   UNL A   1      42.228  32.742  31.641  1.00  0.00    -0.354 N 
ATOM     54  N   UNL A   1      44.974  31.008  29.769  1.00  0.00    -0.248 NA
ATOM     55  C   UNL A   1      46.601  31.370  28.192  1.00  0.00     0.031 C 
ATOM     56  C   UNL A   1      44.087  32.141  32.697  1.00  0.00     0.029 A 
ATOM     57  C   UNL A   1      43.607  32.673  31.513  1.00  0.00     0.049 A 
ATOM     58  H   UNL A   1      41.620  33.113  30.962  1.00  0.00     0.167 HD
ATOM     59  C   UNL A   1      45.069  32.366  29.634  1.00  0.00     0.074 A 
ATOM     60  C   UNL A   1      46.115  32.543  28.641  1.00  0.00     0.031 C 
ATOM     61  C   UNL A   1      44.288  33.230  30.350  1.00  0.00     0.037 A 
BRANCH  48  62
ATOM     62  C   UNL A   1      39.670  32.059  34.398  1.00  0.00     0.058 A 
ATOM     63  C   UNL A   1      38.545  32.899  34.481  1.00  0.00     0.135 A 
ATOM     64  C   UNL A   1      40.016  31.401  35.604  1.00  0.00     0.135 A 
ATOM     65  F   UNL A   1      38.042  33.503  33.396  1.00  0.00    -0.206 F 
ATOM     66  C   UNL A   1      37.877  33.148  35.683  1.00  0.00     0.059 A 
ATOM     67  C   UNL A   1      39.391  31.665  36.826  1.00  0.00     0.059 A 
ATOM     68  F   UNL A   1      40.988  30.473  35.631  1.00  0.00    -0.206 F 
ATOM     69  C   UNL A   1      38.318  32.543  36.856  1.00  0.00     0.060 A 
BRANCH  69  70
ATOM     70  S   UNL A   1      37.456  32.898  38.399  1.00  0.00     0.124 S 
ATOM     71  O   UNL A   1      37.693  31.684  39.175  1.00  0.00    -0.237 OA
ATOM     72  O   UNL A   1      38.149  34.095  38.863  1.00  0.00    -0.237 OA
ATOM     73  O   UNL A   1      36.072  33.101  37.977  1.00  0.00    -0.744 OA
ENDBRANCH  69  70
ENDBRANCH  48  62
BRANCH  49  74
ATOM     74  C   UNL A   1      46.174  28.012  27.724  1.00  0.00     0.058 A 
ATOM     75  C   UNL A   1      45.522  28.414  26.541  1.00  0.00     0.135 A 
ATOM     76  C   UNL A   1      47.256  27.137  27.571  1.00  0.00     0.135 A 
ATOM     77  F   UNL A   1      44.420  29.174  26.620  1.00  0.00    -0.206 F 
ATOM     78  C   UNL A   1      46.044  28.156  25.278  1.00  0.00     0.059 A 
ATOM     79  C   UNL A   1      47.790  26.849  26.304  1.00  0.00     0.059 A 
ATOM     80  F   UNL A   1      47.888  26.652  28.648  1.00  0.00    -0.206 F 
ATOM     81  C   UNL A   1      47.216  27.421  25.168  1.00  0.00     0.060 A 
BRANCH  81  82
ATOM     82  S   UNL A   1      48.093  27.391  23.581  1.00  0.00     0.124 S 
ATOM     83  O   UNL A   1      49.351  28.043  23.919  1.00  0.00    -0.237 OA
ATOM     84  O   UNL A   1      48.179  25.964  23.282  1.00  0.00    -0.237 OA
ATOM     85  O   UNL A   1      47.194  28.148  22.717  1.00  0.00    -0.744 OA
ENDBRANCH  81  82
ENDBRANCH  49  74
BRANCH  61  86
ATOM     86  C   UNL A   1      44.175  34.712  30.103  1.00  0.00     0.058 A 
ATOM     87  C   UNL A   1      43.213  35.286  29.258  1.00  0.00     0.135 A 
ATOM     88  C   UNL A   1      44.958  35.626  30.852  1.00  0.00     0.135 A 
ATOM     89  F   UNL A   1      42.343  34.526  28.577  1.00  0.00    -0.206 F 
ATOM     90  C   UNL A   1      43.079  36.666  29.112  1.00  0.00     0.059 A 
ATOM     91  C   UNL A   1      44.799  37.005  30.769  1.00  0.00     0.059 A 
ATOM     92  F   UNL A   1      45.904  35.204  31.706  1.00  0.00    -0.206 F 
ATOM     93  C   UNL A   1      43.876  37.518  29.872  1.00  0.00     0.060 A 
BRANCH  93  94
ATOM     94  S   UNL A   1      43.676  39.300  29.714  1.00  0.00     0.124 S 
ATOM     95  O   UNL A   1      44.914  39.670  29.037  1.00  0.00    -0.237 OA
ATOM     96  O   UNL A   1      42.459  39.417  28.915  1.00  0.00    -0.237 OA
ATOM     97  O   UNL A   1      43.552  39.748  31.098  1.00  0.00    -0.744 OA
ENDBRANCH  93  94
ENDBRANCH  61  86
ENDBRANCH  35  36
ENDBRANCH  28  30
ENDBRANCH  27  28
ENDBRANCH  26  27
ENDBRANCH  25  26
ENDBRANCH   1  25
TORSDOF 20
ENDMDL
MODEL 3
REMARK VINA RESULT:     -11.2      1.927      2.833
REMARK SMILES Cc1c(CC(=O)OCCOCCOC(=O)c2ccc(-c3c4nc(c(-c5c(F)cc(S(=O)(=O)[O-])cc5F)c5ccc([nH]5)c(-c5c(F)cc(S(=O)(=O)[O-])cc5F)c5nc(c(-c6c(F)cc(S(=O)(=O)[O-])cc6F)c6ccc3[nH]6)C=C5)C=C4)cc2)cccc1-c1ccn(C(F)F)c(=O)c1
REMARK SMILES IDX 10 1 9 2 8 3 7 4 5 5 6 6 4 7 3 8 1 9 2 10 85 11 82 12 84 13
REMARK SMILES IDX 83 14 86 15 87 16 95 17 88 18 93 19 89 20 94 21 90 22 91 23
REMARK SMILES IDX 92 24 11 25 12 26 13 27 14 28 15 29 16 30 17 31 81 32 18 33
REMARK SMILES IDX 80 34 19 35 20 36 21 37 74 38 22 39 79 40 73 41 75 42 23 43
REMARK SMILES IDX 78 44 72 45 71 46 24 48 58 49 37 50 57 51 38 52 41 53 56 54
REMARK SMILES IDX 76 55 39 56 40 57 55 59 77 60 42 61 25 62 26 63 35 64 27 65
REMARK SMILES IDX 28 66 34 67 36 68 29 69 30 70 31 71 32 72 33 73 59 74 60 75
REMARK SMILES IDX 69 76 61 77 62 78 68 79 70 80 63 81 64 82 65 83 66 84 67 85
REMARK SMILES IDX 43 86 44 87 53 88 45 89 46 90 52 91 54 92 47 93 48 94 49 95
REMARK SMILES IDX 50 96 51 97
REMARK H PARENT 75 47 41 58
REMARK Flexibility Score: inf
ROOT
ATOM      1  O   UNL A   1      31.080  29.956  25.258  1.00  0.00    -0.374 OA
ENDROOT
BRANCH   1   2
ATOM      2  C   UNL A   1      31.614  28.980  24.369  1.00  0.00     0.202 C 
BRANCH   2   3
ATOM      3  C   UNL A   1      30.667  28.086  23.572  1.00  0.00     0.261 C 
BRANCH   3   4
ATOM      4  O   UNL A   1      30.298  26.885  24.249  1.00  0.00    -0.463 OA
BRANCH   4   5
ATOM      5  C   UNL A   1      30.975  25.751  23.980  1.00  0.00     0.310 C 
ATOM      6  O   UNL A   1      31.240  25.345  22.853  1.00  0.00    -0.252 OA
BRANCH   5   7
ATOM      7  C   UNL A   1      31.452  25.048  25.235  1.00  0.00     0.158 C 
BRANCH   7   8
ATOM      8  C   UNL A   1      32.321  23.801  25.080  1.00  0.00    -0.033 A 
ATOM      9  C   UNL A   1      34.453  25.175  25.045  1.00  0.00     0.045 C 
ATOM     10  C   UNL A   1      33.739  23.844  25.048  1.00  0.00    -0.039 A 
ATOM     11  C   UNL A   1      34.475  22.627  25.039  1.00  0.00    -0.015 A 
ATOM     12  C   UNL A   1      31.682  22.548  25.044  1.00  0.00     0.004 A 
ATOM     13  C   UNL A   1      33.800  21.404  24.926  1.00  0.00     0.009 A 
ATOM     14  C   UNL A   1      32.410  21.367  24.918  1.00  0.00     0.001 A 
BRANCH  11  15
ATOM     15  C   UNL A   1      35.933  22.597  25.324  1.00  0.00    -0.011 A 
ATOM     16  C   UNL A   1      36.704  21.403  25.022  1.00  0.00     0.027 A 
ATOM     17  C   UNL A   1      36.567  23.662  25.845  1.00  0.00     0.080 A 
ATOM     18  C   UNL A   1      37.990  21.312  25.365  1.00  0.00     0.095 A 
ATOM     19  C   UNL A   1      38.011  23.581  26.220  1.00  0.00     0.255 A 
ATOM     20  N   UNL A   1      38.634  22.364  25.982  1.00  0.00    -0.258 N 
ATOM     21  O   UNL A   1      38.561  24.560  26.716  1.00  0.00    -0.269 OA
BRANCH  20  22
ATOM     22  C   UNL A   1      39.999  22.226  26.411  1.00  0.00     0.451 C 
ATOM     23  F   UNL A   1      40.106  22.260  27.762  1.00  0.00    -0.185 F 
ATOM     24  F   UNL A   1      40.544  21.065  25.974  1.00  0.00    -0.185 F 
ENDBRANCH  20  22
ENDBRANCH  11  15
ENDBRANCH   7   8
ENDBRANCH   5   7
ENDBRANCH   4   5
ENDBRANCH   3   4
ENDBRANCH   2   3
ENDBRANCH   1   2
BRANCH   1  25
ATOM     25  C   UNL A   1      31.975  30.642  26.133  1.00  0.00     0.202 C 
BRANCH  25  26
ATOM     26  C   UNL A   1      32.867  29.806  27.057  1.00  0.00     0.261 C 
BRANCH  26  27
ATOM     27  O   UNL A   1      34.260  30.054  26.856  1.00  0.00    -0.460 OA
BRANCH  27  28
ATOM     28  C   UNL A   1      34.890  30.850  27.764  1.00  0.00     0.338 C 
ATOM     29  O   UNL A   1      34.672  32.014  28.055  1.00  0.00    -0.246 OA
BRANCH  28  30
ATOM     30  C   UNL A   1      35.666  29.902  28.584  1.00  0.00     0.060 A 
ATOM     31  C   UNL A   1      35.986  30.240  29.897  1.00  0.00     0.016 A 
ATOM     32  C   UNL A   1      36.478  29.044  27.847  1.00  0.00     0.016 A 
ATOM     33  C   UNL A   1      37.280  30.000  30.338  1.00  0.00     0.010 A 
ATOM     34  C   UNL A   1      37.778  28.856  28.275  1.00  0.00     0.010 A 
ATOM     35  C   UNL A   1      38.219  29.529  29.419  1.00  0.00    -0.014 A 
BRANCH  35  36
ATOM     36  C   UNL A   1      39.624  29.976  29.477  1.00  0.00     0.031 A 
ATOM     37  C   UNL A   1      40.631  29.198  28.749  1.00  0.00     0.074 A 
ATOM     38  C   UNL A   1      40.016  31.110  30.107  1.00  0.00     0.049 A 
ATOM     39  N   UNL A   1      41.318  28.226  29.246  1.00  0.00    -0.248 NA
ATOM     40  C   UNL A   1      40.862  29.455  27.326  1.00  0.00     0.031 C 
ATOM     41  C   UNL A   1      41.384  31.593  30.271  1.00  0.00     0.029 A 
ATOM     42  N   UNL A   1      39.266  32.020  30.850  1.00  0.00    -0.354 N 
ATOM     43  C   UNL A   1      42.260  27.937  28.280  1.00  0.00     0.074 A 
ATOM     44  C   UNL A   1      41.776  28.527  27.044  1.00  0.00     0.031 C 
ATOM     45  C   UNL A   1      41.404  32.445  31.314  1.00  0.00     0.029 A 
ATOM     46  C   UNL A   1      40.060  32.518  31.879  1.00  0.00     0.049 A 
ATOM     47  H   UNL A   1      38.331  32.270  30.676  1.00  0.00     0.167 HD
ATOM     48  C   UNL A   1      43.580  27.760  28.578  1.00  0.00     0.037 A 
ATOM     49  C   UNL A   1      39.733  32.317  33.189  1.00  0.00     0.037 A 
ATOM     50  C   UNL A   1      43.893  28.391  29.861  1.00  0.00     0.049 A 
ATOM     51  C   UNL A   1      40.598  31.229  33.795  1.00  0.00     0.074 A 
ATOM     52  C   UNL A   1      44.482  29.613  30.141  1.00  0.00     0.029 A 
ATOM     53  N   UNL A   1      43.294  27.968  31.044  1.00  0.00    -0.354 N 
ATOM     54  N   UNL A   1      41.396  30.478  33.081  1.00  0.00    -0.248 NA
ATOM     55  C   UNL A   1      40.675  30.905  35.217  1.00  0.00     0.031 C 
ATOM     56  C   UNL A   1      44.193  29.950  31.486  1.00  0.00     0.029 A 
ATOM     57  C   UNL A   1      43.441  28.926  32.036  1.00  0.00     0.049 A 
ATOM     58  H   UNL A   1      42.830  27.108  31.161  1.00  0.00     0.167 HD
ATOM     59  C   UNL A   1      42.068  29.599  33.887  1.00  0.00     0.074 A 
ATOM     60  C   UNL A   1      41.589  29.917  35.221  1.00  0.00     0.031 C 
ATOM     61  C   UNL A   1      42.963  28.691  33.393  1.00  0.00     0.037 A 
BRANCH  48  62
ATOM     62  C   UNL A   1      44.588  27.451  27.485  1.00  0.00     0.058 A 
ATOM     63  C   UNL A   1      44.911  26.140  27.094  1.00  0.00     0.135 A 
ATOM     64  C   UNL A   1      45.237  28.473  26.748  1.00  0.00     0.135 A 
ATOM     65  F   UNL A   1      44.296  25.078  27.632  1.00  0.00    -0.206 F 
ATOM     66  C   UNL A   1      45.875  25.859  26.122  1.00  0.00     0.059 A 
ATOM     67  C   UNL A   1      46.233  28.218  25.802  1.00  0.00     0.059 A 
ATOM     68  F   UNL A   1      44.919  29.765  26.932  1.00  0.00    -0.206 F 
ATOM     69  C   UNL A   1      46.547  26.903  25.494  1.00  0.00     0.060 A 
BRANCH  69  70
ATOM     70  S   UNL A   1      47.803  26.517  24.259  1.00  0.00     0.124 S 
ATOM     71  O   UNL A   1      49.043  26.781  24.984  1.00  0.00    -0.237 OA
ATOM     72  O   UNL A   1      47.521  25.114  23.972  1.00  0.00    -0.237 OA
ATOM     73  O   UNL A   1      47.511  27.449  23.173  1.00  0.00    -0.744 OA
ENDBRANCH  69  70
ENDBRANCH  48  62
BRANCH  49  74
ATOM     74  C   UNL A   1      38.331  32.717  33.514  1.00  0.00     0.058 A 
ATOM     75  C   UNL A   1      38.054  34.095  33.403  1.00  0.00     0.135 A 
ATOM     76  C   UNL A   1      37.228  31.856  33.467  1.00  0.00     0.135 A 
ATOM     77  F   UNL A   1      39.052  34.981  33.537  1.00  0.00    -0.206 F 
ATOM     78  C   UNL A   1      36.802  34.576  33.038  1.00  0.00     0.059 A 
ATOM     79  C   UNL A   1      35.951  32.322  33.116  1.00  0.00     0.059 A 
ATOM     80  F   UNL A   1      37.395  30.537  33.634  1.00  0.00    -0.206 F 
ATOM     81  C   UNL A   1      35.765  33.677  32.835  1.00  0.00     0.060 A 
BRANCH  81  82
ATOM     82  S   UNL A   1      34.251  34.246  32.015  1.00  0.00     0.124 S 
ATOM     83  O   UNL A   1      34.242  33.437  30.803  1.00  0.00    -0.237 OA
ATOM     84  O   UNL A   1      33.211  33.934  32.993  1.00  0.00    -0.237 OA
ATOM     85  O   UNL A   1      34.515  35.669  31.831  1.00  0.00    -0.744 OA
ENDBRANCH  81  82
ENDBRANCH  49  74
BRANCH  61  86
ATOM     86  C   UNL A   1      43.570  27.553  34.173  1.00  0.00     0.058 A 
ATOM     87  C   UNL A   1      44.930  27.486  34.513  1.00  0.00     0.135 A 
ATOM     88  C   UNL A   1      42.743  26.552  34.742  1.00  0.00     0.135 A 
ATOM     89  F   UNL A   1      45.792  28.434  34.122  1.00  0.00    -0.206 F 
ATOM     90  C   UNL A   1      45.448  26.463  35.306  1.00  0.00     0.059 A 
ATOM     91  C   UNL A   1      43.229  25.560  35.586  1.00  0.00     0.059 A 
ATOM     92  F   UNL A   1      41.423  26.514  34.505  1.00  0.00    -0.206 F 
ATOM     93  C   UNL A   1      44.591  25.504  35.839  1.00  0.00     0.060 A 
BRANCH  93  94
ATOM     94  S   UNL A   1      45.253  24.207  36.897  1.00  0.00     0.124 S 
ATOM     95  O   UNL A   1      46.678  24.517  36.874  1.00  0.00    -0.237 OA
ATOM     96  O   UNL A   1      44.574  24.450  38.166  1.00  0.00    -0.237 OA
ATOM     97  O   UNL A   1      44.860  22.980  36.210  1.00  0.00    -0.744 OA
ENDBRANCH  93  94
ENDBRANCH  61  86
ENDBRANCH  35  36
ENDBRANCH  28  30
ENDBRANCH  27  28
ENDBRANCH  26  27
ENDBRANCH  25  26
ENDBRANCH   1  25
TORSDOF 20
ENDMDL
