MODEL 1
REMARK VINA RESULT:     -10.2      0.000      0.000
REMARK SMILES O=CN[C@@H](CCS[C@@H]1CCO[C@]2(CCOC2)C1)C(=O)OCCOCCOC(=O)c1ccc(-c2c3nc(c(-c4c(F)cc(S(=O)(=O)[O-])cc4F)c4ccc([nH]4)c(-c4c(F)cc(S(=O)(=O)[O-])cc4F)c4nc(c(-c5c(F)cc(S(=O)(=O)[O-])cc5F)c5ccc2[nH]5)C=C4)C=C3)cc1
REMARK SMILES IDX 22 1 21 2 20 3 18 4 19 5 4 6 3 7 1 8 2 9 5 11 6 12 7 13 8 14
REMARK SMILES IDX 9 15 17 16 10 17 12 18 11 19 13 20 16 21 14 22 15 23 23 24
REMARK SMILES IDX 24 25 25 26 26 27 27 28 28 29 29 30 30 31 94 32 31 33 93 34
REMARK SMILES IDX 32 35 33 36 34 37 87 38 35 39 92 40 86 41 88 42 36 43 91 44
REMARK SMILES IDX 85 45 84 46 37 48 71 49 50 50 70 51 51 52 54 53 69 54 89 55
REMARK SMILES IDX 52 56 53 57 68 59 90 60 55 61 38 62 39 63 48 64 40 65 41 66
REMARK SMILES IDX 47 67 49 68 42 69 43 70 44 71 45 72 46 73 72 74 73 75 82 76
REMARK SMILES IDX 74 77 75 78 81 79 83 80 76 81 77 82 78 83 79 84 80 85 56 86
REMARK SMILES IDX 57 87 66 88 58 89 59 90 65 91 67 92 60 93 61 94 62 95 63 96
REMARK SMILES IDX 64 97
REMARK H PARENT 3 10 88 47 54 58
REMARK Flexibility Score: inf
ROOT
ATOM      1  C   UNL A   1      38.612  23.018  26.374  1.00  0.00     0.202 C 
ENDROOT
BRANCH   1   2
ATOM      2  C   UNL A   1      37.386  22.919  25.448  1.00  0.00     0.261 C 
BRANCH   2   3
ATOM      3  O   UNL A   1      36.363  22.024  25.939  1.00  0.00    -0.462 OA
BRANCH   3   4
ATOM      4  C   UNL A   1      36.051  20.927  25.213  1.00  0.00     0.328 C 
ATOM      5  O   UNL A   1      36.814  19.990  25.004  1.00  0.00    -0.250 OA
BRANCH   4   6
ATOM      6  C   UNL A   1      34.557  20.872  24.805  1.00  0.00     0.192 C 
BRANCH   6   7
ATOM      7  N   UNL A   1      33.766  19.924  25.583  1.00  0.00    -0.345 N 
ATOM      8  O   UNL A   1      32.307  18.216  25.770  1.00  0.00    -0.279 OA
ATOM      9  C   UNL A   1      33.050  18.888  25.069  1.00  0.00     0.337 C 
ATOM     10  H   UNL A   1      33.748  20.044  26.559  1.00  0.00     0.164 HD
ENDBRANCH   6   7
BRANCH   6  11
ATOM     11  C   UNL A   1      33.850  22.218  24.591  1.00  0.00     0.048 C 
BRANCH  11  12
ATOM     12  C   UNL A   1      34.117  23.007  23.308  1.00  0.00     0.072 C 
BRANCH  12  13
ATOM     13  S   UNL A   1      32.915  24.296  22.953  1.00  0.00    -0.158 SA
BRANCH  13  14
ATOM     14  C   UNL A   1      33.649  25.835  23.650  1.00  0.00     0.052 C 
ATOM     15  C   UNL A   1      34.125  25.841  25.097  1.00  0.00     0.043 C 
ATOM     16  C   UNL A   1      32.624  26.962  23.479  1.00  0.00     0.052 C 
ATOM     17  C   UNL A   1      32.960  25.735  26.055  1.00  0.00     0.162 C 
ATOM     18  C   UNL A   1      31.520  26.958  24.566  1.00  0.00     0.095 C 
ATOM     19  O   UNL A   1      32.076  26.831  25.877  1.00  0.00    -0.372 OA
ATOM     20  C   UNL A   1      30.356  25.995  24.299  1.00  0.00     0.066 C 
ATOM     21  C   UNL A   1      30.782  28.284  24.508  1.00  0.00     0.195 C 
ATOM     22  C   UNL A   1      29.268  26.839  23.651  1.00  0.00     0.163 C 
ATOM     23  O   UNL A   1      29.849  28.117  23.446  1.00  0.00    -0.378 OA
ENDBRANCH  13  14
ENDBRANCH  12  13
ENDBRANCH  11  12
ENDBRANCH   6  11
ENDBRANCH   4   6
ENDBRANCH   3   4
ENDBRANCH   2   3
ENDBRANCH   1   2
BRANCH   1  24
ATOM     24  O   UNL A   1      39.441  21.855  26.345  1.00  0.00    -0.374 OA
BRANCH  24  25
ATOM     25  C   UNL A   1      40.711  22.002  26.977  1.00  0.00     0.202 C 
BRANCH  25  26
ATOM     26  C   UNL A   1      41.734  22.767  26.139  1.00  0.00     0.261 C 
BRANCH  26  27
ATOM     27  O   UNL A   1      42.508  23.681  26.940  1.00  0.00    -0.460 OA
BRANCH  27  28
ATOM     28  C   UNL A   1      42.528  24.958  26.485  1.00  0.00     0.338 C 
ATOM     29  O   UNL A   1      42.809  25.324  25.353  1.00  0.00    -0.246 OA
BRANCH  28  30
ATOM     30  C   UNL A   1      42.089  25.901  27.537  1.00  0.00     0.060 A 
ATOM     31  C   UNL A   1      42.967  26.928  27.899  1.00  0.00     0.016 A 
ATOM     32  C   UNL A   1      40.870  25.762  28.205  1.00  0.00     0.016 A 
ATOM     33  C   UNL A   1      42.643  27.805  28.939  1.00  0.00     0.010 A 
ATOM     34  C   UNL A   1      40.540  26.661  29.231  1.00  0.00     0.010 A 
ATOM     35  C   UNL A   1      41.426  27.688  29.624  1.00  0.00    -0.014 A 
BRANCH  35  36
ATOM     36  C   UNL A   1      41.096  28.611  30.757  1.00  0.00     0.031 A 
ATOM     37  C   UNL A   1      41.742  28.403  32.101  1.00  0.00     0.074 A 
ATOM     38  C   UNL A   1      40.227  29.637  30.618  1.00  0.00     0.049 A 
ATOM     39  N   UNL A   1      41.660  29.152  33.172  1.00  0.00    -0.248 NA
ATOM     40  C   UNL A   1      42.613  27.228  32.259  1.00  0.00     0.031 C 
ATOM     41  C   UNL A   1      39.551  30.011  29.382  1.00  0.00     0.029 A 
ATOM     42  N   UNL A   1      39.722  30.533  31.537  1.00  0.00    -0.354 N 
ATOM     43  C   UNL A   1      42.522  28.580  34.097  1.00  0.00     0.074 A 
ATOM     44  C   UNL A   1      43.013  27.351  33.514  1.00  0.00     0.031 C 
ATOM     45  C   UNL A   1      38.632  30.958  29.635  1.00  0.00     0.029 A 
ATOM     46  C   UNL A   1      38.707  31.324  31.040  1.00  0.00     0.049 A 
ATOM     47  H   UNL A   1      40.055  30.601  32.460  1.00  0.00     0.167 HD
ATOM     48  C   UNL A   1      42.930  29.074  35.289  1.00  0.00     0.037 A 
ATOM     49  C   UNL A   1      37.935  32.259  31.629  1.00  0.00     0.037 A 
ATOM     50  C   UNL A   1      42.427  30.286  35.878  1.00  0.00     0.049 A 
ATOM     51  C   UNL A   1      38.307  32.724  33.009  1.00  0.00     0.074 A 
ATOM     52  C   UNL A   1      42.821  30.901  37.054  1.00  0.00     0.029 A 
ATOM     53  N   UNL A   1      41.400  31.058  35.351  1.00  0.00    -0.354 N 
ATOM     54  N   UNL A   1      39.235  32.260  33.809  1.00  0.00    -0.248 NA
ATOM     55  C   UNL A   1      37.598  33.903  33.525  1.00  0.00     0.031 C 
ATOM     56  C   UNL A   1      41.990  32.006  37.271  1.00  0.00     0.029 A 
ATOM     57  C   UNL A   1      41.119  32.118  36.198  1.00  0.00     0.049 A 
ATOM     58  H   UNL A   1      40.939  30.876  34.500  1.00  0.00     0.167 HD
ATOM     59  C   UNL A   1      39.280  33.137  34.886  1.00  0.00     0.074 A 
ATOM     60  C   UNL A   1      38.270  34.147  34.642  1.00  0.00     0.031 C 
ATOM     61  C   UNL A   1      40.110  33.122  35.959  1.00  0.00     0.037 A 
BRANCH  48  62
ATOM     62  C   UNL A   1      43.998  28.303  36.011  1.00  0.00     0.058 A 
ATOM     63  C   UNL A   1      45.362  28.590  35.818  1.00  0.00     0.135 A 
ATOM     64  C   UNL A   1      43.666  27.272  36.902  1.00  0.00     0.135 A 
ATOM     65  F   UNL A   1      45.737  29.556  34.964  1.00  0.00    -0.206 F 
ATOM     66  C   UNL A   1      46.357  27.854  36.450  1.00  0.00     0.059 A 
ATOM     67  C   UNL A   1      44.645  26.543  37.569  1.00  0.00     0.059 A 
ATOM     68  F   UNL A   1      42.380  26.957  37.121  1.00  0.00    -0.206 F 
ATOM     69  C   UNL A   1      45.988  26.830  37.323  1.00  0.00     0.060 A 
BRANCH  69  70
ATOM     70  S   UNL A   1      47.292  25.876  38.126  1.00  0.00     0.124 S 
ATOM     71  O   UNL A   1      46.618  25.426  39.340  1.00  0.00    -0.237 OA
ATOM     72  O   UNL A   1      47.575  24.841  37.138  1.00  0.00    -0.237 OA
ATOM     73  O   UNL A   1      48.356  26.855  38.326  1.00  0.00    -0.744 OA
ENDBRANCH  69  70
ENDBRANCH  48  62
BRANCH  49  74
ATOM     74  C   UNL A   1      36.817  32.900  30.881  1.00  0.00     0.058 A 
ATOM     75  C   UNL A   1      37.044  33.972  30.005  1.00  0.00     0.135 A 
ATOM     76  C   UNL A   1      35.493  32.460  31.039  1.00  0.00     0.135 A 
ATOM     77  F   UNL A   1      38.290  34.435  29.824  1.00  0.00    -0.206 F 
ATOM     78  C   UNL A   1      36.000  34.600  29.330  1.00  0.00     0.059 A 
ATOM     79  C   UNL A   1      34.432  33.062  30.361  1.00  0.00     0.059 A 
ATOM     80  F   UNL A   1      35.217  31.433  31.858  1.00  0.00    -0.206 F 
ATOM     81  C   UNL A   1      34.696  34.139  29.514  1.00  0.00     0.060 A 
BRANCH  81  82
ATOM     82  S   UNL A   1      33.358  34.946  28.606  1.00  0.00     0.124 S 
ATOM     83  O   UNL A   1      32.557  35.505  29.690  1.00  0.00    -0.237 OA
ATOM     84  O   UNL A   1      34.085  35.911  27.787  1.00  0.00    -0.237 OA
ATOM     85  O   UNL A   1      32.740  33.848  27.868  1.00  0.00    -0.744 OA
ENDBRANCH  81  82
ENDBRANCH  49  74
BRANCH  61  86
ATOM     86  C   UNL A   1      39.998  34.262  36.933  1.00  0.00     0.058 A 
ATOM     87  C   UNL A   1      40.704  35.463  36.763  1.00  0.00     0.135 A 
ATOM     88  C   UNL A   1      39.158  34.152  38.055  1.00  0.00     0.135 A 
ATOM     89  F   UNL A   1      41.524  35.621  35.711  1.00  0.00    -0.206 F 
ATOM     90  C   UNL A   1      40.620  36.495  37.692  1.00  0.00     0.059 A 
ATOM     91  C   UNL A   1      39.030  35.185  38.977  1.00  0.00     0.059 A 
ATOM     92  F   UNL A   1      38.447  33.032  38.263  1.00  0.00    -0.206 F 
ATOM     93  C   UNL A   1      39.783  36.345  38.799  1.00  0.00     0.060 A 
BRANCH  93  94
ATOM     94  S   UNL A   1      39.684  37.689  39.997  1.00  0.00     0.124 S 
ATOM     95  O   UNL A   1      39.583  36.955  41.254  1.00  0.00    -0.237 OA
ATOM     96  O   UNL A   1      40.939  38.400  39.776  1.00  0.00    -0.237 OA
ATOM     97  O   UNL A   1      38.481  38.414  39.597  1.00  0.00    -0.744 OA
ENDBRANCH  93  94
ENDBRANCH  61  86
ENDBRANCH  35  36
ENDBRANCH  28  30
ENDBRANCH  27  28
ENDBRANCH  26  27
ENDBRANCH  25  26
ENDBRANCH  24  25
ENDBRANCH   1  24
TORSDOF 22
ENDMDL
MODEL 2
REMARK VINA RESULT:     -10.0      6.187     10.625
REMARK SMILES O=CN[C@@H](CCS[C@@H]1CCO[C@]2(CCOC2)C1)C(=O)OCCOCCOC(=O)c1ccc(-c2c3nc(c(-c4c(F)cc(S(=O)(=O)[O-])cc4F)c4ccc([nH]4)c(-c4c(F)cc(S(=O)(=O)[O-])cc4F)c4nc(c(-c5c(F)cc(S(=O)(=O)[O-])cc5F)c5ccc2[nH]5)C=C4)C=C3)cc1
REMARK SMILES IDX 22 1 21 2 20 3 18 4 19 5 4 6 3 7 1 8 2 9 5 11 6 12 7 13 8 14
REMARK SMILES IDX 9 15 17 16 10 17 12 18 11 19 13 20 16 21 14 22 15 23 23 24
REMARK SMILES IDX 24 25 25 26 26 27 27 28 28 29 29 30 30 31 94 32 31 33 93 34
REMARK SMILES IDX 32 35 33 36 34 37 87 38 35 39 92 40 86 41 88 42 36 43 91 44
REMARK SMILES IDX 85 45 84 46 37 48 71 49 50 50 70 51 51 52 54 53 69 54 89 55
REMARK SMILES IDX 52 56 53 57 68 59 90 60 55 61 38 62 39 63 48 64 40 65 41 66
REMARK SMILES IDX 47 67 49 68 42 69 43 70 44 71 45 72 46 73 72 74 73 75 82 76
REMARK SMILES IDX 74 77 75 78 81 79 83 80 76 81 77 82 78 83 79 84 80 85 56 86
REMARK SMILES IDX 57 87 66 88 58 89 59 90 65 91 67 92 60 93 61 94 62 95 63 96
REMARK SMILES IDX 64 97
REMARK H PARENT 3 10 88 47 54 58
REMARK Flexibility Score: inf
ROOT
ATOM      1  C   UNL A   1      37.296  20.977  25.124  1.00  0.00     0.202 C 
ENDROOT
BRANCH   1   2
ATOM      2  C   UNL A   1      35.837  21.443  24.972  1.00  0.00     0.261 C 
BRANCH   2   3
ATOM      3  O   UNL A   1      35.250  21.914  26.207  1.00  0.00    -0.462 OA
BRANCH   3   4
ATOM      4  C   UNL A   1      34.039  21.441  26.576  1.00  0.00     0.328 C 
ATOM      5  O   UNL A   1      33.422  21.807  27.572  1.00  0.00    -0.250 OA
BRANCH   4   6
ATOM      6  C   UNL A   1      33.403  20.503  25.520  1.00  0.00     0.192 C 
BRANCH   6   7
ATOM      7  N   UNL A   1      33.276  19.117  25.960  1.00  0.00    -0.345 N 
ATOM      8  O   UNL A   1      32.470  17.021  25.761  1.00  0.00    -0.279 OA
ATOM      9  C   UNL A   1      32.649  18.127  25.269  1.00  0.00     0.337 C 
ATOM     10  H   UNL A   1      33.677  18.879  26.826  1.00  0.00     0.164 HD
ENDBRANCH   6   7
BRANCH   6  11
ATOM     11  C   UNL A   1      32.153  21.024  24.797  1.00  0.00     0.048 C 
BRANCH  11  12
ATOM     12  C   UNL A   1      32.157  22.443  24.225  1.00  0.00     0.072 C 
BRANCH  12  13
ATOM     13  S   UNL A   1      31.147  23.623  25.131  1.00  0.00    -0.158 SA
BRANCH  13  14
ATOM     14  C   UNL A   1      32.326  24.918  25.701  1.00  0.00     0.052 C 
ATOM     15  C   UNL A   1      31.781  26.182  26.354  1.00  0.00     0.043 C 
ATOM     16  C   UNL A   1      33.182  25.333  24.499  1.00  0.00     0.052 C 
ATOM     17  C   UNL A   1      31.031  27.033  25.356  1.00  0.00     0.162 C 
ATOM     18  C   UNL A   1      32.475  26.343  23.561  1.00  0.00     0.095 C 
ATOM     19  O   UNL A   1      31.891  27.421  24.296  1.00  0.00    -0.372 OA
ATOM     20  C   UNL A   1      31.522  25.714  22.536  1.00  0.00     0.066 C 
ATOM     21  C   UNL A   1      33.512  26.937  22.623  1.00  0.00     0.195 C 
ATOM     22  C   UNL A   1      32.331  25.579  21.255  1.00  0.00     0.163 C 
ATOM     23  O   UNL A   1      33.653  25.961  21.597  1.00  0.00    -0.378 OA
ENDBRANCH  13  14
ENDBRANCH  12  13
ENDBRANCH  11  12
ENDBRANCH   6  11
ENDBRANCH   4   6
ENDBRANCH   3   4
ENDBRANCH   2   3
ENDBRANCH   1   2
BRANCH   1  24
ATOM     24  O   UNL A   1      38.136  21.938  25.765  1.00  0.00    -0.374 OA
BRANCH  24  25
ATOM     25  C   UNL A   1      39.432  21.464  26.125  1.00  0.00     0.202 C 
BRANCH  25  26
ATOM     26  C   UNL A   1      39.682  20.004  25.751  1.00  0.00     0.261 C 
BRANCH  26  27
ATOM     27  O   UNL A   1      40.605  19.369  26.656  1.00  0.00    -0.460 OA
BRANCH  27  28
ATOM     28  C   UNL A   1      41.893  19.349  26.234  1.00  0.00     0.338 C 
ATOM     29  O   UNL A   1      42.487  18.396  25.751  1.00  0.00    -0.246 OA
BRANCH  28  30
ATOM     30  C   UNL A   1      42.513  20.686  26.366  1.00  0.00     0.060 A 
ATOM     31  C   UNL A   1      42.514  21.281  27.632  1.00  0.00     0.016 A 
ATOM     32  C   UNL A   1      43.036  21.380  25.272  1.00  0.00     0.016 A 
ATOM     33  C   UNL A   1      43.017  22.574  27.807  1.00  0.00     0.010 A 
ATOM     34  C   UNL A   1      43.561  22.668  25.459  1.00  0.00     0.010 A 
ATOM     35  C   UNL A   1      43.548  23.292  26.727  1.00  0.00    -0.014 A 
BRANCH  35  36
ATOM     36  C   UNL A   1      44.057  24.688  26.913  1.00  0.00     0.031 A 
ATOM     37  C   UNL A   1      43.088  25.805  27.195  1.00  0.00     0.074 A 
ATOM     38  C   UNL A   1      45.373  24.989  26.836  1.00  0.00     0.049 A 
ATOM     39  N   UNL A   1      43.343  27.057  27.482  1.00  0.00    -0.248 NA
ATOM     40  C   UNL A   1      41.653  25.475  27.184  1.00  0.00     0.031 C 
ATOM     41  C   UNL A   1      46.448  24.030  26.619  1.00  0.00     0.029 A 
ATOM     42  N   UNL A   1      46.034  26.198  26.884  1.00  0.00    -0.354 N 
ATOM     43  C   UNL A   1      42.113  27.637  27.757  1.00  0.00     0.074 A 
ATOM     44  C   UNL A   1      41.103  26.643  27.472  1.00  0.00     0.031 C 
ATOM     45  C   UNL A   1      47.606  24.682  26.422  1.00  0.00     0.029 A 
ATOM     46  C   UNL A   1      47.376  26.109  26.580  1.00  0.00     0.049 A 
ATOM     47  H   UNL A   1      45.590  27.045  27.113  1.00  0.00     0.167 HD
ATOM     48  C   UNL A   1      41.853  28.860  28.276  1.00  0.00     0.037 A 
ATOM     49  C   UNL A   1      48.330  27.054  26.465  1.00  0.00     0.037 A 
ATOM     50  C   UNL A   1      42.857  29.856  28.541  1.00  0.00     0.049 A 
ATOM     51  C   UNL A   1      48.009  28.449  26.923  1.00  0.00     0.074 A 
ATOM     52  C   UNL A   1      42.700  31.103  29.122  1.00  0.00     0.029 A 
ATOM     53  N   UNL A   1      44.201  29.734  28.219  1.00  0.00    -0.354 N 
ATOM     54  N   UNL A   1      46.861  28.938  27.324  1.00  0.00    -0.248 NA
ATOM     55  C   UNL A   1      49.131  29.394  27.009  1.00  0.00     0.031 C 
ATOM     56  C   UNL A   1      43.936  31.758  29.092  1.00  0.00     0.029 A 
ATOM     57  C   UNL A   1      44.878  30.897  28.550  1.00  0.00     0.049 A 
ATOM     58  H   UNL A   1      44.613  28.937  27.813  1.00  0.00     0.167 HD
ATOM     59  C   UNL A   1      47.136  30.218  27.789  1.00  0.00     0.074 A 
ATOM     60  C   UNL A   1      48.556  30.433  27.598  1.00  0.00     0.031 C 
ATOM     61  C   UNL A   1      46.291  31.115  28.356  1.00  0.00     0.037 A 
BRANCH  48  62
ATOM     62  C   UNL A   1      40.422  29.161  28.616  1.00  0.00     0.058 A 
ATOM     63  C   UNL A   1      39.467  29.401  27.609  1.00  0.00     0.135 A 
ATOM     64  C   UNL A   1      39.993  29.213  29.950  1.00  0.00     0.135 A 
ATOM     65  F   UNL A   1      39.827  29.381  26.316  1.00  0.00    -0.206 F 
ATOM     66  C   UNL A   1      38.151  29.722  27.916  1.00  0.00     0.059 A 
ATOM     67  C   UNL A   1      38.672  29.502  30.279  1.00  0.00     0.059 A 
ATOM     68  F   UNL A   1      40.862  28.994  30.948  1.00  0.00    -0.206 F 
ATOM     69  C   UNL A   1      37.762  29.772  29.256  1.00  0.00     0.060 A 
BRANCH  69  70
ATOM     70  S   UNL A   1      36.053  30.202  29.639  1.00  0.00     0.124 S 
ATOM     71  O   UNL A   1      35.330  29.463  28.609  1.00  0.00    -0.237 OA
ATOM     72  O   UNL A   1      35.903  29.702  31.001  1.00  0.00    -0.237 OA
ATOM     73  O   UNL A   1      36.029  31.655  29.501  1.00  0.00    -0.744 OA
ENDBRANCH  69  70
ENDBRANCH  48  62
BRANCH  49  74
ATOM     74  C   UNL A   1      49.704  26.695  26.011  1.00  0.00     0.058 A 
ATOM     75  C   UNL A   1      50.640  26.132  26.891  1.00  0.00     0.135 A 
ATOM     76  C   UNL A   1      50.112  26.920  24.687  1.00  0.00     0.135 A 
ATOM     77  F   UNL A   1      50.303  25.903  28.169  1.00  0.00    -0.206 F 
ATOM     78  C   UNL A   1      51.937  25.827  26.485  1.00  0.00     0.059 A 
ATOM     79  C   UNL A   1      51.399  26.607  24.251  1.00  0.00     0.059 A 
ATOM     80  F   UNL A   1      49.255  27.449  23.798  1.00  0.00    -0.206 F 
ATOM     81  C   UNL A   1      52.308  26.069  25.161  1.00  0.00     0.060 A 
BRANCH  81  82
ATOM     82  S   UNL A   1      53.986  25.638  24.643  1.00  0.00     0.124 S 
ATOM     83  O   UNL A   1      54.788  26.236  25.704  1.00  0.00    -0.237 OA
ATOM     84  O   UNL A   1      53.934  24.180  24.626  1.00  0.00    -0.237 OA
ATOM     85  O   UNL A   1      54.106  26.268  23.331  1.00  0.00    -0.744 OA
ENDBRANCH  81  82
ENDBRANCH  49  74
BRANCH  61  86
ATOM     86  C   UNL A   1      46.887  32.401  28.858  1.00  0.00     0.058 A 
ATOM     87  C   UNL A   1      46.977  33.547  28.053  1.00  0.00     0.135 A 
ATOM     88  C   UNL A   1      47.369  32.489  30.176  1.00  0.00     0.135 A 
ATOM     89  F   UNL A   1      46.536  33.519  26.785  1.00  0.00    -0.206 F 
ATOM     90  C   UNL A   1      47.566  34.719  28.519  1.00  0.00     0.059 A 
ATOM     91  C   UNL A   1      47.928  33.661  30.674  1.00  0.00     0.059 A 
ATOM     92  F   UNL A   1      47.297  31.429  30.996  1.00  0.00    -0.206 F 
ATOM     93  C   UNL A   1      48.043  34.765  29.830  1.00  0.00     0.060 A 
BRANCH  93  94
ATOM     94  S   UNL A   1      48.805  36.289  30.421  1.00  0.00     0.124 S 
ATOM     95  O   UNL A   1      49.124  36.962  29.166  1.00  0.00    -0.237 OA
ATOM     96  O   UNL A   1      47.733  36.890  31.209  1.00  0.00    -0.237 OA
ATOM     97  O   UNL A   1      49.953  35.819  31.191  1.00  0.00    -0.744 OA
ENDBRANCH  93  94
ENDBRANCH  61  86
ENDBRANCH  35  36
ENDBRANCH  28  30
ENDBRANCH  27  28
ENDBRANCH  26  27
ENDBRANCH  25  26
ENDBRANCH  24  25
ENDBRANCH   1  24
TORSDOF 22
ENDMDL
MODEL 3
REMARK VINA RESULT:      -9.8      1.024      2.012
REMARK SMILES O=CN[C@@H](CCS[C@@H]1CCO[C@]2(CCOC2)C1)C(=O)OCCOCCOC(=O)c1ccc(-c2c3nc(c(-c4c(F)cc(S(=O)(=O)[O-])cc4F)c4ccc([nH]4)c(-c4c(F)cc(S(=O)(=O)[O-])cc4F)c4nc(c(-c5c(F)cc(S(=O)(=O)[O-])cc5F)c5ccc2[nH]5)C=C4)C=C3)cc1
REMARK SMILES IDX 22 1 21 2 20 3 18 4 19 5 4 6 3 7 1 8 2 9 5 11 6 12 7 13 8 14
REMARK SMILES IDX 9 15 17 16 10 17 12 18 11 19 13 20 16 21 14 22 15 23 23 24
REMARK SMILES IDX 24 25 25 26 26 27 27 28 28 29 29 30 30 31 94 32 31 33 93 34
REMARK SMILES IDX 32 35 33 36 34 37 87 38 35 39 92 40 86 41 88 42 36 43 91 44
REMARK SMILES IDX 85 45 84 46 37 48 71 49 50 50 70 51 51 52 54 53 69 54 89 55
REMARK SMILES IDX 52 56 53 57 68 59 90 60 55 61 38 62 39 63 48 64 40 65 41 66
REMARK SMILES IDX 47 67 49 68 42 69 43 70 44 71 45 72 46 73 72 74 73 75 82 76
REMARK SMILES IDX 74 77 75 78 81 79 83 80 76 81 77 82 78 83 79 84 80 85 56 86
REMARK SMILES IDX 57 87 66 88 58 89 59 90 65 91 67 92 60 93 61 94 62 95 63 96
REMARK SMILES IDX 64 97
REMARK H PARENT 3 10 88 47 54 58
REMARK Flexibility Score: inf
ROOT
ATOM      1  C   UNL A   1      38.161  22.276  25.729  1.00  0.00     0.202 C 
ENDROOT
BRANCH   1   2
ATOM      2  C   UNL A   1      37.112  21.244  25.278  1.00  0.00     0.261 C 
BRANCH   2   3
ATOM      3  O   UNL A   1      35.974  21.833  24.608  1.00  0.00    -0.462 OA
BRANCH   3   4
ATOM      4  C   UNL A   1      34.780  21.201  24.671  1.00  0.00     0.328 C 
ATOM      5  O   UNL A   1      34.638  19.998  24.862  1.00  0.00    -0.250 OA
BRANCH   4   6
ATOM      6  C   UNL A   1      33.575  22.174  24.653  1.00  0.00     0.192 C 
BRANCH   6   7
ATOM      7  N   UNL A   1      33.304  22.804  25.942  1.00  0.00    -0.345 N 
ATOM      8  O   UNL A   1      32.392  22.827  28.003  1.00  0.00    -0.279 OA
ATOM      9  C   UNL A   1      32.704  22.198  27.001  1.00  0.00     0.337 C 
ATOM     10  H   UNL A   1      33.577  23.742  26.053  1.00  0.00     0.164 HD
ENDBRANCH   6   7
BRANCH   6  11
ATOM     11  C   UNL A   1      33.497  23.155  23.473  1.00  0.00     0.048 C 
BRANCH  11  12
ATOM     12  C   UNL A   1      34.311  24.449  23.521  1.00  0.00     0.072 C 
BRANCH  12  13
ATOM     13  S   UNL A   1      33.438  25.910  22.944  1.00  0.00    -0.158 SA
BRANCH  13  14
ATOM     14  C   UNL A   1      31.817  25.870  23.817  1.00  0.00     0.052 C 
ATOM     15  C   UNL A   1      30.632  26.619  23.219  1.00  0.00     0.043 C 
ATOM     16  C   UNL A   1      32.040  26.390  25.242  1.00  0.00     0.052 C 
ATOM     17  C   UNL A   1      30.845  28.114  23.280  1.00  0.00     0.162 C 
ATOM     18  C   UNL A   1      32.087  27.935  25.332  1.00  0.00     0.095 C 
ATOM     19  O   UNL A   1      30.997  28.534  24.627  1.00  0.00    -0.372 OA
ATOM     20  C   UNL A   1      33.449  28.560  25.000  1.00  0.00     0.066 C 
ATOM     21  C   UNL A   1      31.965  28.337  26.792  1.00  0.00     0.195 C 
ATOM     22  C   UNL A   1      34.135  28.780  26.339  1.00  0.00     0.163 C 
ATOM     23  O   UNL A   1      33.283  28.187  27.306  1.00  0.00    -0.378 OA
ENDBRANCH  13  14
ENDBRANCH  12  13
ENDBRANCH  11  12
ENDBRANCH   6  11
ENDBRANCH   4   6
ENDBRANCH   3   4
ENDBRANCH   2   3
ENDBRANCH   1   2
BRANCH   1  24
ATOM     24  O   UNL A   1      39.445  21.707  25.983  1.00  0.00    -0.374 OA
BRANCH  24  25
ATOM     25  C   UNL A   1      40.226  22.387  26.964  1.00  0.00     0.202 C 
BRANCH  25  26
ATOM     26  C   UNL A   1      41.558  22.917  26.437  1.00  0.00     0.261 C 
BRANCH  26  27
ATOM     27  O   UNL A   1      41.494  24.323  26.132  1.00  0.00    -0.460 OA
BRANCH  27  28
ATOM     28  C   UNL A   1      42.538  25.053  26.598  1.00  0.00     0.338 C 
ATOM     29  O   UNL A   1      43.691  25.015  26.195  1.00  0.00    -0.246 OA
BRANCH  28  30
ATOM     30  C   UNL A   1      42.096  25.991  27.654  1.00  0.00     0.060 A 
ATOM     31  C   UNL A   1      43.009  26.958  28.088  1.00  0.00     0.016 A 
ATOM     32  C   UNL A   1      40.839  25.904  28.255  1.00  0.00     0.016 A 
ATOM     33  C   UNL A   1      42.679  27.825  29.135  1.00  0.00     0.010 A 
ATOM     34  C   UNL A   1      40.505  26.793  29.289  1.00  0.00     0.010 A 
ATOM     35  C   UNL A   1      41.424  27.759  29.755  1.00  0.00    -0.014 A 
BRANCH  35  36
ATOM     36  C   UNL A   1      41.086  28.669  30.896  1.00  0.00     0.031 A 
ATOM     37  C   UNL A   1      41.730  28.454  32.239  1.00  0.00     0.074 A 
ATOM     38  C   UNL A   1      40.211  29.691  30.764  1.00  0.00     0.049 A 
ATOM     39  N   UNL A   1      41.642  29.191  33.316  1.00  0.00    -0.248 NA
ATOM     40  C   UNL A   1      42.609  27.282  32.388  1.00  0.00     0.031 C 
ATOM     41  C   UNL A   1      39.535  30.072  29.530  1.00  0.00     0.029 A 
ATOM     42  N   UNL A   1      39.699  30.575  31.690  1.00  0.00    -0.354 N 
ATOM     43  C   UNL A   1      42.506  28.618  34.238  1.00  0.00     0.074 A 
ATOM     44  C   UNL A   1      43.006  27.397  33.644  1.00  0.00     0.031 C 
ATOM     45  C   UNL A   1      38.609  31.011  29.790  1.00  0.00     0.029 A 
ATOM     46  C   UNL A   1      38.679  31.364  31.199  1.00  0.00     0.049 A 
ATOM     47  H   UNL A   1      40.029  30.637  32.614  1.00  0.00     0.167 HD
ATOM     48  C   UNL A   1      42.909  29.103  35.435  1.00  0.00     0.037 A 
ATOM     49  C   UNL A   1      37.900  32.289  31.795  1.00  0.00     0.037 A 
ATOM     50  C   UNL A   1      42.397  30.307  36.033  1.00  0.00     0.049 A 
ATOM     51  C   UNL A   1      38.267  32.744  33.179  1.00  0.00     0.074 A 
ATOM     52  C   UNL A   1      42.785  30.913  37.216  1.00  0.00     0.029 A 
ATOM     53  N   UNL A   1      41.366  31.076  35.512  1.00  0.00    -0.354 N 
ATOM     54  N   UNL A   1      39.196  32.278  33.977  1.00  0.00    -0.248 NA
ATOM     55  C   UNL A   1      37.549  33.913  33.705  1.00  0.00     0.031 C 
ATOM     56  C   UNL A   1      41.946  32.011  37.441  1.00  0.00     0.029 A 
ATOM     57  C   UNL A   1      41.077  32.127  36.368  1.00  0.00     0.049 A 
ATOM     58  H   UNL A   1      40.908  30.900  34.659  1.00  0.00     0.167 HD
ATOM     59  C   UNL A   1      39.233  33.146  35.062  1.00  0.00     0.074 A 
ATOM     60  C   UNL A   1      38.218  34.152  34.825  1.00  0.00     0.031 C 
ATOM     61  C   UNL A   1      40.062  33.126  36.136  1.00  0.00     0.037 A 
BRANCH  48  62
ATOM     62  C   UNL A   1      43.981  28.333  36.152  1.00  0.00     0.058 A 
ATOM     63  C   UNL A   1      43.666  27.227  36.965  1.00  0.00     0.135 A 
ATOM     64  C   UNL A   1      45.330  28.694  36.032  1.00  0.00     0.135 A 
ATOM     65  F   UNL A   1      42.388  26.848  37.128  1.00  0.00    -0.206 F 
ATOM     66  C   UNL A   1      44.647  26.536  37.664  1.00  0.00     0.059 A 
ATOM     67  C   UNL A   1      46.333  27.996  36.700  1.00  0.00     0.059 A 
ATOM     68  F   UNL A   1      45.684  29.741  35.272  1.00  0.00    -0.206 F 
ATOM     69  C   UNL A   1      45.980  26.930  37.527  1.00  0.00     0.060 A 
BRANCH  69  70
ATOM     70  S   UNL A   1      47.240  26.030  38.452  1.00  0.00     0.124 S 
ATOM     71  O   UNL A   1      47.312  24.779  37.704  1.00  0.00    -0.237 OA
ATOM     72  O   UNL A   1      48.400  26.907  38.333  1.00  0.00    -0.237 OA
ATOM     73  O   UNL A   1      46.670  25.928  39.792  1.00  0.00    -0.744 OA
ENDBRANCH  69  70
ENDBRANCH  48  62
BRANCH  49  74
ATOM     74  C   UNL A   1      36.779  32.929  31.050  1.00  0.00     0.058 A 
ATOM     75  C   UNL A   1      37.019  33.823  29.996  1.00  0.00     0.135 A 
ATOM     76  C   UNL A   1      35.441  32.669  31.389  1.00  0.00     0.135 A 
ATOM     77  F   UNL A   1      38.279  34.111  29.637  1.00  0.00    -0.206 F 
ATOM     78  C   UNL A   1      35.978  34.454  29.319  1.00  0.00     0.059 A 
ATOM     79  C   UNL A   1      34.381  33.276  30.715  1.00  0.00     0.059 A 
ATOM     80  F   UNL A   1      35.152  31.816  32.384  1.00  0.00    -0.206 F 
ATOM     81  C   UNL A   1      34.661  34.175  29.686  1.00  0.00     0.060 A 
BRANCH  81  82
ATOM     82  S   UNL A   1      33.321  34.979  28.776  1.00  0.00     0.124 S 
ATOM     83  O   UNL A   1      33.956  36.221  28.349  1.00  0.00    -0.237 OA
ATOM     84  O   UNL A   1      33.045  34.008  27.722  1.00  0.00    -0.237 OA
ATOM     85  O   UNL A   1      32.270  35.121  29.779  1.00  0.00    -0.744 OA
ENDBRANCH  81  82
ENDBRANCH  49  74
BRANCH  61  86
ATOM     86  C   UNL A   1      39.940  34.257  37.120  1.00  0.00     0.058 A 
ATOM     87  C   UNL A   1      39.119  34.173  38.256  1.00  0.00     0.135 A 
ATOM     88  C   UNL A   1      40.668  35.444  36.926  1.00  0.00     0.135 A 
ATOM     89  F   UNL A   1      38.400  33.064  38.489  1.00  0.00    -0.206 F 
ATOM     90  C   UNL A   1      38.987  35.241  39.138  1.00  0.00     0.059 A 
ATOM     91  C   UNL A   1      40.578  36.510  37.814  1.00  0.00     0.059 A 
ATOM     92  F   UNL A   1      41.479  35.576  35.864  1.00  0.00    -0.206 F 
ATOM     93  C   UNL A   1      39.718  36.408  38.906  1.00  0.00     0.060 A 
BRANCH  93  94
ATOM     94  S   UNL A   1      39.536  37.786  40.056  1.00  0.00     0.124 S 
ATOM     95  O   UNL A   1      39.381  37.087  41.328  1.00  0.00    -0.237 OA
ATOM     96  O   UNL A   1      40.790  38.510  39.879  1.00  0.00    -0.237 OA
ATOM     97  O   UNL A   1      38.345  38.478  39.572  1.00  0.00    -0.744 OA
ENDBRANCH  93  94
ENDBRANCH  61  86
ENDBRANCH  35  36
ENDBRANCH  28  30
ENDBRANCH  27  28
ENDBRANCH  26  27
ENDBRANCH  25  26
ENDBRANCH  24  25
ENDBRANCH   1  24
TORSDOF 22
ENDMDL
