MODEL 1
REMARK VINA RESULT:      -9.8      0.000      0.000
REMARK SMILES C[C@@H](CC(=O)OCCOCCOC(=O)c1ccc(-c2c3nc(c(-c4c(F)cc(S(=O)(=O)[O-])cc4F)c4ccc([nH]4)c(-c4c(F)cc(S(=O)(=O)[O-])cc4F)c4nc(c(-c5c(F)cc(S(=O)(=O)[O-])cc5F)c5ccc2[nH]5)C=C4)C=C3)cc1)NC(=O)c1ccc2c(c1)NC(=O)CO2
REMARK SMILES IDX 9 1 8 2 7 3 6 4 4 5 5 6 3 7 2 8 1 9 81 10 82 11 83 13 84 14
REMARK SMILES IDX 85 15 89 16 86 17 88 18 87 19 90 20 94 21 91 22 93 24 92 25
REMARK SMILES IDX 10 26 11 27 12 28 13 29 14 30 15 31 16 32 80 33 17 34 79 35
REMARK SMILES IDX 18 36 19 37 20 38 73 39 21 40 78 41 72 42 74 43 22 44 77 45
REMARK SMILES IDX 71 46 70 47 23 49 57 50 36 51 56 52 37 53 40 54 55 55 75 56
REMARK SMILES IDX 38 57 39 58 54 60 76 61 41 62 24 63 25 64 34 65 26 66 27 67
REMARK SMILES IDX 33 68 35 69 28 70 29 71 30 72 31 73 32 74 58 75 59 76 68 77
REMARK SMILES IDX 60 78 61 79 67 80 69 81 62 82 63 83 64 84 65 85 66 86 42 87
REMARK SMILES IDX 43 88 52 89 44 90 45 91 51 92 53 93 46 94 47 95 48 96 49 97
REMARK SMILES IDX 50 98
REMARK H PARENT 81 12 90 23 74 48 40 59
REMARK Flexibility Score: inf
ROOT
ATOM      1  O   UNL A   1      42.454  19.492  26.680  1.00  0.00    -0.374 OA
ENDROOT
BRANCH   1   2
ATOM      2  C   UNL A   1      42.971  18.433  25.875  1.00  0.00     0.202 C 
BRANCH   2   3
ATOM      3  C   UNL A   1      44.496  18.387  25.753  1.00  0.00     0.261 C 
BRANCH   3   4
ATOM      4  O   UNL A   1      44.977  19.212  24.673  1.00  0.00    -0.463 OA
BRANCH   4   5
ATOM      5  C   UNL A   1      46.060  19.970  24.956  1.00  0.00     0.307 C 
ATOM      6  O   UNL A   1      47.224  19.578  24.900  1.00  0.00    -0.252 OA
BRANCH   5   7
ATOM      7  C   UNL A   1      45.759  21.397  25.347  1.00  0.00     0.147 C 
BRANCH   7   8
ATOM      8  C   UNL A   1      44.395  22.055  25.099  1.00  0.00     0.090 C 
ATOM      9  C   UNL A   1      44.437  23.274  24.181  1.00  0.00     0.031 C 
BRANCH   8  10
ATOM     10  N   UNL A   1      43.680  22.368  26.337  1.00  0.00    -0.349 N 
ATOM     11  C   UNL A   1      43.890  23.334  27.292  1.00  0.00     0.251 C 
ATOM     12  H   UNL A   1      42.912  21.780  26.518  1.00  0.00     0.164 HD
ATOM     13  O   UNL A   1      43.195  23.335  28.306  1.00  0.00    -0.269 OA
BRANCH  11  14
ATOM     14  C   UNL A   1      44.957  24.357  27.161  1.00  0.00     0.042 A 
ATOM     15  C   UNL A   1      46.190  24.108  27.783  1.00  0.00     0.018 A 
ATOM     16  C   UNL A   1      44.748  25.579  26.518  1.00  0.00     0.044 A 
ATOM     17  C   UNL A   1      47.223  25.047  27.707  1.00  0.00     0.049 A 
ATOM     18  C   UNL A   1      45.793  26.498  26.414  1.00  0.00     0.084 A 
ATOM     19  C   UNL A   1      47.033  26.231  27.001  1.00  0.00     0.143 A 
ATOM     20  N   UNL A   1      45.584  27.702  25.741  1.00  0.00    -0.320 N 
ATOM     21  O   UNL A   1      48.081  27.111  26.980  1.00  0.00    -0.482 OA
ATOM     22  C   UNL A   1      46.604  28.589  25.528  1.00  0.00     0.262 C 
ATOM     23  H   UNL A   1      44.682  27.920  25.412  1.00  0.00     0.170 HD
ATOM     24  C   UNL A   1      47.984  28.101  25.964  1.00  0.00     0.329 C 
ATOM     25  O   UNL A   1      46.417  29.658  24.954  1.00  0.00    -0.271 OA
ENDBRANCH  11  14
ENDBRANCH   8  10
ENDBRANCH   7   8
ENDBRANCH   5   7
ENDBRANCH   4   5
ENDBRANCH   3   4
ENDBRANCH   2   3
ENDBRANCH   1   2
BRANCH   1  26
ATOM     26  C   UNL A   1      41.080  19.844  26.499  1.00  0.00     0.202 C 
BRANCH  26  27
ATOM     27  C   UNL A   1      40.630  21.132  27.200  1.00  0.00     0.261 C 
BRANCH  27  28
ATOM     28  O   UNL A   1      40.653  22.262  26.299  1.00  0.00    -0.460 OA
BRANCH  28  29
ATOM     29  C   UNL A   1      39.456  22.890  26.182  1.00  0.00     0.338 C 
ATOM     30  O   UNL A   1      38.416  22.415  25.748  1.00  0.00    -0.246 OA
BRANCH  29  31
ATOM     31  C   UNL A   1      39.487  24.216  26.827  1.00  0.00     0.060 A 
ATOM     32  C   UNL A   1      40.254  25.214  26.213  1.00  0.00     0.016 A 
ATOM     33  C   UNL A   1      38.910  24.438  28.079  1.00  0.00     0.016 A 
ATOM     34  C   UNL A   1      40.493  26.419  26.872  1.00  0.00     0.010 A 
ATOM     35  C   UNL A   1      39.156  25.651  28.742  1.00  0.00     0.010 A 
ATOM     36  C   UNL A   1      39.982  26.631  28.161  1.00  0.00    -0.014 A 
BRANCH  36  37
ATOM     37  C   UNL A   1      40.438  27.815  28.938  1.00  0.00     0.031 A 
ATOM     38  C   UNL A   1      41.834  27.835  29.506  1.00  0.00     0.074 A 
ATOM     39  C   UNL A   1      39.641  28.889  29.090  1.00  0.00     0.049 A 
ATOM     40  N   UNL A   1      42.434  28.771  30.197  1.00  0.00    -0.248 NA
ATOM     41  C   UNL A   1      42.664  26.646  29.259  1.00  0.00     0.031 C 
ATOM     42  C   UNL A   1      38.285  29.017  28.560  1.00  0.00     0.029 A 
ATOM     43  N   UNL A   1      39.863  30.080  29.737  1.00  0.00    -0.354 N 
ATOM     44  C   UNL A   1      43.707  28.285  30.469  1.00  0.00     0.074 A 
ATOM     45  C   UNL A   1      43.785  26.960  29.891  1.00  0.00     0.031 C 
ATOM     46  C   UNL A   1      37.792  30.218  28.910  1.00  0.00     0.029 A 
ATOM     47  C   UNL A   1      38.787  30.934  29.707  1.00  0.00     0.049 A 
ATOM     48  H   UNL A   1      40.714  30.302  30.181  1.00  0.00     0.167 HD
ATOM     49  C   UNL A   1      44.725  28.890  31.129  1.00  0.00     0.037 A 
ATOM     50  C   UNL A   1      38.615  32.147  30.269  1.00  0.00     0.037 A 
ATOM     51  C   UNL A   1      44.657  30.211  31.699  1.00  0.00     0.049 A 
ATOM     52  C   UNL A   1      39.741  32.777  31.048  1.00  0.00     0.074 A 
ATOM     53  C   UNL A   1      45.648  30.912  32.366  1.00  0.00     0.029 A 
ATOM     54  N   UNL A   1      43.538  31.028  31.676  1.00  0.00    -0.354 N 
ATOM     55  N   UNL A   1      40.946  32.313  31.275  1.00  0.00    -0.248 NA
ATOM     56  C   UNL A   1      39.483  34.095  31.647  1.00  0.00     0.031 C 
ATOM     57  C   UNL A   1      45.113  32.135  32.783  1.00  0.00     0.029 A 
ATOM     58  C   UNL A   1      43.805  32.215  32.338  1.00  0.00     0.049 A 
ATOM     59  H   UNL A   1      42.680  30.798  31.252  1.00  0.00     0.167 HD
ATOM     60  C   UNL A   1      41.597  33.293  32.020  1.00  0.00     0.074 A 
ATOM     61  C   UNL A   1      40.655  34.377  32.200  1.00  0.00     0.031 C 
ATOM     62  C   UNL A   1      42.861  33.292  32.509  1.00  0.00     0.037 A 
BRANCH  49  63
ATOM     63  C   UNL A   1      46.005  28.117  31.289  1.00  0.00     0.058 A 
ATOM     64  C   UNL A   1      47.038  28.199  30.343  1.00  0.00     0.135 A 
ATOM     65  C   UNL A   1      46.214  27.317  32.423  1.00  0.00     0.135 A 
ATOM     66  F   UNL A   1      46.882  28.938  29.234  1.00  0.00    -0.206 F 
ATOM     67  C   UNL A   1      48.228  27.496  30.506  1.00  0.00     0.059 A 
ATOM     68  C   UNL A   1      47.404  26.623  32.618  1.00  0.00     0.059 A 
ATOM     69  F   UNL A   1      45.257  27.205  33.358  1.00  0.00    -0.206 F 
ATOM     70  C   UNL A   1      48.401  26.709  31.646  1.00  0.00     0.060 A 
BRANCH  70  71
ATOM     71  S   UNL A   1      49.951  25.805  31.847  1.00  0.00     0.124 S 
ATOM     72  O   UNL A   1      49.677  25.025  33.050  1.00  0.00    -0.237 OA
ATOM     73  O   UNL A   1      50.035  25.045  30.604  1.00  0.00    -0.237 OA
ATOM     74  O   UNL A   1      50.944  26.864  31.998  1.00  0.00    -0.744 OA
ENDBRANCH  70  71
ENDBRANCH  49  63
BRANCH  50  75
ATOM     75  C   UNL A   1      37.312  32.849  30.129  1.00  0.00     0.058 A 
ATOM     76  C   UNL A   1      37.069  33.727  29.062  1.00  0.00     0.135 A 
ATOM     77  C   UNL A   1      36.285  32.656  31.066  1.00  0.00     0.135 A 
ATOM     78  F   UNL A   1      38.025  33.954  28.150  1.00  0.00    -0.206 F 
ATOM     79  C   UNL A   1      35.856  34.396  28.933  1.00  0.00     0.059 A 
ATOM     80  C   UNL A   1      35.056  33.295  30.945  1.00  0.00     0.059 A 
ATOM     81  F   UNL A   1      36.467  31.819  32.099  1.00  0.00    -0.206 F 
ATOM     82  C   UNL A   1      34.855  34.171  29.880  1.00  0.00     0.060 A 
BRANCH  82  83
ATOM     83  S   UNL A   1      33.261  34.999  29.677  1.00  0.00     0.124 S 
ATOM     84  O   UNL A   1      33.669  36.286  29.126  1.00  0.00    -0.237 OA
ATOM     85  O   UNL A   1      32.563  34.102  28.760  1.00  0.00    -0.237 OA
ATOM     86  O   UNL A   1      32.728  35.031  31.035  1.00  0.00    -0.744 OA
ENDBRANCH  82  83
ENDBRANCH  50  75
BRANCH  62  87
ATOM     87  C   UNL A   1      43.317  34.510  33.264  1.00  0.00     0.058 A 
ATOM     88  C   UNL A   1      43.901  35.606  32.611  1.00  0.00     0.135 A 
ATOM     89  C   UNL A   1      43.117  34.604  34.652  1.00  0.00     0.135 A 
ATOM     90  F   UNL A   1      44.119  35.565  31.287  1.00  0.00    -0.206 F 
ATOM     91  C   UNL A   1      44.291  36.746  33.308  1.00  0.00     0.059 A 
ATOM     92  C   UNL A   1      43.478  35.744  35.366  1.00  0.00     0.059 A 
ATOM     93  F   UNL A   1      42.553  33.589  35.324  1.00  0.00    -0.206 F 
ATOM     94  C   UNL A   1      44.075  36.805  34.687  1.00  0.00     0.060 A 
BRANCH  94  95
ATOM     95  S   UNL A   1      44.554  38.302  35.577  1.00  0.00     0.124 S 
ATOM     96  O   UNL A   1      43.840  39.330  34.827  1.00  0.00    -0.237 OA
ATOM     97  O   UNL A   1      44.057  38.040  36.924  1.00  0.00    -0.237 OA
ATOM     98  O   UNL A   1      46.008  38.324  35.446  1.00  0.00    -0.744 OA
ENDBRANCH  94  95
ENDBRANCH  62  87
ENDBRANCH  36  37
ENDBRANCH  29  31
ENDBRANCH  28  29
ENDBRANCH  27  28
ENDBRANCH  26  27
ENDBRANCH   1  26
TORSDOF 20
ENDMDL
MODEL 2
REMARK VINA RESULT:      -9.8      4.852     12.017
REMARK SMILES C[C@@H](CC(=O)OCCOCCOC(=O)c1ccc(-c2c3nc(c(-c4c(F)cc(S(=O)(=O)[O-])cc4F)c4ccc([nH]4)c(-c4c(F)cc(S(=O)(=O)[O-])cc4F)c4nc(c(-c5c(F)cc(S(=O)(=O)[O-])cc5F)c5ccc2[nH]5)C=C4)C=C3)cc1)NC(=O)c1ccc2c(c1)NC(=O)CO2
REMARK SMILES IDX 9 1 8 2 7 3 6 4 4 5 5 6 3 7 2 8 1 9 81 10 82 11 83 13 84 14
REMARK SMILES IDX 85 15 89 16 86 17 88 18 87 19 90 20 94 21 91 22 93 24 92 25
REMARK SMILES IDX 10 26 11 27 12 28 13 29 14 30 15 31 16 32 80 33 17 34 79 35
REMARK SMILES IDX 18 36 19 37 20 38 73 39 21 40 78 41 72 42 74 43 22 44 77 45
REMARK SMILES IDX 71 46 70 47 23 49 57 50 36 51 56 52 37 53 40 54 55 55 75 56
REMARK SMILES IDX 38 57 39 58 54 60 76 61 41 62 24 63 25 64 34 65 26 66 27 67
REMARK SMILES IDX 33 68 35 69 28 70 29 71 30 72 31 73 32 74 58 75 59 76 68 77
REMARK SMILES IDX 60 78 61 79 67 80 69 81 62 82 63 83 64 84 65 85 66 86 42 87
REMARK SMILES IDX 43 88 52 89 44 90 45 91 51 92 53 93 46 94 47 95 48 96 49 97
REMARK SMILES IDX 50 98
REMARK H PARENT 81 12 90 23 74 48 40 59
REMARK Flexibility Score: inf
ROOT
ATOM      1  O   UNL A   1      33.253  31.170  27.477  1.00  0.00    -0.374 OA
ENDROOT
BRANCH   1   2
ATOM      2  C   UNL A   1      32.932  30.007  26.715  1.00  0.00     0.202 C 
BRANCH   2   3
ATOM      3  C   UNL A   1      33.643  28.722  27.146  1.00  0.00     0.261 C 
BRANCH   3   4
ATOM      4  O   UNL A   1      33.052  27.551  26.548  1.00  0.00    -0.463 OA
BRANCH   4   5
ATOM      5  C   UNL A   1      31.708  27.452  26.665  1.00  0.00     0.307 C 
ATOM      6  O   UNL A   1      31.095  27.462  27.729  1.00  0.00    -0.252 OA
BRANCH   5   7
ATOM      7  C   UNL A   1      30.958  27.342  25.358  1.00  0.00     0.147 C 
BRANCH   7   8
ATOM      8  C   UNL A   1      30.219  26.067  24.930  1.00  0.00     0.090 C 
ATOM      9  C   UNL A   1      28.934  26.315  24.142  1.00  0.00     0.031 C 
BRANCH   8  10
ATOM     10  N   UNL A   1      29.972  25.150  26.043  1.00  0.00    -0.349 N 
ATOM     11  C   UNL A   1      30.637  24.022  26.458  1.00  0.00     0.251 C 
ATOM     12  H   UNL A   1      29.189  25.384  26.592  1.00  0.00     0.164 HD
ATOM     13  O   UNL A   1      30.172  23.359  27.384  1.00  0.00    -0.269 OA
BRANCH  11  14
ATOM     14  C   UNL A   1      31.879  23.548  25.800  1.00  0.00     0.042 A 
ATOM     15  C   UNL A   1      31.763  22.590  24.782  1.00  0.00     0.018 A 
ATOM     16  C   UNL A   1      33.149  23.958  26.214  1.00  0.00     0.044 A 
ATOM     17  C   UNL A   1      32.904  22.095  24.143  1.00  0.00     0.049 A 
ATOM     18  C   UNL A   1      34.283  23.490  25.548  1.00  0.00     0.084 A 
ATOM     19  C   UNL A   1      34.163  22.564  24.508  1.00  0.00     0.143 A 
ATOM     20  N   UNL A   1      35.545  23.932  25.947  1.00  0.00    -0.320 N 
ATOM     21  O   UNL A   1      35.236  22.027  23.851  1.00  0.00    -0.482 OA
ATOM     22  C   UNL A   1      36.675  23.578  25.263  1.00  0.00     0.262 C 
ATOM     23  H   UNL A   1      35.624  24.511  26.739  1.00  0.00     0.170 HD
ATOM     24  C   UNL A   1      36.431  22.784  23.981  1.00  0.00     0.329 C 
ATOM     25  O   UNL A   1      37.789  23.950  25.625  1.00  0.00    -0.271 OA
ENDBRANCH  11  14
ENDBRANCH   8  10
ENDBRANCH   7   8
ENDBRANCH   5   7
ENDBRANCH   4   5
ENDBRANCH   3   4
ENDBRANCH   2   3
ENDBRANCH   1   2
BRANCH   1  26
ATOM     26  C   UNL A   1      34.620  31.348  27.858  1.00  0.00     0.202 C 
BRANCH  26  27
ATOM     27  C   UNL A   1      34.851  32.232  29.090  1.00  0.00     0.261 C 
BRANCH  27  28
ATOM     28  O   UNL A   1      36.253  32.309  29.432  1.00  0.00    -0.460 OA
BRANCH  28  29
ATOM     29  C   UNL A   1      36.628  31.436  30.400  1.00  0.00     0.338 C 
ATOM     30  O   UNL A   1      36.049  31.215  31.455  1.00  0.00    -0.246 OA
BRANCH  29  31
ATOM     31  C   UNL A   1      37.763  30.606  29.956  1.00  0.00     0.060 A 
ATOM     32  C   UNL A   1      38.730  30.271  30.913  1.00  0.00     0.016 A 
ATOM     33  C   UNL A   1      37.963  30.292  28.610  1.00  0.00     0.016 A 
ATOM     34  C   UNL A   1      39.924  29.668  30.521  1.00  0.00     0.010 A 
ATOM     35  C   UNL A   1      39.169  29.690  28.219  1.00  0.00     0.010 A 
ATOM     36  C   UNL A   1      40.173  29.412  29.165  1.00  0.00    -0.014 A 
BRANCH  36  37
ATOM     37  C   UNL A   1      41.535  28.990  28.742  1.00  0.00     0.031 A 
ATOM     38  C   UNL A   1      42.655  29.998  28.740  1.00  0.00     0.074 A 
ATOM     39  C   UNL A   1      41.792  27.709  28.418  1.00  0.00     0.049 A 
ATOM     40  N   UNL A   1      43.916  29.837  28.425  1.00  0.00    -0.248 NA
ATOM     41  C   UNL A   1      42.311  31.368  29.152  1.00  0.00     0.031 C 
ATOM     42  C   UNL A   1      40.810  26.626  28.416  1.00  0.00     0.029 A 
ATOM     43  N   UNL A   1      42.962  27.103  28.030  1.00  0.00    -0.354 N 
ATOM     44  C   UNL A   1      44.514  31.079  28.597  1.00  0.00     0.074 A 
ATOM     45  C   UNL A   1      43.472  31.992  29.019  1.00  0.00     0.031 C 
ATOM     46  C   UNL A   1      41.418  25.488  28.037  1.00  0.00     0.029 A 
ATOM     47  C   UNL A   1      42.825  25.766  27.748  1.00  0.00     0.049 A 
ATOM     48  H   UNL A   1      43.819  27.583  27.961  1.00  0.00     0.167 HD
ATOM     49  C   UNL A   1      45.812  31.429  28.431  1.00  0.00     0.037 A 
ATOM     50  C   UNL A   1      43.723  24.870  27.293  1.00  0.00     0.037 A 
ATOM     51  C   UNL A   1      46.854  30.524  28.019  1.00  0.00     0.049 A 
ATOM     52  C   UNL A   1      45.150  25.294  27.059  1.00  0.00     0.074 A 
ATOM     53  C   UNL A   1      48.203  30.786  27.847  1.00  0.00     0.029 A 
ATOM     54  N   UNL A   1      46.666  29.186  27.709  1.00  0.00    -0.354 N 
ATOM     55  N   UNL A   1      45.703  26.467  27.250  1.00  0.00    -0.248 NA
ATOM     56  C   UNL A   1      46.075  24.271  26.550  1.00  0.00     0.031 C 
ATOM     57  C   UNL A   1      48.822  29.617  27.392  1.00  0.00     0.029 A 
ATOM     58  C   UNL A   1      47.869  28.616  27.323  1.00  0.00     0.049 A 
ATOM     59  H   UNL A   1      45.805  28.711  27.757  1.00  0.00     0.167 HD
ATOM     60  C   UNL A   1      47.044  26.317  26.908  1.00  0.00     0.074 A 
ATOM     61  C   UNL A   1      47.221  24.938  26.506  1.00  0.00     0.031 C 
ATOM     62  C   UNL A   1      48.037  27.240  26.928  1.00  0.00     0.037 A 
BRANCH  49  63
ATOM     63  C   UNL A   1      46.182  32.865  28.679  1.00  0.00     0.058 A 
ATOM     64  C   UNL A   1      46.147  33.822  27.654  1.00  0.00     0.135 A 
ATOM     65  C   UNL A   1      46.538  33.294  29.967  1.00  0.00     0.135 A 
ATOM     66  F   UNL A   1      45.827  33.460  26.402  1.00  0.00    -0.206 F 
ATOM     67  C   UNL A   1      46.473  35.154  27.893  1.00  0.00     0.059 A 
ATOM     68  C   UNL A   1      46.846  34.624  30.234  1.00  0.00     0.059 A 
ATOM     69  F   UNL A   1      46.588  32.417  30.982  1.00  0.00    -0.206 F 
ATOM     70  C   UNL A   1      46.824  35.545  29.186  1.00  0.00     0.060 A 
BRANCH  70  71
ATOM     71  S   UNL A   1      47.241  37.276  29.484  1.00  0.00     0.124 S 
ATOM     72  O   UNL A   1      48.213  37.158  30.566  1.00  0.00    -0.237 OA
ATOM     73  O   UNL A   1      47.776  37.697  28.194  1.00  0.00    -0.237 OA
ATOM     74  O   UNL A   1      45.961  37.874  29.853  1.00  0.00    -0.744 OA
ENDBRANCH  70  71
ENDBRANCH  49  63
BRANCH  50  75
ATOM     75  C   UNL A   1      43.297  23.473  27.011  1.00  0.00     0.058 A 
ATOM     76  C   UNL A   1      43.102  22.548  28.047  1.00  0.00     0.135 A 
ATOM     77  C   UNL A   1      43.080  23.038  25.694  1.00  0.00     0.135 A 
ATOM     78  F   UNL A   1      43.311  22.914  29.320  1.00  0.00    -0.206 F 
ATOM     79  C   UNL A   1      42.716  21.237  27.788  1.00  0.00     0.059 A 
ATOM     80  C   UNL A   1      42.671  21.739  25.412  1.00  0.00     0.059 A 
ATOM     81  F   UNL A   1      43.244  23.889  24.669  1.00  0.00    -0.206 F 
ATOM     82  C   UNL A   1      42.500  20.843  26.466  1.00  0.00     0.060 A 
BRANCH  82  83
ATOM     83  S   UNL A   1      41.944  19.156  26.139  1.00  0.00     0.124 S 
ATOM     84  O   UNL A   1      42.275  18.490  27.393  1.00  0.00    -0.237 OA
ATOM     85  O   UNL A   1      40.522  19.347  25.871  1.00  0.00    -0.237 OA
ATOM     86  O   UNL A   1      42.743  18.761  24.982  1.00  0.00    -0.744 OA
ENDBRANCH  82  83
ENDBRANCH  50  75
BRANCH  62  87
ATOM     87  C   UNL A   1      49.415  26.788  26.529  1.00  0.00     0.058 A 
ATOM     88  C   UNL A   1      50.310  26.245  27.462  1.00  0.00     0.135 A 
ATOM     89  C   UNL A   1      49.824  26.850  25.187  1.00  0.00     0.135 A 
ATOM     90  F   UNL A   1      49.970  26.167  28.759  1.00  0.00    -0.206 F 
ATOM     91  C   UNL A   1      51.573  25.797  27.084  1.00  0.00     0.059 A 
ATOM     92  C   UNL A   1      51.074  26.386  24.782  1.00  0.00     0.059 A 
ATOM     93  F   UNL A   1      49.003  27.352  24.252  1.00  0.00    -0.206 F 
ATOM     94  C   UNL A   1      51.946  25.872  25.741  1.00  0.00     0.060 A 
BRANCH  94  95
ATOM     95  S   UNL A   1      53.573  25.257  25.255  1.00  0.00     0.124 S 
ATOM     96  O   UNL A   1      53.678  25.755  23.887  1.00  0.00    -0.237 OA
ATOM     97  O   UNL A   1      54.454  25.891  26.230  1.00  0.00    -0.237 OA
ATOM     98  O   UNL A   1      53.441  23.808  25.388  1.00  0.00    -0.744 OA
ENDBRANCH  94  95
ENDBRANCH  62  87
ENDBRANCH  36  37
ENDBRANCH  29  31
ENDBRANCH  28  29
ENDBRANCH  27  28
ENDBRANCH  26  27
ENDBRANCH   1  26
TORSDOF 20
ENDMDL
MODEL 3
REMARK VINA RESULT:      -9.7      4.397      7.327
REMARK SMILES C[C@@H](CC(=O)OCCOCCOC(=O)c1ccc(-c2c3nc(c(-c4c(F)cc(S(=O)(=O)[O-])cc4F)c4ccc([nH]4)c(-c4c(F)cc(S(=O)(=O)[O-])cc4F)c4nc(c(-c5c(F)cc(S(=O)(=O)[O-])cc5F)c5ccc2[nH]5)C=C4)C=C3)cc1)NC(=O)c1ccc2c(c1)NC(=O)CO2
REMARK SMILES IDX 9 1 8 2 7 3 6 4 4 5 5 6 3 7 2 8 1 9 81 10 82 11 83 13 84 14
REMARK SMILES IDX 85 15 89 16 86 17 88 18 87 19 90 20 94 21 91 22 93 24 92 25
REMARK SMILES IDX 10 26 11 27 12 28 13 29 14 30 15 31 16 32 80 33 17 34 79 35
REMARK SMILES IDX 18 36 19 37 20 38 73 39 21 40 78 41 72 42 74 43 22 44 77 45
REMARK SMILES IDX 71 46 70 47 23 49 57 50 36 51 56 52 37 53 40 54 55 55 75 56
REMARK SMILES IDX 38 57 39 58 54 60 76 61 41 62 24 63 25 64 34 65 26 66 27 67
REMARK SMILES IDX 33 68 35 69 28 70 29 71 30 72 31 73 32 74 58 75 59 76 68 77
REMARK SMILES IDX 60 78 61 79 67 80 69 81 62 82 63 83 64 84 65 85 66 86 42 87
REMARK SMILES IDX 43 88 52 89 44 90 45 91 51 92 53 93 46 94 47 95 48 96 49 97
REMARK SMILES IDX 50 98
REMARK H PARENT 81 12 90 23 74 48 40 59
REMARK Flexibility Score: inf
ROOT
ATOM      1  O   UNL A   1      39.118  21.460  25.832  1.00  0.00    -0.374 OA
ENDROOT
BRANCH   1   2
ATOM      2  C   UNL A   1      38.030  22.357  25.617  1.00  0.00     0.202 C 
BRANCH   2   3
ATOM      3  C   UNL A   1      36.895  21.816  24.744  1.00  0.00     0.261 C 
BRANCH   3   4
ATOM      4  O   UNL A   1      35.608  22.316  25.160  1.00  0.00    -0.463 OA
BRANCH   4   5
ATOM      5  C   UNL A   1      34.939  23.041  24.235  1.00  0.00     0.307 C 
ATOM      6  O   UNL A   1      35.275  23.159  23.059  1.00  0.00    -0.252 OA
BRANCH   5   7
ATOM      7  C   UNL A   1      33.685  23.718  24.736  1.00  0.00     0.147 C 
BRANCH   7   8
ATOM      8  C   UNL A   1      32.596  24.249  23.796  1.00  0.00     0.090 C 
ATOM      9  C   UNL A   1      31.561  23.209  23.374  1.00  0.00     0.031 C 
BRANCH   8  10
ATOM     10  N   UNL A   1      33.140  24.938  22.625  1.00  0.00    -0.349 N 
ATOM     11  C   UNL A   1      33.253  26.274  22.324  1.00  0.00     0.251 C 
ATOM     12  H   UNL A   1      33.486  24.336  21.928  1.00  0.00     0.164 HD
ATOM     13  O   UNL A   1      33.670  26.606  21.216  1.00  0.00    -0.269 OA
BRANCH  11  14
ATOM     14  C   UNL A   1      32.849  27.337  23.278  1.00  0.00     0.042 A 
ATOM     15  C   UNL A   1      31.527  27.803  23.226  1.00  0.00     0.018 A 
ATOM     16  C   UNL A   1      33.754  27.937  24.157  1.00  0.00     0.044 A 
ATOM     17  C   UNL A   1      31.100  28.816  24.089  1.00  0.00     0.049 A 
ATOM     18  C   UNL A   1      33.314  28.923  25.042  1.00  0.00     0.084 A 
ATOM     19  C   UNL A   1      31.987  29.359  25.015  1.00  0.00     0.143 A 
ATOM     20  N   UNL A   1      34.218  29.493  25.939  1.00  0.00    -0.320 N 
ATOM     21  O   UNL A   1      31.506  30.357  25.818  1.00  0.00    -0.482 OA
ATOM     22  C   UNL A   1      33.813  30.390  26.889  1.00  0.00     0.262 C 
ATOM     23  H   UNL A   1      35.170  29.245  25.886  1.00  0.00     0.170 HD
ATOM     24  C   UNL A   1      32.304  30.608  26.967  1.00  0.00     0.329 C 
ATOM     25  O   UNL A   1      34.612  30.908  27.666  1.00  0.00    -0.271 OA
ENDBRANCH  11  14
ENDBRANCH   8  10
ENDBRANCH   7   8
ENDBRANCH   5   7
ENDBRANCH   4   5
ENDBRANCH   3   4
ENDBRANCH   2   3
ENDBRANCH   1   2
BRANCH   1  26
ATOM     26  C   UNL A   1      40.076  21.817  26.832  1.00  0.00     0.202 C 
BRANCH  26  27
ATOM     27  C   UNL A   1      41.390  22.409  26.306  1.00  0.00     0.261 C 
BRANCH  27  28
ATOM     28  O   UNL A   1      41.333  23.851  26.240  1.00  0.00    -0.460 OA
BRANCH  28  29
ATOM     29  C   UNL A   1      42.328  24.468  26.926  1.00  0.00     0.338 C 
ATOM     30  O   UNL A   1      43.529  24.259  26.827  1.00  0.00    -0.246 OA
BRANCH  29  31
ATOM     31  C   UNL A   1      41.806  25.598  27.717  1.00  0.00     0.060 A 
ATOM     32  C   UNL A   1      42.659  26.691  27.919  1.00  0.00     0.016 A 
ATOM     33  C   UNL A   1      40.576  25.530  28.374  1.00  0.00     0.016 A 
ATOM     34  C   UNL A   1      42.309  27.694  28.822  1.00  0.00     0.010 A 
ATOM     35  C   UNL A   1      40.230  26.540  29.285  1.00  0.00     0.010 A 
ATOM     36  C   UNL A   1      41.111  27.606  29.545  1.00  0.00    -0.014 A 
BRANCH  36  37
ATOM     37  C   UNL A   1      40.866  28.553  30.665  1.00  0.00     0.031 A 
ATOM     38  C   UNL A   1      41.712  28.463  31.910  1.00  0.00     0.074 A 
ATOM     39  C   UNL A   1      39.941  29.525  30.558  1.00  0.00     0.049 A 
ATOM     40  N   UNL A   1      41.675  29.199  32.992  1.00  0.00    -0.248 NA
ATOM     41  C   UNL A   1      42.735  27.407  31.937  1.00  0.00     0.031 C 
ATOM     42  C   UNL A   1      39.083  29.749  29.396  1.00  0.00     0.029 A 
ATOM     43  N   UNL A   1      39.572  30.508  31.443  1.00  0.00    -0.354 N 
ATOM     44  C   UNL A   1      42.665  28.696  33.828  1.00  0.00     0.074 A 
ATOM     45  C   UNL A   1      43.268  27.574  33.138  1.00  0.00     0.031 C 
ATOM     46  C   UNL A   1      38.280  30.799  29.643  1.00  0.00     0.029 A 
ATOM     47  C   UNL A   1      38.552  31.308  30.988  1.00  0.00     0.049 A 
ATOM     48  H   UNL A   1      39.998  30.628  32.323  1.00  0.00     0.167 HD
ATOM     49  C   UNL A   1      43.047  29.133  35.052  1.00  0.00     0.037 A 
ATOM     50  C   UNL A   1      37.898  32.322  31.588  1.00  0.00     0.037 A 
ATOM     51  C   UNL A   1      42.458  30.253  35.740  1.00  0.00     0.049 A 
ATOM     52  C   UNL A   1      38.301  32.755  32.974  1.00  0.00     0.074 A 
ATOM     53  C   UNL A   1      42.797  30.780  36.974  1.00  0.00     0.029 A 
ATOM     54  N   UNL A   1      41.403  31.014  35.258  1.00  0.00    -0.354 N 
ATOM     55  N   UNL A   1      39.255  32.283  33.740  1.00  0.00    -0.248 NA
ATOM     56  C   UNL A   1      37.540  33.859  33.577  1.00  0.00     0.031 C 
ATOM     57  C   UNL A   1      41.920  31.833  37.257  1.00  0.00     0.029 A 
ATOM     58  C   UNL A   1      41.064  31.990  36.181  1.00  0.00     0.049 A 
ATOM     59  H   UNL A   1      40.962  30.879  34.389  1.00  0.00     0.167 HD
ATOM     60  C   UNL A   1      39.225  33.048  34.903  1.00  0.00     0.074 A 
ATOM     61  C   UNL A   1      38.162  34.018  34.737  1.00  0.00     0.031 C 
ATOM     62  C   UNL A   1      40.007  32.954  36.006  1.00  0.00     0.037 A 
BRANCH  49  63
ATOM     63  C   UNL A   1      44.152  28.384  35.743  1.00  0.00     0.058 A 
ATOM     64  C   UNL A   1      43.886  27.319  36.617  1.00  0.00     0.135 A 
ATOM     65  C   UNL A   1      45.495  28.711  35.496  1.00  0.00     0.135 A 
ATOM     66  F   UNL A   1      42.620  26.975  36.898  1.00  0.00    -0.206 F 
ATOM     67  C   UNL A   1      44.914  26.617  37.240  1.00  0.00     0.059 A 
ATOM     68  C   UNL A   1      46.539  28.009  36.090  1.00  0.00     0.059 A 
ATOM     69  F   UNL A   1      45.803  29.722  34.668  1.00  0.00    -0.206 F 
ATOM     70  C   UNL A   1      46.238  26.971  36.972  1.00  0.00     0.060 A 
BRANCH  70  71
ATOM     71  S   UNL A   1      47.562  26.050  37.783  1.00  0.00     0.124 S 
ATOM     72  O   UNL A   1      46.854  24.852  38.223  1.00  0.00    -0.237 OA
ATOM     73  O   UNL A   1      48.521  25.859  36.700  1.00  0.00    -0.237 OA
ATOM     74  O   UNL A   1      47.996  26.949  38.849  1.00  0.00    -0.744 OA
ENDBRANCH  70  71
ENDBRANCH  49  63
BRANCH  50  75
ATOM     75  C   UNL A   1      36.775  32.998  30.885  1.00  0.00     0.058 A 
ATOM     76  C   UNL A   1      37.011  33.915  29.851  1.00  0.00     0.135 A 
ATOM     77  C   UNL A   1      35.443  32.738  31.241  1.00  0.00     0.135 A 
ATOM     78  F   UNL A   1      38.268  34.206  29.486  1.00  0.00    -0.206 F 
ATOM     79  C   UNL A   1      35.965  34.560  29.199  1.00  0.00     0.059 A 
ATOM     80  C   UNL A   1      34.380  33.353  30.588  1.00  0.00     0.059 A 
ATOM     81  F   UNL A   1      35.166  31.861  32.219  1.00  0.00    -0.206 F 
ATOM     82  C   UNL A   1      34.652  34.269  29.574  1.00  0.00     0.060 A 
BRANCH  82  83
ATOM     83  S   UNL A   1      33.295  35.066  28.686  1.00  0.00     0.124 S 
ATOM     84  O   UNL A   1      33.999  36.110  27.951  1.00  0.00    -0.237 OA
ATOM     85  O   UNL A   1      32.764  33.967  27.885  1.00  0.00    -0.237 OA
ATOM     86  O   UNL A   1      32.420  35.527  29.760  1.00  0.00    -0.744 OA
ENDBRANCH  82  83
ENDBRANCH  50  75
BRANCH  62  87
ATOM     87  C   UNL A   1      39.768  33.941  37.115  1.00  0.00     0.058 A 
ATOM     88  C   UNL A   1      38.907  33.654  38.184  1.00  0.00     0.135 A 
ATOM     89  C   UNL A   1      40.451  35.169  37.135  1.00  0.00     0.135 A 
ATOM     90  F   UNL A   1      38.226  32.497  38.211  1.00  0.00    -0.206 F 
ATOM     91  C   UNL A   1      38.713  34.556  39.227  1.00  0.00     0.059 A 
ATOM     92  C   UNL A   1      40.291  36.077  38.179  1.00  0.00     0.059 A 
ATOM     93  F   UNL A   1      41.295  35.490  36.142  1.00  0.00    -0.206 F 
ATOM     94  C   UNL A   1      39.411  35.766  39.215  1.00  0.00     0.060 A 
BRANCH  94  95
ATOM     95  S   UNL A   1      39.179  36.916  40.589  1.00  0.00     0.124 S 
ATOM     96  O   UNL A   1      40.551  37.339  40.851  1.00  0.00    -0.237 OA
ATOM     97  O   UNL A   1      38.303  37.928  40.008  1.00  0.00    -0.237 OA
ATOM     98  O   UNL A   1      38.568  36.087  41.624  1.00  0.00    -0.744 OA
ENDBRANCH  94  95
ENDBRANCH  62  87
ENDBRANCH  36  37
ENDBRANCH  29  31
ENDBRANCH  28  29
ENDBRANCH  27  28
ENDBRANCH  26  27
ENDBRANCH   1  26
TORSDOF 20
ENDMDL
