MODEL 1
REMARK VINA RESULT:     -12.1      0.000      0.000
REMARK SMILES COC(=O)c1ccc([C@H]2Nc3c(C(=O)OCCOCCOC(=O)c4ccc(-c5c6nc(c(-c7c(F)cc(S(=O)(=O)[O-])cc7F)c7ccc([nH]7)c(-c7c(F)cc(S(=O)(=O)[O-])cc7F)c7nc(c(-c8c(F)cc(S(=O)(=O)[O-])cc8F)c8ccc5[nH]8)C=C7)C=C6)cc4)cccc3[C@H]3[C@H]4CC[C@H](C4)[C@H]32)cc1
REMARK SMILES IDX 18 1 17 2 16 3 15 4 13 5 14 6 12 7 9 8 10 9 100 10 11 11
REMARK SMILES IDX 94 13 98 14 93 15 95 16 97 17 99 18 90 19 92 20 96 21 91 22
REMARK SMILES IDX 8 23 5 24 6 25 102 26 7 27 101 28 3 29 4 30 2 31 1 32 19 33
REMARK SMILES IDX 20 34 21 35 22 36 23 37 24 38 25 39 89 40 26 41 88 42 27 43
REMARK SMILES IDX 28 44 29 45 82 46 30 47 87 48 81 49 83 50 31 51 86 52 80 53
REMARK SMILES IDX 79 54 32 56 66 57 45 58 65 59 46 60 49 61 64 62 84 63 47 64
REMARK SMILES IDX 48 65 63 67 85 68 50 69 33 70 34 71 43 72 35 73 36 74 42 75
REMARK SMILES IDX 44 76 37 77 38 78 39 79 40 80 41 81 67 82 68 83 77 84 69 85
REMARK SMILES IDX 70 86 76 87 78 88 71 89 72 90 73 91 74 92 75 93 51 94 52 95
REMARK SMILES IDX 61 96 53 97 54 98 60 99 62 100 55 101 56 102 57 103 58 104
REMARK SMILES IDX 59 105
REMARK H PARENT 10 12 83 55 49 66
REMARK Flexibility Score: inf
ROOT
ATOM      1  O   UNL A   1      41.751  22.527  27.752  1.00  0.00    -0.374 OA
ENDROOT
BRANCH   1   2
ATOM      2  C   UNL A   1      40.511  21.993  27.283  1.00  0.00     0.202 C 
BRANCH   2   3
ATOM      3  C   UNL A   1      39.621  22.937  26.463  1.00  0.00     0.261 C 
BRANCH   3   4
ATOM      4  O   UNL A   1      38.261  22.468  26.426  1.00  0.00    -0.460 OA
BRANCH   4   5
ATOM      5  C   UNL A   1      37.898  21.736  25.336  1.00  0.00     0.340 C 
ATOM      6  O   UNL A   1      38.335  20.643  25.024  1.00  0.00    -0.246 OA
BRANCH   5   7
ATOM      7  C   UNL A   1      36.761  22.452  24.699  1.00  0.00     0.083 A 
ATOM      8  C   UNL A   1      33.946  21.692  26.790  1.00  0.00     0.113 C 
ATOM      9  N   UNL A   1      35.320  22.228  26.688  1.00  0.00    -0.377 N 
ATOM     10  C   UNL A   1      33.056  22.987  26.800  1.00  0.00     0.027 C 
ATOM     11  C   UNL A   1      35.593  22.768  25.416  1.00  0.00     0.053 A 
ATOM     12  H   UNL A   1      35.969  22.209  27.426  1.00  0.00     0.161 HD
ATOM     13  C   UNL A   1      33.474  24.047  25.734  1.00  0.00     0.030 C 
ATOM     14  C   UNL A   1      31.501  23.113  26.832  1.00  0.00    -0.005 C 
ATOM     15  C   UNL A   1      34.582  23.578  24.822  1.00  0.00    -0.020 A 
ATOM     16  C   UNL A   1      32.110  24.637  25.281  1.00  0.00    -0.003 C 
ATOM     17  C   UNL A   1      30.716  22.688  25.586  1.00  0.00     0.004 C 
ATOM     18  C   UNL A   1      31.365  24.645  26.631  1.00  0.00     0.008 C 
ATOM     19  C   UNL A   1      36.844  22.796  23.347  1.00  0.00     0.018 A 
ATOM     20  C   UNL A   1      34.694  23.930  23.478  1.00  0.00     0.006 A 
ATOM     21  C   UNL A   1      31.216  23.663  24.496  1.00  0.00     0.004 C 
ATOM     22  C   UNL A   1      35.800  23.499  22.736  1.00  0.00     0.001 A 
BRANCH   8  23
ATOM     23  C   UNL A   1      33.849  20.582  25.726  1.00  0.00    -0.025 A 
ATOM     24  C   UNL A   1      33.750  18.161  24.232  1.00  0.00     0.060 A 
ATOM     25  C   UNL A   1      32.567  18.813  24.592  1.00  0.00     0.016 A 
ATOM     26  C   UNL A   1      34.962  18.747  24.554  1.00  0.00     0.016 A 
ATOM     27  C   UNL A   1      32.619  20.026  25.321  1.00  0.00     0.007 A 
ATOM     28  C   UNL A   1      34.980  19.896  25.320  1.00  0.00     0.007 A 
BRANCH  24  29
ATOM     29  C   UNL A   1      33.774  16.826  23.578  1.00  0.00     0.337 C 
ATOM     30  O   UNL A   1      34.040  16.614  22.415  1.00  0.00    -0.246 OA
BRANCH  29  31
ATOM     31  O   UNL A   1      33.466  15.904  24.532  1.00  0.00    -0.465 OA
ATOM     32  C   UNL A   1      34.505  15.527  25.430  1.00  0.00     0.282 C 
ENDBRANCH  29  31
ENDBRANCH  24  29
ENDBRANCH   8  23
ENDBRANCH   5   7
ENDBRANCH   4   5
ENDBRANCH   3   4
ENDBRANCH   2   3
ENDBRANCH   1   2
BRANCH   1  33
ATOM     33  C   UNL A   1      42.893  22.323  26.925  1.00  0.00     0.202 C 
BRANCH  33  34
ATOM     34  C   UNL A   1      43.313  23.480  26.010  1.00  0.00     0.261 C 
BRANCH  34  35
ATOM     35  O   UNL A   1      43.301  24.754  26.672  1.00  0.00    -0.460 OA
BRANCH  35  36
ATOM     36  C   UNL A   1      42.366  25.619  26.204  1.00  0.00     0.338 C 
ATOM     37  O   UNL A   1      41.874  25.643  25.089  1.00  0.00    -0.246 OA
BRANCH  36  38
ATOM     38  C   UNL A   1      41.881  26.469  27.308  1.00  0.00     0.060 A 
ATOM     39  C   UNL A   1      42.481  27.723  27.478  1.00  0.00     0.016 A 
ATOM     40  C   UNL A   1      40.902  26.023  28.197  1.00  0.00     0.016 A 
ATOM     41  C   UNL A   1      42.126  28.524  28.563  1.00  0.00     0.010 A 
ATOM     42  C   UNL A   1      40.553  26.827  29.288  1.00  0.00     0.010 A 
ATOM     43  C   UNL A   1      41.181  28.069  29.490  1.00  0.00    -0.014 A 
BRANCH  43  44
ATOM     44  C   UNL A   1      40.914  28.846  30.728  1.00  0.00     0.031 A 
ATOM     45  C   UNL A   1      39.789  29.844  30.739  1.00  0.00     0.074 A 
ATOM     46  C   UNL A   1      41.679  28.670  31.821  1.00  0.00     0.049 A 
ATOM     47  N   UNL A   1      39.444  30.691  31.674  1.00  0.00    -0.248 NA
ATOM     48  C   UNL A   1      38.943  29.903  29.536  1.00  0.00     0.031 C 
ATOM     49  C   UNL A   1      42.780  27.713  31.936  1.00  0.00     0.029 A 
ATOM     50  N   UNL A   1      41.660  29.308  33.037  1.00  0.00    -0.354 N 
ATOM     51  C   UNL A   1      38.362  31.400  31.166  1.00  0.00     0.074 A 
ATOM     52  C   UNL A   1      38.111  30.891  29.835  1.00  0.00     0.031 C 
ATOM     53  C   UNL A   1      43.348  27.846  33.147  1.00  0.00     0.029 A 
ATOM     54  C   UNL A   1      42.680  28.923  33.875  1.00  0.00     0.049 A 
ATOM     55  H   UNL A   1      40.982  29.977  33.285  1.00  0.00     0.167 HD
ATOM     56  C   UNL A   1      37.647  32.385  31.758  1.00  0.00     0.037 A 
ATOM     57  C   UNL A   1      43.056  29.408  35.076  1.00  0.00     0.037 A 
ATOM     58  C   UNL A   1      37.892  32.870  33.092  1.00  0.00     0.049 A 
ATOM     59  C   UNL A   1      42.267  30.538  35.692  1.00  0.00     0.074 A 
ATOM     60  C   UNL A   1      37.181  33.822  33.802  1.00  0.00     0.029 A 
ATOM     61  N   UNL A   1      38.931  32.455  33.911  1.00  0.00    -0.354 N 
ATOM     62  N   UNL A   1      41.212  31.160  35.224  1.00  0.00    -0.248 NA
ATOM     63  C   UNL A   1      42.719  31.030  37.001  1.00  0.00     0.031 C 
ATOM     64  C   UNL A   1      37.831  34.033  35.021  1.00  0.00     0.029 A 
ATOM     65  C   UNL A   1      38.905  33.163  35.102  1.00  0.00     0.049 A 
ATOM     66  H   UNL A   1      39.591  31.761  33.680  1.00  0.00     0.167 HD
ATOM     67  C   UNL A   1      40.857  32.095  36.192  1.00  0.00     0.074 A 
ATOM     68  C   UNL A   1      41.801  31.944  37.280  1.00  0.00     0.031 C 
ATOM     69  C   UNL A   1      39.844  32.996  36.183  1.00  0.00     0.037 A 
BRANCH  56  70
ATOM     70  C   UNL A   1      36.547  33.041  30.969  1.00  0.00     0.058 A 
ATOM     71  C   UNL A   1      35.191  32.841  31.268  1.00  0.00     0.135 A 
ATOM     72  C   UNL A   1      36.864  33.960  29.954  1.00  0.00     0.135 A 
ATOM     73  F   UNL A   1      34.830  31.962  32.217  1.00  0.00    -0.206 F 
ATOM     74  C   UNL A   1      34.188  33.524  30.587  1.00  0.00     0.059 A 
ATOM     75  C   UNL A   1      35.879  34.674  29.278  1.00  0.00     0.059 A 
ATOM     76  F   UNL A   1      38.145  34.185  29.623  1.00  0.00    -0.206 F 
ATOM     77  C   UNL A   1      34.543  34.447  29.600  1.00  0.00     0.060 A 
BRANCH  77  78
ATOM     78  S   UNL A   1      33.232  35.361  28.762  1.00  0.00     0.124 S 
ATOM     79  O   UNL A   1      34.002  36.293  27.944  1.00  0.00    -0.237 OA
ATOM     80  O   UNL A   1      32.534  34.306  28.034  1.00  0.00    -0.237 OA
ATOM     81  O   UNL A   1      32.481  35.964  29.859  1.00  0.00    -0.744 OA
ENDBRANCH  77  78
ENDBRANCH  56  70
BRANCH  57  82
ATOM     82  C   UNL A   1      44.263  28.869  35.761  1.00  0.00     0.058 A 
ATOM     83  C   UNL A   1      44.166  27.845  36.715  1.00  0.00     0.135 A 
ATOM     84  C   UNL A   1      45.537  29.397  35.502  1.00  0.00     0.135 A 
ATOM     85  F   UNL A   1      42.969  27.313  37.007  1.00  0.00    -0.206 F 
ATOM     86  C   UNL A   1      45.281  27.388  37.411  1.00  0.00     0.059 A 
ATOM     87  C   UNL A   1      46.672  28.934  36.160  1.00  0.00     0.059 A 
ATOM     88  F   UNL A   1      45.692  30.370  34.589  1.00  0.00    -0.206 F 
ATOM     89  C   UNL A   1      46.529  27.942  37.128  1.00  0.00     0.060 A 
BRANCH  89  90
ATOM     90  S   UNL A   1      47.972  27.336  38.030  1.00  0.00     0.124 S 
ATOM     91  O   UNL A   1      47.907  28.127  39.252  1.00  0.00    -0.237 OA
ATOM     92  O   UNL A   1      47.670  25.915  38.171  1.00  0.00    -0.237 OA
ATOM     93  O   UNL A   1      49.082  27.648  37.134  1.00  0.00    -0.744 OA
ENDBRANCH  89  90
ENDBRANCH  57  82
BRANCH  69  94
ATOM     94  C   UNL A   1      39.670  33.865  37.401  1.00  0.00     0.058 A 
ATOM     95  C   UNL A   1      38.859  33.479  38.479  1.00  0.00     0.135 A 
ATOM     96  C   UNL A   1      40.371  35.078  37.512  1.00  0.00     0.135 A 
ATOM     97  F   UNL A   1      38.163  32.333  38.425  1.00  0.00    -0.206 F 
ATOM     98  C   UNL A   1      38.728  34.275  39.613  1.00  0.00     0.059 A 
ATOM     99  C   UNL A   1      40.282  35.875  38.650  1.00  0.00     0.059 A 
ATOM    100  F   UNL A   1      41.171  35.491  36.516  1.00  0.00    -0.206 F 
ATOM    101  C   UNL A   1      39.447  35.470  39.690  1.00  0.00     0.060 A 
BRANCH 101 102
ATOM    102  S   UNL A   1      39.292  36.478  41.181  1.00  0.00     0.124 S 
ATOM    103  O   UNL A   1      40.675  36.530  41.645  1.00  0.00    -0.237 OA
ATOM    104  O   UNL A   1      38.751  37.727  40.658  1.00  0.00    -0.237 OA
ATOM    105  O   UNL A   1      38.378  35.707  42.019  1.00  0.00    -0.744 OA
ENDBRANCH 101 102
ENDBRANCH  69  94
ENDBRANCH  43  44
ENDBRANCH  36  38
ENDBRANCH  35  36
ENDBRANCH  34  35
ENDBRANCH  33  34
ENDBRANCH   1  33
TORSDOF 20
ENDMDL
MODEL 2
REMARK VINA RESULT:     -12.0      0.682      7.800
REMARK SMILES COC(=O)c1ccc([C@H]2Nc3c(C(=O)OCCOCCOC(=O)c4ccc(-c5c6nc(c(-c7c(F)cc(S(=O)(=O)[O-])cc7F)c7ccc([nH]7)c(-c7c(F)cc(S(=O)(=O)[O-])cc7F)c7nc(c(-c8c(F)cc(S(=O)(=O)[O-])cc8F)c8ccc5[nH]8)C=C7)C=C6)cc4)cccc3[C@H]3[C@H]4CC[C@H](C4)[C@H]32)cc1
REMARK SMILES IDX 18 1 17 2 16 3 15 4 13 5 14 6 12 7 9 8 10 9 100 10 11 11
REMARK SMILES IDX 94 13 98 14 93 15 95 16 97 17 99 18 90 19 92 20 96 21 91 22
REMARK SMILES IDX 8 23 5 24 6 25 102 26 7 27 101 28 3 29 4 30 2 31 1 32 19 33
REMARK SMILES IDX 20 34 21 35 22 36 23 37 24 38 25 39 89 40 26 41 88 42 27 43
REMARK SMILES IDX 28 44 29 45 82 46 30 47 87 48 81 49 83 50 31 51 86 52 80 53
REMARK SMILES IDX 79 54 32 56 66 57 45 58 65 59 46 60 49 61 64 62 84 63 47 64
REMARK SMILES IDX 48 65 63 67 85 68 50 69 33 70 34 71 43 72 35 73 36 74 42 75
REMARK SMILES IDX 44 76 37 77 38 78 39 79 40 80 41 81 67 82 68 83 77 84 69 85
REMARK SMILES IDX 70 86 76 87 78 88 71 89 72 90 73 91 74 92 75 93 51 94 52 95
REMARK SMILES IDX 61 96 53 97 54 98 60 99 62 100 55 101 56 102 57 103 58 104
REMARK SMILES IDX 59 105
REMARK H PARENT 10 12 83 55 49 66
REMARK Flexibility Score: inf
ROOT
ATOM      1  O   UNL A   1      41.798  22.540  27.698  1.00  0.00    -0.374 OA
ENDROOT
BRANCH   1   2
ATOM      2  C   UNL A   1      40.557  22.017  27.218  1.00  0.00     0.202 C 
BRANCH   2   3
ATOM      3  C   UNL A   1      39.619  23.004  26.511  1.00  0.00     0.261 C 
BRANCH   3   4
ATOM      4  O   UNL A   1      38.280  22.488  26.436  1.00  0.00    -0.460 OA
BRANCH   4   5
ATOM      5  C   UNL A   1      37.966  21.765  25.325  1.00  0.00     0.340 C 
ATOM      6  O   UNL A   1      38.455  20.699  24.995  1.00  0.00    -0.246 OA
BRANCH   5   7
ATOM      7  C   UNL A   1      36.809  22.445  24.684  1.00  0.00     0.083 A 
ATOM      8  C   UNL A   1      34.034  21.697  26.832  1.00  0.00     0.113 C 
ATOM      9  N   UNL A   1      35.398  22.251  26.697  1.00  0.00    -0.377 N 
ATOM     10  C   UNL A   1      33.123  22.977  26.819  1.00  0.00     0.027 C 
ATOM     11  C   UNL A   1      35.646  22.761  25.408  1.00  0.00     0.053 A 
ATOM     12  H   UNL A   1      36.057  22.262  27.427  1.00  0.00     0.161 HD
ATOM     13  C   UNL A   1      33.510  24.015  25.721  1.00  0.00     0.030 C 
ATOM     14  C   UNL A   1      31.567  23.079  26.869  1.00  0.00    -0.005 C 
ATOM     15  C   UNL A   1      34.614  23.539  24.807  1.00  0.00    -0.020 A 
ATOM     16  C   UNL A   1      32.131  24.570  25.270  1.00  0.00    -0.003 C 
ATOM     17  C   UNL A   1      30.773  22.607  25.645  1.00  0.00     0.004 C 
ATOM     18  C   UNL A   1      31.404  24.602  26.630  1.00  0.00     0.008 C 
ATOM     19  C   UNL A   1      36.868  22.754  23.323  1.00  0.00     0.018 A 
ATOM     20  C   UNL A   1      34.703  23.857  23.452  1.00  0.00     0.006 A 
ATOM     21  C   UNL A   1      31.243  23.562  24.523  1.00  0.00     0.004 C 
ATOM     22  C   UNL A   1      35.806  23.425  22.707  1.00  0.00     0.001 A 
BRANCH   8  23
ATOM     23  C   UNL A   1      33.942  20.557  25.798  1.00  0.00    -0.025 A 
ATOM     24  C   UNL A   1      33.898  18.098  24.365  1.00  0.00     0.060 A 
ATOM     25  C   UNL A   1      32.701  18.692  24.777  1.00  0.00     0.016 A 
ATOM     26  C   UNL A   1      35.091  18.758  24.605  1.00  0.00     0.016 A 
ATOM     27  C   UNL A   1      32.725  19.923  25.476  1.00  0.00     0.007 A 
ATOM     28  C   UNL A   1      35.086  19.925  25.343  1.00  0.00     0.007 A 
BRANCH  24  29
ATOM     29  C   UNL A   1      33.962  16.751  23.738  1.00  0.00     0.337 C 
ATOM     30  O   UNL A   1      33.922  16.522  22.549  1.00  0.00    -0.246 OA
BRANCH  29  31
ATOM     31  O   UNL A   1      34.094  15.844  24.747  1.00  0.00    -0.465 OA
ATOM     32  C   UNL A   1      32.900  15.262  25.257  1.00  0.00     0.282 C 
ENDBRANCH  29  31
ENDBRANCH  24  29
ENDBRANCH   8  23
ENDBRANCH   5   7
ENDBRANCH   4   5
ENDBRANCH   3   4
ENDBRANCH   2   3
ENDBRANCH   1   2
BRANCH   1  33
ATOM     33  C   UNL A   1      42.938  22.362  26.863  1.00  0.00     0.202 C 
BRANCH  33  34
ATOM     34  C   UNL A   1      43.108  23.334  25.688  1.00  0.00     0.261 C 
BRANCH  34  35
ATOM     35  O   UNL A   1      43.460  24.662  26.105  1.00  0.00    -0.460 OA
BRANCH  35  36
ATOM     36  C   UNL A   1      42.455  25.568  25.997  1.00  0.00     0.338 C 
ATOM     37  O   UNL A   1      41.629  25.651  25.105  1.00  0.00    -0.246 OA
BRANCH  36  38
ATOM     38  C   UNL A   1      42.386  26.379  27.227  1.00  0.00     0.060 A 
ATOM     39  C   UNL A   1      41.468  25.996  28.211  1.00  0.00     0.016 A 
ATOM     40  C   UNL A   1      43.161  27.530  27.387  1.00  0.00     0.016 A 
ATOM     41  C   UNL A   1      41.296  26.783  29.350  1.00  0.00     0.010 A 
ATOM     42  C   UNL A   1      42.981  28.321  28.526  1.00  0.00     0.010 A 
ATOM     43  C   UNL A   1      42.031  27.965  29.501  1.00  0.00    -0.014 A 
BRANCH  43  44
ATOM     44  C   UNL A   1      41.742  28.886  30.630  1.00  0.00     0.031 A 
ATOM     45  C   UNL A   1      42.547  28.772  31.895  1.00  0.00     0.074 A 
ATOM     46  C   UNL A   1      40.761  29.802  30.528  1.00  0.00     0.049 A 
ATOM     47  N   UNL A   1      42.399  29.405  33.030  1.00  0.00    -0.248 NA
ATOM     48  C   UNL A   1      43.662  27.811  31.886  1.00  0.00     0.031 C 
ATOM     49  C   UNL A   1      39.932  30.023  29.343  1.00  0.00     0.029 A 
ATOM     50  N   UNL A   1      40.279  30.702  31.446  1.00  0.00    -0.354 N 
ATOM     51  C   UNL A   1      43.382  28.905  33.876  1.00  0.00     0.074 A 
ATOM     52  C   UNL A   1      44.115  27.907  33.129  1.00  0.00     0.031 C 
ATOM     53  C   UNL A   1      39.027  30.978  29.616  1.00  0.00     0.029 A 
ATOM     54  C   UNL A   1      39.184  31.407  31.004  1.00  0.00     0.049 A 
ATOM     55  H   UNL A   1      40.680  30.832  32.336  1.00  0.00     0.167 HD
ATOM     56  C   UNL A   1      43.643  29.249  35.159  1.00  0.00     0.037 A 
ATOM     57  C   UNL A   1      38.377  32.268  31.655  1.00  0.00     0.037 A 
ATOM     58  C   UNL A   1      42.920  30.260  35.887  1.00  0.00     0.049 A 
ATOM     59  C   UNL A   1      38.666  32.599  33.099  1.00  0.00     0.074 A 
ATOM     60  C   UNL A   1      43.152  30.722  37.171  1.00  0.00     0.029 A 
ATOM     61  N   UNL A   1      41.819  30.952  35.407  1.00  0.00    -0.354 N 
ATOM     62  N   UNL A   1      39.633  32.160  33.869  1.00  0.00    -0.248 NA
ATOM     63  C   UNL A   1      37.756  33.544  33.762  1.00  0.00     0.031 C 
ATOM     64  C   UNL A   1      42.150  31.642  37.492  1.00  0.00     0.029 A 
ATOM     65  C   UNL A   1      41.335  31.807  36.384  1.00  0.00     0.049 A 
ATOM     66  H   UNL A   1      41.437  30.851  34.505  1.00  0.00     0.167 HD
ATOM     67  C   UNL A   1      39.464  32.796  35.096  1.00  0.00     0.074 A 
ATOM     68  C   UNL A   1      38.313  33.663  34.959  1.00  0.00     0.031 C 
ATOM     69  C   UNL A   1      40.194  32.675  36.232  1.00  0.00     0.037 A 
BRANCH  56  70
ATOM     70  C   UNL A   1      44.735  28.512  35.886  1.00  0.00     0.058 A 
ATOM     71  C   UNL A   1      44.489  27.335  36.607  1.00  0.00     0.135 A 
ATOM     72  C   UNL A   1      46.067  28.948  35.779  1.00  0.00     0.135 A 
ATOM     73  F   UNL A   1      43.233  26.882  36.757  1.00  0.00    -0.206 F 
ATOM     74  C   UNL A   1      45.523  26.616  37.201  1.00  0.00     0.059 A 
ATOM     75  C   UNL A   1      47.119  28.231  36.341  1.00  0.00     0.059 A 
ATOM     76  F   UNL A   1      46.358  30.071  35.105  1.00  0.00    -0.206 F 
ATOM     77  C   UNL A   1      46.837  27.067  37.053  1.00  0.00     0.060 A 
BRANCH  77  78
ATOM     78  S   UNL A   1      48.170  26.096  37.785  1.00  0.00     0.124 S 
ATOM     79  O   UNL A   1      47.540  25.610  39.009  1.00  0.00    -0.237 OA
ATOM     80  O   UNL A   1      48.422  25.090  36.759  1.00  0.00    -0.237 OA
ATOM     81  O   UNL A   1      49.239  27.073  37.977  1.00  0.00    -0.744 OA
ENDBRANCH  77  78
ENDBRANCH  56  70
BRANCH  57  82
ATOM     82  C   UNL A   1      37.188  32.848  30.972  1.00  0.00     0.058 A 
ATOM     83  C   UNL A   1      35.943  32.202  30.997  1.00  0.00     0.135 A 
ATOM     84  C   UNL A   1      37.285  34.044  30.243  1.00  0.00     0.135 A 
ATOM     85  F   UNL A   1      35.799  31.050  31.671  1.00  0.00    -0.206 F 
ATOM     86  C   UNL A   1      34.847  32.702  30.300  1.00  0.00     0.059 A 
ATOM     87  C   UNL A   1      36.195  34.582  29.566  1.00  0.00     0.059 A 
ATOM     88  F   UNL A   1      38.449  34.712  30.195  1.00  0.00    -0.206 F 
ATOM     89  C   UNL A   1      34.985  33.891  29.584  1.00  0.00     0.060 A 
BRANCH  89  90
ATOM     90  S   UNL A   1      33.556  34.537  28.689  1.00  0.00     0.124 S 
ATOM     91  O   UNL A   1      32.671  34.915  29.785  1.00  0.00    -0.237 OA
ATOM     92  O   UNL A   1      34.141  35.638  27.931  1.00  0.00    -0.237 OA
ATOM     93  O   UNL A   1      33.117  33.397  27.889  1.00  0.00    -0.744 OA
ENDBRANCH  89  90
ENDBRANCH  57  82
BRANCH  69  94
ATOM     94  C   UNL A   1      39.802  33.528  37.410  1.00  0.00     0.058 A 
ATOM     95  C   UNL A   1      38.892  33.082  38.380  1.00  0.00     0.135 A 
ATOM     96  C   UNL A   1      40.391  34.790  37.598  1.00  0.00     0.135 A 
ATOM     97  F   UNL A   1      38.295  31.887  38.247  1.00  0.00    -0.206 F 
ATOM     98  C   UNL A   1      38.558  33.866  39.480  1.00  0.00     0.059 A 
ATOM     99  C   UNL A   1      40.099  35.577  38.708  1.00  0.00     0.059 A 
ATOM    100  F   UNL A   1      41.278  35.262  36.707  1.00  0.00    -0.206 F 
ATOM    101  C   UNL A   1      39.170  35.111  39.637  1.00  0.00     0.060 A 
BRANCH 101 102
ATOM    102  S   UNL A   1      38.752  36.104  41.087  1.00  0.00     0.124 S 
ATOM    103  O   UNL A   1      37.545  35.436  41.562  1.00  0.00    -0.237 OA
ATOM    104  O   UNL A   1      39.937  35.946  41.924  1.00  0.00    -0.237 OA
ATOM    105  O   UNL A   1      38.554  37.442  40.537  1.00  0.00    -0.744 OA
ENDBRANCH 101 102
ENDBRANCH  69  94
ENDBRANCH  43  44
ENDBRANCH  36  38
ENDBRANCH  35  36
ENDBRANCH  34  35
ENDBRANCH  33  34
ENDBRANCH   1  33
TORSDOF 20
ENDMDL
MODEL 3
REMARK VINA RESULT:     -10.5      7.000     12.988
REMARK SMILES COC(=O)c1ccc([C@H]2Nc3c(C(=O)OCCOCCOC(=O)c4ccc(-c5c6nc(c(-c7c(F)cc(S(=O)(=O)[O-])cc7F)c7ccc([nH]7)c(-c7c(F)cc(S(=O)(=O)[O-])cc7F)c7nc(c(-c8c(F)cc(S(=O)(=O)[O-])cc8F)c8ccc5[nH]8)C=C7)C=C6)cc4)cccc3[C@H]3[C@H]4CC[C@H](C4)[C@H]32)cc1
REMARK SMILES IDX 18 1 17 2 16 3 15 4 13 5 14 6 12 7 9 8 10 9 100 10 11 11
REMARK SMILES IDX 94 13 98 14 93 15 95 16 97 17 99 18 90 19 92 20 96 21 91 22
REMARK SMILES IDX 8 23 5 24 6 25 102 26 7 27 101 28 3 29 4 30 2 31 1 32 19 33
REMARK SMILES IDX 20 34 21 35 22 36 23 37 24 38 25 39 89 40 26 41 88 42 27 43
REMARK SMILES IDX 28 44 29 45 82 46 30 47 87 48 81 49 83 50 31 51 86 52 80 53
REMARK SMILES IDX 79 54 32 56 66 57 45 58 65 59 46 60 49 61 64 62 84 63 47 64
REMARK SMILES IDX 48 65 63 67 85 68 50 69 33 70 34 71 43 72 35 73 36 74 42 75
REMARK SMILES IDX 44 76 37 77 38 78 39 79 40 80 41 81 67 82 68 83 77 84 69 85
REMARK SMILES IDX 70 86 76 87 78 88 71 89 72 90 73 91 74 92 75 93 51 94 52 95
REMARK SMILES IDX 61 96 53 97 54 98 60 99 62 100 55 101 56 102 57 103 58 104
REMARK SMILES IDX 59 105
REMARK H PARENT 10 12 83 55 49 66
REMARK Flexibility Score: inf
ROOT
ATOM      1  O   UNL A   1      38.925  30.301  29.047  1.00  0.00    -0.374 OA
ENDROOT
BRANCH   1   2
ATOM      2  C   UNL A   1      40.221  29.722  28.875  1.00  0.00     0.202 C 
BRANCH   2   3
ATOM      3  C   UNL A   1      40.320  28.526  27.918  1.00  0.00     0.261 C 
BRANCH   3   4
ATOM      4  O   UNL A   1      41.598  27.876  28.027  1.00  0.00    -0.460 OA
BRANCH   4   5
ATOM      5  C   UNL A   1      41.611  26.525  27.859  1.00  0.00     0.340 C 
ATOM      6  O   UNL A   1      40.777  25.863  27.267  1.00  0.00    -0.246 OA
BRANCH   5   7
ATOM      7  C   UNL A   1      42.912  26.040  28.393  1.00  0.00     0.083 A 
ATOM      8  C   UNL A   1      45.238  26.598  25.720  1.00  0.00     0.113 C 
ATOM      9  N   UNL A   1      44.218  27.163  26.629  1.00  0.00    -0.377 N 
ATOM     10  C   UNL A   1      46.593  27.001  26.407  1.00  0.00     0.027 C 
ATOM     11  C   UNL A   1      44.136  26.460  27.848  1.00  0.00     0.053 A 
ATOM     12  H   UNL A   1      43.660  27.941  26.407  1.00  0.00     0.161 HD
ATOM     13  C   UNL A   1      46.612  26.767  27.949  1.00  0.00     0.030 C 
ATOM     14  C   UNL A   1      48.054  26.658  25.980  1.00  0.00    -0.005 C 
ATOM     15  C   UNL A   1      45.365  26.093  28.470  1.00  0.00    -0.020 A 
ATOM     16  C   UNL A   1      48.072  26.308  28.210  1.00  0.00    -0.003 C 
ATOM     17  C   UNL A   1      48.521  25.203  26.109  1.00  0.00     0.004 C 
ATOM     18  C   UNL A   1      48.817  27.215  27.210  1.00  0.00     0.008 C 
ATOM     19  C   UNL A   1      42.915  25.121  29.447  1.00  0.00     0.018 A 
ATOM     20  C   UNL A   1      45.346  25.193  29.535  1.00  0.00     0.006 A 
ATOM     21  C   UNL A   1      48.428  24.930  27.628  1.00  0.00     0.004 C 
ATOM     22  C   UNL A   1      44.127  24.678  29.988  1.00  0.00     0.001 A 
BRANCH   8  23
ATOM     23  C   UNL A   1      44.801  25.145  25.451  1.00  0.00    -0.025 A 
ATOM     24  C   UNL A   1      43.853  22.463  25.542  1.00  0.00     0.060 A 
ATOM     25  C   UNL A   1      43.028  23.484  25.061  1.00  0.00     0.016 A 
ATOM     26  C   UNL A   1      45.153  22.769  25.907  1.00  0.00     0.016 A 
ATOM     27  C   UNL A   1      43.507  24.814  25.001  1.00  0.00     0.007 A 
ATOM     28  C   UNL A   1      45.570  24.085  25.897  1.00  0.00     0.007 A 
BRANCH  24  29
ATOM     29  C   UNL A   1      43.381  21.069  25.751  1.00  0.00     0.337 C 
ATOM     30  O   UNL A   1      42.654  20.695  26.645  1.00  0.00    -0.246 OA
BRANCH  29  31
ATOM     31  O   UNL A   1      43.902  20.312  24.744  1.00  0.00    -0.465 OA
ATOM     32  C   UNL A   1      44.109  18.929  25.011  1.00  0.00     0.282 C 
ENDBRANCH  29  31
ENDBRANCH  24  29
ENDBRANCH   8  23
ENDBRANCH   5   7
ENDBRANCH   4   5
ENDBRANCH   3   4
ENDBRANCH   2   3
ENDBRANCH   1   2
BRANCH   1  33
ATOM     33  C   UNL A   1      37.827  29.401  29.160  1.00  0.00     0.202 C 
BRANCH  33  34
ATOM     34  C   UNL A   1      36.932  29.536  30.398  1.00  0.00     0.261 C 
BRANCH  34  35
ATOM     35  O   UNL A   1      37.634  30.033  31.547  1.00  0.00    -0.460 OA
BRANCH  35  36
ATOM     36  C   UNL A   1      37.859  29.105  32.511  1.00  0.00     0.338 C 
ATOM     37  O   UNL A   1      37.032  28.578  33.235  1.00  0.00    -0.246 OA
BRANCH  36  38
ATOM     38  C   UNL A   1      39.270  28.678  32.469  1.00  0.00     0.060 A 
ATOM     39  C   UNL A   1      40.184  29.365  33.277  1.00  0.00     0.016 A 
ATOM     40  C   UNL A   1      39.701  27.666  31.609  1.00  0.00     0.016 A 
ATOM     41  C   UNL A   1      41.544  29.064  33.203  1.00  0.00     0.010 A 
ATOM     42  C   UNL A   1      41.066  27.372  31.532  1.00  0.00     0.010 A 
ATOM     43  C   UNL A   1      41.997  28.085  32.310  1.00  0.00    -0.014 A 
BRANCH  43  44
ATOM     44  C   UNL A   1      43.453  27.870  32.113  1.00  0.00     0.031 A 
ATOM     45  C   UNL A   1      44.144  26.778  32.883  1.00  0.00     0.074 A 
ATOM     46  C   UNL A   1      44.150  28.651  31.267  1.00  0.00     0.049 A 
ATOM     47  N   UNL A   1      45.417  26.481  32.935  1.00  0.00    -0.248 NA
ATOM     48  C   UNL A   1      43.291  25.909  33.710  1.00  0.00     0.031 C 
ATOM     49  C   UNL A   1      43.583  29.723  30.448  1.00  0.00     0.029 A 
ATOM     50  N   UNL A   1      45.491  28.680  30.975  1.00  0.00    -0.354 N 
ATOM     51  C   UNL A   1      45.522  25.412  33.817  1.00  0.00     0.074 A 
ATOM     52  C   UNL A   1      44.185  25.116  34.285  1.00  0.00     0.031 C 
ATOM     53  C   UNL A   1      44.575  30.321  29.766  1.00  0.00     0.029 A 
ATOM     54  C   UNL A   1      45.849  29.704  30.130  1.00  0.00     0.049 A 
ATOM     55  H   UNL A   1      46.135  28.029  31.336  1.00  0.00     0.167 HD
ATOM     56  C   UNL A   1      46.634  24.741  34.199  1.00  0.00     0.037 A 
ATOM     57  C   UNL A   1      47.066  30.121  29.727  1.00  0.00     0.037 A 
ATOM     58  C   UNL A   1      47.958  25.030  33.711  1.00  0.00     0.049 A 
ATOM     59  C   UNL A   1      48.292  29.382  30.205  1.00  0.00     0.074 A 
ATOM     60  C   UNL A   1      49.139  24.365  33.992  1.00  0.00     0.029 A 
ATOM     61  N   UNL A   1      48.281  26.072  32.856  1.00  0.00    -0.354 N 
ATOM     62  N   UNL A   1      48.371  28.337  30.995  1.00  0.00    -0.248 NA
ATOM     63  C   UNL A   1      49.594  29.877  29.736  1.00  0.00     0.031 C 
ATOM     64  C   UNL A   1      50.185  25.047  33.364  1.00  0.00     0.029 A 
ATOM     65  C   UNL A   1      49.649  26.094  32.633  1.00  0.00     0.049 A 
ATOM     66  H   UNL A   1      47.635  26.704  32.465  1.00  0.00     0.167 HD
ATOM     67  C   UNL A   1      49.727  28.033  31.093  1.00  0.00     0.074 A 
ATOM     68  C   UNL A   1      50.428  28.995  30.268  1.00  0.00     0.031 C 
ATOM     69  C   UNL A   1      50.335  27.050  31.800  1.00  0.00     0.037 A 
BRANCH  56  70
ATOM     70  C   UNL A   1      46.492  23.646  35.221  1.00  0.00     0.058 A 
ATOM     71  C   UNL A   1      46.199  22.322  34.862  1.00  0.00     0.135 A 
ATOM     72  C   UNL A   1      46.745  23.915  36.577  1.00  0.00     0.135 A 
ATOM     73  F   UNL A   1      45.931  22.012  33.583  1.00  0.00    -0.206 F 
ATOM     74  C   UNL A   1      46.158  21.304  35.809  1.00  0.00     0.059 A 
ATOM     75  C   UNL A   1      46.737  22.909  37.538  1.00  0.00     0.059 A 
ATOM     76  F   UNL A   1      47.025  25.166  36.976  1.00  0.00    -0.206 F 
ATOM     77  C   UNL A   1      46.438  21.606  37.144  1.00  0.00     0.060 A 
BRANCH  77  78
ATOM     78  S   UNL A   1      46.431  20.265  38.352  1.00  0.00     0.124 S 
ATOM     79  O   UNL A   1      47.857  19.980  38.482  1.00  0.00    -0.237 OA
ATOM     80  O   UNL A   1      45.801  20.892  39.509  1.00  0.00    -0.237 OA
ATOM     81  O   UNL A   1      45.641  19.223  37.701  1.00  0.00    -0.744 OA
ENDBRANCH  77  78
ENDBRANCH  56  70
BRANCH  57  82
ATOM     82  C   UNL A   1      47.200  31.324  28.860  1.00  0.00     0.058 A 
ATOM     83  C   UNL A   1      47.328  32.609  29.409  1.00  0.00     0.135 A 
ATOM     84  C   UNL A   1      47.163  31.215  27.462  1.00  0.00     0.135 A 
ATOM     85  F   UNL A   1      47.358  32.769  30.741  1.00  0.00    -0.206 F 
ATOM     86  C   UNL A   1      47.380  33.744  28.604  1.00  0.00     0.059 A 
ATOM     87  C   UNL A   1      47.247  32.331  26.636  1.00  0.00     0.059 A 
ATOM     88  F   UNL A   1      47.054  30.009  26.882  1.00  0.00    -0.206 F 
ATOM     89  C   UNL A   1      47.335  33.594  27.219  1.00  0.00     0.060 A 
BRANCH  89  90
ATOM     90  S   UNL A   1      47.413  35.071  26.182  1.00  0.00     0.124 S 
ATOM     91  O   UNL A   1      48.161  35.987  27.035  1.00  0.00    -0.237 OA
ATOM     92  O   UNL A   1      48.115  34.579  25.001  1.00  0.00    -0.237 OA
ATOM     93  O   UNL A   1      46.008  35.408  25.973  1.00  0.00    -0.744 OA
ENDBRANCH  89  90
ENDBRANCH  57  82
BRANCH  69  94
ATOM     94  C   UNL A   1      51.832  26.930  31.685  1.00  0.00     0.058 A 
ATOM     95  C   UNL A   1      52.698  27.500  32.631  1.00  0.00     0.135 A 
ATOM     96  C   UNL A   1      52.405  26.185  30.640  1.00  0.00     0.135 A 
ATOM     97  F   UNL A   1      52.205  28.227  33.647  1.00  0.00    -0.206 F 
ATOM     98  C   UNL A   1      54.078  27.359  32.532  1.00  0.00     0.059 A 
ATOM     99  C   UNL A   1      53.781  26.001  30.540  1.00  0.00     0.059 A 
ATOM    100  F   UNL A   1      51.624  25.608  29.713  1.00  0.00    -0.206 F 
ATOM    101  C   UNL A   1      54.610  26.604  31.485  1.00  0.00     0.060 A 
BRANCH 101 102
ATOM    102  S   UNL A   1      56.402  26.401  31.387  1.00  0.00     0.124 S 
ATOM    103  O   UNL A   1      56.599  25.161  32.131  1.00  0.00    -0.237 OA
ATOM    104  O   UNL A   1      56.629  26.322  29.948  1.00  0.00    -0.237 OA
ATOM    105  O   UNL A   1      56.917  27.607  32.032  1.00  0.00    -0.744 OA
ENDBRANCH 101 102
ENDBRANCH  69  94
ENDBRANCH  43  44
ENDBRANCH  36  38
ENDBRANCH  35  36
ENDBRANCH  34  35
ENDBRANCH  33  34
ENDBRANCH   1  33
TORSDOF 20
ENDMDL
