MODEL 1
REMARK VINA RESULT:     -11.8      0.000      0.000
REMARK SMILES CC[NH2+][C@@]1(C(=O)OCCOCCOC(=O)c2ccc(-c3c4nc(c(-c5c(F)cc(S(=O)(=O)[O-])cc5F)c5ccc([nH]5)c(-c5c(F)cc(S(=O)(=O)[O-])cc5F)c5nc(c(-c6c(F)cc(S(=O)(=O)[O-])cc6F)c6ccc3[nH]6)C=C5)C=C4)cc2)CC[C@@H](n2cnc3ccccc32)C1
REMARK SMILES IDX 11 1 10 2 9 3 8 4 7 5 5 6 6 7 4 8 82 9 94 10 83 11 84 12
REMARK SMILES IDX 3 13 2 16 1 17 85 18 86 19 93 20 87 21 88 22 92 23 89 24
REMARK SMILES IDX 91 25 90 26 12 27 13 28 14 29 15 30 16 31 17 32 81 33 18 34
REMARK SMILES IDX 80 35 19 36 20 37 21 38 74 39 22 40 79 41 73 42 75 43 23 44
REMARK SMILES IDX 78 45 72 46 71 47 24 49 58 50 37 51 57 52 38 53 41 54 56 55
REMARK SMILES IDX 76 56 39 57 40 58 55 60 77 61 42 62 25 63 26 64 35 65 27 66
REMARK SMILES IDX 28 67 34 68 36 69 29 70 30 71 31 72 32 73 33 74 59 75 60 76
REMARK SMILES IDX 69 77 61 78 62 79 68 80 70 81 63 82 64 83 65 84 66 85 67 86
REMARK SMILES IDX 43 87 44 88 53 89 45 90 46 91 52 92 54 93 47 94 48 95 49 96
REMARK SMILES IDX 50 97 51 98
REMARK H PARENT 3 14 3 15 75 48 41 59
REMARK Flexibility Score: inf
ROOT
ATOM      1  C   UNL A   1      38.462  22.207  26.074  1.00  0.00     0.202 C 
ENDROOT
BRANCH   1   2
ATOM      2  O   UNL A   1      37.832  23.479  25.915  1.00  0.00    -0.374 OA
BRANCH   2   3
ATOM      3  C   UNL A   1      36.772  23.555  24.958  1.00  0.00     0.202 C 
BRANCH   3   4
ATOM      4  C   UNL A   1      36.440  22.288  24.162  1.00  0.00     0.261 C 
BRANCH   4   5
ATOM      5  O   UNL A   1      35.017  22.170  24.069  1.00  0.00    -0.459 OA
BRANCH   5   6
ATOM      6  C   UNL A   1      34.315  23.070  23.322  1.00  0.00     0.368 C 
ATOM      7  O   UNL A   1      34.546  23.220  22.125  1.00  0.00    -0.245 OA
BRANCH   6   8
ATOM      8  C   UNL A   1      33.170  24.012  24.378  1.00  0.00     0.196 C 
ATOM      9  C   UNL A   1      31.936  23.977  23.057  1.00  0.00     0.083 C 
ATOM     10  C   UNL A   1      33.653  25.636  23.624  1.00  0.00     0.106 C 
ATOM     11  C   UNL A   1      31.615  25.415  22.577  1.00  0.00     0.033 C 
ATOM     12  C   UNL A   1      32.356  26.387  23.499  1.00  0.00     0.096 C 
BRANCH   8  13
ATOM     13  N   UNL A   1      32.882  23.692  26.425  1.00  0.00    -0.332 N 
ATOM     14  H   UNL A   1      33.561  24.341  26.821  1.00  0.00     0.347 HD
ATOM     15  H   UNL A   1      31.872  23.614  26.307  1.00  0.00     0.347 HD
BRANCH  13  16
ATOM     16  C   UNL A   1      32.899  22.544  27.504  1.00  0.00     0.257 C 
ATOM     17  C   UNL A   1      34.172  21.698  27.388  1.00  0.00     0.071 C 
ENDBRANCH  13  16
ENDBRANCH   8  13
BRANCH  12  18
ATOM     18  N   UNL A   1      31.852  26.485  24.872  1.00  0.00    -0.327 N 
ATOM     19  C   UNL A   1      32.604  27.156  25.839  1.00  0.00     0.200 A 
ATOM     20  C   UNL A   1      30.548  27.026  24.907  1.00  0.00     0.068 A 
ATOM     21  N   UNL A   1      32.394  28.467  25.867  1.00  0.00    -0.237 NA
ATOM     22  C   UNL A   1      31.268  28.642  25.112  1.00  0.00     0.088 A 
ATOM     23  C   UNL A   1      29.043  26.828  23.880  1.00  0.00     0.028 A 
ATOM     24  C   UNL A   1      30.558  30.071  24.256  1.00  0.00     0.030 A 
ATOM     25  C   UNL A   1      28.360  28.242  22.976  1.00  0.00     0.002 A 
ATOM     26  C   UNL A   1      29.139  29.882  23.164  1.00  0.00     0.002 A 
ENDBRANCH  12  18
ENDBRANCH   6   8
ENDBRANCH   5   6
ENDBRANCH   4   5
ENDBRANCH   3   4
ENDBRANCH   2   3
ENDBRANCH   1   2
BRANCH   1  27
ATOM     27  C   UNL A   1      39.927  22.152  26.531  1.00  0.00     0.261 C 
BRANCH  27  28
ATOM     28  O   UNL A   1      40.231  23.123  27.549  1.00  0.00    -0.460 OA
BRANCH  28  29
ATOM     29  C   UNL A   1      41.042  24.133  27.140  1.00  0.00     0.338 C 
ATOM     30  O   UNL A   1      41.701  24.177  26.116  1.00  0.00    -0.246 OA
BRANCH  29  31
ATOM     31  C   UNL A   1      40.831  25.307  28.008  1.00  0.00     0.060 A 
ATOM     32  C   UNL A   1      41.910  26.186  28.174  1.00  0.00     0.016 A 
ATOM     33  C   UNL A   1      39.622  25.534  28.665  1.00  0.00     0.016 A 
ATOM     34  C   UNL A   1      41.786  27.302  28.997  1.00  0.00     0.010 A 
ATOM     35  C   UNL A   1      39.510  26.637  29.515  1.00  0.00     0.010 A 
ATOM     36  C   UNL A   1      40.595  27.518  29.696  1.00  0.00    -0.014 A 
BRANCH  36  37
ATOM     37  C   UNL A   1      40.518  28.598  30.706  1.00  0.00     0.031 A 
ATOM     38  C   UNL A   1      41.403  28.520  31.919  1.00  0.00     0.074 A 
ATOM     39  C   UNL A   1      39.667  29.628  30.542  1.00  0.00     0.049 A 
ATOM     40  N   UNL A   1      41.421  29.284  32.977  1.00  0.00    -0.248 NA
ATOM     41  C   UNL A   1      42.398  27.435  31.941  1.00  0.00     0.031 C 
ATOM     42  C   UNL A   1      38.809  29.837  29.375  1.00  0.00     0.029 A 
ATOM     43  N   UNL A   1      39.370  30.682  31.369  1.00  0.00    -0.354 N 
ATOM     44  C   UNL A   1      42.404  28.758  33.807  1.00  0.00     0.074 A 
ATOM     45  C   UNL A   1      42.961  27.609  33.130  1.00  0.00     0.031 C 
ATOM     46  C   UNL A   1      38.062  30.936  29.575  1.00  0.00     0.029 A 
ATOM     47  C   UNL A   1      38.352  31.480  30.900  1.00  0.00     0.049 A 
ATOM     48  H   UNL A   1      39.841  30.852  32.217  1.00  0.00     0.167 HD
ATOM     49  C   UNL A   1      42.796  29.197  35.025  1.00  0.00     0.037 A 
ATOM     50  C   UNL A   1      37.700  32.499  31.493  1.00  0.00     0.037 A 
ATOM     51  C   UNL A   1      42.242  30.355  35.676  1.00  0.00     0.049 A 
ATOM     52  C   UNL A   1      38.104  32.912  32.889  1.00  0.00     0.074 A 
ATOM     53  C   UNL A   1      42.611  30.913  36.888  1.00  0.00     0.029 A 
ATOM     54  N   UNL A   1      41.196  31.120  35.184  1.00  0.00    -0.354 N 
ATOM     55  N   UNL A   1      39.071  32.441  33.641  1.00  0.00    -0.248 NA
ATOM     56  C   UNL A   1      37.324  33.985  33.522  1.00  0.00     0.031 C 
ATOM     57  C   UNL A   1      41.736  31.966  37.166  1.00  0.00     0.029 A 
ATOM     58  C   UNL A   1      40.869  32.111  36.094  1.00  0.00     0.049 A 
ATOM     59  H   UNL A   1      40.750  30.979  34.317  1.00  0.00     0.167 HD
ATOM     60  C   UNL A   1      39.031  33.181  34.820  1.00  0.00     0.074 A 
ATOM     61  C   UNL A   1      37.960  34.141  34.674  1.00  0.00     0.031 C 
ATOM     62  C   UNL A   1      39.808  33.071  35.926  1.00  0.00     0.037 A 
BRANCH  49  63
ATOM     63  C   UNL A   1      43.841  28.412  35.768  1.00  0.00     0.058 A 
ATOM     64  C   UNL A   1      43.511  27.373  36.649  1.00  0.00     0.135 A 
ATOM     65  C   UNL A   1      45.203  28.645  35.509  1.00  0.00     0.135 A 
ATOM     66  F   UNL A   1      42.226  27.121  36.948  1.00  0.00    -0.206 F 
ATOM     67  C   UNL A   1      44.494  26.587  37.244  1.00  0.00     0.059 A 
ATOM     68  C   UNL A   1      46.200  27.855  36.071  1.00  0.00     0.059 A 
ATOM     69  F   UNL A   1      45.574  29.634  34.681  1.00  0.00    -0.206 F 
ATOM     70  C   UNL A   1      45.834  26.828  36.939  1.00  0.00     0.060 A 
BRANCH  70  71
ATOM     71  S   UNL A   1      47.091  25.762  37.673  1.00  0.00     0.124 S 
ATOM     72  O   UNL A   1      48.305  26.540  37.446  1.00  0.00    -0.237 OA
ATOM     73  O   UNL A   1      46.648  25.673  39.061  1.00  0.00    -0.237 OA
ATOM     74  O   UNL A   1      46.986  24.527  36.903  1.00  0.00    -0.744 OA
ENDBRANCH  70  71
ENDBRANCH  49  63
BRANCH  50  75
ATOM     75  C   UNL A   1      36.564  33.177  30.809  1.00  0.00     0.058 A 
ATOM     76  C   UNL A   1      36.785  34.095  29.771  1.00  0.00     0.135 A 
ATOM     77  C   UNL A   1      35.235  32.962  31.214  1.00  0.00     0.135 A 
ATOM     78  F   UNL A   1      38.035  34.345  29.353  1.00  0.00    -0.206 F 
ATOM     79  C   UNL A   1      35.740  34.804  29.187  1.00  0.00     0.059 A 
ATOM     80  C   UNL A   1      34.170  33.633  30.622  1.00  0.00     0.059 A 
ATOM     81  F   UNL A   1      34.963  32.088  32.195  1.00  0.00    -0.206 F 
ATOM     82  C   UNL A   1      34.434  34.567  29.623  1.00  0.00     0.060 A 
BRANCH  82  83
ATOM     83  S   UNL A   1      33.087  35.495  28.859  1.00  0.00     0.124 S 
ATOM     84  O   UNL A   1      33.820  36.483  28.076  1.00  0.00    -0.237 OA
ATOM     85  O   UNL A   1      32.397  34.459  28.097  1.00  0.00    -0.237 OA
ATOM     86  O   UNL A   1      32.350  36.019  30.005  1.00  0.00    -0.744 OA
ENDBRANCH  82  83
ENDBRANCH  50  75
BRANCH  62  87
ATOM     87  C   UNL A   1      39.555  34.028  37.060  1.00  0.00     0.058 A 
ATOM     88  C   UNL A   1      38.800  33.657  38.183  1.00  0.00     0.135 A 
ATOM     89  C   UNL A   1      40.150  35.301  37.063  1.00  0.00     0.135 A 
ATOM     90  F   UNL A   1      38.200  32.456  38.226  1.00  0.00    -0.206 F 
ATOM     91  C   UNL A   1      38.637  34.515  39.264  1.00  0.00     0.059 A 
ATOM     92  C   UNL A   1      40.029  36.162  38.149  1.00  0.00     0.059 A 
ATOM     93  F   UNL A   1      40.890  35.704  36.017  1.00  0.00    -0.206 F 
ATOM     94  C   UNL A   1      39.266  35.761  39.244  1.00  0.00     0.060 A 
BRANCH  94  95
ATOM     95  S   UNL A   1      39.104  36.832  40.688  1.00  0.00     0.124 S 
ATOM     96  O   UNL A   1      38.251  36.030  41.558  1.00  0.00    -0.237 OA
ATOM     97  O   UNL A   1      40.491  36.979  41.120  1.00  0.00    -0.237 OA
ATOM     98  O   UNL A   1      38.490  38.041  40.149  1.00  0.00    -0.744 OA
ENDBRANCH  94  95
ENDBRANCH  62  87
ENDBRANCH  36  37
ENDBRANCH  29  31
ENDBRANCH  28  29
ENDBRANCH  27  28
ENDBRANCH   1  27
TORSDOF 20
ENDMDL
MODEL 2
REMARK VINA RESULT:     -11.7      6.691     11.867
REMARK SMILES CC[NH2+][C@@]1(C(=O)OCCOCCOC(=O)c2ccc(-c3c4nc(c(-c5c(F)cc(S(=O)(=O)[O-])cc5F)c5ccc([nH]5)c(-c5c(F)cc(S(=O)(=O)[O-])cc5F)c5nc(c(-c6c(F)cc(S(=O)(=O)[O-])cc6F)c6ccc3[nH]6)C=C5)C=C4)cc2)CC[C@@H](n2cnc3ccccc32)C1
REMARK SMILES IDX 11 1 10 2 9 3 8 4 7 5 5 6 6 7 4 8 82 9 94 10 83 11 84 12
REMARK SMILES IDX 3 13 2 16 1 17 85 18 86 19 93 20 87 21 88 22 92 23 89 24
REMARK SMILES IDX 91 25 90 26 12 27 13 28 14 29 15 30 16 31 17 32 81 33 18 34
REMARK SMILES IDX 80 35 19 36 20 37 21 38 74 39 22 40 79 41 73 42 75 43 23 44
REMARK SMILES IDX 78 45 72 46 71 47 24 49 58 50 37 51 57 52 38 53 41 54 56 55
REMARK SMILES IDX 76 56 39 57 40 58 55 60 77 61 42 62 25 63 26 64 35 65 27 66
REMARK SMILES IDX 28 67 34 68 36 69 29 70 30 71 31 72 32 73 33 74 59 75 60 76
REMARK SMILES IDX 69 77 61 78 62 79 68 80 70 81 63 82 64 83 65 84 66 85 67 86
REMARK SMILES IDX 43 87 44 88 53 89 45 90 46 91 52 92 54 93 47 94 48 95 49 96
REMARK SMILES IDX 50 97 51 98
REMARK H PARENT 3 14 3 15 75 48 41 59
REMARK Flexibility Score: inf
ROOT
ATOM      1  C   UNL A   1      35.901  33.453  29.341  1.00  0.00     0.202 C 
ENDROOT
BRANCH   1   2
ATOM      2  O   UNL A   1      35.385  33.083  28.061  1.00  0.00    -0.374 OA
BRANCH   2   3
ATOM      3  C   UNL A   1      33.962  33.031  27.934  1.00  0.00     0.202 C 
BRANCH   3   4
ATOM      4  C   UNL A   1      33.303  31.648  27.869  1.00  0.00     0.261 C 
BRANCH   4   5
ATOM      5  O   UNL A   1      33.876  30.923  26.776  1.00  0.00    -0.459 OA
BRANCH   5   6
ATOM      6  C   UNL A   1      33.974  29.565  26.848  1.00  0.00     0.368 C 
ATOM      7  O   UNL A   1      34.720  29.023  27.659  1.00  0.00    -0.245 OA
BRANCH   6   8
ATOM      8  C   UNL A   1      32.978  28.788  25.536  1.00  0.00     0.196 C 
ATOM      9  C   UNL A   1      32.666  27.377  26.621  1.00  0.00     0.083 C 
ATOM     10  C   UNL A   1      34.398  27.764  24.926  1.00  0.00     0.106 C 
ATOM     11  C   UNL A   1      33.259  26.082  26.009  1.00  0.00     0.033 C 
ATOM     12  C   UNL A   1      33.783  26.427  24.614  1.00  0.00     0.096 C 
BRANCH   8  13
ATOM     13  N   UNL A   1      31.623  29.795  24.300  1.00  0.00    -0.332 N 
ATOM     14  H   UNL A   1      31.551  30.692  24.780  1.00  0.00     0.347 HD
ATOM     15  H   UNL A   1      32.047  29.405  23.458  1.00  0.00     0.347 HD
BRANCH  13  16
ATOM     16  C   UNL A   1      30.174  29.659  23.697  1.00  0.00     0.257 C 
ATOM     17  C   UNL A   1      30.229  29.267  22.216  1.00  0.00     0.071 C 
ENDBRANCH  13  16
ENDBRANCH   8  13
BRANCH  12  18
ATOM     18  N   UNL A   1      32.768  26.717  23.596  1.00  0.00    -0.327 N 
ATOM     19  C   UNL A   1      33.163  27.134  22.323  1.00  0.00     0.200 A 
ATOM     20  C   UNL A   1      31.883  25.631  23.424  1.00  0.00     0.068 A 
ATOM     21  N   UNL A   1      33.439  26.135  21.494  1.00  0.00    -0.237 NA
ATOM     22  C   UNL A   1      32.939  25.029  22.123  1.00  0.00     0.088 A 
ATOM     23  C   UNL A   1      31.070  24.440  24.556  1.00  0.00     0.028 A 
ATOM     24  C   UNL A   1      33.263  23.255  21.959  1.00  0.00     0.030 A 
ATOM     25  C   UNL A   1      31.433  22.668  24.434  1.00  0.00     0.002 A 
ATOM     26  C   UNL A   1      32.554  22.075  23.120  1.00  0.00     0.002 A 
ENDBRANCH  12  18
ENDBRANCH   6   8
ENDBRANCH   5   6
ENDBRANCH   4   5
ENDBRANCH   3   4
ENDBRANCH   2   3
ENDBRANCH   1   2
BRANCH   1  27
ATOM     27  C   UNL A   1      36.105  32.364  30.405  1.00  0.00     0.261 C 
BRANCH  27  28
ATOM     28  O   UNL A   1      36.166  31.040  29.845  1.00  0.00    -0.460 OA
BRANCH  28  29
ATOM     29  C   UNL A   1      36.814  30.131  30.619  1.00  0.00     0.338 C 
ATOM     30  O   UNL A   1      36.322  29.395  31.457  1.00  0.00    -0.246 OA
BRANCH  29  31
ATOM     31  C   UNL A   1      38.198  29.976  30.132  1.00  0.00     0.060 A 
ATOM     32  C   UNL A   1      38.391  29.945  28.743  1.00  0.00     0.016 A 
ATOM     33  C   UNL A   1      39.278  29.839  31.002  1.00  0.00     0.016 A 
ATOM     34  C   UNL A   1      39.668  29.780  28.216  1.00  0.00     0.010 A 
ATOM     35  C   UNL A   1      40.556  29.641  30.470  1.00  0.00     0.010 A 
ATOM     36  C   UNL A   1      40.754  29.596  29.076  1.00  0.00    -0.014 A 
BRANCH  36  37
ATOM     37  C   UNL A   1      42.081  29.242  28.523  1.00  0.00     0.031 A 
ATOM     38  C   UNL A   1      42.320  27.832  28.059  1.00  0.00     0.074 A 
ATOM     39  C   UNL A   1      43.057  30.167  28.443  1.00  0.00     0.049 A 
ATOM     40  N   UNL A   1      43.428  27.274  27.653  1.00  0.00    -0.248 NA
ATOM     41  C   UNL A   1      41.155  26.932  28.055  1.00  0.00     0.031 C 
ATOM     42  C   UNL A   1      42.916  31.577  28.804  1.00  0.00     0.029 A 
ATOM     43  N   UNL A   1      44.366  30.051  28.048  1.00  0.00    -0.354 N 
ATOM     44  C   UNL A   1      43.106  25.952  27.374  1.00  0.00     0.074 A 
ATOM     45  C   UNL A   1      41.697  25.789  27.657  1.00  0.00     0.031 C 
ATOM     46  C   UNL A   1      44.101  32.190  28.641  1.00  0.00     0.029 A 
ATOM     47  C   UNL A   1      45.094  31.207  28.212  1.00  0.00     0.049 A 
ATOM     48  H   UNL A   1      44.749  29.220  27.683  1.00  0.00     0.167 HD
ATOM     49  C   UNL A   1      43.918  24.967  26.928  1.00  0.00     0.037 A 
ATOM     50  C   UNL A   1      46.416  31.431  28.076  1.00  0.00     0.037 A 
ATOM     51  C   UNL A   1      45.315  25.151  26.633  1.00  0.00     0.049 A 
ATOM     52  C   UNL A   1      47.312  30.289  27.658  1.00  0.00     0.074 A 
ATOM     53  C   UNL A   1      46.211  24.228  26.124  1.00  0.00     0.029 A 
ATOM     54  N   UNL A   1      46.022  26.326  26.838  1.00  0.00    -0.354 N 
ATOM     55  N   UNL A   1      46.986  29.057  27.345  1.00  0.00    -0.248 NA
ATOM     56  C   UNL A   1      48.754  30.562  27.585  1.00  0.00     0.031 C 
ATOM     57  C   UNL A   1      47.476  24.820  26.096  1.00  0.00     0.029 A 
ATOM     58  C   UNL A   1      47.355  26.136  26.517  1.00  0.00     0.049 A 
ATOM     59  H   UNL A   1      45.634  27.171  27.163  1.00  0.00     0.167 HD
ATOM     60  C   UNL A   1      48.178  28.421  27.011  1.00  0.00     0.074 A 
ATOM     61  C   UNL A   1      49.229  29.407  27.141  1.00  0.00     0.031 C 
ATOM     62  C   UNL A   1      48.387  27.134  26.637  1.00  0.00     0.037 A 
BRANCH  49  63
ATOM     63  C   UNL A   1      43.349  23.584  26.766  1.00  0.00     0.058 A 
ATOM     64  C   UNL A   1      43.115  23.014  25.507  1.00  0.00     0.135 A 
ATOM     65  C   UNL A   1      43.134  22.782  27.901  1.00  0.00     0.135 A 
ATOM     66  F   UNL A   1      43.284  23.743  24.392  1.00  0.00    -0.206 F 
ATOM     67  C   UNL A   1      42.690  21.695  25.376  1.00  0.00     0.059 A 
ATOM     68  C   UNL A   1      42.736  21.453  27.792  1.00  0.00     0.059 A 
ATOM     69  F   UNL A   1      43.334  23.282  29.130  1.00  0.00    -0.206 F 
ATOM     70  C   UNL A   1      42.516  20.920  26.524  1.00  0.00     0.060 A 
BRANCH  70  71
ATOM     71  S   UNL A   1      42.024  19.194  26.332  1.00  0.00     0.124 S 
ATOM     72  O   UNL A   1      42.266  18.670  27.673  1.00  0.00    -0.237 OA
ATOM     73  O   UNL A   1      40.623  19.314  25.943  1.00  0.00    -0.237 OA
ATOM     74  O   UNL A   1      42.920  18.695  25.293  1.00  0.00    -0.744 OA
ENDBRANCH  70  71
ENDBRANCH  49  63
BRANCH  50  75
ATOM     75  C   UNL A   1      46.997  32.769  28.382  1.00  0.00     0.058 A 
ATOM     76  C   UNL A   1      47.409  33.100  29.681  1.00  0.00     0.135 A 
ATOM     77  C   UNL A   1      47.102  33.762  27.394  1.00  0.00     0.135 A 
ATOM     78  F   UNL A   1      47.320  32.192  30.665  1.00  0.00    -0.206 F 
ATOM     79  C   UNL A   1      47.865  34.375  30.001  1.00  0.00     0.059 A 
ATOM     80  C   UNL A   1      47.589  35.033  27.680  1.00  0.00     0.059 A 
ATOM     81  F   UNL A   1      46.732  33.498  26.131  1.00  0.00    -0.206 F 
ATOM     82  C   UNL A   1      47.949  35.337  28.991  1.00  0.00     0.060 A 
BRANCH  82  83
ATOM     83  S   UNL A   1      48.541  36.988  29.418  1.00  0.00     0.124 S 
ATOM     84  O   UNL A   1      49.958  36.885  29.086  1.00  0.00    -0.237 OA
ATOM     85  O   UNL A   1      47.739  37.835  28.542  1.00  0.00    -0.237 OA
ATOM     86  O   UNL A   1      48.234  37.096  30.841  1.00  0.00    -0.744 OA
ENDBRANCH  82  83
ENDBRANCH  50  75
BRANCH  62  87
ATOM     87  C   UNL A   1      49.796  26.717  26.309  1.00  0.00     0.058 A 
ATOM     88  C   UNL A   1      50.594  26.031  27.236  1.00  0.00     0.135 A 
ATOM     89  C   UNL A   1      50.319  26.927  25.022  1.00  0.00     0.135 A 
ATOM     90  F   UNL A   1      50.148  25.814  28.483  1.00  0.00    -0.206 F 
ATOM     91  C   UNL A   1      51.865  25.575  26.902  1.00  0.00     0.059 A 
ATOM     92  C   UNL A   1      51.573  26.449  24.656  1.00  0.00     0.059 A 
ATOM     93  F   UNL A   1      49.593  27.571  24.094  1.00  0.00    -0.206 F 
ATOM     94  C   UNL A   1      52.341  25.778  25.606  1.00  0.00     0.060 A 
BRANCH  94  95
ATOM     95  S   UNL A   1      53.962  25.115  25.169  1.00  0.00     0.124 S 
ATOM     96  O   UNL A   1      54.309  25.926  24.006  1.00  0.00    -0.237 OA
ATOM     97  O   UNL A   1      54.738  25.375  26.378  1.00  0.00    -0.237 OA
ATOM     98  O   UNL A   1      53.693  23.708  24.894  1.00  0.00    -0.744 OA
ENDBRANCH  94  95
ENDBRANCH  62  87
ENDBRANCH  36  37
ENDBRANCH  29  31
ENDBRANCH  28  29
ENDBRANCH  27  28
ENDBRANCH   1  27
TORSDOF 20
ENDMDL
MODEL 3
REMARK VINA RESULT:     -11.6      5.219     10.775
REMARK SMILES CC[NH2+][C@@]1(C(=O)OCCOCCOC(=O)c2ccc(-c3c4nc(c(-c5c(F)cc(S(=O)(=O)[O-])cc5F)c5ccc([nH]5)c(-c5c(F)cc(S(=O)(=O)[O-])cc5F)c5nc(c(-c6c(F)cc(S(=O)(=O)[O-])cc6F)c6ccc3[nH]6)C=C5)C=C4)cc2)CC[C@@H](n2cnc3ccccc32)C1
REMARK SMILES IDX 11 1 10 2 9 3 8 4 7 5 5 6 6 7 4 8 82 9 94 10 83 11 84 12
REMARK SMILES IDX 3 13 2 16 1 17 85 18 86 19 93 20 87 21 88 22 92 23 89 24
REMARK SMILES IDX 91 25 90 26 12 27 13 28 14 29 15 30 16 31 17 32 81 33 18 34
REMARK SMILES IDX 80 35 19 36 20 37 21 38 74 39 22 40 79 41 73 42 75 43 23 44
REMARK SMILES IDX 78 45 72 46 71 47 24 49 58 50 37 51 57 52 38 53 41 54 56 55
REMARK SMILES IDX 76 56 39 57 40 58 55 60 77 61 42 62 25 63 26 64 35 65 27 66
REMARK SMILES IDX 28 67 34 68 36 69 29 70 30 71 31 72 32 73 33 74 59 75 60 76
REMARK SMILES IDX 69 77 61 78 62 79 68 80 70 81 63 82 64 83 65 84 66 85 67 86
REMARK SMILES IDX 43 87 44 88 53 89 45 90 46 91 52 92 54 93 47 94 48 95 49 96
REMARK SMILES IDX 50 97 51 98
REMARK H PARENT 3 14 3 15 75 48 41 59
REMARK Flexibility Score: inf
ROOT
ATOM      1  C   UNL A   1      32.080  28.499  25.575  1.00  0.00     0.202 C 
ENDROOT
BRANCH   1   2
ATOM      2  O   UNL A   1      30.990  29.227  25.007  1.00  0.00    -0.374 OA
BRANCH   2   3
ATOM      3  C   UNL A   1      30.523  28.789  23.729  1.00  0.00     0.202 C 
BRANCH   3   4
ATOM      4  C   UNL A   1      31.474  27.943  22.875  1.00  0.00     0.261 C 
BRANCH   4   5
ATOM      5  O   UNL A   1      31.012  26.589  22.887  1.00  0.00    -0.459 OA
BRANCH   5   6
ATOM      6  C   UNL A   1      31.818  25.599  22.407  1.00  0.00     0.368 C 
ATOM      7  O   UNL A   1      32.057  25.499  21.206  1.00  0.00    -0.245 OA
BRANCH   6   8
ATOM      8  C   UNL A   1      32.315  24.478  23.753  1.00  0.00     0.196 C 
ATOM      9  C   UNL A   1      33.930  25.286  23.819  1.00  0.00     0.083 C 
ATOM     10  C   UNL A   1      33.161  23.302  22.596  1.00  0.00     0.106 C 
ATOM     11  C   UNL A   1      35.055  24.278  23.468  1.00  0.00     0.033 C 
ATOM     12  C   UNL A   1      34.411  22.897  23.329  1.00  0.00     0.096 C 
BRANCH   8  13
ATOM     13  N   UNL A   1      31.091  23.900  25.349  1.00  0.00    -0.332 N 
ATOM     14  H   UNL A   1      31.379  24.566  26.066  1.00  0.00     0.347 HD
ATOM     15  H   UNL A   1      30.299  23.735  24.728  1.00  0.00     0.347 HD
BRANCH  13  16
ATOM     16  C   UNL A   1      30.731  22.645  26.230  1.00  0.00     0.257 C 
ATOM     17  C   UNL A   1      29.547  22.945  27.157  1.00  0.00     0.071 C 
ENDBRANCH  13  16
ENDBRANCH   8  13
BRANCH  12  18
ATOM     18  N   UNL A   1      33.928  22.281  24.569  1.00  0.00    -0.327 N 
ATOM     19  C   UNL A   1      33.417  20.981  24.543  1.00  0.00     0.200 A 
ATOM     20  C   UNL A   1      34.909  22.323  25.584  1.00  0.00     0.068 A 
ATOM     21  N   UNL A   1      34.344  20.038  24.656  1.00  0.00    -0.237 NA
ATOM     22  C   UNL A   1      35.461  20.714  25.061  1.00  0.00     0.088 A 
ATOM     23  C   UNL A   1      36.136  23.568  26.137  1.00  0.00     0.028 A 
ATOM     24  C   UNL A   1      37.230  20.329  25.012  1.00  0.00     0.030 A 
ATOM     25  C   UNL A   1      37.910  23.209  26.039  1.00  0.00     0.002 A 
ATOM     26  C   UNL A   1      38.458  21.568  25.458  1.00  0.00     0.002 A 
ENDBRANCH  12  18
ENDBRANCH   6   8
ENDBRANCH   5   6
ENDBRANCH   4   5
ENDBRANCH   3   4
ENDBRANCH   2   3
ENDBRANCH   1   2
BRANCH   1  27
ATOM     27  C   UNL A   1      32.346  28.610  27.084  1.00  0.00     0.261 C 
BRANCH  27  28
ATOM     28  O   UNL A   1      33.749  28.615  27.404  1.00  0.00    -0.460 OA
BRANCH  28  29
ATOM     29  C   UNL A   1      34.232  29.822  27.799  1.00  0.00     0.338 C 
ATOM     30  O   UNL A   1      33.589  30.832  28.027  1.00  0.00    -0.246 OA
BRANCH  29  31
ATOM     31  C   UNL A   1      35.656  29.681  28.156  1.00  0.00     0.060 A 
ATOM     32  C   UNL A   1      36.596  29.849  27.130  1.00  0.00     0.016 A 
ATOM     33  C   UNL A   1      36.066  29.369  29.452  1.00  0.00     0.016 A 
ATOM     34  C   UNL A   1      37.956  29.708  27.393  1.00  0.00     0.010 A 
ATOM     35  C   UNL A   1      37.430  29.196  29.707  1.00  0.00     0.010 A 
ATOM     36  C   UNL A   1      38.379  29.351  28.677  1.00  0.00    -0.014 A 
BRANCH  36  37
ATOM     37  C   UNL A   1      39.803  29.027  28.921  1.00  0.00     0.031 A 
ATOM     38  C   UNL A   1      40.711  30.103  29.447  1.00  0.00     0.074 A 
ATOM     39  C   UNL A   1      40.275  27.791  28.671  1.00  0.00     0.049 A 
ATOM     40  N   UNL A   1      42.005  30.078  29.623  1.00  0.00    -0.248 NA
ATOM     41  C   UNL A   1      40.076  31.377  29.823  1.00  0.00     0.031 C 
ATOM     42  C   UNL A   1      39.471  26.655  28.219  1.00  0.00     0.029 A 
ATOM     43  N   UNL A   1      41.551  27.291  28.743  1.00  0.00    -0.354 N 
ATOM     44  C   UNL A   1      42.346  31.337  30.100  1.00  0.00     0.074 A 
ATOM     45  C   UNL A   1      41.124  32.105  30.186  1.00  0.00     0.031 C 
ATOM     46  C   UNL A   1      40.279  25.598  28.028  1.00  0.00     0.029 A 
ATOM     47  C   UNL A   1      41.659  25.994  28.296  1.00  0.00     0.049 A 
ATOM     48  H   UNL A   1      42.316  27.810  29.083  1.00  0.00     0.167 HD
ATOM     49  C   UNL A   1      43.572  31.806  30.427  1.00  0.00     0.037 A 
ATOM     50  C   UNL A   1      42.752  25.235  28.082  1.00  0.00     0.037 A 
ATOM     51  C   UNL A   1      44.777  31.021  30.353  1.00  0.00     0.049 A 
ATOM     52  C   UNL A   1      44.115  25.816  28.377  1.00  0.00     0.074 A 
ATOM     53  C   UNL A   1      46.061  31.388  30.715  1.00  0.00     0.029 A 
ATOM     54  N   UNL A   1      44.852  29.724  29.869  1.00  0.00    -0.354 N 
ATOM     55  N   UNL A   1      44.421  26.990  28.879  1.00  0.00    -0.248 NA
ATOM     56  C   UNL A   1      45.282  24.976  28.070  1.00  0.00     0.031 C 
ATOM     57  C   UNL A   1      46.923  30.343  30.376  1.00  0.00     0.029 A 
ATOM     58  C   UNL A   1      46.168  29.295  29.872  1.00  0.00     0.049 A 
ATOM     59  H   UNL A   1      44.083  29.187  29.567  1.00  0.00     0.167 HD
ATOM     60  C   UNL A   1      45.810  27.014  28.972  1.00  0.00     0.074 A 
ATOM     61  C   UNL A   1      46.283  25.733  28.494  1.00  0.00     0.031 C 
ATOM     62  C   UNL A   1      46.621  28.009  29.407  1.00  0.00     0.037 A 
BRANCH  49  63
ATOM     63  C   UNL A   1      43.701  33.241  30.856  1.00  0.00     0.058 A 
ATOM     64  C   UNL A   1      43.662  33.625  32.204  1.00  0.00     0.135 A 
ATOM     65  C   UNL A   1      43.973  34.233  29.898  1.00  0.00     0.135 A 
ATOM     66  F   UNL A   1      43.385  32.722  33.158  1.00  0.00    -0.206 F 
ATOM     67  C   UNL A   1      43.892  34.943  32.589  1.00  0.00     0.059 A 
ATOM     68  C   UNL A   1      44.234  35.550  30.263  1.00  0.00     0.059 A 
ATOM     69  F   UNL A   1      44.013  33.921  28.594  1.00  0.00    -0.206 F 
ATOM     70  C   UNL A   1      44.189  35.895  31.613  1.00  0.00     0.060 A 
BRANCH  70  71
ATOM     71  S   UNL A   1      44.544  37.585  32.135  1.00  0.00     0.124 S 
ATOM     72  O   UNL A   1      43.958  37.607  33.472  1.00  0.00    -0.237 OA
ATOM     73  O   UNL A   1      46.002  37.625  32.083  1.00  0.00    -0.237 OA
ATOM     74  O   UNL A   1      43.860  38.403  31.138  1.00  0.00    -0.744 OA
ENDBRANCH  70  71
ENDBRANCH  49  63
BRANCH  50  75
ATOM     75  C   UNL A   1      42.627  23.863  27.515  1.00  0.00     0.058 A 
ATOM     76  C   UNL A   1      42.419  22.751  28.344  1.00  0.00     0.135 A 
ATOM     77  C   UNL A   1      42.767  23.629  26.136  1.00  0.00     0.135 A 
ATOM     78  F   UNL A   1      42.289  22.918  29.669  1.00  0.00    -0.206 F 
ATOM     79  C   UNL A   1      42.394  21.456  27.837  1.00  0.00     0.059 A 
ATOM     80  C   UNL A   1      42.710  22.346  25.601  1.00  0.00     0.059 A 
ATOM     81  F   UNL A   1      42.958  24.656  25.294  1.00  0.00    -0.206 F 
ATOM     82  C   UNL A   1      42.543  21.264  26.462  1.00  0.00     0.060 A 
BRANCH  82  83
ATOM     83  S   UNL A   1      42.511  19.578  25.816  1.00  0.00     0.124 S 
ATOM     84  O   UNL A   1      43.488  19.660  24.736  1.00  0.00    -0.237 OA
ATOM     85  O   UNL A   1      42.910  18.797  26.982  1.00  0.00    -0.237 OA
ATOM     86  O   UNL A   1      41.122  19.407  25.398  1.00  0.00    -0.744 OA
ENDBRANCH  82  83
ENDBRANCH  50  75
BRANCH  62  87
ATOM     87  C   UNL A   1      48.104  27.752  29.420  1.00  0.00     0.058 A 
ATOM     88  C   UNL A   1      48.697  26.906  30.369  1.00  0.00     0.135 A 
ATOM     89  C   UNL A   1      48.928  28.289  28.416  1.00  0.00     0.135 A 
ATOM     90  F   UNL A   1      47.958  26.376  31.357  1.00  0.00    -0.206 F 
ATOM     91  C   UNL A   1      50.054  26.607  30.328  1.00  0.00     0.059 A 
ATOM     92  C   UNL A   1      50.281  27.975  28.335  1.00  0.00     0.059 A 
ATOM     93  F   UNL A   1      48.411  29.098  27.478  1.00  0.00    -0.206 F 
ATOM     94  C   UNL A   1      50.835  27.136  29.299  1.00  0.00     0.060 A 
BRANCH  94  95
ATOM     95  S   UNL A   1      52.580  26.678  29.219  1.00  0.00     0.124 S 
ATOM     96  O   UNL A   1      52.816  26.173  30.568  1.00  0.00    -0.237 OA
ATOM     97  O   UNL A   1      52.587  25.676  28.157  1.00  0.00    -0.237 OA
ATOM     98  O   UNL A   1      53.248  27.934  28.894  1.00  0.00    -0.744 OA
ENDBRANCH  94  95
ENDBRANCH  62  87
ENDBRANCH  36  37
ENDBRANCH  29  31
ENDBRANCH  28  29
ENDBRANCH  27  28
ENDBRANCH   1  27
TORSDOF 20
ENDMDL
