MODEL 1
REMARK VINA RESULT:     -10.4      0.000      0.000
REMARK SMILES C=CCN(CC(=O)OCCOCCOC(=O)c1ccc(-c2c3nc(c(-c4c(F)cc(S(=O)(=O)[O-])cc4F)c4ccc([nH]4)c(-c4c(F)cc(S(=O)(=O)[O-])cc4F)c4nc(c(-c5c(F)cc(S(=O)(=O)[O-])cc5F)c5ccc2[nH]5)C=C4)C=C3)cc1)c1ccc([N+](=O)[O-])cc1Br
REMARK SMILES IDX 11 1 10 2 9 3 8 4 6 5 7 6 5 7 4 8 3 9 2 10 1 11 83 12 84 13
REMARK SMILES IDX 91 14 85 15 90 16 92 17 86 18 87 19 88 20 89 21 12 22 13 23
REMARK SMILES IDX 14 24 15 25 16 26 17 27 18 28 82 29 19 30 81 31 20 32 21 33
REMARK SMILES IDX 22 34 75 35 23 36 80 37 74 38 76 39 24 40 79 41 73 42 72 43
REMARK SMILES IDX 25 45 59 46 38 47 58 48 39 49 42 50 57 51 77 52 40 53 41 54
REMARK SMILES IDX 56 56 78 57 43 58 26 59 27 60 36 61 28 62 29 63 35 64 37 65
REMARK SMILES IDX 30 66 31 67 32 68 33 69 34 70 60 71 61 72 70 73 62 74 63 75
REMARK SMILES IDX 69 76 71 77 64 78 65 79 66 80 67 81 68 82 44 83 45 84 54 85
REMARK SMILES IDX 46 86 47 87 53 88 55 89 48 90 49 91 50 92 51 93 52 94
REMARK H PARENT 76 44 42 55
REMARK Flexibility Score: inf
ROOT
ATOM      1  O   UNL A   1      37.526  22.782  25.649  1.00  0.00    -0.374 OA
ENDROOT
BRANCH   1   2
ATOM      2  C   UNL A   1      36.696  22.664  24.494  1.00  0.00     0.202 C 
BRANCH   2   3
ATOM      3  C   UNL A   1      35.600  23.726  24.335  1.00  0.00     0.261 C 
BRANCH   3   4
ATOM      4  O   UNL A   1      34.942  23.695  23.055  1.00  0.00    -0.462 OA
BRANCH   4   5
ATOM      5  C   UNL A   1      33.948  24.614  22.878  1.00  0.00     0.325 C 
ATOM      6  O   UNL A   1      34.002  25.557  22.094  1.00  0.00    -0.250 OA
BRANCH   5   7
ATOM      7  C   UNL A   1      32.685  24.318  23.688  1.00  0.00     0.239 C 
BRANCH   7   8
ATOM      8  N   UNL A   1      32.310  25.345  24.668  1.00  0.00    -0.356 N 
BRANCH   8   9
ATOM      9  C   UNL A   1      32.720  25.221  26.061  1.00  0.00     0.144 C 
BRANCH   9  10
ATOM     10  C   UNL A   1      32.066  24.009  26.658  1.00  0.00    -0.014 C 
ATOM     11  C   UNL A   1      30.822  23.593  26.380  1.00  0.00     0.006 C 
ENDBRANCH   9  10
ENDBRANCH   8   9
BRANCH   8  12
ATOM     12  C   UNL A   1      31.584  26.447  24.245  1.00  0.00     0.052 A 
ATOM     13  C   UNL A   1      30.238  26.258  23.888  1.00  0.00     0.034 A 
ATOM     14  C   UNL A   1      32.124  27.745  24.117  1.00  0.00     0.048 A 
ATOM     15  C   UNL A   1      29.461  27.301  23.377  1.00  0.00     0.088 A 
ATOM     16  C   UNL A   1      31.349  28.808  23.641  1.00  0.00     0.103 A 
ATOM     17  Br  UNL A   1      33.924  28.147  24.587  1.00  0.00    -0.048 Br
ATOM     18  C   UNL A   1      30.028  28.570  23.257  1.00  0.00     0.270 A 
BRANCH  18  19
ATOM     19  N   UNL A   1      29.242  29.662  22.690  1.00  0.00     0.062 N 
ATOM     20  O   UNL A   1      28.848  29.536  21.523  1.00  0.00    -0.258 OA
ATOM     21  O   UNL A   1      29.044  30.655  23.405  1.00  0.00    -0.258 OA
ENDBRANCH  18  19
ENDBRANCH   8  12
ENDBRANCH   7   8
ENDBRANCH   5   7
ENDBRANCH   4   5
ENDBRANCH   3   4
ENDBRANCH   2   3
ENDBRANCH   1   2
BRANCH   1  22
ATOM     22  C   UNL A   1      38.623  21.870  25.766  1.00  0.00     0.202 C 
BRANCH  22  23
ATOM     23  C   UNL A   1      39.797  22.352  26.624  1.00  0.00     0.261 C 
BRANCH  23  24
ATOM     24  O   UNL A   1      39.923  23.780  26.532  1.00  0.00    -0.460 OA
BRANCH  24  25
ATOM     25  C   UNL A   1      41.071  24.267  27.051  1.00  0.00     0.338 C 
ATOM     26  O   UNL A   1      42.201  23.891  26.811  1.00  0.00    -0.246 OA
BRANCH  25  27
ATOM     27  C   UNL A   1      40.741  25.449  27.864  1.00  0.00     0.060 A 
ATOM     28  C   UNL A   1      41.741  26.402  28.079  1.00  0.00     0.016 A 
ATOM     29  C   UNL A   1      39.495  25.567  28.482  1.00  0.00     0.016 A 
ATOM     30  C   UNL A   1      41.515  27.452  28.972  1.00  0.00     0.010 A 
ATOM     31  C   UNL A   1      39.267  26.631  29.364  1.00  0.00     0.010 A 
ATOM     32  C   UNL A   1      40.290  27.554  29.649  1.00  0.00    -0.014 A 
BRANCH  32  33
ATOM     33  C   UNL A   1      40.144  28.540  30.752  1.00  0.00     0.031 A 
ATOM     34  C   UNL A   1      41.041  28.437  31.959  1.00  0.00     0.074 A 
ATOM     35  C   UNL A   1      39.258  29.549  30.668  1.00  0.00     0.049 A 
ATOM     36  N   UNL A   1      41.120  29.224  33.001  1.00  0.00    -0.248 NA
ATOM     37  C   UNL A   1      41.972  27.298  31.993  1.00  0.00     0.031 C 
ATOM     38  C   UNL A   1      38.339  29.776  29.554  1.00  0.00     0.029 A 
ATOM     39  N   UNL A   1      38.992  30.578  31.538  1.00  0.00    -0.354 N 
ATOM     40  C   UNL A   1      42.110  28.681  33.813  1.00  0.00     0.074 A 
ATOM     41  C   UNL A   1      42.575  27.475  33.159  1.00  0.00     0.031 C 
ATOM     42  C   UNL A   1      37.612  30.880  29.807  1.00  0.00     0.029 A 
ATOM     43  C   UNL A   1      38.004  31.428  31.105  1.00  0.00     0.049 A 
ATOM     44  H   UNL A   1      39.468  30.697  32.393  1.00  0.00     0.167 HD
ATOM     45  C   UNL A   1      42.602  29.148  34.985  1.00  0.00     0.037 A 
ATOM     46  C   UNL A   1      37.471  32.522  31.686  1.00  0.00     0.037 A 
ATOM     47  C   UNL A   1      42.150  30.347  35.640  1.00  0.00     0.049 A 
ATOM     48  C   UNL A   1      37.999  32.997  33.014  1.00  0.00     0.074 A 
ATOM     49  C   UNL A   1      42.616  30.915  36.814  1.00  0.00     0.029 A 
ATOM     50  N   UNL A   1      41.121  31.157  35.187  1.00  0.00    -0.354 N 
ATOM     51  N   UNL A   1      38.968  32.497  33.744  1.00  0.00    -0.248 NA
ATOM     52  C   UNL A   1      37.365  34.190  33.595  1.00  0.00     0.031 C 
ATOM     53  C   UNL A   1      41.842  32.048  37.091  1.00  0.00     0.029 A 
ATOM     54  C   UNL A   1      40.919  32.205  36.069  1.00  0.00     0.049 A 
ATOM     55  H   UNL A   1      40.609  31.009  34.359  1.00  0.00     0.167 HD
ATOM     56  C   UNL A   1      39.072  33.325  34.857  1.00  0.00     0.074 A 
ATOM     57  C   UNL A   1      38.074  34.362  34.702  1.00  0.00     0.031 C 
ATOM     58  C   UNL A   1      39.921  33.233  35.911  1.00  0.00     0.037 A 
BRANCH  45  59
ATOM     59  C   UNL A   1      43.689  28.345  35.642  1.00  0.00     0.058 A 
ATOM     60  C   UNL A   1      45.044  28.570  35.352  1.00  0.00     0.135 A 
ATOM     61  C   UNL A   1      43.373  27.354  36.583  1.00  0.00     0.135 A 
ATOM     62  F   UNL A   1      45.398  29.496  34.447  1.00  0.00    -0.206 F 
ATOM     63  C   UNL A   1      46.049  27.815  35.949  1.00  0.00     0.059 A 
ATOM     64  C   UNL A   1      44.363  26.602  37.209  1.00  0.00     0.059 A 
ATOM     65  F   UNL A   1      42.092  27.100  36.895  1.00  0.00    -0.206 F 
ATOM     66  C   UNL A   1      45.697  26.829  36.872  1.00  0.00     0.060 A 
BRANCH  66  67
ATOM     67  S   UNL A   1      47.007  25.846  37.630  1.00  0.00     0.124 S 
ATOM     68  O   UNL A   1      46.256  24.699  38.132  1.00  0.00    -0.237 OA
ATOM     69  O   UNL A   1      47.893  25.578  36.502  1.00  0.00    -0.237 OA
ATOM     70  O   UNL A   1      47.551  26.736  38.652  1.00  0.00    -0.744 OA
ENDBRANCH  66  67
ENDBRANCH  45  59
BRANCH  46  71
ATOM     71  C   UNL A   1      36.375  33.256  31.005  1.00  0.00     0.058 A 
ATOM     72  C   UNL A   1      35.078  33.280  31.538  1.00  0.00     0.135 A 
ATOM     73  C   UNL A   1      36.608  33.960  29.814  1.00  0.00     0.135 A 
ATOM     74  F   UNL A   1      34.806  32.611  32.669  1.00  0.00    -0.206 F 
ATOM     75  C   UNL A   1      34.048  33.975  30.914  1.00  0.00     0.059 A 
ATOM     76  C   UNL A   1      35.599  34.678  29.181  1.00  0.00     0.059 A 
ATOM     77  F   UNL A   1      37.834  33.972  29.269  1.00  0.00    -0.206 F 
ATOM     78  C   UNL A   1      34.320  34.676  29.737  1.00  0.00     0.060 A 
BRANCH  78  79
ATOM     79  S   UNL A   1      32.996  35.637  28.972  1.00  0.00     0.124 S 
ATOM     80  O   UNL A   1      33.736  36.760  28.409  1.00  0.00    -0.237 OA
ATOM     81  O   UNL A   1      32.443  34.688  28.010  1.00  0.00    -0.237 OA
ATOM     82  O   UNL A   1      32.122  35.955  30.099  1.00  0.00    -0.744 OA
ENDBRANCH  78  79
ENDBRANCH  46  71
BRANCH  58  83
ATOM     83  C   UNL A   1      39.823  34.289  36.977  1.00  0.00     0.058 A 
ATOM     84  C   UNL A   1      40.439  35.541  36.828  1.00  0.00     0.135 A 
ATOM     85  C   UNL A   1      39.065  34.064  38.138  1.00  0.00     0.135 A 
ATOM     86  F   UNL A   1      41.180  35.804  35.740  1.00  0.00    -0.206 F 
ATOM     87  C   UNL A   1      40.320  36.529  37.801  1.00  0.00     0.059 A 
ATOM     88  C   UNL A   1      38.915  35.045  39.114  1.00  0.00     0.059 A 
ATOM     89  F   UNL A   1      38.448  32.887  38.324  1.00  0.00    -0.206 F 
ATOM     90  C   UNL A   1      39.558  36.271  38.942  1.00  0.00     0.060 A 
BRANCH  90  91
ATOM     91  S   UNL A   1      39.383  37.571  40.183  1.00  0.00     0.124 S 
ATOM     92  O   UNL A   1      40.731  38.130  40.214  1.00  0.00    -0.237 OA
ATOM     93  O   UNL A   1      38.355  38.429  39.602  1.00  0.00    -0.237 OA
ATOM     94  O   UNL A   1      38.977  36.842  41.382  1.00  0.00    -0.744 OA
ENDBRANCH  90  91
ENDBRANCH  58  83
ENDBRANCH  32  33
ENDBRANCH  25  27
ENDBRANCH  24  25
ENDBRANCH  23  24
ENDBRANCH  22  23
ENDBRANCH   1  22
TORSDOF 22
ENDMDL
MODEL 2
REMARK VINA RESULT:     -10.2      3.256      9.711
REMARK SMILES C=CCN(CC(=O)OCCOCCOC(=O)c1ccc(-c2c3nc(c(-c4c(F)cc(S(=O)(=O)[O-])cc4F)c4ccc([nH]4)c(-c4c(F)cc(S(=O)(=O)[O-])cc4F)c4nc(c(-c5c(F)cc(S(=O)(=O)[O-])cc5F)c5ccc2[nH]5)C=C4)C=C3)cc1)c1ccc([N+](=O)[O-])cc1Br
REMARK SMILES IDX 11 1 10 2 9 3 8 4 6 5 7 6 5 7 4 8 3 9 2 10 1 11 83 12 84 13
REMARK SMILES IDX 91 14 85 15 90 16 92 17 86 18 87 19 88 20 89 21 12 22 13 23
REMARK SMILES IDX 14 24 15 25 16 26 17 27 18 28 82 29 19 30 81 31 20 32 21 33
REMARK SMILES IDX 22 34 75 35 23 36 80 37 74 38 76 39 24 40 79 41 73 42 72 43
REMARK SMILES IDX 25 45 59 46 38 47 58 48 39 49 42 50 57 51 77 52 40 53 41 54
REMARK SMILES IDX 56 56 78 57 43 58 26 59 27 60 36 61 28 62 29 63 35 64 37 65
REMARK SMILES IDX 30 66 31 67 32 68 33 69 34 70 60 71 61 72 70 73 62 74 63 75
REMARK SMILES IDX 69 76 71 77 64 78 65 79 66 80 67 81 68 82 44 83 45 84 54 85
REMARK SMILES IDX 46 86 47 87 53 88 55 89 48 90 49 91 50 92 51 93 52 94
REMARK H PARENT 76 44 42 55
REMARK Flexibility Score: inf
ROOT
ATOM      1  O   UNL A   1      31.554  29.033  24.162  1.00  0.00    -0.374 OA
ENDROOT
BRANCH   1   2
ATOM      2  C   UNL A   1      31.426  28.408  22.885  1.00  0.00     0.202 C 
BRANCH   2   3
ATOM      3  C   UNL A   1      31.142  26.900  22.893  1.00  0.00     0.261 C 
BRANCH   3   4
ATOM      4  O   UNL A   1      31.500  26.235  21.668  1.00  0.00    -0.462 OA
BRANCH   4   5
ATOM      5  C   UNL A   1      32.689  25.564  21.685  1.00  0.00     0.325 C 
ATOM      6  O   UNL A   1      33.327  25.251  20.684  1.00  0.00    -0.250 OA
BRANCH   5   7
ATOM      7  C   UNL A   1      33.230  25.306  23.092  1.00  0.00     0.239 C 
BRANCH   7   8
ATOM      8  N   UNL A   1      33.203  23.905  23.530  1.00  0.00    -0.356 N 
BRANCH   8   9
ATOM      9  C   UNL A   1      31.980  23.121  23.421  1.00  0.00     0.144 C 
BRANCH   9  10
ATOM     10  C   UNL A   1      32.259  21.888  22.610  1.00  0.00    -0.014 C 
ATOM     11  C   UNL A   1      32.220  20.635  23.083  1.00  0.00     0.006 C 
ENDBRANCH   9  10
ENDBRANCH   8   9
BRANCH   8  12
ATOM     12  C   UNL A   1      34.363  23.332  24.026  1.00  0.00     0.052 A 
ATOM     13  C   UNL A   1      35.459  23.193  23.158  1.00  0.00     0.034 A 
ATOM     14  C   UNL A   1      34.500  22.847  25.344  1.00  0.00     0.048 A 
ATOM     15  C   UNL A   1      36.636  22.555  23.559  1.00  0.00     0.088 A 
ATOM     16  C   UNL A   1      35.685  22.237  25.772  1.00  0.00     0.103 A 
ATOM     17  Br  UNL A   1      33.105  22.992  26.631  1.00  0.00    -0.048 Br
ATOM     18  C   UNL A   1      36.736  22.080  24.867  1.00  0.00     0.270 A 
BRANCH  18  19
ATOM     19  N   UNL A   1      37.944  21.378  25.290  1.00  0.00     0.062 N 
ATOM     20  O   UNL A   1      38.808  22.036  25.885  1.00  0.00    -0.258 OA
ATOM     21  O   UNL A   1      38.038  20.176  25.002  1.00  0.00    -0.258 OA
ENDBRANCH  18  19
ENDBRANCH   8  12
ENDBRANCH   7   8
ENDBRANCH   5   7
ENDBRANCH   4   5
ENDBRANCH   3   4
ENDBRANCH   2   3
ENDBRANCH   1   2
BRANCH   1  22
ATOM     22  C   UNL A   1      32.283  28.325  25.170  1.00  0.00     0.202 C 
BRANCH  22  23
ATOM     23  C   UNL A   1      33.793  28.580  25.198  1.00  0.00     0.261 C 
BRANCH  23  24
ATOM     24  O   UNL A   1      34.271  28.576  26.553  1.00  0.00    -0.460 OA
BRANCH  24  25
ATOM     25  C   UNL A   1      34.401  29.807  27.095  1.00  0.00     0.338 C 
ATOM     26  O   UNL A   1      33.594  30.714  27.056  1.00  0.00    -0.246 OA
BRANCH  25  27
ATOM     27  C   UNL A   1      35.644  29.829  27.884  1.00  0.00     0.060 A 
ATOM     28  C   UNL A   1      36.842  30.110  27.220  1.00  0.00     0.016 A 
ATOM     29  C   UNL A   1      35.640  29.484  29.236  1.00  0.00     0.016 A 
ATOM     30  C   UNL A   1      38.055  29.984  27.899  1.00  0.00     0.010 A 
ATOM     31  C   UNL A   1      36.859  29.375  29.918  1.00  0.00     0.010 A 
ATOM     32  C   UNL A   1      38.076  29.581  29.243  1.00  0.00    -0.014 A 
BRANCH  32  33
ATOM     33  C   UNL A   1      39.373  29.239  29.884  1.00  0.00     0.031 A 
ATOM     34  C   UNL A   1      39.803  29.982  31.123  1.00  0.00     0.074 A 
ATOM     35  C   UNL A   1      40.143  28.245  29.405  1.00  0.00     0.049 A 
ATOM     36  N   UNL A   1      40.863  29.803  31.870  1.00  0.00    -0.248 NA
ATOM     37  C   UNL A   1      38.922  31.069  31.580  1.00  0.00     0.031 C 
ATOM     38  C   UNL A   1      39.842  27.437  28.225  1.00  0.00     0.029 A 
ATOM     39  N   UNL A   1      41.338  27.744  29.860  1.00  0.00    -0.354 N 
ATOM     40  C   UNL A   1      40.775  30.748  32.886  1.00  0.00     0.074 A 
ATOM     41  C   UNL A   1      39.578  31.524  32.636  1.00  0.00     0.031 C 
ATOM     42  C   UNL A   1      40.826  26.536  28.052  1.00  0.00     0.029 A 
ATOM     43  C   UNL A   1      41.832  26.714  29.098  1.00  0.00     0.049 A 
ATOM     44  H   UNL A   1      41.797  28.090  30.660  1.00  0.00     0.167 HD
ATOM     45  C   UNL A   1      41.602  30.943  33.941  1.00  0.00     0.037 A 
ATOM     46  C   UNL A   1      42.966  25.995  29.225  1.00  0.00     0.037 A 
ATOM     47  C   UNL A   1      42.791  30.175  34.199  1.00  0.00     0.049 A 
ATOM     48  C   UNL A   1      43.898  26.261  30.378  1.00  0.00     0.074 A 
ATOM     49  C   UNL A   1      43.670  30.282  35.264  1.00  0.00     0.029 A 
ATOM     50  N   UNL A   1      43.275  29.166  33.382  1.00  0.00    -0.354 N 
ATOM     51  N   UNL A   1      43.774  27.127  31.355  1.00  0.00    -0.248 NA
ATOM     52  C   UNL A   1      45.120  25.448  30.448  1.00  0.00     0.031 C 
ATOM     53  C   UNL A   1      44.708  29.363  35.070  1.00  0.00     0.029 A 
ATOM     54  C   UNL A   1      44.454  28.659  33.903  1.00  0.00     0.049 A 
ATOM     55  H   UNL A   1      42.845  28.856  32.553  1.00  0.00     0.167 HD
ATOM     56  C   UNL A   1      44.890  26.948  32.165  1.00  0.00     0.074 A 
ATOM     57  C   UNL A   1      45.674  25.887  31.570  1.00  0.00     0.031 C 
ATOM     58  C   UNL A   1      45.232  27.604  33.302  1.00  0.00     0.037 A 
BRANCH  45  59
ATOM     59  C   UNL A   1      41.247  32.049  34.895  1.00  0.00     0.058 A 
ATOM     60  C   UNL A   1      40.379  31.833  35.977  1.00  0.00     0.135 A 
ATOM     61  C   UNL A   1      41.794  33.331  34.735  1.00  0.00     0.135 A 
ATOM     62  F   UNL A   1      39.817  30.629  36.164  1.00  0.00    -0.206 F 
ATOM     63  C   UNL A   1      40.040  32.861  36.851  1.00  0.00     0.059 A 
ATOM     64  C   UNL A   1      41.486  34.368  35.610  1.00  0.00     0.059 A 
ATOM     65  F   UNL A   1      42.629  33.588  33.717  1.00  0.00    -0.206 F 
ATOM     66  C   UNL A   1      40.594  34.128  36.655  1.00  0.00     0.060 A 
BRANCH  66  67
ATOM     67  S   UNL A   1      40.135  35.458  37.785  1.00  0.00     0.124 S 
ATOM     68  O   UNL A   1      38.939  34.904  38.413  1.00  0.00    -0.237 OA
ATOM     69  O   UNL A   1      41.310  35.562  38.644  1.00  0.00    -0.237 OA
ATOM     70  O   UNL A   1      39.910  36.594  36.897  1.00  0.00    -0.744 OA
ENDBRANCH  66  67
ENDBRANCH  45  59
BRANCH  46  71
ATOM     71  C   UNL A   1      43.280  24.937  28.231  1.00  0.00     0.058 A 
ATOM     72  C   UNL A   1      42.928  23.599  28.462  1.00  0.00     0.135 A 
ATOM     73  C   UNL A   1      43.925  25.247  27.024  1.00  0.00     0.135 A 
ATOM     74  F   UNL A   1      42.320  23.254  29.607  1.00  0.00    -0.206 F 
ATOM     75  C   UNL A   1      43.206  22.603  27.532  1.00  0.00     0.059 A 
ATOM     76  C   UNL A   1      44.197  24.272  26.071  1.00  0.00     0.059 A 
ATOM     77  F   UNL A   1      44.275  26.514  26.756  1.00  0.00    -0.206 F 
ATOM     78  C   UNL A   1      43.837  22.952  26.335  1.00  0.00     0.060 A 
BRANCH  78  79
ATOM     79  S   UNL A   1      44.128  21.667  25.100  1.00  0.00     0.124 S 
ATOM     80  O   UNL A   1      45.470  21.220  25.452  1.00  0.00    -0.237 OA
ATOM     81  O   UNL A   1      43.046  20.725  25.375  1.00  0.00    -0.237 OA
ATOM     82  O   UNL A   1      44.012  22.388  23.836  1.00  0.00    -0.744 OA
ENDBRANCH  78  79
ENDBRANCH  46  71
BRANCH  58  83
ATOM     83  C   UNL A   1      46.502  27.188  33.991  1.00  0.00     0.058 A 
ATOM     84  C   UNL A   1      46.514  26.162  34.949  1.00  0.00     0.135 A 
ATOM     85  C   UNL A   1      47.727  27.786  33.655  1.00  0.00     0.135 A 
ATOM     86  F   UNL A   1      45.369  25.562  35.311  1.00  0.00    -0.206 F 
ATOM     87  C   UNL A   1      47.695  25.755  35.562  1.00  0.00     0.059 A 
ATOM     88  C   UNL A   1      48.923  27.380  34.239  1.00  0.00     0.059 A 
ATOM     89  F   UNL A   1      47.771  28.765  32.737  1.00  0.00    -0.206 F 
ATOM     90  C   UNL A   1      48.896  26.371  35.202  1.00  0.00     0.060 A 
BRANCH  90  91
ATOM     91  S   UNL A   1      50.427  25.813  35.979  1.00  0.00     0.124 S 
ATOM     92  O   UNL A   1      51.370  25.909  34.870  1.00  0.00    -0.237 OA
ATOM     93  O   UNL A   1      50.611  26.786  37.053  1.00  0.00    -0.237 OA
ATOM     94  O   UNL A   1      50.109  24.458  36.419  1.00  0.00    -0.744 OA
ENDBRANCH  90  91
ENDBRANCH  58  83
ENDBRANCH  32  33
ENDBRANCH  25  27
ENDBRANCH  24  25
ENDBRANCH  23  24
ENDBRANCH  22  23
ENDBRANCH   1  22
TORSDOF 22
ENDMDL
MODEL 3
REMARK VINA RESULT:     -10.2      5.048      6.422
REMARK SMILES C=CCN(CC(=O)OCCOCCOC(=O)c1ccc(-c2c3nc(c(-c4c(F)cc(S(=O)(=O)[O-])cc4F)c4ccc([nH]4)c(-c4c(F)cc(S(=O)(=O)[O-])cc4F)c4nc(c(-c5c(F)cc(S(=O)(=O)[O-])cc5F)c5ccc2[nH]5)C=C4)C=C3)cc1)c1ccc([N+](=O)[O-])cc1Br
REMARK SMILES IDX 11 1 10 2 9 3 8 4 6 5 7 6 5 7 4 8 3 9 2 10 1 11 83 12 84 13
REMARK SMILES IDX 91 14 85 15 90 16 92 17 86 18 87 19 88 20 89 21 12 22 13 23
REMARK SMILES IDX 14 24 15 25 16 26 17 27 18 28 82 29 19 30 81 31 20 32 21 33
REMARK SMILES IDX 22 34 75 35 23 36 80 37 74 38 76 39 24 40 79 41 73 42 72 43
REMARK SMILES IDX 25 45 59 46 38 47 58 48 39 49 42 50 57 51 77 52 40 53 41 54
REMARK SMILES IDX 56 56 78 57 43 58 26 59 27 60 36 61 28 62 29 63 35 64 37 65
REMARK SMILES IDX 30 66 31 67 32 68 33 69 34 70 60 71 61 72 70 73 62 74 63 75
REMARK SMILES IDX 69 76 71 77 64 78 65 79 66 80 67 81 68 82 44 83 45 84 54 85
REMARK SMILES IDX 46 86 47 87 53 88 55 89 48 90 49 91 50 92 51 93 52 94
REMARK H PARENT 76 44 42 55
REMARK Flexibility Score: inf
ROOT
ATOM      1  O   UNL A   1      35.201  21.754  24.596  1.00  0.00    -0.374 OA
ENDROOT
BRANCH   1   2
ATOM      2  C   UNL A   1      34.563  22.682  25.473  1.00  0.00     0.202 C 
BRANCH   2   3
ATOM      3  C   UNL A   1      33.424  22.126  26.338  1.00  0.00     0.261 C 
BRANCH   3   4
ATOM      4  O   UNL A   1      32.548  23.139  26.867  1.00  0.00    -0.462 OA
BRANCH   4   5
ATOM      5  C   UNL A   1      31.785  23.799  25.949  1.00  0.00     0.325 C 
ATOM      6  O   UNL A   1      31.039  23.254  25.140  1.00  0.00    -0.250 OA
BRANCH   5   7
ATOM      7  C   UNL A   1      31.859  25.322  26.068  1.00  0.00     0.239 C 
BRANCH   7   8
ATOM      8  N   UNL A   1      32.100  26.041  24.811  1.00  0.00    -0.356 N 
BRANCH   8   9
ATOM      9  C   UNL A   1      33.339  25.842  24.071  1.00  0.00     0.144 C 
BRANCH   9  10
ATOM     10  C   UNL A   1      33.015  25.322  22.701  1.00  0.00    -0.014 C 
ATOM     11  C   UNL A   1      33.030  24.029  22.348  1.00  0.00     0.006 C 
ENDBRANCH   9  10
ENDBRANCH   8   9
BRANCH   8  12
ATOM     12  C   UNL A   1      31.121  26.893  24.324  1.00  0.00     0.052 A 
ATOM     13  C   UNL A   1      29.861  26.351  24.015  1.00  0.00     0.034 A 
ATOM     14  C   UNL A   1      31.322  28.270  24.087  1.00  0.00     0.048 A 
ATOM     15  C   UNL A   1      28.848  27.127  23.447  1.00  0.00     0.088 A 
ATOM     16  C   UNL A   1      30.306  29.069  23.551  1.00  0.00     0.103 A 
ATOM     17  Br  UNL A   1      32.969  29.139  24.481  1.00  0.00    -0.048 Br
ATOM     18  C   UNL A   1      29.083  28.483  23.218  1.00  0.00     0.270 A 
BRANCH  18  19
ATOM     19  N   UNL A   1      28.047  29.300  22.591  1.00  0.00     0.062 N 
ATOM     20  O   UNL A   1      26.999  29.478  23.226  1.00  0.00    -0.258 OA
ATOM     21  O   UNL A   1      28.275  29.739  21.455  1.00  0.00    -0.258 OA
ENDBRANCH  18  19
ENDBRANCH   8  12
ENDBRANCH   7   8
ENDBRANCH   5   7
ENDBRANCH   4   5
ENDBRANCH   3   4
ENDBRANCH   2   3
ENDBRANCH   1   2
BRANCH   1  22
ATOM     22  C   UNL A   1      36.521  22.075  24.147  1.00  0.00     0.202 C 
BRANCH  22  23
ATOM     23  C   UNL A   1      37.664  21.395  24.908  1.00  0.00     0.261 C 
BRANCH  23  24
ATOM     24  O   UNL A   1      38.058  22.199  26.030  1.00  0.00    -0.460 OA
BRANCH  24  25
ATOM     25  C   UNL A   1      39.376  22.135  26.319  1.00  0.00     0.338 C 
ATOM     26  O   UNL A   1      40.162  21.275  25.973  1.00  0.00    -0.246 OA
BRANCH  25  27
ATOM     27  C   UNL A   1      39.753  23.376  27.018  1.00  0.00     0.060 A 
ATOM     28  C   UNL A   1      39.129  24.566  26.630  1.00  0.00     0.016 A 
ATOM     29  C   UNL A   1      40.772  23.380  27.970  1.00  0.00     0.016 A 
ATOM     30  C   UNL A   1      39.571  25.781  27.155  1.00  0.00     0.010 A 
ATOM     31  C   UNL A   1      41.202  24.600  28.507  1.00  0.00     0.010 A 
ATOM     32  C   UNL A   1      40.635  25.811  28.070  1.00  0.00    -0.014 A 
BRANCH  32  33
ATOM     33  C   UNL A   1      41.237  27.117  28.448  1.00  0.00     0.031 A 
ATOM     34  C   UNL A   1      42.716  27.334  28.250  1.00  0.00     0.074 A 
ATOM     35  C   UNL A   1      40.475  28.122  28.919  1.00  0.00     0.049 A 
ATOM     36  N   UNL A   1      43.429  28.412  28.458  1.00  0.00    -0.248 NA
ATOM     37  C   UNL A   1      43.490  26.187  27.752  1.00  0.00     0.031 C 
ATOM     38  C   UNL A   1      39.033  28.054  29.146  1.00  0.00     0.029 A 
ATOM     39  N   UNL A   1      40.813  29.402  29.283  1.00  0.00    -0.354 N 
ATOM     40  C   UNL A   1      44.733  28.076  28.112  1.00  0.00     0.074 A 
ATOM     41  C   UNL A   1      44.718  26.682  27.718  1.00  0.00     0.031 C 
ATOM     42  C   UNL A   1      38.609  29.243  29.608  1.00  0.00     0.029 A 
ATOM     43  C   UNL A   1      39.749  30.151  29.723  1.00  0.00     0.049 A 
ATOM     44  H   UNL A   1      41.733  29.751  29.233  1.00  0.00     0.167 HD
ATOM     45  C   UNL A   1      45.840  28.856  28.104  1.00  0.00     0.037 A 
ATOM     46  C   UNL A   1      39.697  31.422  30.170  1.00  0.00     0.037 A 
ATOM     47  C   UNL A   1      45.864  30.242  28.489  1.00  0.00     0.049 A 
ATOM     48  C   UNL A   1      40.949  32.259  30.200  1.00  0.00     0.074 A 
ATOM     49  C   UNL A   1      46.935  31.120  28.479  1.00  0.00     0.029 A 
ATOM     50  N   UNL A   1      44.773  30.952  28.964  1.00  0.00    -0.354 N 
ATOM     51  N   UNL A   1      42.164  31.938  29.824  1.00  0.00    -0.248 NA
ATOM     52  C   UNL A   1      40.822  33.632  30.709  1.00  0.00     0.031 C 
ATOM     53  C   UNL A   1      46.500  32.350  28.985  1.00  0.00     0.029 A 
ATOM     54  C   UNL A   1      45.149  32.248  29.276  1.00  0.00     0.049 A 
ATOM     55  H   UNL A   1      43.864  30.587  29.066  1.00  0.00     0.167 HD
ATOM     56  C   UNL A   1      42.939  33.075  30.032  1.00  0.00     0.074 A 
ATOM     57  C   UNL A   1      42.056  34.093  30.559  1.00  0.00     0.031 C 
ATOM     58  C   UNL A   1      44.264  33.256  29.804  1.00  0.00     0.037 A 
BRANCH  45  59
ATOM     59  C   UNL A   1      47.128  28.216  27.669  1.00  0.00     0.058 A 
ATOM     60  C   UNL A   1      47.487  28.138  26.314  1.00  0.00     0.135 A 
ATOM     61  C   UNL A   1      48.018  27.691  28.618  1.00  0.00     0.135 A 
ATOM     62  F   UNL A   1      46.663  28.611  25.367  1.00  0.00    -0.206 F 
ATOM     63  C   UNL A   1      48.673  27.531  25.912  1.00  0.00     0.059 A 
ATOM     64  C   UNL A   1      49.220  27.099  28.240  1.00  0.00     0.059 A 
ATOM     65  F   UNL A   1      47.721  27.741  29.926  1.00  0.00    -0.206 F 
ATOM     66  C   UNL A   1      49.530  27.009  26.883  1.00  0.00     0.060 A 
BRANCH  66  67
ATOM     67  S   UNL A   1      51.058  26.210  26.349  1.00  0.00     0.124 S 
ATOM     68  O   UNL A   1      50.986  26.385  24.902  1.00  0.00    -0.237 OA
ATOM     69  O   UNL A   1      52.080  26.997  27.031  1.00  0.00    -0.237 OA
ATOM     70  O   UNL A   1      50.908  24.838  26.824  1.00  0.00    -0.744 OA
ENDBRANCH  66  67
ENDBRANCH  45  59
BRANCH  46  71
ATOM     71  C   UNL A   1      38.400  31.991  30.619  1.00  0.00     0.058 A 
ATOM     72  C   UNL A   1      37.989  31.890  31.956  1.00  0.00     0.135 A 
ATOM     73  C   UNL A   1      37.555  32.659  29.720  1.00  0.00     0.135 A 
ATOM     74  F   UNL A   1      38.761  31.250  32.848  1.00  0.00    -0.206 F 
ATOM     75  C   UNL A   1      36.783  32.430  32.388  1.00  0.00     0.059 A 
ATOM     76  C   UNL A   1      36.353  33.223  30.133  1.00  0.00     0.059 A 
ATOM     77  F   UNL A   1      37.908  32.786  28.433  1.00  0.00    -0.206 F 
ATOM     78  C   UNL A   1      35.974  33.100  31.469  1.00  0.00     0.060 A 
BRANCH  78  79
ATOM     79  S   UNL A   1      34.444  33.864  32.052  1.00  0.00     0.124 S 
ATOM     80  O   UNL A   1      33.782  32.738  32.699  1.00  0.00    -0.237 OA
ATOM     81  O   UNL A   1      34.942  34.910  32.941  1.00  0.00    -0.237 OA
ATOM     82  O   UNL A   1      33.822  34.344  30.821  1.00  0.00    -0.744 OA
ENDBRANCH  78  79
ENDBRANCH  46  71
BRANCH  58  83
ATOM     83  C   UNL A   1      44.843  34.610  30.107  1.00  0.00     0.058 A 
ATOM     84  C   UNL A   1      44.899  35.619  29.132  1.00  0.00     0.135 A 
ATOM     85  C   UNL A   1      45.300  34.919  31.398  1.00  0.00     0.135 A 
ATOM     86  F   UNL A   1      44.481  35.373  27.881  1.00  0.00    -0.206 F 
ATOM     87  C   UNL A   1      45.405  36.883  29.423  1.00  0.00     0.059 A 
ATOM     88  C   UNL A   1      45.790  36.183  31.717  1.00  0.00     0.059 A 
ATOM     89  F   UNL A   1      45.259  33.993  32.369  1.00  0.00    -0.206 F 
ATOM     90  C   UNL A   1      45.850  37.155  30.718  1.00  0.00     0.060 A 
BRANCH  90  91
ATOM     91  S   UNL A   1      46.474  38.807  31.094  1.00  0.00     0.124 S 
ATOM     92  O   UNL A   1      46.887  39.271  29.773  1.00  0.00    -0.237 OA
ATOM     93  O   UNL A   1      45.302  39.468  31.660  1.00  0.00    -0.237 OA
ATOM     94  O   UNL A   1      47.559  38.553  32.038  1.00  0.00    -0.744 OA
ENDBRANCH  90  91
ENDBRANCH  58  83
ENDBRANCH  32  33
ENDBRANCH  25  27
ENDBRANCH  24  25
ENDBRANCH  23  24
ENDBRANCH  22  23
ENDBRANCH   1  22
TORSDOF 22
ENDMDL
