MODEL 1
REMARK VINA RESULT:     -11.4      0.000      0.000
REMARK SMILES O=C(OCCOCCOC(=O)[C@H]1C[C@](O)(c2ccccc2Cl)[C@@H](c2ccccc2Cl)O1)c1ccc(-c2c3nc(c(-c4c(F)cc(S(=O)(=O)[O-])cc4F)c4ccc([nH]4)c(-c4c(F)cc(S(=O)(=O)[O-])cc4F)c4nc(c(-c5c(F)cc(S(=O)(=O)[O-])cc5F)c5ccc2[nH]5)C=C4)C=C3)cc1
REMARK SMILES IDX 5 1 4 2 3 3 2 4 1 5 32 6 33 7 97 8 34 9 96 10 35 11 36 12
REMARK SMILES IDX 37 13 90 14 38 15 95 16 89 17 91 18 39 19 94 20 88 21 87 22
REMARK SMILES IDX 40 24 74 25 53 26 73 27 54 28 57 29 72 30 92 31 55 32 56 33
REMARK SMILES IDX 71 35 93 36 58 37 41 38 42 39 51 40 43 41 44 42 50 43 52 44
REMARK SMILES IDX 45 45 46 46 47 47 48 48 49 49 75 50 76 51 85 52 77 53 78 54
REMARK SMILES IDX 84 55 86 56 79 57 80 58 81 59 82 60 83 61 59 62 60 63 69 64
REMARK SMILES IDX 61 65 62 66 68 67 70 68 63 69 64 70 65 71 66 72 67 73 6 74
REMARK SMILES IDX 7 75 8 76 9 77 10 78 11 79 12 80 13 81 31 82 14 83 23 84
REMARK SMILES IDX 16 85 17 86 21 87 18 88 20 89 22 90 19 91 15 92 24 94 25 95
REMARK SMILES IDX 29 96 26 97 28 98 30 99 27 100
REMARK H PARENT 91 23 57 34 15 93
REMARK Flexibility Score: inf
ROOT
ATOM      1  C   UNL A   1      42.120  22.453  26.287  1.00  0.00     0.202 C 
ENDROOT
BRANCH   1   2
ATOM      2  C   UNL A   1      42.719  23.883  26.187  1.00  0.00     0.261 C 
BRANCH   2   3
ATOM      3  O   UNL A   1      41.808  24.882  25.678  1.00  0.00    -0.460 OA
BRANCH   3   4
ATOM      4  C   UNL A   1      41.981  26.235  25.761  1.00  0.00     0.338 C 
ATOM      5  O   UNL A   1      42.454  26.844  24.805  1.00  0.00    -0.246 OA
BRANCH   4   6
ATOM      6  C   UNL A   1      41.713  26.975  27.032  1.00  0.00     0.060 A 
ATOM      7  C   UNL A   1      42.254  28.228  27.269  1.00  0.00     0.016 A 
ATOM      8  C   UNL A   1      40.833  26.461  27.998  1.00  0.00     0.016 A 
ATOM      9  C   UNL A   1      42.005  28.955  28.400  1.00  0.00     0.010 A 
ATOM     10  C   UNL A   1      40.527  27.210  29.149  1.00  0.00     0.010 A 
ATOM     11  C   UNL A   1      41.117  28.465  29.337  1.00  0.00    -0.014 A 
BRANCH  11  12
ATOM     12  C   UNL A   1      40.987  29.321  30.521  1.00  0.00     0.031 A 
ATOM     13  C   UNL A   1      39.824  30.257  30.571  1.00  0.00     0.074 A 
ATOM     14  C   UNL A   1      41.694  28.992  31.620  1.00  0.00     0.049 A 
ATOM     15  N   UNL A   1      39.447  31.047  31.534  1.00  0.00    -0.248 NA
ATOM     16  C   UNL A   1      38.939  30.273  29.391  1.00  0.00     0.031 C 
ATOM     17  C   UNL A   1      42.679  27.902  31.691  1.00  0.00     0.029 A 
ATOM     18  N   UNL A   1      41.643  29.467  32.899  1.00  0.00    -0.354 N 
ATOM     19  C   UNL A   1      38.307  31.685  31.064  1.00  0.00     0.074 A 
ATOM     20  C   UNL A   1      38.036  31.175  29.742  1.00  0.00     0.031 C 
ATOM     21  C   UNL A   1      43.113  27.778  32.954  1.00  0.00     0.029 A 
ATOM     22  C   UNL A   1      42.511  28.833  33.758  1.00  0.00     0.049 A 
ATOM     23  H   UNL A   1      41.043  30.196  33.179  1.00  0.00     0.167 HD
ATOM     24  C   UNL A   1      37.578  32.634  31.692  1.00  0.00     0.037 A 
ATOM     25  C   UNL A   1      42.812  29.117  35.038  1.00  0.00     0.037 A 
ATOM     26  C   UNL A   1      37.901  33.108  33.010  1.00  0.00     0.049 A 
ATOM     27  C   UNL A   1      42.085  30.277  35.664  1.00  0.00     0.074 A 
ATOM     28  C   UNL A   1      37.340  34.149  33.720  1.00  0.00     0.029 A 
ATOM     29  N   UNL A   1      38.889  32.551  33.817  1.00  0.00    -0.354 N 
ATOM     30  N   UNL A   1      41.102  30.993  35.165  1.00  0.00    -0.248 NA
ATOM     31  C   UNL A   1      42.519  30.693  37.000  1.00  0.00     0.031 C 
ATOM     32  C   UNL A   1      38.021  34.251  34.939  1.00  0.00     0.029 A 
ATOM     33  C   UNL A   1      38.968  33.238  35.011  1.00  0.00     0.049 A 
ATOM     34  H   UNL A   1      39.449  31.779  33.572  1.00  0.00     0.167 HD
ATOM     35  C   UNL A   1      40.793  31.940  36.130  1.00  0.00     0.074 A 
ATOM     36  C   UNL A   1      41.680  31.689  37.252  1.00  0.00     0.031 C 
ATOM     37  C   UNL A   1      39.869  32.934  36.098  1.00  0.00     0.037 A 
BRANCH  24  38
ATOM     38  C   UNL A   1      36.473  33.276  30.905  1.00  0.00     0.058 A 
ATOM     39  C   UNL A   1      36.717  34.098  29.794  1.00  0.00     0.135 A 
ATOM     40  C   UNL A   1      35.140  33.112  31.319  1.00  0.00     0.135 A 
ATOM     41  F   UNL A   1      37.974  34.324  29.383  1.00  0.00    -0.206 F 
ATOM     42  C   UNL A   1      35.680  34.757  29.137  1.00  0.00     0.059 A 
ATOM     43  C   UNL A   1      34.087  33.743  30.664  1.00  0.00     0.059 A 
ATOM     44  F   UNL A   1      34.854  32.356  32.390  1.00  0.00    -0.206 F 
ATOM     45  C   UNL A   1      34.369  34.578  29.585  1.00  0.00     0.060 A 
BRANCH  45  46
ATOM     46  S   UNL A   1      33.038  35.463  28.746  1.00  0.00     0.124 S 
ATOM     47  O   UNL A   1      32.211  35.881  29.875  1.00  0.00    -0.237 OA
ATOM     48  O   UNL A   1      33.758  36.531  28.060  1.00  0.00    -0.237 OA
ATOM     49  O   UNL A   1      32.448  34.448  27.878  1.00  0.00    -0.744 OA
ENDBRANCH  45  46
ENDBRANCH  24  38
BRANCH  25  50
ATOM     50  C   UNL A   1      43.895  28.382  35.749  1.00  0.00     0.058 A 
ATOM     51  C   UNL A   1      45.246  28.725  35.602  1.00  0.00     0.135 A 
ATOM     52  C   UNL A   1      43.594  27.296  36.592  1.00  0.00     0.135 A 
ATOM     53  F   UNL A   1      45.596  29.746  34.805  1.00  0.00    -0.206 F 
ATOM     54  C   UNL A   1      46.257  28.012  36.246  1.00  0.00     0.059 A 
ATOM     55  C   UNL A   1      44.581  26.590  37.270  1.00  0.00     0.059 A 
ATOM     56  F   UNL A   1      42.318  26.921  36.777  1.00  0.00    -0.206 F 
ATOM     57  C   UNL A   1      45.913  26.945  37.078  1.00  0.00     0.060 A 
BRANCH  57  58
ATOM     58  S   UNL A   1      47.225  26.035  37.923  1.00  0.00     0.124 S 
ATOM     59  O   UNL A   1      47.019  26.441  39.307  1.00  0.00    -0.237 OA
ATOM     60  O   UNL A   1      46.892  24.650  37.605  1.00  0.00    -0.237 OA
ATOM     61  O   UNL A   1      48.443  26.538  37.293  1.00  0.00    -0.744 OA
ENDBRANCH  57  58
ENDBRANCH  25  50
BRANCH  37  62
ATOM     62  C   UNL A   1      39.759  33.788  37.323  1.00  0.00     0.058 A 
ATOM     63  C   UNL A   1      40.514  34.962  37.469  1.00  0.00     0.135 A 
ATOM     64  C   UNL A   1      38.834  33.462  38.326  1.00  0.00     0.135 A 
ATOM     65  F   UNL A   1      41.417  35.306  36.538  1.00  0.00    -0.206 F 
ATOM     66  C   UNL A   1      40.365  35.778  38.582  1.00  0.00     0.059 A 
ATOM     67  C   UNL A   1      38.648  34.280  39.433  1.00  0.00     0.059 A 
ATOM     68  F   UNL A   1      38.083  32.354  38.221  1.00  0.00    -0.206 F 
ATOM     69  C   UNL A   1      39.425  35.431  39.555  1.00  0.00     0.060 A 
BRANCH  69  70
ATOM     70  S   UNL A   1      39.201  36.528  40.969  1.00  0.00     0.124 S 
ATOM     71  O   UNL A   1      38.361  35.714  41.840  1.00  0.00    -0.237 OA
ATOM     72  O   UNL A   1      40.574  36.735  41.422  1.00  0.00    -0.237 OA
ATOM     73  O   UNL A   1      38.556  37.701  40.388  1.00  0.00    -0.744 OA
ENDBRANCH  69  70
ENDBRANCH  37  62
ENDBRANCH  11  12
ENDBRANCH   4   6
ENDBRANCH   3   4
ENDBRANCH   2   3
ENDBRANCH   1   2
BRANCH   1  74
ATOM     74  O   UNL A   1      40.757  22.214  25.928  1.00  0.00    -0.374 OA
BRANCH  74  75
ATOM     75  C   UNL A   1      40.157  20.966  26.275  1.00  0.00     0.202 C 
BRANCH  75  76
ATOM     76  C   UNL A   1      38.773  20.804  25.651  1.00  0.00     0.261 C 
BRANCH  76  77
ATOM     77  O   UNL A   1      37.906  21.824  26.172  1.00  0.00    -0.461 OA
BRANCH  77  78
ATOM     78  C   UNL A   1      37.274  22.623  25.271  1.00  0.00     0.335 C 
ATOM     79  O   UNL A   1      37.578  23.770  24.996  1.00  0.00    -0.249 OA
BRANCH  78  80
ATOM     80  C   UNL A   1      36.229  21.811  24.495  1.00  0.00     0.232 C 
ATOM     81  C   UNL A   1      35.153  21.309  25.450  1.00  0.00     0.087 C 
ATOM     82  O   UNL A   1      35.574  22.563  23.469  1.00  0.00    -0.355 OA
ATOM     83  C   UNL A   1      33.851  21.419  24.678  1.00  0.00     0.124 C 
ATOM     84  C   UNL A   1      34.154  22.626  23.741  1.00  0.00     0.187 C 
BRANCH  83  85
ATOM     85  C   UNL A   1      33.486  20.049  24.072  1.00  0.00     0.005 A 
ATOM     86  C   UNL A   1      34.150  18.918  24.630  1.00  0.00     0.008 A 
ATOM     87  C   UNL A   1      32.573  19.777  23.037  1.00  0.00     0.047 A 
ATOM     88  C   UNL A   1      33.849  17.606  24.263  1.00  0.00     0.001 A 
ATOM     89  C   UNL A   1      32.268  18.452  22.678  1.00  0.00     0.021 A 
ATOM     90  Cl  UNL A   1      31.778  20.964  22.072  1.00  0.00    -0.084 Cl
ATOM     91  C   UNL A   1      32.885  17.370  23.300  1.00  0.00     0.002 A 
ENDBRANCH  83  85
BRANCH  83  92
ATOM     92  O   UNL A   1      32.735  21.733  25.531  1.00  0.00    -0.382 OA
ATOM     93  H   UNL A   1      31.950  21.250  25.229  1.00  0.00     0.212 HD
ENDBRANCH  83  92
BRANCH  84  94
ATOM     94  C   UNL A   1      33.890  24.076  24.156  1.00  0.00     0.003 A 
ATOM     95  C   UNL A   1      34.225  24.596  25.421  1.00  0.00     0.008 A 
ATOM     96  C   UNL A   1      33.351  24.988  23.224  1.00  0.00     0.046 A 
ATOM     97  C   UNL A   1      34.028  25.943  25.749  1.00  0.00     0.000 A 
ATOM     98  C   UNL A   1      33.152  26.336  23.553  1.00  0.00     0.021 A 
ATOM     99  Cl  UNL A   1      32.902  24.516  21.617  1.00  0.00    -0.084 Cl
ATOM    100  C   UNL A   1      33.492  26.814  24.815  1.00  0.00     0.002 A 
ENDBRANCH  84  94
ENDBRANCH  78  80
ENDBRANCH  77  78
ENDBRANCH  76  77
ENDBRANCH  75  76
ENDBRANCH  74  75
ENDBRANCH   1  74
TORSDOF 20
ENDMDL
MODEL 2
REMARK VINA RESULT:     -11.2      1.286      3.203
REMARK SMILES O=C(OCCOCCOC(=O)[C@H]1C[C@](O)(c2ccccc2Cl)[C@@H](c2ccccc2Cl)O1)c1ccc(-c2c3nc(c(-c4c(F)cc(S(=O)(=O)[O-])cc4F)c4ccc([nH]4)c(-c4c(F)cc(S(=O)(=O)[O-])cc4F)c4nc(c(-c5c(F)cc(S(=O)(=O)[O-])cc5F)c5ccc2[nH]5)C=C4)C=C3)cc1
REMARK SMILES IDX 5 1 4 2 3 3 2 4 1 5 32 6 33 7 97 8 34 9 96 10 35 11 36 12
REMARK SMILES IDX 37 13 90 14 38 15 95 16 89 17 91 18 39 19 94 20 88 21 87 22
REMARK SMILES IDX 40 24 74 25 53 26 73 27 54 28 57 29 72 30 92 31 55 32 56 33
REMARK SMILES IDX 71 35 93 36 58 37 41 38 42 39 51 40 43 41 44 42 50 43 52 44
REMARK SMILES IDX 45 45 46 46 47 47 48 48 49 49 75 50 76 51 85 52 77 53 78 54
REMARK SMILES IDX 84 55 86 56 79 57 80 58 81 59 82 60 83 61 59 62 60 63 69 64
REMARK SMILES IDX 61 65 62 66 68 67 70 68 63 69 64 70 65 71 66 72 67 73 6 74
REMARK SMILES IDX 7 75 8 76 9 77 10 78 11 79 12 80 13 81 31 82 14 83 23 84
REMARK SMILES IDX 16 85 17 86 21 87 18 88 20 89 22 90 19 91 15 92 24 94 25 95
REMARK SMILES IDX 29 96 26 97 28 98 30 99 27 100
REMARK H PARENT 91 23 57 34 15 93
REMARK Flexibility Score: inf
ROOT
ATOM      1  C   UNL A   1      41.112  21.598  26.409  1.00  0.00     0.202 C 
ENDROOT
BRANCH   1   2
ATOM      2  C   UNL A   1      41.287  22.849  27.315  1.00  0.00     0.261 C 
BRANCH   2   3
ATOM      3  O   UNL A   1      41.924  23.973  26.669  1.00  0.00    -0.460 OA
BRANCH   3   4
ATOM      4  C   UNL A   1      41.378  25.216  26.510  1.00  0.00     0.338 C 
ATOM      5  O   UNL A   1      41.132  25.628  25.379  1.00  0.00    -0.246 OA
BRANCH   4   6
ATOM      6  C   UNL A   1      41.180  26.132  27.675  1.00  0.00     0.060 A 
ATOM      7  C   UNL A   1      42.039  27.192  27.916  1.00  0.00     0.016 A 
ATOM      8  C   UNL A   1      40.066  26.001  28.518  1.00  0.00     0.016 A 
ATOM      9  C   UNL A   1      41.873  28.076  28.946  1.00  0.00     0.010 A 
ATOM     10  C   UNL A   1      39.851  26.924  29.558  1.00  0.00     0.010 A 
ATOM     11  C   UNL A   1      40.762  27.967  29.760  1.00  0.00    -0.014 A 
BRANCH  11  12
ATOM     12  C   UNL A   1      40.741  28.945  30.853  1.00  0.00     0.031 A 
ATOM     13  C   UNL A   1      39.647  29.961  30.848  1.00  0.00     0.074 A 
ATOM     14  C   UNL A   1      41.472  28.677  31.954  1.00  0.00     0.049 A 
ATOM     15  N   UNL A   1      39.366  30.869  31.738  1.00  0.00    -0.248 NA
ATOM     16  C   UNL A   1      38.715  29.922  29.706  1.00  0.00     0.031 C 
ATOM     17  C   UNL A   1      42.383  27.532  32.101  1.00  0.00     0.029 A 
ATOM     18  N   UNL A   1      41.508  29.281  33.178  1.00  0.00    -0.354 N 
ATOM     19  C   UNL A   1      38.253  31.537  31.246  1.00  0.00     0.074 A 
ATOM     20  C   UNL A   1      37.891  30.917  29.994  1.00  0.00     0.031 C 
ATOM     21  C   UNL A   1      42.861  27.505  33.354  1.00  0.00     0.029 A 
ATOM     22  C   UNL A   1      42.366  28.675  34.066  1.00  0.00     0.049 A 
ATOM     23  H   UNL A   1      40.970  30.075  33.403  1.00  0.00     0.167 HD
ATOM     24  C   UNL A   1      37.617  32.593  31.798  1.00  0.00     0.037 A 
ATOM     25  C   UNL A   1      42.741  29.064  35.298  1.00  0.00     0.037 A 
ATOM     26  C   UNL A   1      38.028  33.172  33.048  1.00  0.00     0.049 A 
ATOM     27  C   UNL A   1      42.122  30.330  35.827  1.00  0.00     0.074 A 
ATOM     28  C   UNL A   1      37.569  34.317  33.667  1.00  0.00     0.029 A 
ATOM     29  N   UNL A   1      39.010  32.630  33.872  1.00  0.00    -0.354 N 
ATOM     30  N   UNL A   1      41.169  31.060  35.293  1.00  0.00    -0.248 NA
ATOM     31  C   UNL A   1      42.640  30.845  37.097  1.00  0.00     0.031 C 
ATOM     32  C   UNL A   1      38.308  34.492  34.844  1.00  0.00     0.029 A 
ATOM     33  C   UNL A   1      39.186  33.426  34.986  1.00  0.00     0.049 A 
ATOM     34  H   UNL A   1      39.505  31.799  33.687  1.00  0.00     0.167 HD
ATOM     35  C   UNL A   1      40.965  32.119  36.166  1.00  0.00     0.074 A 
ATOM     36  C   UNL A   1      41.882  31.919  37.275  1.00  0.00     0.031 C 
ATOM     37  C   UNL A   1      40.110  33.168  36.065  1.00  0.00     0.037 A 
BRANCH  24  38
ATOM     38  C   UNL A   1      36.525  33.230  30.990  1.00  0.00     0.058 A 
ATOM     39  C   UNL A   1      36.779  33.942  29.808  1.00  0.00     0.135 A 
ATOM     40  C   UNL A   1      35.199  33.178  31.451  1.00  0.00     0.135 A 
ATOM     41  F   UNL A   1      38.034  34.062  29.345  1.00  0.00    -0.206 F 
ATOM     42  C   UNL A   1      35.760  34.603  29.125  1.00  0.00     0.059 A 
ATOM     43  C   UNL A   1      34.163  33.812  30.773  1.00  0.00     0.059 A 
ATOM     44  F   UNL A   1      34.905  32.530  32.589  1.00  0.00    -0.206 F 
ATOM     45  C   UNL A   1      34.456  34.537  29.621  1.00  0.00     0.060 A 
BRANCH  45  46
ATOM     46  S   UNL A   1      33.150  35.426  28.746  1.00  0.00     0.124 S 
ATOM     47  O   UNL A   1      33.924  36.394  27.975  1.00  0.00    -0.237 OA
ATOM     48  O   UNL A   1      32.515  34.364  27.972  1.00  0.00    -0.237 OA
ATOM     49  O   UNL A   1      32.339  35.985  29.823  1.00  0.00    -0.744 OA
ENDBRANCH  45  46
ENDBRANCH  24  38
BRANCH  25  50
ATOM     50  C   UNL A   1      43.801  28.328  36.042  1.00  0.00     0.058 A 
ATOM     51  C   UNL A   1      43.500  27.268  36.909  1.00  0.00     0.135 A 
ATOM     52  C   UNL A   1      45.155  28.686  35.908  1.00  0.00     0.135 A 
ATOM     53  F   UNL A   1      42.226  26.886  37.085  1.00  0.00    -0.206 F 
ATOM     54  C   UNL A   1      44.495  26.604  37.626  1.00  0.00     0.059 A 
ATOM     55  C   UNL A   1      46.168  28.018  36.587  1.00  0.00     0.059 A 
ATOM     56  F   UNL A   1      45.508  29.690  35.089  1.00  0.00    -0.206 F 
ATOM     57  C   UNL A   1      45.826  26.987  37.458  1.00  0.00     0.060 A 
BRANCH  57  58
ATOM     58  S   UNL A   1      47.113  26.113  38.377  1.00  0.00     0.124 S 
ATOM     59  O   UNL A   1      47.834  25.441  37.303  1.00  0.00    -0.237 OA
ATOM     60  O   UNL A   1      47.819  27.208  39.035  1.00  0.00    -0.237 OA
ATOM     61  O   UNL A   1      46.354  25.241  39.269  1.00  0.00    -0.744 OA
ENDBRANCH  57  58
ENDBRANCH  25  50
BRANCH  37  62
ATOM     62  C   UNL A   1      40.111  34.147  37.199  1.00  0.00     0.058 A 
ATOM     63  C   UNL A   1      40.951  35.271  37.197  1.00  0.00     0.135 A 
ATOM     64  C   UNL A   1      39.208  33.992  38.261  1.00  0.00     0.135 A 
ATOM     65  F   UNL A   1      41.836  35.453  36.205  1.00  0.00    -0.206 F 
ATOM     66  C   UNL A   1      40.905  36.203  38.225  1.00  0.00     0.059 A 
ATOM     67  C   UNL A   1      39.126  34.927  39.283  1.00  0.00     0.059 A 
ATOM     68  F   UNL A   1      38.379  32.936  38.296  1.00  0.00    -0.206 F 
ATOM     69  C   UNL A   1      39.985  36.025  39.260  1.00  0.00     0.060 A 
BRANCH  69  70
ATOM     70  S   UNL A   1      39.897  37.272  40.560  1.00  0.00     0.124 S 
ATOM     71  O   UNL A   1      39.318  36.507  41.659  1.00  0.00    -0.237 OA
ATOM     72  O   UNL A   1      41.297  37.654  40.720  1.00  0.00    -0.237 OA
ATOM     73  O   UNL A   1      39.035  38.300  39.986  1.00  0.00    -0.744 OA
ENDBRANCH  69  70
ENDBRANCH  37  62
ENDBRANCH  11  12
ENDBRANCH   4   6
ENDBRANCH   3   4
ENDBRANCH   2   3
ENDBRANCH   1   2
BRANCH   1  74
ATOM     74  O   UNL A   1      39.804  21.116  26.092  1.00  0.00    -0.374 OA
BRANCH  74  75
ATOM     75  C   UNL A   1      38.690  22.002  26.212  1.00  0.00     0.202 C 
BRANCH  75  76
ATOM     76  C   UNL A   1      37.753  21.906  25.010  1.00  0.00     0.261 C 
BRANCH  76  77
ATOM     77  O   UNL A   1      37.476  23.231  24.530  1.00  0.00    -0.461 OA
BRANCH  77  78
ATOM     78  C   UNL A   1      36.307  23.419  23.860  1.00  0.00     0.335 C 
ATOM     79  O   UNL A   1      36.040  22.984  22.755  1.00  0.00    -0.249 OA
BRANCH  78  80
ATOM     80  C   UNL A   1      35.282  24.098  24.777  1.00  0.00     0.232 C 
ATOM     81  C   UNL A   1      34.356  24.981  23.949  1.00  0.00     0.087 C 
ATOM     82  O   UNL A   1      34.460  23.172  25.494  1.00  0.00    -0.355 OA
ATOM     83  C   UNL A   1      32.983  24.817  24.574  1.00  0.00     0.124 C 
ATOM     84  C   UNL A   1      33.073  23.365  25.131  1.00  0.00     0.187 C 
BRANCH  83  85
ATOM     85  C   UNL A   1      32.703  25.991  25.534  1.00  0.00     0.005 A 
ATOM     86  C   UNL A   1      33.801  26.858  25.804  1.00  0.00     0.008 A 
ATOM     87  C   UNL A   1      31.493  26.315  26.174  1.00  0.00     0.047 A 
ATOM     88  C   UNL A   1      33.679  28.021  26.565  1.00  0.00     0.001 A 
ATOM     89  C   UNL A   1      31.374  27.494  26.932  1.00  0.00     0.021 A 
ATOM     90  Cl  UNL A   1      30.070  25.341  26.168  1.00  0.00    -0.084 Cl
ATOM     91  C   UNL A   1      32.453  28.355  27.111  1.00  0.00     0.002 A 
ENDBRANCH  83  85
BRANCH  83  92
ATOM     92  O   UNL A   1      31.926  24.901  23.600  1.00  0.00    -0.382 OA
ATOM     93  H   UNL A   1      31.069  24.787  24.042  1.00  0.00     0.212 HD
ENDBRANCH  83  92
BRANCH  84  94
ATOM     94  C   UNL A   1      32.705  22.139  24.291  1.00  0.00     0.003 A 
ATOM     95  C   UNL A   1      32.323  22.208  22.937  1.00  0.00     0.008 A 
ATOM     96  C   UNL A   1      32.811  20.846  24.848  1.00  0.00     0.046 A 
ATOM     97  C   UNL A   1      32.052  21.063  22.179  1.00  0.00     0.000 A 
ATOM     98  C   UNL A   1      32.539  19.700  24.089  1.00  0.00     0.021 A 
ATOM     99  Cl  UNL A   1      33.287  20.582  26.494  1.00  0.00    -0.084 Cl
ATOM    100  C   UNL A   1      32.160  19.808  22.755  1.00  0.00     0.002 A 
ENDBRANCH  84  94
ENDBRANCH  78  80
ENDBRANCH  77  78
ENDBRANCH  76  77
ENDBRANCH  75  76
ENDBRANCH  74  75
ENDBRANCH   1  74
TORSDOF 20
ENDMDL
MODEL 3
REMARK VINA RESULT:     -11.2      6.397     12.070
REMARK SMILES O=C(OCCOCCOC(=O)[C@H]1C[C@](O)(c2ccccc2Cl)[C@@H](c2ccccc2Cl)O1)c1ccc(-c2c3nc(c(-c4c(F)cc(S(=O)(=O)[O-])cc4F)c4ccc([nH]4)c(-c4c(F)cc(S(=O)(=O)[O-])cc4F)c4nc(c(-c5c(F)cc(S(=O)(=O)[O-])cc5F)c5ccc2[nH]5)C=C4)C=C3)cc1
REMARK SMILES IDX 5 1 4 2 3 3 2 4 1 5 32 6 33 7 97 8 34 9 96 10 35 11 36 12
REMARK SMILES IDX 37 13 90 14 38 15 95 16 89 17 91 18 39 19 94 20 88 21 87 22
REMARK SMILES IDX 40 24 74 25 53 26 73 27 54 28 57 29 72 30 92 31 55 32 56 33
REMARK SMILES IDX 71 35 93 36 58 37 41 38 42 39 51 40 43 41 44 42 50 43 52 44
REMARK SMILES IDX 45 45 46 46 47 47 48 48 49 49 75 50 76 51 85 52 77 53 78 54
REMARK SMILES IDX 84 55 86 56 79 57 80 58 81 59 82 60 83 61 59 62 60 63 69 64
REMARK SMILES IDX 61 65 62 66 68 67 70 68 63 69 64 70 65 71 66 72 67 73 6 74
REMARK SMILES IDX 7 75 8 76 9 77 10 78 11 79 12 80 13 81 31 82 14 83 23 84
REMARK SMILES IDX 16 85 17 86 21 87 18 88 20 89 22 90 19 91 15 92 24 94 25 95
REMARK SMILES IDX 29 96 26 97 28 98 30 99 27 100
REMARK H PARENT 91 23 57 34 15 93
REMARK Flexibility Score: inf
ROOT
ATOM      1  C   UNL A   1      35.263  32.467  28.202  1.00  0.00     0.202 C 
ENDROOT
BRANCH   1   2
ATOM      2  C   UNL A   1      35.606  32.270  29.705  1.00  0.00     0.261 C 
BRANCH   2   3
ATOM      3  O   UNL A   1      35.932  30.913  30.074  1.00  0.00    -0.460 OA
BRANCH   3   4
ATOM      4  C   UNL A   1      36.962  30.532  30.889  1.00  0.00     0.338 C 
ATOM      5  O   UNL A   1      36.813  30.567  32.107  1.00  0.00    -0.246 OA
BRANCH   4   6
ATOM      6  C   UNL A   1      38.305  30.185  30.330  1.00  0.00     0.060 A 
ATOM      7  C   UNL A   1      39.363  29.836  31.154  1.00  0.00     0.016 A 
ATOM      8  C   UNL A   1      38.518  30.119  28.945  1.00  0.00     0.016 A 
ATOM      9  C   UNL A   1      40.595  29.474  30.685  1.00  0.00     0.010 A 
ATOM     10  C   UNL A   1      39.765  29.707  28.438  1.00  0.00     0.010 A 
ATOM     11  C   UNL A   1      40.799  29.379  29.322  1.00  0.00    -0.014 A 
BRANCH  11  12
ATOM     12  C   UNL A   1      42.178  29.035  28.961  1.00  0.00     0.031 A 
ATOM     13  C   UNL A   1      42.428  27.669  28.413  1.00  0.00     0.074 A 
ATOM     14  C   UNL A   1      43.064  30.042  28.817  1.00  0.00     0.049 A 
ATOM     15  N   UNL A   1      43.532  27.159  27.948  1.00  0.00    -0.248 NA
ATOM     16  C   UNL A   1      41.264  26.766  28.337  1.00  0.00     0.031 C 
ATOM     17  C   UNL A   1      42.784  31.456  29.107  1.00  0.00     0.029 A 
ATOM     18  N   UNL A   1      44.335  30.058  28.318  1.00  0.00    -0.354 N 
ATOM     19  C   UNL A   1      43.209  25.865  27.564  1.00  0.00     0.074 A 
ATOM     20  C   UNL A   1      41.802  25.672  27.824  1.00  0.00     0.031 C 
ATOM     21  C   UNL A   1      43.843  32.199  28.751  1.00  0.00     0.029 A 
ATOM     22  C   UNL A   1      44.904  31.310  28.299  1.00  0.00     0.049 A 
ATOM     23  H   UNL A   1      44.801  29.249  28.004  1.00  0.00     0.167 HD
ATOM     24  C   UNL A   1      44.039  24.925  27.062  1.00  0.00     0.037 A 
ATOM     25  C   UNL A   1      46.162  31.676  27.994  1.00  0.00     0.037 A 
ATOM     26  C   UNL A   1      45.435  25.175  26.829  1.00  0.00     0.049 A 
ATOM     27  C   UNL A   1      47.105  30.580  27.578  1.00  0.00     0.074 A 
ATOM     28  C   UNL A   1      46.424  24.291  26.451  1.00  0.00     0.029 A 
ATOM     29  N   UNL A   1      46.034  26.424  26.959  1.00  0.00    -0.354 N 
ATOM     30  N   UNL A   1      46.841  29.312  27.359  1.00  0.00    -0.248 NA
ATOM     31  C   UNL A   1      48.513  30.944  27.399  1.00  0.00     0.031 C 
ATOM     32  C   UNL A   1      47.632  24.997  26.397  1.00  0.00     0.029 A 
ATOM     33  C   UNL A   1      47.385  26.333  26.686  1.00  0.00     0.049 A 
ATOM     34  H   UNL A   1      45.564  27.253  27.208  1.00  0.00     0.167 HD
ATOM     35  C   UNL A   1      48.047  28.725  27.007  1.00  0.00     0.074 A 
ATOM     36  C   UNL A   1      49.039  29.787  27.021  1.00  0.00     0.031 C 
ATOM     37  C   UNL A   1      48.322  27.431  26.707  1.00  0.00     0.037 A 
BRANCH  24  38
ATOM     38  C   UNL A   1      43.472  23.549  26.866  1.00  0.00     0.058 A 
ATOM     39  C   UNL A   1      43.213  22.680  27.937  1.00  0.00     0.135 A 
ATOM     40  C   UNL A   1      43.245  23.071  25.564  1.00  0.00     0.135 A 
ATOM     41  F   UNL A   1      43.453  23.071  29.198  1.00  0.00    -0.206 F 
ATOM     42  C   UNL A   1      42.774  21.375  27.723  1.00  0.00     0.059 A 
ATOM     43  C   UNL A   1      42.787  21.778  25.329  1.00  0.00     0.059 A 
ATOM     44  F   UNL A   1      43.500  23.853  24.504  1.00  0.00    -0.206 F 
ATOM     45  C   UNL A   1      42.571  20.932  26.414  1.00  0.00     0.060 A 
BRANCH  45  46
ATOM     46  S   UNL A   1      42.035  19.229  26.149  1.00  0.00     0.124 S 
ATOM     47  O   UNL A   1      40.605  19.408  25.914  1.00  0.00    -0.237 OA
ATOM     48  O   UNL A   1      42.822  18.832  24.987  1.00  0.00    -0.237 OA
ATOM     49  O   UNL A   1      42.386  18.563  27.400  1.00  0.00    -0.744 OA
ENDBRANCH  45  46
ENDBRANCH  24  38
BRANCH  25  50
ATOM     50  C   UNL A   1      46.612  33.085  28.174  1.00  0.00     0.058 A 
ATOM     51  C   UNL A   1      47.117  33.553  29.396  1.00  0.00     0.135 A 
ATOM     52  C   UNL A   1      46.531  34.007  27.115  1.00  0.00     0.135 A 
ATOM     53  F   UNL A   1      47.212  32.722  30.445  1.00  0.00    -0.206 F 
ATOM     54  C   UNL A   1      47.508  34.880  29.566  1.00  0.00     0.059 A 
ATOM     55  C   UNL A   1      46.943  35.328  27.251  1.00  0.00     0.059 A 
ATOM     56  F   UNL A   1      46.059  33.620  25.919  1.00  0.00    -0.206 F 
ATOM     57  C   UNL A   1      47.416  35.761  28.487  1.00  0.00     0.060 A 
BRANCH  57  58
ATOM     58  S   UNL A   1      47.937  37.476  28.709  1.00  0.00     0.124 S 
ATOM     59  O   UNL A   1      47.718  37.666  30.138  1.00  0.00    -0.237 OA
ATOM     60  O   UNL A   1      49.330  37.433  28.275  1.00  0.00    -0.237 OA
ATOM     61  O   UNL A   1      47.038  38.217  27.829  1.00  0.00    -0.744 OA
ENDBRANCH  57  58
ENDBRANCH  25  50
BRANCH  37  62
ATOM     62  C   UNL A   1      49.740  27.113  26.340  1.00  0.00     0.058 A 
ATOM     63  C   UNL A   1      50.655  26.637  27.291  1.00  0.00     0.135 A 
ATOM     64  C   UNL A   1      50.160  27.218  25.006  1.00  0.00     0.135 A 
ATOM     65  F   UNL A   1      50.296  26.530  28.580  1.00  0.00    -0.206 F 
ATOM     66  C   UNL A   1      51.950  26.291  26.932  1.00  0.00     0.059 A 
ATOM     67  C   UNL A   1      51.441  26.850  24.620  1.00  0.00     0.059 A 
ATOM     68  F   UNL A   1      49.313  27.658  24.062  1.00  0.00    -0.206 F 
ATOM     69  C   UNL A   1      52.331  26.396  25.592  1.00  0.00     0.060 A 
BRANCH  69  70
ATOM     70  S   UNL A   1      53.999  25.891  25.128  1.00  0.00     0.124 S 
ATOM     71  O   UNL A   1      54.251  26.742  23.971  1.00  0.00    -0.237 OA
ATOM     72  O   UNL A   1      54.766  26.209  26.329  1.00  0.00    -0.237 OA
ATOM     73  O   UNL A   1      53.855  24.467  24.843  1.00  0.00    -0.744 OA
ENDBRANCH  69  70
ENDBRANCH  37  62
ENDBRANCH  11  12
ENDBRANCH   4   6
ENDBRANCH   3   4
ENDBRANCH   2   3
ENDBRANCH   1   2
BRANCH   1  74
ATOM     74  O   UNL A   1      34.015  32.006  27.681  1.00  0.00    -0.374 OA
BRANCH  74  75
ATOM     75  C   UNL A   1      33.877  30.628  27.330  1.00  0.00     0.202 C 
BRANCH  75  76
ATOM     76  C   UNL A   1      32.414  30.225  27.160  1.00  0.00     0.261 C 
BRANCH  76  77
ATOM     77  O   UNL A   1      32.351  29.023  26.376  1.00  0.00    -0.461 OA
BRANCH  77  78
ATOM     78  C   UNL A   1      31.904  27.899  26.997  1.00  0.00     0.335 C 
ATOM     79  O   UNL A   1      31.179  27.862  27.974  1.00  0.00    -0.249 OA
BRANCH  78  80
ATOM     80  C   UNL A   1      32.281  26.661  26.172  1.00  0.00     0.232 C 
ATOM     81  C   UNL A   1      31.106  25.692  26.132  1.00  0.00     0.087 C 
ATOM     82  O   UNL A   1      32.630  26.966  24.819  1.00  0.00    -0.355 OA
ATOM     83  C   UNL A   1      31.110  25.118  24.726  1.00  0.00     0.124 C 
ATOM     84  C   UNL A   1      31.715  26.303  23.916  1.00  0.00     0.187 C 
BRANCH  83  85
ATOM     85  C   UNL A   1      31.815  23.747  24.724  1.00  0.00     0.005 A 
ATOM     86  C   UNL A   1      32.919  23.610  23.834  1.00  0.00     0.008 A 
ATOM     87  C   UNL A   1      31.506  22.614  25.498  1.00  0.00     0.047 A 
ATOM     88  C   UNL A   1      33.724  22.471  23.794  1.00  0.00     0.001 A 
ATOM     89  C   UNL A   1      32.326  21.471  25.459  1.00  0.00     0.021 A 
ATOM     90  Cl  UNL A   1      30.120  22.447  26.511  1.00  0.00    -0.084 Cl
ATOM     91  C   UNL A   1      33.441  21.406  24.630  1.00  0.00     0.002 A 
ENDBRANCH  83  85
BRANCH  83  92
ATOM     92  O   UNL A   1      29.782  24.830  24.250  1.00  0.00    -0.382 OA
ATOM     93  H   UNL A   1      29.722  25.048  23.307  1.00  0.00     0.212 HD
ENDBRANCH  83  92
BRANCH  84  94
ATOM     94  C   UNL A   1      30.851  27.422  23.327  1.00  0.00     0.003 A 
ATOM     95  C   UNL A   1      29.453  27.489  23.481  1.00  0.00     0.008 A 
ATOM     96  C   UNL A   1      31.461  28.499  22.648  1.00  0.00     0.046 A 
ATOM     97  C   UNL A   1      28.699  28.558  22.984  1.00  0.00     0.000 A 
ATOM     98  C   UNL A   1      30.706  29.569  22.150  1.00  0.00     0.021 A 
ATOM     99  Cl  UNL A   1      33.173  28.581  22.389  1.00  0.00    -0.084 Cl
ATOM    100  C   UNL A   1      29.325  29.600  22.318  1.00  0.00     0.002 A 
ENDBRANCH  84  94
ENDBRANCH  78  80
ENDBRANCH  77  78
ENDBRANCH  76  77
ENDBRANCH  75  76
ENDBRANCH  74  75
ENDBRANCH   1  74
TORSDOF 20
ENDMDL
