MODEL 1
REMARK VINA RESULT:     -13.0      0.000      0.000
REMARK SMILES COc1ccc(-c2[nH]nc3nc(-c4ccc(C(F)(F)F)cc4)cc(C(=O)OCCOCCOC(=O)c4ccc(-c5c6nc(c(-c7c(F)cc(S(=O)(=O)[O-])cc7F)c7ccc([nH]7)c(-c7c(F)cc(S(=O)(=O)[O-])cc7F)c7nc(c(-c8c(F)cc(S(=O)(=O)[O-])cc8F)c8ccc5[nH]8)C=C7)C=C6)cc4)c23)cc1
REMARK SMILES IDX 31 1 30 2 29 3 28 4 27 5 25 6 26 7 24 8 7 9 8 10 102 11 9 12
REMARK SMILES IDX 10 14 11 15 23 16 12 17 6 18 3 19 4 20 104 21 5 22 103 23
REMARK SMILES IDX 2 24 1 25 13 26 14 27 22 28 15 29 21 30 16 31 17 32 18 33
REMARK SMILES IDX 19 34 20 35 32 36 33 37 34 38 35 39 36 40 37 41 101 42 38 43
REMARK SMILES IDX 100 44 39 45 40 46 41 47 94 48 42 49 99 50 93 51 95 52 43 53
REMARK SMILES IDX 98 54 92 55 91 56 44 58 78 59 57 60 77 61 58 62 61 63 76 64
REMARK SMILES IDX 96 65 59 66 60 67 75 69 97 70 62 71 45 72 46 73 55 74 47 75
REMARK SMILES IDX 48 76 54 77 56 78 49 79 50 80 51 81 52 82 53 83 79 84 80 85
REMARK SMILES IDX 89 86 81 87 82 88 88 89 90 90 83 91 84 92 85 93 86 94 87 95
REMARK SMILES IDX 63 96 64 97 73 98 65 99 66 100 72 101 74 102 67 103 68 104
REMARK SMILES IDX 69 105 70 106 71 107
REMARK H PARENT 8 13 95 57 61 68
REMARK Flexibility Score: inf
ROOT
ATOM      1  C   UNL A   1      33.675  28.545  26.409  1.00  0.00     0.202 C 
ENDROOT
BRANCH   1   2
ATOM      2  O   UNL A   1      34.044  28.444  25.034  1.00  0.00    -0.374 OA
BRANCH   2   3
ATOM      3  C   UNL A   1      33.988  27.118  24.498  1.00  0.00     0.202 C 
BRANCH   3   4
ATOM      4  C   UNL A   1      33.653  27.094  23.008  1.00  0.00     0.261 C 
BRANCH   4   5
ATOM      5  O   UNL A   1      33.405  25.741  22.588  1.00  0.00    -0.460 OA
BRANCH   5   6
ATOM      6  C   UNL A   1      32.099  25.423  22.395  1.00  0.00     0.339 C 
ATOM      7  O   UNL A   1      31.370  25.838  21.516  1.00  0.00    -0.246 OA
BRANCH   6   8
ATOM      8  C   UNL A   1      31.696  24.465  23.432  1.00  0.00     0.075 A 
ATOM      9  C   UNL A   1      30.177  25.847  24.919  1.00  0.00     0.075 A 
ATOM     10  N   UNL A   1      29.625  25.522  26.136  1.00  0.00    -0.275 N 
ATOM     11  C   UNL A   1      30.922  24.728  24.572  1.00  0.00     0.061 A 
ATOM     12  N   UNL A   1      29.875  24.274  26.558  1.00  0.00    -0.154 NA
ATOM     13  H   UNL A   1      29.085  26.158  26.659  1.00  0.00     0.190 HD
ATOM     14  C   UNL A   1      30.632  23.759  25.591  1.00  0.00     0.182 A 
ATOM     15  N   UNL A   1      31.079  22.479  25.534  1.00  0.00    -0.226 NA
ATOM     16  C   UNL A   1      32.104  23.120  23.384  1.00  0.00     0.045 A 
ATOM     17  C   UNL A   1      31.808  22.194  24.417  1.00  0.00     0.074 A 
BRANCH   9  18
ATOM     18  C   UNL A   1      29.809  27.098  24.258  1.00  0.00     0.001 A 
ATOM     19  C   UNL A   1      29.057  29.582  23.151  1.00  0.00     0.118 A 
ATOM     20  C   UNL A   1      28.265  28.446  22.969  1.00  0.00     0.047 A 
ATOM     21  C   UNL A   1      30.257  29.461  23.844  1.00  0.00     0.047 A 
ATOM     22  C   UNL A   1      28.634  27.210  23.517  1.00  0.00     0.014 A 
ATOM     23  C   UNL A   1      30.645  28.218  24.360  1.00  0.00     0.014 A 
BRANCH  19  24
ATOM     24  O   UNL A   1      28.550  30.734  22.615  1.00  0.00    -0.497 OA
ATOM     25  C   UNL A   1      28.408  30.774  21.198  1.00  0.00     0.278 C 
ENDBRANCH  19  24
ENDBRANCH   9  18
BRANCH  17  26
ATOM     26  C   UNL A   1      32.354  20.817  24.358  1.00  0.00     0.000 A 
ATOM     27  C   UNL A   1      32.313  20.051  23.180  1.00  0.00     0.011 A 
ATOM     28  C   UNL A   1      32.916  20.215  25.500  1.00  0.00     0.011 A 
ATOM     29  C   UNL A   1      32.813  18.741  23.146  1.00  0.00     0.014 A 
ATOM     30  C   UNL A   1      33.415  18.909  25.470  1.00  0.00     0.014 A 
ATOM     31  C   UNL A   1      33.365  18.154  24.294  1.00  0.00     0.056 A 
BRANCH  31  32
ATOM     32  C   UNL A   1      33.870  16.732  24.266  1.00  0.00     0.416 C 
ATOM     33  F   UNL A   1      33.844  16.193  23.016  1.00  0.00    -0.166 F 
ATOM     34  F   UNL A   1      35.151  16.615  24.706  1.00  0.00    -0.166 F 
ATOM     35  F   UNL A   1      33.131  15.885  25.042  1.00  0.00    -0.166 F 
ENDBRANCH  31  32
ENDBRANCH  17  26
ENDBRANCH   6   8
ENDBRANCH   5   6
ENDBRANCH   4   5
ENDBRANCH   3   4
ENDBRANCH   2   3
ENDBRANCH   1   2
BRANCH   1  36
ATOM     36  C   UNL A   1      33.841  29.961  26.943  1.00  0.00     0.261 C 
BRANCH  36  37
ATOM     37  O   UNL A   1      35.218  30.166  27.210  1.00  0.00    -0.460 OA
BRANCH  37  38
ATOM     38  C   UNL A   1      35.506  31.339  27.837  1.00  0.00     0.338 C 
ATOM     39  O   UNL A   1      35.179  32.450  27.545  1.00  0.00    -0.246 OA
BRANCH  38  40
ATOM     40  C   UNL A   1      36.371  30.940  28.960  1.00  0.00     0.060 A 
ATOM     41  C   UNL A   1      37.386  31.842  29.240  1.00  0.00     0.016 A 
ATOM     42  C   UNL A   1      36.405  29.588  29.350  1.00  0.00     0.016 A 
ATOM     43  C   UNL A   1      38.599  31.305  29.580  1.00  0.00     0.010 A 
ATOM     44  C   UNL A   1      37.621  29.054  29.674  1.00  0.00     0.010 A 
ATOM     45  C   UNL A   1      38.713  29.911  29.656  1.00  0.00    -0.014 A 
BRANCH  45  46
ATOM     46  C   UNL A   1      40.045  29.368  29.716  1.00  0.00     0.031 A 
ATOM     47  C   UNL A   1      40.491  29.144  31.097  1.00  0.00     0.074 A 
ATOM     48  C   UNL A   1      40.749  29.074  28.610  1.00  0.00     0.049 A 
ATOM     49  N   UNL A   1      41.308  29.873  31.779  1.00  0.00    -0.248 NA
ATOM     50  C   UNL A   1      39.755  28.146  31.886  1.00  0.00     0.031 C 
ATOM     51  C   UNL A   1      40.305  29.020  27.216  1.00  0.00     0.029 A 
ATOM     52  N   UNL A   1      42.039  28.664  28.539  1.00  0.00    -0.354 N 
ATOM     53  C   UNL A   1      41.364  29.273  33.027  1.00  0.00     0.074 A 
ATOM     54  C   UNL A   1      40.225  28.396  33.107  1.00  0.00     0.031 C 
ATOM     55  C   UNL A   1      41.246  28.383  26.479  1.00  0.00     0.029 A 
ATOM     56  C   UNL A   1      42.393  28.097  27.324  1.00  0.00     0.049 A 
ATOM     57  H   UNL A   1      42.671  28.760  29.288  1.00  0.00     0.167 HD
ATOM     58  C   UNL A   1      42.488  29.332  33.788  1.00  0.00     0.037 A 
ATOM     59  C   UNL A   1      43.497  27.331  27.131  1.00  0.00     0.037 A 
ATOM     60  C   UNL A   1      43.387  30.358  33.321  1.00  0.00     0.049 A 
ATOM     61  C   UNL A   1      44.459  27.698  28.218  1.00  0.00     0.074 A 
ATOM     62  C   UNL A   1      43.287  31.728  33.172  1.00  0.00     0.029 A 
ATOM     63  N   UNL A   1      44.454  29.972  32.542  1.00  0.00    -0.354 N 
ATOM     64  N   UNL A   1      45.009  28.882  28.323  1.00  0.00    -0.248 NA
ATOM     65  C   UNL A   1      44.420  26.928  29.456  1.00  0.00     0.031 C 
ATOM     66  C   UNL A   1      43.981  32.024  31.964  1.00  0.00     0.029 A 
ATOM     67  C   UNL A   1      44.515  30.832  31.472  1.00  0.00     0.049 A 
ATOM     68  H   UNL A   1      45.062  29.219  32.720  1.00  0.00     0.167 HD
ATOM     69  C   UNL A   1      45.010  29.167  29.685  1.00  0.00     0.074 A 
ATOM     70  C   UNL A   1      44.696  27.896  30.336  1.00  0.00     0.031 C 
ATOM     71  C   UNL A   1      44.970  30.452  30.149  1.00  0.00     0.037 A 
BRANCH  58  72
ATOM     72  C   UNL A   1      42.918  28.225  34.713  1.00  0.00     0.058 A 
ATOM     73  C   UNL A   1      43.088  28.501  36.082  1.00  0.00     0.135 A 
ATOM     74  C   UNL A   1      43.412  26.975  34.274  1.00  0.00     0.135 A 
ATOM     75  F   UNL A   1      42.668  29.665  36.601  1.00  0.00    -0.206 F 
ATOM     76  C   UNL A   1      43.760  27.629  36.936  1.00  0.00     0.059 A 
ATOM     77  C   UNL A   1      44.024  26.064  35.120  1.00  0.00     0.059 A 
ATOM     78  F   UNL A   1      43.424  26.614  32.985  1.00  0.00    -0.206 F 
ATOM     79  C   UNL A   1      44.236  26.418  36.439  1.00  0.00     0.060 A 
BRANCH  79  80
ATOM     80  S   UNL A   1      45.207  25.341  37.503  1.00  0.00     0.124 S 
ATOM     81  O   UNL A   1      44.686  24.029  37.137  1.00  0.00    -0.237 OA
ATOM     82  O   UNL A   1      46.568  25.636  37.068  1.00  0.00    -0.237 OA
ATOM     83  O   UNL A   1      44.870  25.804  38.846  1.00  0.00    -0.744 OA
ENDBRANCH  79  80
ENDBRANCH  58  72
BRANCH  59  84
ATOM     84  C   UNL A   1      43.541  26.033  26.396  1.00  0.00     0.058 A 
ATOM     85  C   UNL A   1      44.470  25.810  25.363  1.00  0.00     0.135 A 
ATOM     86  C   UNL A   1      42.852  24.889  26.855  1.00  0.00     0.135 A 
ATOM     87  F   UNL A   1      45.188  26.833  24.872  1.00  0.00    -0.206 F 
ATOM     88  C   UNL A   1      44.737  24.530  24.858  1.00  0.00     0.059 A 
ATOM     89  C   UNL A   1      43.089  23.611  26.359  1.00  0.00     0.059 A 
ATOM     90  F   UNL A   1      41.987  24.955  27.876  1.00  0.00    -0.206 F 
ATOM     91  C   UNL A   1      44.053  23.432  25.379  1.00  0.00     0.060 A 
BRANCH  91  92
ATOM     92  S   UNL A   1      44.517  21.757  24.877  1.00  0.00     0.124 S 
ATOM     93  O   UNL A   1      45.730  21.534  25.653  1.00  0.00    -0.237 OA
ATOM     94  O   UNL A   1      43.348  20.981  25.278  1.00  0.00    -0.237 OA
ATOM     95  O   UNL A   1      44.713  21.880  23.433  1.00  0.00    -0.744 OA
ENDBRANCH  91  92
ENDBRANCH  59  84
BRANCH  71  96
ATOM     96  C   UNL A   1      45.163  31.579  29.163  1.00  0.00     0.058 A 
ATOM     97  C   UNL A   1      46.421  32.060  28.757  1.00  0.00     0.135 A 
ATOM     98  C   UNL A   1      44.045  32.050  28.458  1.00  0.00     0.135 A 
ATOM     99  F   UNL A   1      47.547  31.581  29.302  1.00  0.00    -0.206 F 
ATOM    100  C   UNL A   1      46.560  32.989  27.723  1.00  0.00     0.059 A 
ATOM    101  C   UNL A   1      44.161  32.954  27.403  1.00  0.00     0.059 A 
ATOM    102  F   UNL A   1      42.820  31.581  28.750  1.00  0.00    -0.206 F 
ATOM    103  C   UNL A   1      45.423  33.425  27.046  1.00  0.00     0.060 A 
BRANCH 103 104
ATOM    104  S   UNL A   1      45.613  34.545  25.641  1.00  0.00     0.124 S 
ATOM    105  O   UNL A   1      46.960  34.229  25.178  1.00  0.00    -0.237 OA
ATOM    106  O   UNL A   1      44.527  34.132  24.756  1.00  0.00    -0.237 OA
ATOM    107  O   UNL A   1      45.450  35.869  26.235  1.00  0.00    -0.744 OA
ENDBRANCH 103 104
ENDBRANCH  71  96
ENDBRANCH  45  46
ENDBRANCH  38  40
ENDBRANCH  37  38
ENDBRANCH  36  37
ENDBRANCH   1  36
TORSDOF 21
ENDMDL
MODEL 2
REMARK VINA RESULT:     -12.9      2.274      2.886
REMARK SMILES COc1ccc(-c2[nH]nc3nc(-c4ccc(C(F)(F)F)cc4)cc(C(=O)OCCOCCOC(=O)c4ccc(-c5c6nc(c(-c7c(F)cc(S(=O)(=O)[O-])cc7F)c7ccc([nH]7)c(-c7c(F)cc(S(=O)(=O)[O-])cc7F)c7nc(c(-c8c(F)cc(S(=O)(=O)[O-])cc8F)c8ccc5[nH]8)C=C7)C=C6)cc4)c23)cc1
REMARK SMILES IDX 31 1 30 2 29 3 28 4 27 5 25 6 26 7 24 8 7 9 8 10 102 11 9 12
REMARK SMILES IDX 10 14 11 15 23 16 12 17 6 18 3 19 4 20 104 21 5 22 103 23
REMARK SMILES IDX 2 24 1 25 13 26 14 27 22 28 15 29 21 30 16 31 17 32 18 33
REMARK SMILES IDX 19 34 20 35 32 36 33 37 34 38 35 39 36 40 37 41 101 42 38 43
REMARK SMILES IDX 100 44 39 45 40 46 41 47 94 48 42 49 99 50 93 51 95 52 43 53
REMARK SMILES IDX 98 54 92 55 91 56 44 58 78 59 57 60 77 61 58 62 61 63 76 64
REMARK SMILES IDX 96 65 59 66 60 67 75 69 97 70 62 71 45 72 46 73 55 74 47 75
REMARK SMILES IDX 48 76 54 77 56 78 49 79 50 80 51 81 52 82 53 83 79 84 80 85
REMARK SMILES IDX 89 86 81 87 82 88 88 89 90 90 83 91 84 92 85 93 86 94 87 95
REMARK SMILES IDX 63 96 64 97 73 98 65 99 66 100 72 101 74 102 67 103 68 104
REMARK SMILES IDX 69 105 70 106 71 107
REMARK H PARENT 8 13 95 57 61 68
REMARK Flexibility Score: inf
ROOT
ATOM      1  C   UNL A   1      32.564  31.615  26.875  1.00  0.00     0.202 C 
ENDROOT
BRANCH   1   2
ATOM      2  O   UNL A   1      31.786  30.724  26.077  1.00  0.00    -0.374 OA
BRANCH   2   3
ATOM      3  C   UNL A   1      31.880  29.347  26.458  1.00  0.00     0.202 C 
BRANCH   3   4
ATOM      4  C   UNL A   1      32.660  28.504  25.449  1.00  0.00     0.261 C 
BRANCH   4   5
ATOM      5  O   UNL A   1      33.246  27.372  26.113  1.00  0.00    -0.460 OA
BRANCH   5   6
ATOM      6  C   UNL A   1      32.596  26.193  25.934  1.00  0.00     0.339 C 
ATOM      7  O   UNL A   1      31.546  25.855  26.443  1.00  0.00    -0.246 OA
BRANCH   6   8
ATOM      8  C   UNL A   1      33.372  25.373  24.995  1.00  0.00     0.075 A 
ATOM      9  C   UNL A   1      32.003  25.504  22.865  1.00  0.00     0.075 A 
ATOM     10  N   UNL A   1      32.160  24.807  21.689  1.00  0.00    -0.275 N 
ATOM     11  C   UNL A   1      33.020  25.027  23.682  1.00  0.00     0.061 A 
ATOM     12  N   UNL A   1      33.229  23.997  21.647  1.00  0.00    -0.154 NA
ATOM     13  H   UNL A   1      31.536  24.897  20.933  1.00  0.00     0.190 HD
ATOM     14  C   UNL A   1      33.790  24.152  22.845  1.00  0.00     0.182 A 
ATOM     15  N   UNL A   1      34.953  23.584  23.252  1.00  0.00    -0.226 NA
ATOM     16  C   UNL A   1      34.603  24.803  25.366  1.00  0.00     0.045 A 
ATOM     17  C   UNL A   1      35.330  23.933  24.514  1.00  0.00     0.074 A 
BRANCH   9  18
ATOM     18  C   UNL A   1      31.004  26.567  22.959  1.00  0.00     0.001 A 
ATOM     19  C   UNL A   1      28.973  28.525  23.014  1.00  0.00     0.118 A 
ATOM     20  C   UNL A   1      30.216  28.795  22.435  1.00  0.00     0.047 A 
ATOM     21  C   UNL A   1      28.766  27.287  23.615  1.00  0.00     0.047 A 
ATOM     22  C   UNL A   1      31.227  27.826  22.405  1.00  0.00     0.014 A 
ATOM     23  C   UNL A   1      29.790  26.331  23.619  1.00  0.00     0.014 A 
BRANCH  19  24
ATOM     24  O   UNL A   1      28.059  29.538  22.921  1.00  0.00    -0.497 OA
ATOM     25  C   UNL A   1      28.094  30.328  21.737  1.00  0.00     0.278 C 
ENDBRANCH  19  24
ENDBRANCH   9  18
BRANCH  17  26
ATOM     26  C   UNL A   1      36.569  23.281  25.002  1.00  0.00     0.000 A 
ATOM     27  C   UNL A   1      36.884  21.949  24.682  1.00  0.00     0.011 A 
ATOM     28  C   UNL A   1      37.469  23.975  25.833  1.00  0.00     0.011 A 
ATOM     29  C   UNL A   1      38.048  21.338  25.170  1.00  0.00     0.014 A 
ATOM     30  C   UNL A   1      38.631  23.369  26.323  1.00  0.00     0.014 A 
ATOM     31  C   UNL A   1      38.932  22.041  26.002  1.00  0.00     0.056 A 
BRANCH  31  32
ATOM     32  C   UNL A   1      40.167  21.373  26.556  1.00  0.00     0.416 C 
ATOM     33  F   UNL A   1      40.412  21.723  27.849  1.00  0.00    -0.166 F 
ATOM     34  F   UNL A   1      40.092  20.017  26.535  1.00  0.00    -0.166 F 
ATOM     35  F   UNL A   1      41.303  21.694  25.870  1.00  0.00    -0.166 F 
ENDBRANCH  31  32
ENDBRANCH  17  26
ENDBRANCH   6   8
ENDBRANCH   5   6
ENDBRANCH   4   5
ENDBRANCH   3   4
ENDBRANCH   2   3
ENDBRANCH   1   2
BRANCH   1  36
ATOM     36  C   UNL A   1      33.504  30.869  27.812  1.00  0.00     0.261 C 
BRANCH  36  37
ATOM     37  O   UNL A   1      34.803  30.910  27.249  1.00  0.00    -0.460 OA
BRANCH  37  38
ATOM     38  C   UNL A   1      35.656  31.782  27.854  1.00  0.00     0.338 C 
ATOM     39  O   UNL A   1      35.841  32.939  27.620  1.00  0.00    -0.246 OA
BRANCH  38  40
ATOM     40  C   UNL A   1      36.358  30.961  28.854  1.00  0.00     0.060 A 
ATOM     41  C   UNL A   1      37.198  31.682  29.689  1.00  0.00     0.016 A 
ATOM     42  C   UNL A   1      36.482  29.576  28.636  1.00  0.00     0.016 A 
ATOM     43  C   UNL A   1      38.389  31.088  30.010  1.00  0.00     0.010 A 
ATOM     44  C   UNL A   1      37.679  28.992  28.944  1.00  0.00     0.010 A 
ATOM     45  C   UNL A   1      38.651  29.805  29.513  1.00  0.00    -0.014 A 
BRANCH  45  46
ATOM     46  C   UNL A   1      40.007  29.332  29.608  1.00  0.00     0.031 A 
ATOM     47  C   UNL A   1      40.404  29.063  30.996  1.00  0.00     0.074 A 
ATOM     48  C   UNL A   1      40.774  29.132  28.523  1.00  0.00     0.049 A 
ATOM     49  N   UNL A   1      41.149  29.800  31.750  1.00  0.00    -0.248 NA
ATOM     50  C   UNL A   1      39.692  27.989  31.702  1.00  0.00     0.031 C 
ATOM     51  C   UNL A   1      40.394  29.123  27.110  1.00  0.00     0.029 A 
ATOM     52  N   UNL A   1      42.086  28.795  28.493  1.00  0.00    -0.354 N 
ATOM     53  C   UNL A   1      41.184  29.142  32.969  1.00  0.00     0.074 A 
ATOM     54  C   UNL A   1      40.094  28.203  32.955  1.00  0.00     0.031 C 
ATOM     55  C   UNL A   1      41.400  28.575  26.388  1.00  0.00     0.029 A 
ATOM     56  C   UNL A   1      42.524  28.308  27.270  1.00  0.00     0.049 A 
ATOM     57  H   UNL A   1      42.679  28.888  29.274  1.00  0.00     0.167 HD
ATOM     58  C   UNL A   1      42.269  29.224  33.783  1.00  0.00     0.037 A 
ATOM     59  C   UNL A   1      43.676  27.614  27.092  1.00  0.00     0.037 A 
ATOM     60  C   UNL A   1      43.128  30.319  33.407  1.00  0.00     0.049 A 
ATOM     61  C   UNL A   1      44.568  27.977  28.239  1.00  0.00     0.074 A 
ATOM     62  C   UNL A   1      42.959  31.687  33.319  1.00  0.00     0.029 A 
ATOM     63  N   UNL A   1      44.248  30.030  32.660  1.00  0.00    -0.354 N 
ATOM     64  N   UNL A   1      45.046  29.182  28.425  1.00  0.00    -0.248 NA
ATOM     65  C   UNL A   1      44.518  27.145  29.436  1.00  0.00     0.031 C 
ATOM     66  C   UNL A   1      43.688  32.080  32.159  1.00  0.00     0.029 A 
ATOM     67  C   UNL A   1      44.308  30.943  31.636  1.00  0.00     0.049 A 
ATOM     68  H   UNL A   1      44.889  29.302  32.830  1.00  0.00     0.167 HD
ATOM     69  C   UNL A   1      44.972  29.398  29.797  1.00  0.00     0.074 A 
ATOM     70  C   UNL A   1      44.701  28.081  30.372  1.00  0.00     0.031 C 
ATOM     71  C   UNL A   1      44.841  30.655  30.319  1.00  0.00     0.037 A 
BRANCH  58  72
ATOM     72  C   UNL A   1      42.719  28.097  34.673  1.00  0.00     0.058 A 
ATOM     73  C   UNL A   1      42.899  28.338  36.047  1.00  0.00     0.135 A 
ATOM     74  C   UNL A   1      43.223  26.865  34.195  1.00  0.00     0.135 A 
ATOM     75  F   UNL A   1      42.471  29.482  36.603  1.00  0.00    -0.206 F 
ATOM     76  C   UNL A   1      43.588  27.450  36.871  1.00  0.00     0.059 A 
ATOM     77  C   UNL A   1      43.852  25.938  35.011  1.00  0.00     0.059 A 
ATOM     78  F   UNL A   1      43.227  26.540  32.897  1.00  0.00    -0.206 F 
ATOM     79  C   UNL A   1      44.072  26.258  36.337  1.00  0.00     0.060 A 
BRANCH  79  80
ATOM     80  S   UNL A   1      45.065  25.163  37.363  1.00  0.00     0.124 S 
ATOM     81  O   UNL A   1      44.242  25.069  38.563  1.00  0.00    -0.237 OA
ATOM     82  O   UNL A   1      45.137  23.962  36.538  1.00  0.00    -0.237 OA
ATOM     83  O   UNL A   1      46.321  25.891  37.513  1.00  0.00    -0.744 OA
ENDBRANCH  79  80
ENDBRANCH  58  72
BRANCH  59  84
ATOM     84  C   UNL A   1      43.824  26.358  26.299  1.00  0.00     0.058 A 
ATOM     85  C   UNL A   1      44.914  26.168  25.430  1.00  0.00     0.135 A 
ATOM     86  C   UNL A   1      43.047  25.210  26.565  1.00  0.00     0.135 A 
ATOM     87  F   UNL A   1      45.724  27.196  25.131  1.00  0.00    -0.206 F 
ATOM     88  C   UNL A   1      45.242  24.911  24.903  1.00  0.00     0.059 A 
ATOM     89  C   UNL A   1      43.344  23.955  26.040  1.00  0.00     0.059 A 
ATOM     90  F   UNL A   1      42.019  25.241  27.424  1.00  0.00    -0.206 F 
ATOM     91  C   UNL A   1      44.460  23.804  25.232  1.00  0.00     0.060 A 
BRANCH  91  92
ATOM     92  S   UNL A   1      44.975  22.149  24.718  1.00  0.00     0.124 S 
ATOM     93  O   UNL A   1      44.259  21.303  25.665  1.00  0.00    -0.237 OA
ATOM     94  O   UNL A   1      44.510  22.098  23.335  1.00  0.00    -0.237 OA
ATOM     95  O   UNL A   1      46.427  22.180  24.882  1.00  0.00    -0.744 OA
ENDBRANCH  91  92
ENDBRANCH  59  84
BRANCH  71  96
ATOM     96  C   UNL A   1      45.013  31.838  29.398  1.00  0.00     0.058 A 
ATOM     97  C   UNL A   1      46.262  32.370  29.028  1.00  0.00     0.135 A 
ATOM     98  C   UNL A   1      43.889  32.322  28.711  1.00  0.00     0.135 A 
ATOM     99  F   UNL A   1      47.396  31.888  29.554  1.00  0.00    -0.206 F 
ATOM    100  C   UNL A   1      46.386  33.356  28.047  1.00  0.00     0.059 A 
ATOM    101  C   UNL A   1      43.990  33.284  27.708  1.00  0.00     0.059 A 
ATOM    102  F   UNL A   1      42.673  31.809  28.968  1.00  0.00    -0.206 F 
ATOM    103  C   UNL A   1      45.242  33.803  27.386  1.00  0.00     0.060 A 
BRANCH 103 104
ATOM    104  S   UNL A   1      45.414  35.002  26.046  1.00  0.00     0.124 S 
ATOM    105  O   UNL A   1      44.182  35.775  26.166  1.00  0.00    -0.237 OA
ATOM    106  O   UNL A   1      46.642  35.707  26.406  1.00  0.00    -0.237 OA
ATOM    107  O   UNL A   1      45.515  34.167  24.852  1.00  0.00    -0.744 OA
ENDBRANCH 103 104
ENDBRANCH  71  96
ENDBRANCH  45  46
ENDBRANCH  38  40
ENDBRANCH  37  38
ENDBRANCH  36  37
ENDBRANCH   1  36
TORSDOF 21
ENDMDL
MODEL 3
REMARK VINA RESULT:     -12.8      4.062      9.855
REMARK SMILES COc1ccc(-c2[nH]nc3nc(-c4ccc(C(F)(F)F)cc4)cc(C(=O)OCCOCCOC(=O)c4ccc(-c5c6nc(c(-c7c(F)cc(S(=O)(=O)[O-])cc7F)c7ccc([nH]7)c(-c7c(F)cc(S(=O)(=O)[O-])cc7F)c7nc(c(-c8c(F)cc(S(=O)(=O)[O-])cc8F)c8ccc5[nH]8)C=C7)C=C6)cc4)c23)cc1
REMARK SMILES IDX 31 1 30 2 29 3 28 4 27 5 25 6 26 7 24 8 7 9 8 10 102 11 9 12
REMARK SMILES IDX 10 14 11 15 23 16 12 17 6 18 3 19 4 20 104 21 5 22 103 23
REMARK SMILES IDX 2 24 1 25 13 26 14 27 22 28 15 29 21 30 16 31 17 32 18 33
REMARK SMILES IDX 19 34 20 35 32 36 33 37 34 38 35 39 36 40 37 41 101 42 38 43
REMARK SMILES IDX 100 44 39 45 40 46 41 47 94 48 42 49 99 50 93 51 95 52 43 53
REMARK SMILES IDX 98 54 92 55 91 56 44 58 78 59 57 60 77 61 58 62 61 63 76 64
REMARK SMILES IDX 96 65 59 66 60 67 75 69 97 70 62 71 45 72 46 73 55 74 47 75
REMARK SMILES IDX 48 76 54 77 56 78 49 79 50 80 51 81 52 82 53 83 79 84 80 85
REMARK SMILES IDX 89 86 81 87 82 88 88 89 90 90 83 91 84 92 85 93 86 94 87 95
REMARK SMILES IDX 63 96 64 97 73 98 65 99 66 100 72 101 74 102 67 103 68 104
REMARK SMILES IDX 69 105 70 106 71 107
REMARK H PARENT 8 13 95 57 61 68
REMARK Flexibility Score: inf
ROOT
ATOM      1  C   UNL A   1      38.413  21.942  25.772  1.00  0.00     0.202 C 
ENDROOT
BRANCH   1   2
ATOM      2  O   UNL A   1      37.700  20.916  25.081  1.00  0.00    -0.374 OA
BRANCH   2   3
ATOM      3  C   UNL A   1      36.427  21.319  24.566  1.00  0.00     0.202 C 
BRANCH   3   4
ATOM      4  C   UNL A   1      36.378  22.801  24.197  1.00  0.00     0.261 C 
BRANCH   4   5
ATOM      5  O   UNL A   1      35.307  23.444  24.909  1.00  0.00    -0.460 OA
BRANCH   5   6
ATOM      6  C   UNL A   1      34.405  24.100  24.132  1.00  0.00     0.339 C 
ATOM      7  O   UNL A   1      34.357  24.106  22.919  1.00  0.00    -0.246 OA
BRANCH   6   8
ATOM      8  C   UNL A   1      33.467  24.810  25.011  1.00  0.00     0.075 A 
ATOM      9  C   UNL A   1      31.613  23.113  25.346  1.00  0.00     0.075 A 
ATOM     10  N   UNL A   1      30.390  23.274  25.956  1.00  0.00    -0.275 N 
ATOM     11  C   UNL A   1      32.209  24.364  25.442  1.00  0.00     0.061 A 
ATOM     12  N   UNL A   1      30.184  24.480  26.506  1.00  0.00    -0.154 NA
ATOM     13  H   UNL A   1      29.716  22.557  25.987  1.00  0.00     0.190 HD
ATOM     14  C   UNL A   1      31.305  25.146  26.237  1.00  0.00     0.182 A 
ATOM     15  N   UNL A   1      31.599  26.401  26.659  1.00  0.00    -0.226 NA
ATOM     16  C   UNL A   1      33.756  26.095  25.504  1.00  0.00     0.045 A 
ATOM     17  C   UNL A   1      32.831  26.842  26.279  1.00  0.00     0.074 A 
BRANCH   9  18
ATOM     18  C   UNL A   1      32.038  21.790  24.895  1.00  0.00     0.001 A 
ATOM     19  C   UNL A   1      33.038  19.292  24.043  1.00  0.00     0.118 A 
ATOM     20  C   UNL A   1      32.405  20.157  23.146  1.00  0.00     0.047 A 
ATOM     21  C   UNL A   1      33.122  19.657  25.383  1.00  0.00     0.047 A 
ATOM     22  C   UNL A   1      31.907  21.398  23.564  1.00  0.00     0.014 A 
ATOM     23  C   UNL A   1      32.591  20.882  25.809  1.00  0.00     0.014 A 
BRANCH  19  24
ATOM     24  O   UNL A   1      33.528  18.141  23.490  1.00  0.00    -0.497 OA
ATOM     25  C   UNL A   1      34.463  17.402  24.269  1.00  0.00     0.278 C 
ENDBRANCH  19  24
ENDBRANCH   9  18
BRANCH  17  26
ATOM     26  C   UNL A   1      33.154  28.232  26.681  1.00  0.00     0.000 A 
ATOM     27  C   UNL A   1      34.466  28.631  26.989  1.00  0.00     0.011 A 
ATOM     28  C   UNL A   1      32.141  29.203  26.793  1.00  0.00     0.011 A 
ATOM     29  C   UNL A   1      34.753  29.944  27.391  1.00  0.00     0.014 A 
ATOM     30  C   UNL A   1      32.422  30.513  27.195  1.00  0.00     0.014 A 
ATOM     31  C   UNL A   1      33.731  30.898  27.504  1.00  0.00     0.056 A 
BRANCH  31  32
ATOM     32  C   UNL A   1      34.034  32.301  27.970  1.00  0.00     0.416 C 
ATOM     33  F   UNL A   1      33.136  33.211  27.501  1.00  0.00    -0.166 F 
ATOM     34  F   UNL A   1      34.030  32.424  29.323  1.00  0.00    -0.166 F 
ATOM     35  F   UNL A   1      35.256  32.750  27.559  1.00  0.00    -0.166 F 
ENDBRANCH  31  32
ENDBRANCH  17  26
ENDBRANCH   6   8
ENDBRANCH   5   6
ENDBRANCH   4   5
ENDBRANCH   3   4
ENDBRANCH   2   3
ENDBRANCH   1   2
BRANCH   1  36
ATOM     36  C   UNL A   1      39.725  21.433  26.353  1.00  0.00     0.261 C 
BRANCH  36  37
ATOM     37  O   UNL A   1      40.673  22.483  26.268  1.00  0.00    -0.460 OA
BRANCH  37  38
ATOM     38  C   UNL A   1      40.967  23.080  27.456  1.00  0.00     0.338 C 
ATOM     39  O   UNL A   1      41.079  22.588  28.539  1.00  0.00    -0.246 OA
BRANCH  38  40
ATOM     40  C   UNL A   1      41.073  24.509  27.121  1.00  0.00     0.060 A 
ATOM     41  C   UNL A   1      42.345  25.037  27.290  1.00  0.00     0.016 A 
ATOM     42  C   UNL A   1      39.905  25.294  27.095  1.00  0.00     0.016 A 
ATOM     43  C   UNL A   1      42.413  26.303  27.806  1.00  0.00     0.010 A 
ATOM     44  C   UNL A   1      39.976  26.552  27.626  1.00  0.00     0.010 A 
ATOM     45  C   UNL A   1      41.217  26.975  28.086  1.00  0.00    -0.014 A 
BRANCH  45  46
ATOM     46  C   UNL A   1      41.308  28.162  28.895  1.00  0.00     0.031 A 
ATOM     47  C   UNL A   1      42.405  29.040  28.470  1.00  0.00     0.074 A 
ATOM     48  C   UNL A   1      40.442  28.419  29.889  1.00  0.00     0.049 A 
ATOM     49  N   UNL A   1      43.555  29.181  29.039  1.00  0.00    -0.248 NA
ATOM     50  C   UNL A   1      42.309  29.633  27.129  1.00  0.00     0.031 C 
ATOM     51  C   UNL A   1      39.183  27.747  30.218  1.00  0.00     0.029 A 
ATOM     52  N   UNL A   1      40.490  29.439  30.780  1.00  0.00    -0.354 N 
ATOM     53  C   UNL A   1      44.243  30.077  28.235  1.00  0.00     0.074 A 
ATOM     54  C   UNL A   1      43.542  30.115  26.979  1.00  0.00     0.031 C 
ATOM     55  C   UNL A   1      38.487  28.520  31.086  1.00  0.00     0.029 A 
ATOM     56  C   UNL A   1      39.299  29.667  31.454  1.00  0.00     0.049 A 
ATOM     57  H   UNL A   1      41.303  29.973  30.936  1.00  0.00     0.167 HD
ATOM     58  C   UNL A   1      45.170  30.922  28.756  1.00  0.00     0.037 A 
ATOM     59  C   UNL A   1      39.009  30.808  32.129  1.00  0.00     0.037 A 
ATOM     60  C   UNL A   1      45.581  30.507  30.074  1.00  0.00     0.049 A 
ATOM     61  C   UNL A   1      40.323  31.438  32.474  1.00  0.00     0.074 A 
ATOM     62  C   UNL A   1      46.179  29.369  30.580  1.00  0.00     0.029 A 
ATOM     63  N   UNL A   1      45.018  31.148  31.154  1.00  0.00    -0.354 N 
ATOM     64  N   UNL A   1      41.189  30.894  33.292  1.00  0.00    -0.248 NA
ATOM     65  C   UNL A   1      40.887  32.404  31.538  1.00  0.00     0.031 C 
ATOM     66  C   UNL A   1      45.548  29.143  31.837  1.00  0.00     0.029 A 
ATOM     67  C   UNL A   1      44.643  30.183  32.057  1.00  0.00     0.049 A 
ATOM     68  H   UNL A   1      44.906  32.120  31.261  1.00  0.00     0.167 HD
ATOM     69  C   UNL A   1      42.434  31.129  32.718  1.00  0.00     0.074 A 
ATOM     70  C   UNL A   1      42.186  32.123  31.674  1.00  0.00     0.031 C 
ATOM     71  C   UNL A   1      43.493  30.291  32.933  1.00  0.00     0.037 A 
BRANCH  58  72
ATOM     72  C   UNL A   1      45.419  32.306  28.218  1.00  0.00     0.058 A 
ATOM     73  C   UNL A   1      46.725  32.672  27.844  1.00  0.00     0.135 A 
ATOM     74  C   UNL A   1      44.483  33.363  28.291  1.00  0.00     0.135 A 
ATOM     75  F   UNL A   1      47.695  31.749  27.757  1.00  0.00    -0.206 F 
ATOM     76  C   UNL A   1      47.088  34.000  27.626  1.00  0.00     0.059 A 
ATOM     77  C   UNL A   1      44.807  34.682  28.013  1.00  0.00     0.059 A 
ATOM     78  F   UNL A   1      43.233  33.193  28.737  1.00  0.00    -0.206 F 
ATOM     79  C   UNL A   1      46.122  34.998  27.727  1.00  0.00     0.060 A 
BRANCH  79  80
ATOM     80  S   UNL A   1      46.606  36.722  27.565  1.00  0.00     0.124 S 
ATOM     81  O   UNL A   1      47.874  36.600  26.854  1.00  0.00    -0.237 OA
ATOM     82  O   UNL A   1      45.493  37.278  26.803  1.00  0.00    -0.237 OA
ATOM     83  O   UNL A   1      46.699  37.176  28.950  1.00  0.00    -0.744 OA
ENDBRANCH  79  80
ENDBRANCH  58  72
BRANCH  59  84
ATOM     84  C   UNL A   1      37.728  31.569  32.048  1.00  0.00     0.058 A 
ATOM     85  C   UNL A   1      36.955  31.822  33.196  1.00  0.00     0.135 A 
ATOM     86  C   UNL A   1      37.357  32.288  30.891  1.00  0.00     0.135 A 
ATOM     87  F   UNL A   1      37.242  31.200  34.351  1.00  0.00    -0.206 F 
ATOM     88  C   UNL A   1      35.919  32.766  33.210  1.00  0.00     0.059 A 
ATOM     89  C   UNL A   1      36.322  33.219  30.876  1.00  0.00     0.059 A 
ATOM     90  F   UNL A   1      38.049  32.185  29.749  1.00  0.00    -0.206 F 
ATOM     91  C   UNL A   1      35.624  33.476  32.046  1.00  0.00     0.060 A 
BRANCH  91  92
ATOM     92  S   UNL A   1      34.423  34.827  32.092  1.00  0.00     0.124 S 
ATOM     93  O   UNL A   1      35.108  35.812  32.919  1.00  0.00    -0.237 OA
ATOM     94  O   UNL A   1      34.282  35.163  30.679  1.00  0.00    -0.237 OA
ATOM     95  O   UNL A   1      33.245  34.211  32.702  1.00  0.00    -0.744 OA
ENDBRANCH  91  92
ENDBRANCH  59  84
BRANCH  71  96
ATOM     96  C   UNL A   1      43.364  29.227  33.996  1.00  0.00     0.058 A 
ATOM     97  C   UNL A   1      43.595  29.453  35.365  1.00  0.00     0.135 A 
ATOM     98  C   UNL A   1      42.795  27.994  33.643  1.00  0.00     0.135 A 
ATOM     99  F   UNL A   1      44.033  30.643  35.800  1.00  0.00    -0.206 F 
ATOM    100  C   UNL A   1      43.306  28.490  36.334  1.00  0.00     0.059 A 
ATOM    101  C   UNL A   1      42.470  27.029  34.595  1.00  0.00     0.059 A 
ATOM    102  F   UNL A   1      42.486  27.740  32.360  1.00  0.00    -0.206 F 
ATOM    103  C   UNL A   1      42.736  27.281  35.939  1.00  0.00     0.060 A 
BRANCH 103 104
ATOM    104  S   UNL A   1      42.265  26.077  37.202  1.00  0.00     0.124 S 
ATOM    105  O   UNL A   1      42.408  24.812  36.488  1.00  0.00    -0.237 OA
ATOM    106  O   UNL A   1      43.246  26.323  38.256  1.00  0.00    -0.237 OA
ATOM    107  O   UNL A   1      40.895  26.454  37.538  1.00  0.00    -0.744 OA
ENDBRANCH 103 104
ENDBRANCH  71  96
ENDBRANCH  45  46
ENDBRANCH  38  40
ENDBRANCH  37  38
ENDBRANCH  36  37
ENDBRANCH   1  36
TORSDOF 21
ENDMDL
