MODEL 1
REMARK VINA RESULT:     -12.0      0.000      0.000
REMARK SMILES COc1cccc(NC(=O)NC2(C(=O)OCCOCCOC(=O)c3ccc(-c4c5nc(c(-c6c(F)cc(S(=O)(=O)[O-])cc6F)c6ccc([nH]6)c(-c6c(F)cc(S(=O)(=O)[O-])cc6F)c6nc(c(-c7c(F)cc(S(=O)(=O)[O-])cc7F)c7ccc4[nH]7)C=C6)C=C5)cc3)CCCCC2)c1
REMARK SMILES IDX 18 1 17 2 16 3 15 4 13 5 14 6 12 7 90 8 94 9 91 10 93 11
REMARK SMILES IDX 92 12 11 13 8 14 9 15 10 17 7 19 3 20 4 21 95 22 5 23 6 24
REMARK SMILES IDX 2 25 1 26 19 27 20 28 21 29 22 30 23 31 24 32 25 33 89 34
REMARK SMILES IDX 26 35 88 36 27 37 28 38 29 39 82 40 30 41 87 42 81 43 83 44
REMARK SMILES IDX 31 45 86 46 80 47 79 48 32 50 66 51 45 52 65 53 46 54 49 55
REMARK SMILES IDX 64 56 84 57 47 58 48 59 63 61 85 62 50 63 33 64 34 65 43 66
REMARK SMILES IDX 35 67 36 68 42 69 44 70 37 71 38 72 39 73 40 74 41 75 67 76
REMARK SMILES IDX 68 77 77 78 69 79 70 80 76 81 78 82 71 83 72 84 73 85 74 86
REMARK SMILES IDX 75 87 51 88 52 89 61 90 53 91 54 92 60 93 62 94 55 95 56 96
REMARK SMILES IDX 57 97 58 98 59 99
REMARK H PARENT 8 16 11 18 83 49 49 60
REMARK Flexibility Score: inf
ROOT
ATOM      1  O   UNL A   1      36.502  23.377  25.958  1.00  0.00    -0.374 OA
ENDROOT
BRANCH   1   2
ATOM      2  C   UNL A   1      35.587  23.708  24.903  1.00  0.00     0.202 C 
BRANCH   2   3
ATOM      3  C   UNL A   1      34.244  24.449  25.123  1.00  0.00     0.261 C 
BRANCH   3   4
ATOM      4  O   UNL A   1      33.473  24.166  26.321  1.00  0.00    -0.461 OA
BRANCH   4   5
ATOM      5  C   UNL A   1      33.024  22.883  26.421  1.00  0.00     0.331 C 
ATOM      6  O   UNL A   1      33.620  22.037  27.095  1.00  0.00    -0.249 OA
BRANCH   5   7
ATOM      7  C   UNL A   1      31.787  22.468  25.521  1.00  0.00     0.139 C 
ATOM      8  C   UNL A   1      32.207  21.021  25.106  1.00  0.00     0.040 C 
ATOM      9  C   UNL A   1      31.086  22.999  24.244  1.00  0.00     0.040 C 
ATOM     10  C   UNL A   1      33.182  21.066  23.907  1.00  0.00     0.003 C 
ATOM     11  C   UNL A   1      31.896  23.038  22.956  1.00  0.00     0.003 C 
ATOM     12  C   UNL A   1      32.581  21.717  22.664  1.00  0.00     0.000 C 
BRANCH   7  13
ATOM     13  N   UNL A   1      30.709  22.541  26.540  1.00  0.00    -0.322 N 
ATOM     14  N   UNL A   1      29.690  24.756  26.559  1.00  0.00    -0.308 N 
ATOM     15  C   UNL A   1      29.814  23.462  26.923  1.00  0.00     0.320 C 
ATOM     16  H   UNL A   1      28.837  25.110  26.898  1.00  0.00     0.171 HD
ATOM     17  O   UNL A   1      29.009  23.080  27.787  1.00  0.00    -0.248 OA
ATOM     18  H   UNL A   1      30.632  21.709  27.060  1.00  0.00     0.166 HD
BRANCH  14  19
ATOM     19  C   UNL A   1      30.375  25.776  25.854  1.00  0.00     0.046 A 
ATOM     20  C   UNL A   1      29.882  27.925  23.618  1.00  0.00     0.120 A 
ATOM     21  C   UNL A   1      31.066  29.020  24.395  1.00  0.00     0.046 A 
ATOM     22  C   UNL A   1      29.587  26.281  24.311  1.00  0.00     0.072 A 
ATOM     23  C   UNL A   1      31.913  28.500  25.908  1.00  0.00     0.006 A 
ATOM     24  C   UNL A   1      31.615  26.854  26.562  1.00  0.00     0.026 A 
BRANCH  20  25
ATOM     25  O   UNL A   1      29.265  28.236  22.438  1.00  0.00    -0.497 OA
ATOM     26  C   UNL A   1      28.243  29.219  22.614  1.00  0.00     0.278 C 
ENDBRANCH  20  25
ENDBRANCH  14  19
ENDBRANCH   7  13
ENDBRANCH   5   7
ENDBRANCH   4   5
ENDBRANCH   3   4
ENDBRANCH   2   3
ENDBRANCH   1   2
BRANCH   1  27
ATOM     27  C   UNL A   1      38.039  23.484  25.778  1.00  0.00     0.202 C 
BRANCH  27  28
ATOM     28  C   UNL A   1      39.692  22.079  26.133  1.00  0.00     0.261 C 
BRANCH  28  29
ATOM     29  O   UNL A   1      41.166  22.412  26.761  1.00  0.00    -0.460 OA
BRANCH  29  30
ATOM     30  C   UNL A   1      41.873  23.473  26.286  1.00  0.00     0.338 C 
ATOM     31  O   UNL A   1      42.503  23.523  25.243  1.00  0.00    -0.246 OA
BRANCH  30  32
ATOM     32  C   UNL A   1      41.457  24.692  27.023  1.00  0.00     0.060 A 
ATOM     33  C   UNL A   1      42.135  25.893  26.741  1.00  0.00     0.016 A 
ATOM     34  C   UNL A   1      40.462  24.666  27.997  1.00  0.00     0.016 A 
ATOM     35  C   UNL A   1      41.853  27.058  27.440  1.00  0.00     0.010 A 
ATOM     36  C   UNL A   1      40.216  25.825  28.744  1.00  0.00     0.010 A 
ATOM     37  C   UNL A   1      40.946  27.004  28.495  1.00  0.00    -0.014 A 
BRANCH  37  38
ATOM     38  C   UNL A   1      41.006  28.069  29.522  1.00  0.00     0.031 A 
ATOM     39  C   UNL A   1      42.084  27.943  30.565  1.00  0.00     0.074 A 
ATOM     40  C   UNL A   1      40.159  29.111  29.496  1.00  0.00     0.049 A 
ATOM     41  N   UNL A   1      42.258  28.620  31.666  1.00  0.00    -0.248 NA
ATOM     42  C   UNL A   1      43.101  26.899  30.336  1.00  0.00     0.031 C 
ATOM     43  C   UNL A   1      39.156  29.358  28.458  1.00  0.00     0.029 A 
ATOM     44  N   UNL A   1      39.993  30.146  30.378  1.00  0.00    -0.354 N 
ATOM     45  C   UNL A   1      43.368  28.050  32.284  1.00  0.00     0.074 A 
ATOM     46  C   UNL A   1      43.837  26.983  31.433  1.00  0.00     0.031 C 
ATOM     47  C   UNL A   1      38.449  30.453  28.789  1.00  0.00     0.029 A 
ATOM     48  C   UNL A   1      38.915  30.947  30.081  1.00  0.00     0.049 A 
ATOM     49  H   UNL A   1      40.586  30.301  31.147  1.00  0.00     0.167 HD
ATOM     50  C   UNL A   1      43.927  28.386  33.468  1.00  0.00     0.037 A 
ATOM     51  C   UNL A   1      38.346  31.929  30.808  1.00  0.00     0.037 A 
ATOM     52  C   UNL A   1      43.436  29.472  34.275  1.00  0.00     0.049 A 
ATOM     53  C   UNL A   1      38.961  32.263  32.145  1.00  0.00     0.074 A 
ATOM     54  C   UNL A   1      43.913  29.932  35.487  1.00  0.00     0.029 A 
ATOM     55  N   UNL A   1      42.347  30.266  33.940  1.00  0.00    -0.354 N 
ATOM     56  N   UNL A   1      39.995  31.707  32.736  1.00  0.00    -0.248 NA
ATOM     57  C   UNL A   1      38.339  33.348  32.913  1.00  0.00     0.031 C 
ATOM     58  C   UNL A   1      43.079  30.973  35.909  1.00  0.00     0.029 A 
ATOM     59  C   UNL A   1      42.121  31.200  34.932  1.00  0.00     0.049 A 
ATOM     60  H   UNL A   1      41.815  30.177  33.115  1.00  0.00     0.167 HD
ATOM     61  C   UNL A   1      40.164  32.390  33.934  1.00  0.00     0.074 A 
ATOM     62  C   UNL A   1      39.131  33.409  33.975  1.00  0.00     0.031 C 
ATOM     63  C   UNL A   1      41.082  32.201  34.917  1.00  0.00     0.037 A 
BRANCH  50  64
ATOM     64  C   UNL A   1      45.069  27.549  33.982  1.00  0.00     0.058 A 
ATOM     65  C   UNL A   1      46.413  27.875  33.742  1.00  0.00     0.135 A 
ATOM     66  C   UNL A   1      44.806  26.408  34.760  1.00  0.00     0.135 A 
ATOM     67  F   UNL A   1      46.725  28.937  32.982  1.00  0.00    -0.206 F 
ATOM     68  C   UNL A   1      47.453  27.097  34.244  1.00  0.00     0.059 A 
ATOM     69  C   UNL A   1      45.830  25.630  35.294  1.00  0.00     0.059 A 
ATOM     70  F   UNL A   1      43.540  26.036  35.008  1.00  0.00    -0.206 F 
ATOM     71  C   UNL A   1      47.152  25.979  35.025  1.00  0.00     0.060 A 
BRANCH  71  72
ATOM     72  S   UNL A   1      48.512  25.001  35.700  1.00  0.00     0.124 S 
ATOM     73  O   UNL A   1      48.295  23.712  35.053  1.00  0.00    -0.237 OA
ATOM     74  O   UNL A   1      49.683  25.746  35.249  1.00  0.00    -0.237 OA
ATOM     75  O   UNL A   1      48.271  25.029  37.140  1.00  0.00    -0.744 OA
ENDBRANCH  71  72
ENDBRANCH  50  64
BRANCH  51  76
ATOM     76  C   UNL A   1      37.118  32.615  30.318  1.00  0.00     0.058 A 
ATOM     77  C   UNL A   1      37.174  33.578  29.299  1.00  0.00     0.135 A 
ATOM     78  C   UNL A   1      35.854  32.312  30.853  1.00  0.00     0.135 A 
ATOM     79  F   UNL A   1      38.355  33.914  28.759  1.00  0.00    -0.206 F 
ATOM     80  C   UNL A   1      36.029  34.222  28.837  1.00  0.00     0.059 A 
ATOM     81  C   UNL A   1      34.692  32.920  30.387  1.00  0.00     0.059 A 
ATOM     82  F   UNL A   1      35.737  31.390  31.822  1.00  0.00    -0.206 F 
ATOM     83  C   UNL A   1      34.790  33.882  29.384  1.00  0.00     0.060 A 
BRANCH  83  84
ATOM     84  S   UNL A   1      33.305  34.686  28.741  1.00  0.00     0.124 S 
ATOM     85  O   UNL A   1      32.543  34.915  29.963  1.00  0.00    -0.237 OA
ATOM     86  O   UNL A   1      33.854  35.873  28.096  1.00  0.00    -0.237 OA
ATOM     87  O   UNL A   1      32.752  33.687  27.830  1.00  0.00    -0.744 OA
ENDBRANCH  83  84
ENDBRANCH  51  76
BRANCH  63  88
ATOM     88  C   UNL A   1      41.031  33.143  36.084  1.00  0.00     0.058 A 
ATOM     89  C   UNL A   1      40.166  32.930  37.166  1.00  0.00     0.135 A 
ATOM     90  C   UNL A   1      41.906  34.240  36.140  1.00  0.00     0.135 A 
ATOM     91  F   UNL A   1      39.309  31.896  37.154  1.00  0.00    -0.206 F 
ATOM     92  C   UNL A   1      40.147  33.792  38.255  1.00  0.00     0.059 A 
ATOM     93  C   UNL A   1      41.926  35.097  37.233  1.00  0.00     0.059 A 
ATOM     94  F   UNL A   1      42.764  34.476  35.134  1.00  0.00    -0.206 F 
ATOM     95  C   UNL A   1      41.033  34.872  38.280  1.00  0.00     0.060 A 
BRANCH  95  96
ATOM     96  S   UNL A   1      41.018  35.967  39.713  1.00  0.00     0.124 S 
ATOM     97  O   UNL A   1      40.803  37.266  39.084  1.00  0.00    -0.237 OA
ATOM     98  O   UNL A   1      39.900  35.446  40.492  1.00  0.00    -0.237 OA
ATOM     99  O   UNL A   1      42.337  35.767  40.307  1.00  0.00    -0.744 OA
ENDBRANCH  95  96
ENDBRANCH  63  88
ENDBRANCH  37  38
ENDBRANCH  30  32
ENDBRANCH  29  30
ENDBRANCH  28  29
ENDBRANCH  27  28
ENDBRANCH   1  27
TORSDOF 20
ENDMDL
MODEL 2
REMARK VINA RESULT:     -11.7      5.482     10.971
REMARK SMILES COc1cccc(NC(=O)NC2(C(=O)OCCOCCOC(=O)c3ccc(-c4c5nc(c(-c6c(F)cc(S(=O)(=O)[O-])cc6F)c6ccc([nH]6)c(-c6c(F)cc(S(=O)(=O)[O-])cc6F)c6nc(c(-c7c(F)cc(S(=O)(=O)[O-])cc7F)c7ccc4[nH]7)C=C6)C=C5)cc3)CCCCC2)c1
REMARK SMILES IDX 18 1 17 2 16 3 15 4 13 5 14 6 12 7 90 8 94 9 91 10 93 11
REMARK SMILES IDX 92 12 11 13 8 14 9 15 10 17 7 19 3 20 4 21 95 22 5 23 6 24
REMARK SMILES IDX 2 25 1 26 19 27 20 28 21 29 22 30 23 31 24 32 25 33 89 34
REMARK SMILES IDX 26 35 88 36 27 37 28 38 29 39 82 40 30 41 87 42 81 43 83 44
REMARK SMILES IDX 31 45 86 46 80 47 79 48 32 50 66 51 45 52 65 53 46 54 49 55
REMARK SMILES IDX 64 56 84 57 47 58 48 59 63 61 85 62 50 63 33 64 34 65 43 66
REMARK SMILES IDX 35 67 36 68 42 69 44 70 37 71 38 72 39 73 40 74 41 75 67 76
REMARK SMILES IDX 68 77 77 78 69 79 70 80 76 81 78 82 71 83 72 84 73 85 74 86
REMARK SMILES IDX 75 87 51 88 52 89 61 90 53 91 54 92 60 93 62 94 55 95 56 96
REMARK SMILES IDX 57 97 58 98 59 99
REMARK H PARENT 8 16 11 18 83 49 49 60
REMARK Flexibility Score: inf
ROOT
ATOM      1  O   UNL A   1      32.468  30.354  26.868  1.00  0.00    -0.374 OA
ENDROOT
BRANCH   1   2
ATOM      2  C   UNL A   1      31.830  29.140  27.290  1.00  0.00     0.202 C 
BRANCH   2   3
ATOM      3  C   UNL A   1      32.056  27.763  26.615  1.00  0.00     0.261 C 
BRANCH   3   4
ATOM      4  O   UNL A   1      30.922  26.871  26.441  1.00  0.00    -0.461 OA
BRANCH   4   5
ATOM      5  C   UNL A   1      30.828  26.302  25.206  1.00  0.00     0.331 C 
ATOM      6  O   UNL A   1      29.867  26.520  24.462  1.00  0.00    -0.249 OA
BRANCH   5   7
ATOM      7  C   UNL A   1      31.925  25.230  24.809  1.00  0.00     0.139 C 
ATOM      8  C   UNL A   1      31.030  23.963  24.613  1.00  0.00     0.040 C 
ATOM      9  C   UNL A   1      33.215  24.642  25.437  1.00  0.00     0.040 C 
ATOM     10  C   UNL A   1      30.738  23.295  25.977  1.00  0.00     0.003 C 
ATOM     11  C   UNL A   1      33.082  23.887  26.752  1.00  0.00     0.003 C 
ATOM     12  C   UNL A   1      31.997  22.828  26.703  1.00  0.00     0.000 C 
BRANCH   7  13
ATOM     13  N   UNL A   1      32.424  25.845  23.553  1.00  0.00    -0.322 N 
ATOM     14  N   UNL A   1      33.263  24.135  22.031  1.00  0.00    -0.308 N 
ATOM     15  C   UNL A   1      32.919  25.389  22.394  1.00  0.00     0.320 C 
ATOM     16  H   UNL A   1      33.443  24.113  21.063  1.00  0.00     0.171 HD
ATOM     17  O   UNL A   1      33.147  26.263  21.543  1.00  0.00    -0.248 OA
ATOM     18  H   UNL A   1      32.380  26.828  23.577  1.00  0.00     0.166 HD
BRANCH  14  19
ATOM     19  C   UNL A   1      33.454  22.840  22.574  1.00  0.00     0.046 A 
ATOM     20  C   UNL A   1      35.086  21.373  24.820  1.00  0.00     0.120 A 
ATOM     21  C   UNL A   1      33.750  20.202  25.040  1.00  0.00     0.046 A 
ATOM     22  C   UNL A   1      34.964  22.649  23.545  1.00  0.00     0.072 A 
ATOM     23  C   UNL A   1      32.257  20.343  24.027  1.00  0.00     0.006 A 
ATOM     24  C   UNL A   1      32.171  21.607  22.754  1.00  0.00     0.026 A 
BRANCH  20  25
ATOM     25  O   UNL A   1      36.264  21.275  25.507  1.00  0.00    -0.497 OA
ATOM     26  C   UNL A   1      37.397  21.392  24.643  1.00  0.00     0.278 C 
ENDBRANCH  20  25
ENDBRANCH  14  19
ENDBRANCH   7  13
ENDBRANCH   5   7
ENDBRANCH   4   5
ENDBRANCH   3   4
ENDBRANCH   2   3
ENDBRANCH   1   2
BRANCH   1  27
ATOM     27  C   UNL A   1      33.830  30.814  27.451  1.00  0.00     0.202 C 
BRANCH  27  28
ATOM     28  C   UNL A   1      34.420  32.500  28.731  1.00  0.00     0.261 C 
BRANCH  28  29
ATOM     29  O   UNL A   1      35.833  32.697  29.533  1.00  0.00    -0.460 OA
BRANCH  29  30
ATOM     30  C   UNL A   1      36.155  31.843  30.543  1.00  0.00     0.338 C 
ATOM     31  O   UNL A   1      35.478  31.580  31.521  1.00  0.00    -0.246 OA
BRANCH  30  32
ATOM     32  C   UNL A   1      37.278  30.980  30.097  1.00  0.00     0.060 A 
ATOM     33  C   UNL A   1      38.069  30.369  31.088  1.00  0.00     0.016 A 
ATOM     34  C   UNL A   1      37.585  30.798  28.751  1.00  0.00     0.016 A 
ATOM     35  C   UNL A   1      39.179  29.607  30.752  1.00  0.00     0.010 A 
ATOM     36  C   UNL A   1      38.737  30.079  28.411  1.00  0.00     0.010 A 
ATOM     37  C   UNL A   1      39.558  29.526  29.414  1.00  0.00    -0.014 A 
BRANCH  37  38
ATOM     38  C   UNL A   1      40.955  29.152  29.105  1.00  0.00     0.031 A 
ATOM     39  C   UNL A   1      41.976  30.258  29.142  1.00  0.00     0.074 A 
ATOM     40  C   UNL A   1      41.295  27.879  28.842  1.00  0.00     0.049 A 
ATOM     41  N   UNL A   1      43.219  30.256  28.749  1.00  0.00    -0.248 NA
ATOM     42  C   UNL A   1      41.523  31.551  29.690  1.00  0.00     0.031 C 
ATOM     43  C   UNL A   1      40.383  26.735  28.890  1.00  0.00     0.029 A 
ATOM     44  N   UNL A   1      42.494  27.338  28.461  1.00  0.00    -0.354 N 
ATOM     45  C   UNL A   1      43.679  31.554  28.953  1.00  0.00     0.074 A 
ATOM     46  C   UNL A   1      42.590  32.315  29.515  1.00  0.00     0.031 C 
ATOM     47  C   UNL A   1      41.049  25.631  28.508  1.00  0.00     0.029 A 
ATOM     48  C   UNL A   1      42.412  26.003  28.140  1.00  0.00     0.049 A 
ATOM     49  H   UNL A   1      43.331  27.853  28.421  1.00  0.00     0.167 HD
ATOM     50  C   UNL A   1      44.902  32.059  28.673  1.00  0.00     0.037 A 
ATOM     51  C   UNL A   1      43.326  25.198  27.563  1.00  0.00     0.037 A 
ATOM     52  C   UNL A   1      45.964  31.256  28.129  1.00  0.00     0.049 A 
ATOM     53  C   UNL A   1      44.672  25.791  27.222  1.00  0.00     0.074 A 
ATOM     54  C   UNL A   1      47.255  31.631  27.810  1.00  0.00     0.029 A 
ATOM     55  N   UNL A   1      45.848  29.905  27.823  1.00  0.00    -0.354 N 
ATOM     56  N   UNL A   1      45.094  27.023  27.394  1.00  0.00    -0.248 NA
ATOM     57  C   UNL A   1      45.660  24.895  26.611  1.00  0.00     0.031 C 
ATOM     58  C   UNL A   1      47.903  30.518  27.263  1.00  0.00     0.029 A 
ATOM     59  C   UNL A   1      47.036  29.435  27.298  1.00  0.00     0.049 A 
ATOM     60  H   UNL A   1      45.037  29.363  27.962  1.00  0.00     0.167 HD
ATOM     61  C   UNL A   1      46.406  27.046  26.936  1.00  0.00     0.074 A 
ATOM     62  C   UNL A   1      46.709  25.698  26.492  1.00  0.00     0.031 C 
ATOM     63  C   UNL A   1      47.287  28.078  26.881  1.00  0.00     0.037 A 
BRANCH  50  64
ATOM     64  C   UNL A   1      45.132  33.531  28.885  1.00  0.00     0.058 A 
ATOM     65  C   UNL A   1      45.679  34.047  30.071  1.00  0.00     0.135 A 
ATOM     66  C   UNL A   1      44.823  34.444  27.862  1.00  0.00     0.135 A 
ATOM     67  F   UNL A   1      45.966  33.228  31.095  1.00  0.00    -0.206 F 
ATOM     68  C   UNL A   1      45.901  35.412  30.239  1.00  0.00     0.059 A 
ATOM     69  C   UNL A   1      45.062  35.810  27.996  1.00  0.00     0.059 A 
ATOM     70  F   UNL A   1      44.282  34.011  26.712  1.00  0.00    -0.206 F 
ATOM     71  C   UNL A   1      45.595  36.286  29.193  1.00  0.00     0.060 A 
BRANCH  71  72
ATOM     72  S   UNL A   1      45.924  38.048  29.411  1.00  0.00     0.124 S 
ATOM     73  O   UNL A   1      44.575  38.604  29.378  1.00  0.00    -0.237 OA
ATOM     74  O   UNL A   1      46.591  38.081  30.709  1.00  0.00    -0.237 OA
ATOM     75  O   UNL A   1      46.767  38.382  28.267  1.00  0.00    -0.744 OA
ENDBRANCH  71  72
ENDBRANCH  50  64
BRANCH  51  76
ATOM     76  C   UNL A   1      42.985  23.788  27.229  1.00  0.00     0.058 A 
ATOM     77  C   UNL A   1      42.954  22.789  28.214  1.00  0.00     0.135 A 
ATOM     78  C   UNL A   1      42.669  23.409  25.913  1.00  0.00     0.135 A 
ATOM     79  F   UNL A   1      43.256  23.091  29.485  1.00  0.00    -0.206 F 
ATOM     80  C   UNL A   1      42.634  21.468  27.907  1.00  0.00     0.059 A 
ATOM     81  C   UNL A   1      42.318  22.102  25.586  1.00  0.00     0.059 A 
ATOM     82  F   UNL A   1      42.671  24.324  24.930  1.00  0.00    -0.206 F 
ATOM     83  C   UNL A   1      42.312  21.135  26.590  1.00  0.00     0.060 A 
BRANCH  83  84
ATOM     84  S   UNL A   1      41.850  19.430  26.212  1.00  0.00     0.124 S 
ATOM     85  O   UNL A   1      40.406  19.547  26.041  1.00  0.00    -0.237 OA
ATOM     86  O   UNL A   1      42.618  19.166  25.000  1.00  0.00    -0.237 OA
ATOM     87  O   UNL A   1      42.288  18.694  27.394  1.00  0.00    -0.744 OA
ENDBRANCH  83  84
ENDBRANCH  51  76
BRANCH  63  88
ATOM     88  C   UNL A   1      48.663  27.770  26.367  1.00  0.00     0.058 A 
ATOM     89  C   UNL A   1      48.939  27.705  24.994  1.00  0.00     0.135 A 
ATOM     90  C   UNL A   1      49.726  27.596  27.267  1.00  0.00     0.135 A 
ATOM     91  F   UNL A   1      47.952  27.859  24.097  1.00  0.00    -0.206 F 
ATOM     92  C   UNL A   1      50.223  27.448  24.528  1.00  0.00     0.059 A 
ATOM     93  C   UNL A   1      51.023  27.370  26.823  1.00  0.00     0.059 A 
ATOM     94  F   UNL A   1      49.513  27.666  28.591  1.00  0.00    -0.206 F 
ATOM     95  C   UNL A   1      51.258  27.284  25.452  1.00  0.00     0.060 A 
BRANCH  95  96
ATOM     96  S   UNL A   1      52.925  26.978  24.833  1.00  0.00     0.124 S 
ATOM     97  O   UNL A   1      53.149  28.158  24.004  1.00  0.00    -0.237 OA
ATOM     98  O   UNL A   1      53.706  26.909  26.064  1.00  0.00    -0.237 OA
ATOM     99  O   UNL A   1      52.792  25.717  24.110  1.00  0.00    -0.744 OA
ENDBRANCH  95  96
ENDBRANCH  63  88
ENDBRANCH  37  38
ENDBRANCH  30  32
ENDBRANCH  29  30
ENDBRANCH  28  29
ENDBRANCH  27  28
ENDBRANCH   1  27
TORSDOF 20
ENDMDL
MODEL 3
REMARK VINA RESULT:     -11.7      2.395      8.276
REMARK SMILES COc1cccc(NC(=O)NC2(C(=O)OCCOCCOC(=O)c3ccc(-c4c5nc(c(-c6c(F)cc(S(=O)(=O)[O-])cc6F)c6ccc([nH]6)c(-c6c(F)cc(S(=O)(=O)[O-])cc6F)c6nc(c(-c7c(F)cc(S(=O)(=O)[O-])cc7F)c7ccc4[nH]7)C=C6)C=C5)cc3)CCCCC2)c1
REMARK SMILES IDX 18 1 17 2 16 3 15 4 13 5 14 6 12 7 90 8 94 9 91 10 93 11
REMARK SMILES IDX 92 12 11 13 8 14 9 15 10 17 7 19 3 20 4 21 95 22 5 23 6 24
REMARK SMILES IDX 2 25 1 26 19 27 20 28 21 29 22 30 23 31 24 32 25 33 89 34
REMARK SMILES IDX 26 35 88 36 27 37 28 38 29 39 82 40 30 41 87 42 81 43 83 44
REMARK SMILES IDX 31 45 86 46 80 47 79 48 32 50 66 51 45 52 65 53 46 54 49 55
REMARK SMILES IDX 64 56 84 57 47 58 48 59 63 61 85 62 50 63 33 64 34 65 43 66
REMARK SMILES IDX 35 67 36 68 42 69 44 70 37 71 38 72 39 73 40 74 41 75 67 76
REMARK SMILES IDX 68 77 77 78 69 79 70 80 76 81 78 82 71 83 72 84 73 85 74 86
REMARK SMILES IDX 75 87 51 88 52 89 61 90 53 91 54 92 60 93 62 94 55 95 56 96
REMARK SMILES IDX 57 97 58 98 59 99
REMARK H PARENT 8 16 11 18 83 49 49 60
REMARK Flexibility Score: inf
ROOT
ATOM      1  O   UNL A   1      33.916  28.615  26.012  1.00  0.00    -0.374 OA
ENDROOT
BRANCH   1   2
ATOM      2  C   UNL A   1      32.868  29.238  25.255  1.00  0.00     0.202 C 
BRANCH   2   3
ATOM      3  C   UNL A   1      31.389  28.776  25.281  1.00  0.00     0.261 C 
BRANCH   3   4
ATOM      4  O   UNL A   1      31.086  27.413  25.684  1.00  0.00    -0.461 OA
BRANCH   4   5
ATOM      5  C   UNL A   1      30.749  26.577  24.662  1.00  0.00     0.331 C 
ATOM      6  O   UNL A   1      29.937  26.909  23.792  1.00  0.00    -0.249 OA
BRANCH   5   7
ATOM      7  C   UNL A   1      31.322  25.100  24.705  1.00  0.00     0.139 C 
ATOM      8  C   UNL A   1      32.809  25.380  25.097  1.00  0.00     0.040 C 
ATOM      9  C   UNL A   1      31.447  23.904  23.726  1.00  0.00     0.040 C 
ATOM     10  C   UNL A   1      33.632  25.762  23.845  1.00  0.00     0.003 C 
ATOM     11  C   UNL A   1      32.290  24.100  22.474  1.00  0.00     0.003 C 
ATOM     12  C   UNL A   1      33.663  24.665  22.784  1.00  0.00     0.000 C 
BRANCH   7  13
ATOM     13  N   UNL A   1      30.480  24.544  25.795  1.00  0.00    -0.322 N 
ATOM     14  N   UNL A   1      31.390  22.426  26.589  1.00  0.00    -0.308 N 
ATOM     15  C   UNL A   1      30.543  23.477  26.603  1.00  0.00     0.320 C 
ATOM     16  H   UNL A   1      31.269  21.898  27.411  1.00  0.00     0.171 HD
ATOM     17  O   UNL A   1      29.650  23.420  27.463  1.00  0.00    -0.248 OA
ATOM     18  H   UNL A   1      29.682  25.093  25.966  1.00  0.00     0.166 HD
BRANCH  14  19
ATOM     19  C   UNL A   1      32.394  21.826  25.789  1.00  0.00     0.046 A 
ATOM     20  C   UNL A   1      35.501  21.374  25.740  1.00  0.00     0.120 A 
ATOM     21  C   UNL A   1      35.271  19.812  24.893  1.00  0.00     0.046 A 
ATOM     22  C   UNL A   1      34.070  22.407  26.128  1.00  0.00     0.072 A 
ATOM     23  C   UNL A   1      33.599  19.248  24.490  1.00  0.00     0.006 A 
ATOM     24  C   UNL A   1      32.197  20.305  24.870  1.00  0.00     0.026 A 
BRANCH  20  25
ATOM     25  O   UNL A   1      36.742  21.882  26.008  1.00  0.00    -0.497 OA
ATOM     26  C   UNL A   1      37.316  22.520  24.865  1.00  0.00     0.278 C 
ENDBRANCH  20  25
ENDBRANCH  14  19
ENDBRANCH   7  13
ENDBRANCH   5   7
ENDBRANCH   4   5
ENDBRANCH   3   4
ENDBRANCH   2   3
ENDBRANCH   1   2
BRANCH   1  27
ATOM     27  C   UNL A   1      34.771  29.403  27.038  1.00  0.00     0.202 C 
BRANCH  27  28
ATOM     28  C   UNL A   1      34.771  31.501  27.692  1.00  0.00     0.261 C 
BRANCH  28  29
ATOM     29  O   UNL A   1      33.475  32.445  28.019  1.00  0.00    -0.460 OA
BRANCH  29  30
ATOM     30  C   UNL A   1      33.665  33.681  28.556  1.00  0.00     0.338 C 
ATOM     31  O   UNL A   1      32.926  34.645  28.451  1.00  0.00    -0.246 OA
BRANCH  30  32
ATOM     32  C   UNL A   1      34.706  33.589  29.609  1.00  0.00     0.060 A 
ATOM     33  C   UNL A   1      35.958  34.178  29.348  1.00  0.00     0.016 A 
ATOM     34  C   UNL A   1      34.493  32.910  30.806  1.00  0.00     0.016 A 
ATOM     35  C   UNL A   1      37.005  34.072  30.252  1.00  0.00     0.010 A 
ATOM     36  C   UNL A   1      35.564  32.751  31.694  1.00  0.00     0.010 A 
ATOM     37  C   UNL A   1      36.830  33.291  31.392  1.00  0.00    -0.014 A 
BRANCH  37  38
ATOM     38  C   UNL A   1      38.036  32.781  32.081  1.00  0.00     0.031 A 
ATOM     39  C   UNL A   1      38.787  31.669  31.399  1.00  0.00     0.074 A 
ATOM     40  C   UNL A   1      38.455  33.315  33.240  1.00  0.00     0.049 A 
ATOM     41  N   UNL A   1      39.757  30.922  31.848  1.00  0.00    -0.248 NA
ATOM     42  C   UNL A   1      38.373  31.348  30.019  1.00  0.00     0.031 C 
ATOM     43  C   UNL A   1      37.843  34.464  33.911  1.00  0.00     0.029 A 
ATOM     44  N   UNL A   1      39.482  32.949  34.070  1.00  0.00    -0.354 N 
ATOM     45  C   UNL A   1      40.033  30.014  30.829  1.00  0.00     0.074 A 
ATOM     46  C   UNL A   1      39.140  30.307  29.735  1.00  0.00     0.031 C 
ATOM     47  C   UNL A   1      38.482  34.679  35.074  1.00  0.00     0.029 A 
ATOM     48  C   UNL A   1      39.508  33.656  35.250  1.00  0.00     0.049 A 
ATOM     49  H   UNL A   1      40.136  32.249  33.844  1.00  0.00     0.167 HD
ATOM     50  C   UNL A   1      40.943  29.014  30.828  1.00  0.00     0.037 A 
ATOM     51  C   UNL A   1      40.244  33.451  36.360  1.00  0.00     0.037 A 
ATOM     52  C   UNL A   1      41.826  28.771  31.937  1.00  0.00     0.049 A 
ATOM     53  C   UNL A   1      41.227  32.306  36.353  1.00  0.00     0.074 A 
ATOM     54  C   UNL A   1      42.805  27.805  32.067  1.00  0.00     0.029 A 
ATOM     55  N   UNL A   1      41.830  29.511  33.113  1.00  0.00    -0.354 N 
ATOM     56  N   UNL A   1      41.468  31.435  35.398  1.00  0.00    -0.248 NA
ATOM     57  C   UNL A   1      42.032  32.111  37.564  1.00  0.00     0.031 C 
ATOM     58  C   UNL A   1      43.365  27.929  33.343  1.00  0.00     0.029 A 
ATOM     59  C   UNL A   1      42.777  29.010  33.984  1.00  0.00     0.049 A 
ATOM     60  H   UNL A   1      41.243  30.281  33.297  1.00  0.00     0.167 HD
ATOM     61  C   UNL A   1      42.470  30.603  35.882  1.00  0.00     0.074 A 
ATOM     62  C   UNL A   1      42.798  31.087  37.211  1.00  0.00     0.031 C 
ATOM     63  C   UNL A   1      43.071  29.538  35.294  1.00  0.00     0.037 A 
BRANCH  50  64
ATOM     64  C   UNL A   1      40.985  28.089  29.641  1.00  0.00     0.058 A 
ATOM     65  C   UNL A   1      41.940  28.214  28.619  1.00  0.00     0.135 A 
ATOM     66  C   UNL A   1      40.063  27.032  29.542  1.00  0.00     0.135 A 
ATOM     67  F   UNL A   1      42.827  29.221  28.643  1.00  0.00    -0.206 F 
ATOM     68  C   UNL A   1      41.972  27.334  27.539  1.00  0.00     0.059 A 
ATOM     69  C   UNL A   1      40.093  26.125  28.487  1.00  0.00     0.059 A 
ATOM     70  F   UNL A   1      39.116  26.873  30.481  1.00  0.00    -0.206 F 
ATOM     71  C   UNL A   1      41.049  26.288  27.485  1.00  0.00     0.060 A 
BRANCH  71  72
ATOM     72  S   UNL A   1      41.128  25.133  26.099  1.00  0.00     0.124 S 
ATOM     73  O   UNL A   1      41.622  25.993  25.029  1.00  0.00    -0.237 OA
ATOM     74  O   UNL A   1      42.064  24.126  26.586  1.00  0.00    -0.237 OA
ATOM     75  O   UNL A   1      39.747  24.682  25.952  1.00  0.00    -0.744 OA
ENDBRANCH  71  72
ENDBRANCH  50  64
BRANCH  51  76
ATOM     76  C   UNL A   1      40.043  34.303  37.565  1.00  0.00     0.058 A 
ATOM     77  C   UNL A   1      39.253  33.875  38.642  1.00  0.00     0.135 A 
ATOM     78  C   UNL A   1      40.651  35.566  37.670  1.00  0.00     0.135 A 
ATOM     79  F   UNL A   1      38.640  32.682  38.591  1.00  0.00    -0.206 F 
ATOM     80  C   UNL A   1      39.063  34.668  39.772  1.00  0.00     0.059 A 
ATOM     81  C   UNL A   1      40.501  36.364  38.801  1.00  0.00     0.059 A 
ATOM     82  F   UNL A   1      41.428  36.024  36.676  1.00  0.00    -0.206 F 
ATOM     83  C   UNL A   1      39.696  35.910  39.844  1.00  0.00     0.060 A 
BRANCH  83  84
ATOM     84  S   UNL A   1      39.485  36.909  41.335  1.00  0.00     0.124 S 
ATOM     85  O   UNL A   1      38.988  38.163  40.781  1.00  0.00    -0.237 OA
ATOM     86  O   UNL A   1      38.523  36.120  42.098  1.00  0.00    -0.237 OA
ATOM     87  O   UNL A   1      40.831  36.957  41.899  1.00  0.00    -0.744 OA
ENDBRANCH  83  84
ENDBRANCH  51  76
BRANCH  63  88
ATOM     88  C   UNL A   1      44.165  28.862  36.067  1.00  0.00     0.058 A 
ATOM     89  C   UNL A   1      45.491  29.315  36.019  1.00  0.00     0.135 A 
ATOM     90  C   UNL A   1      43.864  27.781  36.911  1.00  0.00     0.135 A 
ATOM     91  F   UNL A   1      45.826  30.342  35.222  1.00  0.00    -0.206 F 
ATOM     92  C   UNL A   1      46.491  28.699  36.761  1.00  0.00     0.059 A 
ATOM     93  C   UNL A   1      44.842  27.170  37.686  1.00  0.00     0.059 A 
ATOM     94  F   UNL A   1      42.605  27.321  37.001  1.00  0.00    -0.206 F 
ATOM     95  C   UNL A   1      46.155  27.628  37.593  1.00  0.00     0.060 A 
BRANCH  95  96
ATOM     96  S   UNL A   1      47.458  26.856  38.573  1.00  0.00     0.124 S 
ATOM     97  O   UNL A   1      48.478  27.899  38.577  1.00  0.00    -0.237 OA
ATOM     98  O   UNL A   1      46.789  26.617  39.848  1.00  0.00    -0.237 OA
ATOM     99  O   UNL A   1      47.789  25.656  37.811  1.00  0.00    -0.744 OA
ENDBRANCH  95  96
ENDBRANCH  63  88
ENDBRANCH  37  38
ENDBRANCH  30  32
ENDBRANCH  29  30
ENDBRANCH  28  29
ENDBRANCH  27  28
ENDBRANCH   1  27
TORSDOF 20
ENDMDL
