MODEL 1
REMARK VINA RESULT:     -10.7      0.000      0.000
REMARK SMILES O=C(OCCOCCOC(=O)c1ccc(COc2cccc(C(F)(F)F)c2)nc1)c1ccc(-c2c3nc(c(-c4c(F)cc(S(=O)(=O)[O-])cc4F)c4ccc([nH]4)c(-c4c(F)cc(S(=O)(=O)[O-])cc4F)c4nc(c(-c5c(F)cc(S(=O)(=O)[O-])cc5F)c5ccc2[nH]5)C=C4)C=C3)cc1
REMARK SMILES IDX 7 1 6 2 5 3 4 4 3 5 2 6 1 7 30 8 31 9 95 10 32 11 94 12
REMARK SMILES IDX 33 13 34 14 35 15 88 16 36 17 93 18 87 19 89 20 37 21 92 22
REMARK SMILES IDX 86 23 85 24 38 26 72 27 51 28 71 29 52 30 55 31 70 32 90 33
REMARK SMILES IDX 53 34 54 35 69 37 91 38 56 39 39 40 40 41 49 42 41 43 42 44
REMARK SMILES IDX 48 45 50 46 43 47 44 48 45 49 46 50 47 51 73 52 74 53 83 54
REMARK SMILES IDX 75 55 76 56 82 57 84 58 77 59 78 60 79 61 80 62 81 63 57 64
REMARK SMILES IDX 58 65 67 66 59 67 60 68 66 69 68 70 61 71 62 72 63 73 64 74
REMARK SMILES IDX 65 75 8 76 9 77 10 78 11 79 12 80 13 81 29 82 14 83 28 84
REMARK SMILES IDX 15 85 16 86 17 87 18 88 19 89 27 90 20 91 22 92 21 93 23 94
REMARK SMILES IDX 24 95 25 96 26 97
REMARK H PARENT 89 25 55 36
REMARK Flexibility Score: inf
ROOT
ATOM      1  C   UNL A   1      41.378  20.999  26.648  1.00  0.00     0.202 C 
ENDROOT
BRANCH   1   2
ATOM      2  O   UNL A   1      42.295  21.259  25.577  1.00  0.00    -0.374 OA
BRANCH   2   3
ATOM      3  C   UNL A   1      42.829  22.579  25.492  1.00  0.00     0.202 C 
BRANCH   3   4
ATOM      4  C   UNL A   1      42.413  23.533  26.611  1.00  0.00     0.261 C 
BRANCH   4   5
ATOM      5  O   UNL A   1      41.361  24.395  26.155  1.00  0.00    -0.460 OA
BRANCH   5   6
ATOM      6  C   UNL A   1      41.359  25.748  26.139  1.00  0.00     0.338 C 
ATOM      7  O   UNL A   1      41.506  26.324  25.062  1.00  0.00    -0.246 OA
BRANCH   6   8
ATOM      8  C   UNL A   1      41.175  26.581  27.364  1.00  0.00     0.060 A 
ATOM      9  C   UNL A   1      40.282  26.293  28.398  1.00  0.00     0.016 A 
ATOM     10  C   UNL A   1      42.039  27.676  27.523  1.00  0.00     0.016 A 
ATOM     11  C   UNL A   1      40.194  27.089  29.527  1.00  0.00     0.010 A 
ATOM     12  C   UNL A   1      41.992  28.459  28.679  1.00  0.00     0.010 A 
ATOM     13  C   UNL A   1      41.058  28.165  29.679  1.00  0.00    -0.014 A 
BRANCH  13  14
ATOM     14  C   UNL A   1      40.892  29.008  30.871  1.00  0.00     0.031 A 
ATOM     15  C   UNL A   1      39.789  30.016  30.875  1.00  0.00     0.074 A 
ATOM     16  C   UNL A   1      41.642  28.757  31.960  1.00  0.00     0.049 A 
ATOM     17  N   UNL A   1      39.487  30.901  31.783  1.00  0.00    -0.248 NA
ATOM     18  C   UNL A   1      38.896  30.020  29.703  1.00  0.00     0.031 C 
ATOM     19  C   UNL A   1      42.645  27.690  32.062  1.00  0.00     0.029 A 
ATOM     20  N   UNL A   1      41.660  29.350  33.191  1.00  0.00    -0.354 N 
ATOM     21  C   UNL A   1      38.388  31.586  31.281  1.00  0.00     0.074 A 
ATOM     22  C   UNL A   1      38.077  31.019  29.989  1.00  0.00     0.031 C 
ATOM     23  C   UNL A   1      43.165  27.695  33.300  1.00  0.00     0.029 A 
ATOM     24  C   UNL A   1      42.591  28.807  34.046  1.00  0.00     0.049 A 
ATOM     25  H   UNL A   1      41.066  30.092  33.441  1.00  0.00     0.167 HD
ATOM     26  C   UNL A   1      37.716  32.609  31.858  1.00  0.00     0.037 A 
ATOM     27  C   UNL A   1      42.958  29.203  35.279  1.00  0.00     0.037 A 
ATOM     28  C   UNL A   1      38.068  33.142  33.146  1.00  0.00     0.049 A 
ATOM     29  C   UNL A   1      42.262  30.407  35.856  1.00  0.00     0.074 A 
ATOM     30  C   UNL A   1      37.524  34.220  33.816  1.00  0.00     0.029 A 
ATOM     31  N   UNL A   1      39.067  32.622  33.962  1.00  0.00    -0.354 N 
ATOM     32  N   UNL A   1      41.280  31.113  35.342  1.00  0.00    -0.248 NA
ATOM     33  C   UNL A   1      42.731  30.885  37.161  1.00  0.00     0.031 C 
ATOM     34  C   UNL A   1      38.224  34.378  35.017  1.00  0.00     0.029 A 
ATOM     35  C   UNL A   1      39.169  33.366  35.121  1.00  0.00     0.049 A 
ATOM     36  H   UNL A   1      39.621  31.837  33.744  1.00  0.00     0.167 HD
ATOM     37  C   UNL A   1      41.002  32.111  36.266  1.00  0.00     0.074 A 
ATOM     38  C   UNL A   1      41.912  31.904  37.378  1.00  0.00     0.031 C 
ATOM     39  C   UNL A   1      40.088  33.111  36.205  1.00  0.00     0.037 A 
BRANCH  26  40
ATOM     40  C   UNL A   1      36.612  33.241  31.060  1.00  0.00     0.058 A 
ATOM     41  C   UNL A   1      36.865  34.037  29.932  1.00  0.00     0.135 A 
ATOM     42  C   UNL A   1      35.275  33.080  31.458  1.00  0.00     0.135 A 
ATOM     43  F   UNL A   1      38.127  34.255  29.528  1.00  0.00    -0.206 F 
ATOM     44  C   UNL A   1      35.836  34.675  29.245  1.00  0.00     0.059 A 
ATOM     45  C   UNL A   1      34.228  33.688  30.773  1.00  0.00     0.059 A 
ATOM     46  F   UNL A   1      34.976  32.341  32.539  1.00  0.00    -0.206 F 
ATOM     47  C   UNL A   1      34.520  34.499  29.677  1.00  0.00     0.060 A 
BRANCH  47  48
ATOM     48  S   UNL A   1      33.197  35.354  28.795  1.00  0.00     0.124 S 
ATOM     49  O   UNL A   1      33.952  36.310  27.992  1.00  0.00    -0.237 OA
ATOM     50  O   UNL A   1      32.561  34.267  28.055  1.00  0.00    -0.237 OA
ATOM     51  O   UNL A   1      32.392  35.933  29.866  1.00  0.00    -0.744 OA
ENDBRANCH  47  48
ENDBRANCH  26  40
BRANCH  27  52
ATOM     52  C   UNL A   1      44.056  28.504  36.002  1.00  0.00     0.058 A 
ATOM     53  C   UNL A   1      43.798  27.429  36.864  1.00  0.00     0.135 A 
ATOM     54  C   UNL A   1      45.396  28.894  35.836  1.00  0.00     0.135 A 
ATOM     55  F   UNL A   1      42.537  27.018  37.065  1.00  0.00    -0.206 F 
ATOM     56  C   UNL A   1      44.824  26.775  37.545  1.00  0.00     0.059 A 
ATOM     57  C   UNL A   1      46.440  28.240  36.483  1.00  0.00     0.059 A 
ATOM     58  F   UNL A   1      45.705  29.911  35.016  1.00  0.00    -0.206 F 
ATOM     59  C   UNL A   1      46.143  27.188  37.347  1.00  0.00     0.060 A 
BRANCH  59  60
ATOM     60  S   UNL A   1      47.469  26.319  38.212  1.00  0.00     0.124 S 
ATOM     61  O   UNL A   1      47.717  25.196  37.315  1.00  0.00    -0.237 OA
ATOM     62  O   UNL A   1      48.517  27.334  38.268  1.00  0.00    -0.237 OA
ATOM     63  O   UNL A   1      46.867  25.980  39.497  1.00  0.00    -0.744 OA
ENDBRANCH  59  60
ENDBRANCH  27  52
BRANCH  39  64
ATOM     64  C   UNL A   1      40.013  34.032  37.386  1.00  0.00     0.058 A 
ATOM     65  C   UNL A   1      40.709  35.249  37.413  1.00  0.00     0.135 A 
ATOM     66  C   UNL A   1      39.175  33.722  38.468  1.00  0.00     0.135 A 
ATOM     67  F   UNL A   1      41.529  35.583  36.402  1.00  0.00    -0.206 F 
ATOM     68  C   UNL A   1      40.587  36.127  38.483  1.00  0.00     0.059 A 
ATOM     69  C   UNL A   1      39.016  34.597  39.536  1.00  0.00     0.059 A 
ATOM     70  F   UNL A   1      38.482  32.573  38.480  1.00  0.00    -0.206 F 
ATOM     71  C   UNL A   1      39.733  35.794  39.536  1.00  0.00     0.060 A 
BRANCH  71  72
ATOM     72  S   UNL A   1      39.537  36.967  40.892  1.00  0.00     0.124 S 
ATOM     73  O   UNL A   1      38.972  38.122  40.201  1.00  0.00    -0.237 OA
ATOM     74  O   UNL A   1      38.630  36.260  41.790  1.00  0.00    -0.237 OA
ATOM     75  O   UNL A   1      40.898  37.138  41.393  1.00  0.00    -0.744 OA
ENDBRANCH  71  72
ENDBRANCH  39  64
ENDBRANCH  13  14
ENDBRANCH   6   8
ENDBRANCH   5   6
ENDBRANCH   4   5
ENDBRANCH   3   4
ENDBRANCH   2   3
ENDBRANCH   1   2
BRANCH   1  76
ATOM     76  C   UNL A   1      40.239  20.105  26.145  1.00  0.00     0.261 C 
BRANCH  76  77
ATOM     77  O   UNL A   1      39.154  20.959  25.748  1.00  0.00    -0.460 OA
BRANCH  77  78
ATOM     78  C   UNL A   1      38.149  20.284  25.141  1.00  0.00     0.339 C 
ATOM     79  O   UNL A   1      38.019  19.078  25.025  1.00  0.00    -0.246 OA
BRANCH  78  80
ATOM     80  C   UNL A   1      37.081  21.241  24.846  1.00  0.00     0.078 A 
ATOM     81  C   UNL A   1      37.314  22.519  24.347  1.00  0.00     0.019 A 
ATOM     82  C   UNL A   1      35.775  20.830  25.043  1.00  0.00     0.127 A 
ATOM     83  C   UNL A   1      36.226  23.277  23.923  1.00  0.00     0.028 A 
ATOM     84  N   UNL A   1      34.700  21.578  24.711  1.00  0.00    -0.257 NA
ATOM     85  C   UNL A   1      34.942  22.735  24.043  1.00  0.00     0.078 A 
BRANCH  85  86
ATOM     86  C   UNL A   1      33.809  23.286  23.198  1.00  0.00     0.285 C 
BRANCH  86  87
ATOM     87  O   UNL A   1      32.505  23.253  23.826  1.00  0.00    -0.487 OA
BRANCH  87  88
ATOM     88  C   UNL A   1      32.050  24.429  24.364  1.00  0.00     0.120 A 
ATOM     89  C   UNL A   1      32.275  24.661  25.715  1.00  0.00     0.046 A 
ATOM     90  C   UNL A   1      31.223  25.311  23.671  1.00  0.00     0.059 A 
ATOM     91  C   UNL A   1      31.722  25.788  26.336  1.00  0.00     0.004 A 
ATOM     92  C   UNL A   1      30.697  26.470  24.254  1.00  0.00     0.059 A 
ATOM     93  C   UNL A   1      30.947  26.696  25.609  1.00  0.00     0.013 A 
BRANCH  92  94
ATOM     94  C   UNL A   1      29.846  27.410  23.434  1.00  0.00     0.416 C 
ATOM     95  F   UNL A   1      29.880  28.688  23.894  1.00  0.00    -0.166 F 
ATOM     96  F   UNL A   1      30.242  27.463  22.132  1.00  0.00    -0.166 F 
ATOM     97  F   UNL A   1      28.533  27.049  23.399  1.00  0.00    -0.166 F 
ENDBRANCH  92  94
ENDBRANCH  87  88
ENDBRANCH  86  87
ENDBRANCH  85  86
ENDBRANCH  78  80
ENDBRANCH  77  78
ENDBRANCH  76  77
ENDBRANCH   1  76
TORSDOF 21
ENDMDL
MODEL 2
REMARK VINA RESULT:     -10.5      6.755     12.291
REMARK SMILES O=C(OCCOCCOC(=O)c1ccc(COc2cccc(C(F)(F)F)c2)nc1)c1ccc(-c2c3nc(c(-c4c(F)cc(S(=O)(=O)[O-])cc4F)c4ccc([nH]4)c(-c4c(F)cc(S(=O)(=O)[O-])cc4F)c4nc(c(-c5c(F)cc(S(=O)(=O)[O-])cc5F)c5ccc2[nH]5)C=C4)C=C3)cc1
REMARK SMILES IDX 7 1 6 2 5 3 4 4 3 5 2 6 1 7 30 8 31 9 95 10 32 11 94 12
REMARK SMILES IDX 33 13 34 14 35 15 88 16 36 17 93 18 87 19 89 20 37 21 92 22
REMARK SMILES IDX 86 23 85 24 38 26 72 27 51 28 71 29 52 30 55 31 70 32 90 33
REMARK SMILES IDX 53 34 54 35 69 37 91 38 56 39 39 40 40 41 49 42 41 43 42 44
REMARK SMILES IDX 48 45 50 46 43 47 44 48 45 49 46 50 47 51 73 52 74 53 83 54
REMARK SMILES IDX 75 55 76 56 82 57 84 58 77 59 78 60 79 61 80 62 81 63 57 64
REMARK SMILES IDX 58 65 67 66 59 67 60 68 66 69 68 70 61 71 62 72 63 73 64 74
REMARK SMILES IDX 65 75 8 76 9 77 10 78 11 79 12 80 13 81 29 82 14 83 28 84
REMARK SMILES IDX 15 85 16 86 17 87 18 88 19 89 27 90 20 91 22 92 21 93 23 94
REMARK SMILES IDX 24 95 25 96 26 97
REMARK H PARENT 89 25 55 36
REMARK Flexibility Score: inf
ROOT
ATOM      1  C   UNL A   1      33.669  31.493  27.652  1.00  0.00     0.202 C 
ENDROOT
BRANCH   1   2
ATOM      2  O   UNL A   1      34.902  32.154  27.334  1.00  0.00    -0.374 OA
BRANCH   2   3
ATOM      3  C   UNL A   1      35.795  32.409  28.417  1.00  0.00     0.202 C 
BRANCH   3   4
ATOM      4  C   UNL A   1      35.266  32.059  29.806  1.00  0.00     0.261 C 
BRANCH   4   5
ATOM      5  O   UNL A   1      36.354  31.720  30.676  1.00  0.00    -0.460 OA
BRANCH   5   6
ATOM      6  C   UNL A   1      36.918  30.502  30.848  1.00  0.00     0.338 C 
ATOM      7  O   UNL A   1      36.296  29.648  31.477  1.00  0.00    -0.246 OA
BRANCH   6   8
ATOM      8  C   UNL A   1      38.258  30.137  30.300  1.00  0.00     0.060 A 
ATOM      9  C   UNL A   1      38.557  30.008  28.943  1.00  0.00     0.016 A 
ATOM     10  C   UNL A   1      39.309  30.014  31.223  1.00  0.00     0.016 A 
ATOM     11  C   UNL A   1      39.835  29.707  28.504  1.00  0.00     0.010 A 
ATOM     12  C   UNL A   1      40.612  29.757  30.789  1.00  0.00     0.010 A 
ATOM     13  C   UNL A   1      40.870  29.595  29.424  1.00  0.00    -0.014 A 
BRANCH  13  14
ATOM     14  C   UNL A   1      42.198  29.227  28.913  1.00  0.00     0.031 A 
ATOM     15  C   UNL A   1      42.401  27.831  28.420  1.00  0.00     0.074 A 
ATOM     16  C   UNL A   1      43.136  30.181  28.782  1.00  0.00     0.049 A 
ATOM     17  N   UNL A   1      43.490  27.264  27.980  1.00  0.00    -0.248 NA
ATOM     18  C   UNL A   1      41.215  26.957  28.407  1.00  0.00     0.031 C 
ATOM     19  C   UNL A   1      42.949  31.597  29.120  1.00  0.00     0.029 A 
ATOM     20  N   UNL A   1      44.415  30.119  28.303  1.00  0.00    -0.354 N 
ATOM     21  C   UNL A   1      43.128  25.961  27.666  1.00  0.00     0.074 A 
ATOM     22  C   UNL A   1      41.722  25.817  27.966  1.00  0.00     0.031 C 
ATOM     23  C   UNL A   1      44.070  32.272  28.817  1.00  0.00     0.029 A 
ATOM     24  C   UNL A   1      45.072  31.327  28.341  1.00  0.00     0.049 A 
ATOM     25  H   UNL A   1      44.826  29.292  27.965  1.00  0.00     0.167 HD
ATOM     26  C   UNL A   1      43.919  24.977  27.180  1.00  0.00     0.037 A 
ATOM     27  C   UNL A   1      46.357  31.615  28.058  1.00  0.00     0.037 A 
ATOM     28  C   UNL A   1      45.316  25.169  26.902  1.00  0.00     0.049 A 
ATOM     29  C   UNL A   1      47.240  30.480  27.615  1.00  0.00     0.074 A 
ATOM     30  C   UNL A   1      46.251  24.244  26.480  1.00  0.00     0.029 A 
ATOM     31  N   UNL A   1      45.978  26.387  27.021  1.00  0.00    -0.354 N 
ATOM     32  N   UNL A   1      46.918  29.223  27.403  1.00  0.00    -0.248 NA
ATOM     33  C   UNL A   1      48.658  30.785  27.397  1.00  0.00     0.031 C 
ATOM     34  C   UNL A   1      47.487  24.893  26.385  1.00  0.00     0.029 A 
ATOM     35  C   UNL A   1      47.312  26.236  26.697  1.00  0.00     0.049 A 
ATOM     36  H   UNL A   1      45.557  27.233  27.295  1.00  0.00     0.167 HD
ATOM     37  C   UNL A   1      48.089  28.590  27.011  1.00  0.00     0.074 A 
ATOM     38  C   UNL A   1      49.124  29.609  27.002  1.00  0.00     0.031 C 
ATOM     39  C   UNL A   1      48.300  27.288  26.695  1.00  0.00     0.037 A 
BRANCH  26  40
ATOM     40  C   UNL A   1      43.299  23.619  27.010  1.00  0.00     0.058 A 
ATOM     41  C   UNL A   1      42.792  23.178  25.778  1.00  0.00     0.135 A 
ATOM     42  C   UNL A   1      43.174  22.760  28.113  1.00  0.00     0.135 A 
ATOM     43  F   UNL A   1      42.852  23.974  24.698  1.00  0.00    -0.206 F 
ATOM     44  C   UNL A   1      42.154  21.946  25.652  1.00  0.00     0.059 A 
ATOM     45  C   UNL A   1      42.563  21.514  28.006  1.00  0.00     0.059 A 
ATOM     46  F   UNL A   1      43.628  23.137  29.319  1.00  0.00    -0.206 F 
ATOM     47  C   UNL A   1      42.040  21.123  26.774  1.00  0.00     0.060 A 
BRANCH  47  48
ATOM     48  S   UNL A   1      41.188  19.541  26.604  1.00  0.00     0.124 S 
ATOM     49  O   UNL A   1      40.888  19.219  27.996  1.00  0.00    -0.237 OA
ATOM     50  O   UNL A   1      40.040  19.893  25.774  1.00  0.00    -0.237 OA
ATOM     51  O   UNL A   1      42.182  18.686  25.963  1.00  0.00    -0.744 OA
ENDBRANCH  47  48
ENDBRANCH  26  40
BRANCH  27  52
ATOM     52  C   UNL A   1      46.879  32.997  28.243  1.00  0.00     0.058 A 
ATOM     53  C   UNL A   1      47.502  33.392  29.436  1.00  0.00     0.135 A 
ATOM     54  C   UNL A   1      46.775  33.955  27.220  1.00  0.00     0.135 A 
ATOM     55  F   UNL A   1      47.623  32.521  30.449  1.00  0.00    -0.206 F 
ATOM     56  C   UNL A   1      47.988  34.686  29.613  1.00  0.00     0.059 A 
ATOM     57  C   UNL A   1      47.277  35.245  27.362  1.00  0.00     0.059 A 
ATOM     58  F   UNL A   1      46.197  33.632  26.052  1.00  0.00    -0.206 F 
ATOM     59  C   UNL A   1      47.872  35.606  28.570  1.00  0.00     0.060 A 
BRANCH  59  60
ATOM     60  S   UNL A   1      48.529  37.273  28.796  1.00  0.00     0.124 S 
ATOM     61  O   UNL A   1      48.031  37.949  27.603  1.00  0.00    -0.237 OA
ATOM     62  O   UNL A   1      47.918  37.675  30.060  1.00  0.00    -0.237 OA
ATOM     63  O   UNL A   1      49.972  37.062  28.846  1.00  0.00    -0.744 OA
ENDBRANCH  59  60
ENDBRANCH  27  52
BRANCH  39  64
ATOM     64  C   UNL A   1      49.692  26.908  26.285  1.00  0.00     0.058 A 
ATOM     65  C   UNL A   1      50.130  27.044  24.960  1.00  0.00     0.135 A 
ATOM     66  C   UNL A   1      50.616  26.475  27.249  1.00  0.00     0.135 A 
ATOM     67  F   UNL A   1      49.278  27.447  24.003  1.00  0.00    -0.206 F 
ATOM     68  C   UNL A   1      51.439  26.749  24.599  1.00  0.00     0.059 A 
ATOM     69  C   UNL A   1      51.937  26.202  26.916  1.00  0.00     0.059 A 
ATOM     70  F   UNL A   1      50.244  26.341  28.532  1.00  0.00    -0.206 F 
ATOM     71  C   UNL A   1      52.336  26.335  25.586  1.00  0.00     0.060 A 
BRANCH  71  72
ATOM     72  S   UNL A   1      54.047  26.012  25.116  1.00  0.00     0.124 S 
ATOM     73  O   UNL A   1      53.996  24.593  24.779  1.00  0.00    -0.237 OA
ATOM     74  O   UNL A   1      54.240  26.923  23.992  1.00  0.00    -0.237 OA
ATOM     75  O   UNL A   1      54.800  26.345  26.321  1.00  0.00    -0.744 OA
ENDBRANCH  71  72
ENDBRANCH  39  64
ENDBRANCH  13  14
ENDBRANCH   6   8
ENDBRANCH   5   6
ENDBRANCH   4   5
ENDBRANCH   3   4
ENDBRANCH   2   3
ENDBRANCH   1   2
BRANCH   1  76
ATOM     76  C   UNL A   1      33.692  30.065  27.096  1.00  0.00     0.261 C 
BRANCH  76  77
ATOM     77  O   UNL A   1      32.349  29.718  26.725  1.00  0.00    -0.460 OA
BRANCH  77  78
ATOM     78  C   UNL A   1      32.015  28.454  27.081  1.00  0.00     0.339 C 
ATOM     79  O   UNL A   1      31.285  28.100  27.990  1.00  0.00    -0.246 OA
BRANCH  78  80
ATOM     80  C   UNL A   1      32.483  27.553  26.026  1.00  0.00     0.078 A 
ATOM     81  C   UNL A   1      33.685  26.856  26.093  1.00  0.00     0.019 A 
ATOM     82  C   UNL A   1      31.663  27.366  24.928  1.00  0.00     0.127 A 
ATOM     83  C   UNL A   1      33.945  25.885  25.129  1.00  0.00     0.028 A 
ATOM     84  N   UNL A   1      31.930  26.484  23.939  1.00  0.00    -0.257 NA
ATOM     85  C   UNL A   1      33.002  25.670  24.120  1.00  0.00     0.078 A 
BRANCH  85  86
ATOM     86  C   UNL A   1      33.001  24.360  23.355  1.00  0.00     0.285 C 
BRANCH  86  87
ATOM     87  O   UNL A   1      32.187  23.313  23.935  1.00  0.00    -0.487 OA
BRANCH  87  88
ATOM     88  C   UNL A   1      32.832  22.159  24.297  1.00  0.00     0.120 A 
ATOM     89  C   UNL A   1      33.997  22.268  25.044  1.00  0.00     0.046 A 
ATOM     90  C   UNL A   1      32.478  20.904  23.804  1.00  0.00     0.059 A 
ATOM     91  C   UNL A   1      34.757  21.126  25.332  1.00  0.00     0.004 A 
ATOM     92  C   UNL A   1      33.192  19.741  24.116  1.00  0.00     0.059 A 
ATOM     93  C   UNL A   1      34.352  19.866  24.882  1.00  0.00     0.013 A 
BRANCH  92  94
ATOM     94  C   UNL A   1      32.728  18.404  23.588  1.00  0.00     0.416 C 
ATOM     95  F   UNL A   1      33.744  17.655  23.085  1.00  0.00    -0.166 F 
ATOM     96  F   UNL A   1      32.136  17.645  24.552  1.00  0.00    -0.166 F 
ATOM     97  F   UNL A   1      31.802  18.515  22.595  1.00  0.00    -0.166 F 
ENDBRANCH  92  94
ENDBRANCH  87  88
ENDBRANCH  86  87
ENDBRANCH  85  86
ENDBRANCH  78  80
ENDBRANCH  77  78
ENDBRANCH  76  77
ENDBRANCH   1  76
TORSDOF 21
ENDMDL
MODEL 3
REMARK VINA RESULT:     -10.5      1.365      2.064
REMARK SMILES O=C(OCCOCCOC(=O)c1ccc(COc2cccc(C(F)(F)F)c2)nc1)c1ccc(-c2c3nc(c(-c4c(F)cc(S(=O)(=O)[O-])cc4F)c4ccc([nH]4)c(-c4c(F)cc(S(=O)(=O)[O-])cc4F)c4nc(c(-c5c(F)cc(S(=O)(=O)[O-])cc5F)c5ccc2[nH]5)C=C4)C=C3)cc1
REMARK SMILES IDX 7 1 6 2 5 3 4 4 3 5 2 6 1 7 30 8 31 9 95 10 32 11 94 12
REMARK SMILES IDX 33 13 34 14 35 15 88 16 36 17 93 18 87 19 89 20 37 21 92 22
REMARK SMILES IDX 86 23 85 24 38 26 72 27 51 28 71 29 52 30 55 31 70 32 90 33
REMARK SMILES IDX 53 34 54 35 69 37 91 38 56 39 39 40 40 41 49 42 41 43 42 44
REMARK SMILES IDX 48 45 50 46 43 47 44 48 45 49 46 50 47 51 73 52 74 53 83 54
REMARK SMILES IDX 75 55 76 56 82 57 84 58 77 59 78 60 79 61 80 62 81 63 57 64
REMARK SMILES IDX 58 65 67 66 59 67 60 68 66 69 68 70 61 71 62 72 63 73 64 74
REMARK SMILES IDX 65 75 8 76 9 77 10 78 11 79 12 80 13 81 29 82 14 83 28 84
REMARK SMILES IDX 15 85 16 86 17 87 18 88 19 89 27 90 20 91 22 92 21 93 23 94
REMARK SMILES IDX 24 95 25 96 26 97
REMARK H PARENT 89 25 55 36
REMARK Flexibility Score: inf
ROOT
ATOM      1  C   UNL A   1      43.280  22.929  27.506  1.00  0.00     0.202 C 
ENDROOT
BRANCH   1   2
ATOM      2  O   UNL A   1      44.559  22.703  26.898  1.00  0.00    -0.374 OA
BRANCH   2   3
ATOM      3  C   UNL A   1      45.155  23.808  26.220  1.00  0.00     0.202 C 
BRANCH   3   4
ATOM      4  C   UNL A   1      44.332  24.405  25.081  1.00  0.00     0.261 C 
BRANCH   4   5
ATOM      5  O   UNL A   1      43.868  25.713  25.442  1.00  0.00    -0.460 OA
BRANCH   5   6
ATOM      6  C   UNL A   1      42.624  26.060  25.843  1.00  0.00     0.338 C 
ATOM      7  O   UNL A   1      41.664  25.697  25.166  1.00  0.00    -0.246 OA
BRANCH   6   8
ATOM      8  C   UNL A   1      42.353  26.855  27.078  1.00  0.00     0.060 A 
ATOM      9  C   UNL A   1      42.856  28.133  27.330  1.00  0.00     0.016 A 
ATOM     10  C   UNL A   1      41.446  26.308  27.999  1.00  0.00     0.016 A 
ATOM     11  C   UNL A   1      42.529  28.830  28.479  1.00  0.00     0.010 A 
ATOM     12  C   UNL A   1      41.071  27.022  29.139  1.00  0.00     0.010 A 
ATOM     13  C   UNL A   1      41.624  28.284  29.381  1.00  0.00    -0.014 A 
BRANCH  13  14
ATOM     14  C   UNL A   1      41.347  29.042  30.610  1.00  0.00     0.031 A 
ATOM     15  C   UNL A   1      40.177  29.972  30.617  1.00  0.00     0.074 A 
ATOM     16  C   UNL A   1      42.064  28.778  31.717  1.00  0.00     0.049 A 
ATOM     17  N   UNL A   1      39.774  30.779  31.558  1.00  0.00    -0.248 NA
ATOM     18  C   UNL A   1      39.338  29.984  29.406  1.00  0.00     0.031 C 
ATOM     19  C   UNL A   1      43.134  27.778  31.807  1.00  0.00     0.029 A 
ATOM     20  N   UNL A   1      41.987  29.297  32.979  1.00  0.00    -0.354 N 
ATOM     21  C   UNL A   1      38.653  31.417  31.043  1.00  0.00     0.074 A 
ATOM     22  C   UNL A   1      38.439  30.907  29.708  1.00  0.00     0.031 C 
ATOM     23  C   UNL A   1      43.598  27.744  33.067  1.00  0.00     0.029 A 
ATOM     24  C   UNL A   1      42.915  28.769  33.845  1.00  0.00     0.049 A 
ATOM     25  H   UNL A   1      41.332  29.982  33.242  1.00  0.00     0.167 HD
ATOM     26  C   UNL A   1      37.886  32.356  31.643  1.00  0.00     0.037 A 
ATOM     27  C   UNL A   1      43.199  29.116  35.115  1.00  0.00     0.037 A 
ATOM     28  C   UNL A   1      38.143  32.834  32.974  1.00  0.00     0.049 A 
ATOM     29  C   UNL A   1      42.396  30.233  35.725  1.00  0.00     0.074 A 
ATOM     30  C   UNL A   1      37.496  33.832  33.676  1.00  0.00     0.029 A 
ATOM     31  N   UNL A   1      39.140  32.336  33.806  1.00  0.00    -0.354 N 
ATOM     32  N   UNL A   1      41.390  30.900  35.204  1.00  0.00    -0.248 NA
ATOM     33  C   UNL A   1      42.772  30.664  37.075  1.00  0.00     0.031 C 
ATOM     34  C   UNL A   1      38.130  33.966  34.917  1.00  0.00     0.029 A 
ATOM     35  C   UNL A   1      39.139  33.015  35.009  1.00  0.00     0.049 A 
ATOM     36  H   UNL A   1      39.756  31.605  33.572  1.00  0.00     0.167 HD
ATOM     37  C   UNL A   1      41.003  31.821  36.168  1.00  0.00     0.074 A 
ATOM     38  C   UNL A   1      41.875  31.611  37.310  1.00  0.00     0.031 C 
ATOM     39  C   UNL A   1      40.025  32.759  36.119  1.00  0.00     0.037 A 
BRANCH  26  40
ATOM     40  C   UNL A   1      36.776  32.958  30.830  1.00  0.00     0.058 A 
ATOM     41  C   UNL A   1      36.998  34.007  29.923  1.00  0.00     0.135 A 
ATOM     42  C   UNL A   1      35.458  32.504  30.993  1.00  0.00     0.135 A 
ATOM     43  F   UNL A   1      38.233  34.506  29.754  1.00  0.00    -0.206 F 
ATOM     44  C   UNL A   1      35.948  34.603  29.230  1.00  0.00     0.059 A 
ATOM     45  C   UNL A   1      34.396  33.067  30.293  1.00  0.00     0.059 A 
ATOM     46  F   UNL A   1      35.187  31.513  31.858  1.00  0.00    -0.206 F 
ATOM     47  C   UNL A   1      34.649  34.130  29.426  1.00  0.00     0.060 A 
BRANCH  47  48
ATOM     48  S   UNL A   1      33.293  34.930  28.542  1.00  0.00     0.124 S 
ATOM     49  O   UNL A   1      32.659  33.791  27.886  1.00  0.00    -0.237 OA
ATOM     50  O   UNL A   1      32.530  35.540  29.627  1.00  0.00    -0.237 OA
ATOM     51  O   UNL A   1      33.972  35.868  27.654  1.00  0.00    -0.744 OA
ENDBRANCH  47  48
ENDBRANCH  26  40
BRANCH  27  52
ATOM     52  C   UNL A   1      44.310  28.451  35.849  1.00  0.00     0.058 A 
ATOM     53  C   UNL A   1      45.636  28.895  35.733  1.00  0.00     0.135 A 
ATOM     54  C   UNL A   1      44.067  27.355  36.695  1.00  0.00     0.135 A 
ATOM     55  F   UNL A   1      45.927  29.933  34.934  1.00  0.00    -0.206 F 
ATOM     56  C   UNL A   1      46.679  28.271  36.416  1.00  0.00     0.059 A 
ATOM     57  C   UNL A   1      45.087  26.733  37.409  1.00  0.00     0.059 A 
ATOM     58  F   UNL A   1      42.818  26.891  36.853  1.00  0.00    -0.206 F 
ATOM     59  C   UNL A   1      46.394  27.191  37.253  1.00  0.00     0.060 A 
BRANCH  59  60
ATOM     60  S   UNL A   1      47.746  26.404  38.155  1.00  0.00     0.124 S 
ATOM     61  O   UNL A   1      48.836  26.496  37.189  1.00  0.00    -0.237 OA
ATOM     62  O   UNL A   1      47.867  27.257  39.334  1.00  0.00    -0.237 OA
ATOM     63  O   UNL A   1      47.243  25.059  38.412  1.00  0.00    -0.744 OA
ENDBRANCH  59  60
ENDBRANCH  27  52
BRANCH  39  64
ATOM     64  C   UNL A   1      39.834  33.602  37.345  1.00  0.00     0.058 A 
ATOM     65  C   UNL A   1      40.584  34.767  37.559  1.00  0.00     0.135 A 
ATOM     66  C   UNL A   1      38.836  33.275  38.276  1.00  0.00     0.135 A 
ATOM     67  F   UNL A   1      41.555  35.115  36.699  1.00  0.00    -0.206 F 
ATOM     68  C   UNL A   1      40.359  35.577  38.665  1.00  0.00     0.059 A 
ATOM     69  C   UNL A   1      38.575  34.084  39.375  1.00  0.00     0.059 A 
ATOM     70  F   UNL A   1      38.087  32.174  38.107  1.00  0.00    -0.206 F 
ATOM     71  C   UNL A   1      39.348  35.229  39.564  1.00  0.00     0.060 A 
BRANCH  71  72
ATOM     72  S   UNL A   1      39.027  36.320  40.965  1.00  0.00     0.124 S 
ATOM     73  O   UNL A   1      38.659  37.561  40.292  1.00  0.00    -0.237 OA
ATOM     74  O   UNL A   1      37.943  35.629  41.657  1.00  0.00    -0.237 OA
ATOM     75  O   UNL A   1      40.302  36.344  41.676  1.00  0.00    -0.744 OA
ENDBRANCH  71  72
ENDBRANCH  39  64
ENDBRANCH  13  14
ENDBRANCH   6   8
ENDBRANCH   5   6
ENDBRANCH   4   5
ENDBRANCH   3   4
ENDBRANCH   2   3
ENDBRANCH   1   2
BRANCH   1  76
ATOM     76  C   UNL A   1      42.360  21.734  27.230  1.00  0.00     0.261 C 
BRANCH  76  77
ATOM     77  O   UNL A   1      41.478  22.099  26.158  1.00  0.00    -0.460 OA
BRANCH  77  78
ATOM     78  C   UNL A   1      40.420  21.262  26.039  1.00  0.00     0.339 C 
ATOM     79  O   UNL A   1      40.424  20.043  26.058  1.00  0.00    -0.246 OA
BRANCH  78  80
ATOM     80  C   UNL A   1      39.200  22.065  26.131  1.00  0.00     0.078 A 
ATOM     81  C   UNL A   1      39.181  23.380  26.584  1.00  0.00     0.019 A 
ATOM     82  C   UNL A   1      38.015  21.488  25.708  1.00  0.00     0.127 A 
ATOM     83  C   UNL A   1      38.004  24.113  26.453  1.00  0.00     0.028 A 
ATOM     84  N   UNL A   1      36.842  22.156  25.644  1.00  0.00    -0.257 NA
ATOM     85  C   UNL A   1      36.882  23.489  25.898  1.00  0.00     0.078 A 
BRANCH  85  86
ATOM     86  C   UNL A   1      35.764  24.330  25.313  1.00  0.00     0.285 C 
BRANCH  86  87
ATOM     87  O   UNL A   1      34.457  23.708  25.329  1.00  0.00    -0.487 OA
BRANCH  87  88
ATOM     88  C   UNL A   1      33.399  24.503  25.685  1.00  0.00     0.120 A 
ATOM     89  C   UNL A   1      32.115  24.002  25.512  1.00  0.00     0.046 A 
ATOM     90  C   UNL A   1      33.542  25.844  26.037  1.00  0.00     0.059 A 
ATOM     91  C   UNL A   1      31.003  24.822  25.745  1.00  0.00     0.004 A 
ATOM     92  C   UNL A   1      32.450  26.672  26.322  1.00  0.00     0.059 A 
ATOM     93  C   UNL A   1      31.167  26.147  26.159  1.00  0.00     0.013 A 
BRANCH  92  94
ATOM     94  C   UNL A   1      32.676  28.104  26.746  1.00  0.00     0.416 C 
ATOM     95  F   UNL A   1      32.749  28.959  25.693  1.00  0.00    -0.166 F 
ATOM     96  F   UNL A   1      31.676  28.569  27.546  1.00  0.00    -0.166 F 
ATOM     97  F   UNL A   1      33.821  28.274  27.462  1.00  0.00    -0.166 F 
ENDBRANCH  92  94
ENDBRANCH  87  88
ENDBRANCH  86  87
ENDBRANCH  85  86
ENDBRANCH  78  80
ENDBRANCH  77  78
ENDBRANCH  76  77
ENDBRANCH   1  76
TORSDOF 21
ENDMDL
