MODEL 1
REMARK VINA RESULT:     -11.3      0.000      0.000
REMARK SMILES C[C@]1(C(=O)N2CCC(CC(=O)OCCOCCOC(=O)c3ccc(-c4c5nc(c(-c6c(F)cc(S(=O)(=O)[O-])cc6F)c6ccc([nH]6)c(-c6c(F)cc(S(=O)(=O)[O-])cc6F)c6nc(c(-c7c(F)cc(S(=O)(=O)[O-])cc7F)c7ccc4[nH]7)C=C6)C=C5)cc3)CC2)CCC[NH2+]C1
REMARK SMILES IDX 16 1 15 2 14 3 13 4 12 5 10 6 11 7 9 8 8 9 3 10 4 11 5 12
REMARK SMILES IDX 6 13 88 14 7 15 87 16 2 17 1 18 89 19 93 20 90 21 92 22
REMARK SMILES IDX 91 23 17 26 18 27 19 28 20 29 21 30 22 31 86 32 23 33 85 34
REMARK SMILES IDX 24 35 25 36 26 37 79 38 27 39 84 40 78 41 80 42 28 43 83 44
REMARK SMILES IDX 77 45 76 46 29 48 63 49 42 50 62 51 43 52 46 53 61 54 81 55
REMARK SMILES IDX 44 56 45 57 60 59 82 60 47 61 30 62 31 63 40 64 32 65 33 66
REMARK SMILES IDX 39 67 41 68 34 69 35 70 36 71 37 72 38 73 64 74 65 75 74 76
REMARK SMILES IDX 66 77 67 78 73 79 75 80 68 81 69 82 70 83 71 84 72 85 48 86
REMARK SMILES IDX 49 87 58 88 50 89 51 90 57 91 59 92 52 93 53 94 54 95 55 96
REMARK SMILES IDX 56 97
REMARK H PARENT 92 24 92 25 80 47 46 58
REMARK Flexibility Score: inf
ROOT
ATOM      1  C   UNL A   1      39.677  21.718  26.390  1.00  0.00     0.202 C 
ENDROOT
BRANCH   1   2
ATOM      2  O   UNL A   1      38.313  21.999  26.087  1.00  0.00    -0.374 OA
BRANCH   2   3
ATOM      3  C   UNL A   1      37.693  21.185  25.090  1.00  0.00     0.202 C 
BRANCH   3   4
ATOM      4  C   UNL A   1      36.204  21.444  24.840  1.00  0.00     0.261 C 
BRANCH   4   5
ATOM      5  O   UNL A   1      35.738  22.579  25.594  1.00  0.00    -0.463 OA
BRANCH   5   6
ATOM      6  C   UNL A   1      34.665  22.378  26.398  1.00  0.00     0.306 C 
ATOM      7  O   UNL A   1      34.546  21.462  27.201  1.00  0.00    -0.252 OA
BRANCH   6   8
ATOM      8  C   UNL A   1      33.574  23.398  26.160  1.00  0.00     0.126 C 
BRANCH   8   9
ATOM      9  C   UNL A   1      33.013  23.552  24.728  1.00  0.00     0.003 C 
ATOM     10  C   UNL A   1      30.841  26.546  22.714  1.00  0.00     0.234 C 
ATOM     11  O   UNL A   1      31.101  27.048  21.613  1.00  0.00    -0.274 OA
ATOM     12  N   UNL A   1      31.537  25.433  23.138  1.00  0.00    -0.342 N 
ATOM     13  C   UNL A   1      32.947  25.305  22.842  1.00  0.00     0.120 C 
ATOM     14  C   UNL A   1      30.891  24.169  23.430  1.00  0.00     0.120 C 
ATOM     15  C   UNL A   1      33.647  24.824  24.106  1.00  0.00     0.026 C 
ATOM     16  C   UNL A   1      31.466  23.581  24.712  1.00  0.00     0.026 C 
BRANCH  10  17
ATOM     17  C   UNL A   1      30.005  27.342  23.760  1.00  0.00     0.095 C 
ATOM     18  C   UNL A   1      28.639  26.613  23.793  1.00  0.00     0.028 C 
ATOM     19  C   UNL A   1      30.678  27.221  25.144  1.00  0.00     0.028 C 
ATOM     20  C   UNL A   1      29.707  28.833  23.499  1.00  0.00     0.277 C 
ATOM     21  C   UNL A   1      31.894  28.145  25.235  1.00  0.00     0.063 C 
ATOM     22  N   UNL A   1      30.858  29.728  23.634  1.00  0.00    -0.345 N 
ATOM     23  C   UNL A   1      31.514  29.593  24.933  1.00  0.00     0.260 C 
ATOM     24  H   UNL A   1      31.533  29.508  22.901  1.00  0.00     0.346 HD
ATOM     25  H   UNL A   1      30.520  30.686  23.552  1.00  0.00     0.346 HD
ENDBRANCH  10  17
ENDBRANCH   8   9
ENDBRANCH   6   8
ENDBRANCH   5   6
ENDBRANCH   4   5
ENDBRANCH   3   4
ENDBRANCH   2   3
ENDBRANCH   1   2
BRANCH   1  26
ATOM     26  C   UNL A   1      40.605  22.929  26.549  1.00  0.00     0.261 C 
BRANCH  26  27
ATOM     27  O   UNL A   1      39.887  24.175  26.513  1.00  0.00    -0.460 OA
BRANCH  27  28
ATOM     28  C   UNL A   1      40.667  25.266  26.323  1.00  0.00     0.338 C 
ATOM     29  O   UNL A   1      41.122  25.666  25.258  1.00  0.00    -0.246 OA
BRANCH  28  30
ATOM     30  C   UNL A   1      40.766  26.056  27.566  1.00  0.00     0.060 A 
ATOM     31  C   UNL A   1      39.715  25.937  28.483  1.00  0.00     0.016 A 
ATOM     32  C   UNL A   1      41.816  26.946  27.805  1.00  0.00     0.016 A 
ATOM     33  C   UNL A   1      39.676  26.751  29.613  1.00  0.00     0.010 A 
ATOM     34  C   UNL A   1      41.771  27.768  28.940  1.00  0.00     0.010 A 
ATOM     35  C   UNL A   1      40.682  27.702  29.828  1.00  0.00    -0.014 A 
BRANCH  35  36
ATOM     36  C   UNL A   1      40.503  28.718  30.896  1.00  0.00     0.031 A 
ATOM     37  C   UNL A   1      41.375  28.651  32.123  1.00  0.00     0.074 A 
ATOM     38  C   UNL A   1      39.620  29.724  30.751  1.00  0.00     0.049 A 
ATOM     39  N   UNL A   1      41.372  29.414  33.185  1.00  0.00    -0.248 NA
ATOM     40  C   UNL A   1      42.388  27.583  32.152  1.00  0.00     0.031 C 
ATOM     41  C   UNL A   1      38.755  29.930  29.590  1.00  0.00     0.029 A 
ATOM     42  N   UNL A   1      39.305  30.765  31.590  1.00  0.00    -0.354 N 
ATOM     43  C   UNL A   1      42.385  28.927  34.004  1.00  0.00     0.074 A 
ATOM     44  C   UNL A   1      42.954  27.778  33.335  1.00  0.00     0.031 C 
ATOM     45  C   UNL A   1      37.997  31.021  29.797  1.00  0.00     0.029 A 
ATOM     46  C   UNL A   1      38.299  31.573  31.116  1.00  0.00     0.049 A 
ATOM     47  H   UNL A   1      39.757  30.918  32.452  1.00  0.00     0.167 HD
ATOM     48  C   UNL A   1      42.815  29.405  35.197  1.00  0.00     0.037 A 
ATOM     49  C   UNL A   1      37.677  32.622  31.691  1.00  0.00     0.037 A 
ATOM     50  C   UNL A   1      42.245  30.547  35.863  1.00  0.00     0.049 A 
ATOM     51  C   UNL A   1      38.117  33.081  33.060  1.00  0.00     0.074 A 
ATOM     52  C   UNL A   1      42.597  31.094  37.086  1.00  0.00     0.029 A 
ATOM     53  N   UNL A   1      41.209  31.322  35.364  1.00  0.00    -0.354 N 
ATOM     54  N   UNL A   1      39.073  32.607  33.824  1.00  0.00    -0.248 NA
ATOM     55  C   UNL A   1      37.393  34.221  33.645  1.00  0.00     0.031 C 
ATOM     56  C   UNL A   1      41.748  32.176  37.343  1.00  0.00     0.029 A 
ATOM     57  C   UNL A   1      40.901  32.333  36.258  1.00  0.00     0.049 A 
ATOM     58  H   UNL A   1      40.759  31.174  34.501  1.00  0.00     0.167 HD
ATOM     59  C   UNL A   1      39.087  33.412  34.959  1.00  0.00     0.074 A 
ATOM     60  C   UNL A   1      38.054  34.409  34.779  1.00  0.00     0.031 C 
ATOM     61  C   UNL A   1      39.883  33.332  36.054  1.00  0.00     0.037 A 
BRANCH  48  62
ATOM     62  C   UNL A   1      43.960  28.695  35.863  1.00  0.00     0.058 A 
ATOM     63  C   UNL A   1      45.288  29.102  35.666  1.00  0.00     0.135 A 
ATOM     64  C   UNL A   1      43.724  27.639  36.760  1.00  0.00     0.135 A 
ATOM     65  F   UNL A   1      45.571  30.093  34.806  1.00  0.00    -0.206 F 
ATOM     66  C   UNL A   1      46.345  28.480  36.323  1.00  0.00     0.059 A 
ATOM     67  C   UNL A   1      44.763  27.019  37.447  1.00  0.00     0.059 A 
ATOM     68  F   UNL A   1      42.472  27.209  36.983  1.00  0.00    -0.206 F 
ATOM     69  C   UNL A   1      46.072  27.442  37.216  1.00  0.00     0.060 A 
BRANCH  69  70
ATOM     70  S   UNL A   1      47.453  26.668  38.085  1.00  0.00     0.124 S 
ATOM     71  O   UNL A   1      48.176  26.043  36.982  1.00  0.00    -0.237 OA
ATOM     72  O   UNL A   1      48.111  27.813  38.705  1.00  0.00    -0.237 OA
ATOM     73  O   UNL A   1      46.800  25.747  39.009  1.00  0.00    -0.744 OA
ENDBRANCH  69  70
ENDBRANCH  48  62
BRANCH  49  74
ATOM     74  C   UNL A   1      36.544  33.297  31.001  1.00  0.00     0.058 A 
ATOM     75  C   UNL A   1      36.755  34.136  29.898  1.00  0.00     0.135 A 
ATOM     76  C   UNL A   1      35.228  33.152  31.468  1.00  0.00     0.135 A 
ATOM     77  F   UNL A   1      37.997  34.315  29.419  1.00  0.00    -0.206 F 
ATOM     78  C   UNL A   1      35.711  34.838  29.304  1.00  0.00     0.059 A 
ATOM     79  C   UNL A   1      34.163  33.819  30.872  1.00  0.00     0.059 A 
ATOM     80  F   UNL A   1      34.966  32.349  32.511  1.00  0.00    -0.206 F 
ATOM     81  C   UNL A   1      34.417  34.677  29.804  1.00  0.00     0.060 A 
BRANCH  81  82
ATOM     82  S   UNL A   1      33.064  35.587  29.028  1.00  0.00     0.124 S 
ATOM     83  O   UNL A   1      32.300  36.023  30.192  1.00  0.00    -0.237 OA
ATOM     84  O   UNL A   1      33.773  36.632  28.300  1.00  0.00    -0.237 OA
ATOM     85  O   UNL A   1      32.420  34.577  28.193  1.00  0.00    -0.744 OA
ENDBRANCH  81  82
ENDBRANCH  49  74
BRANCH  61  86
ATOM     86  C   UNL A   1      39.706  34.378  37.122  1.00  0.00     0.058 A 
ATOM     87  C   UNL A   1      38.942  34.138  38.275  1.00  0.00     0.135 A 
ATOM     88  C   UNL A   1      40.356  35.619  37.014  1.00  0.00     0.135 A 
ATOM     89  F   UNL A   1      38.296  32.970  38.425  1.00  0.00    -0.206 F 
ATOM     90  C   UNL A   1      38.805  35.100  39.270  1.00  0.00     0.059 A 
ATOM     91  C   UNL A   1      40.257  36.585  38.011  1.00  0.00     0.059 A 
ATOM     92  F   UNL A   1      41.110  35.896  35.939  1.00  0.00    -0.206 F 
ATOM     93  C   UNL A   1      39.468  36.321  39.129  1.00  0.00     0.060 A 
BRANCH  93  94
ATOM     94  S   UNL A   1      39.309  37.549  40.444  1.00  0.00     0.124 S 
ATOM     95  O   UNL A   1      38.235  38.393  39.929  1.00  0.00    -0.237 OA
ATOM     96  O   UNL A   1      38.969  36.727  41.601  1.00  0.00    -0.237 OA
ATOM     97  O   UNL A   1      40.629  38.171  40.490  1.00  0.00    -0.744 OA
ENDBRANCH  93  94
ENDBRANCH  61  86
ENDBRANCH  35  36
ENDBRANCH  28  30
ENDBRANCH  27  28
ENDBRANCH  26  27
ENDBRANCH   1  26
TORSDOF 19
ENDMDL
MODEL 2
REMARK VINA RESULT:     -11.1      6.505     12.127
REMARK SMILES C[C@]1(C(=O)N2CCC(CC(=O)OCCOCCOC(=O)c3ccc(-c4c5nc(c(-c6c(F)cc(S(=O)(=O)[O-])cc6F)c6ccc([nH]6)c(-c6c(F)cc(S(=O)(=O)[O-])cc6F)c6nc(c(-c7c(F)cc(S(=O)(=O)[O-])cc7F)c7ccc4[nH]7)C=C6)C=C5)cc3)CC2)CCC[NH2+]C1
REMARK SMILES IDX 16 1 15 2 14 3 13 4 12 5 10 6 11 7 9 8 8 9 3 10 4 11 5 12
REMARK SMILES IDX 6 13 88 14 7 15 87 16 2 17 1 18 89 19 93 20 90 21 92 22
REMARK SMILES IDX 91 23 17 26 18 27 19 28 20 29 21 30 22 31 86 32 23 33 85 34
REMARK SMILES IDX 24 35 25 36 26 37 79 38 27 39 84 40 78 41 80 42 28 43 83 44
REMARK SMILES IDX 77 45 76 46 29 48 63 49 42 50 62 51 43 52 46 53 61 54 81 55
REMARK SMILES IDX 44 56 45 57 60 59 82 60 47 61 30 62 31 63 40 64 32 65 33 66
REMARK SMILES IDX 39 67 41 68 34 69 35 70 36 71 37 72 38 73 64 74 65 75 74 76
REMARK SMILES IDX 66 77 67 78 73 79 75 80 68 81 69 82 70 83 71 84 72 85 48 86
REMARK SMILES IDX 49 87 58 88 50 89 51 90 57 91 59 92 52 93 53 94 54 95 55 96
REMARK SMILES IDX 56 97
REMARK H PARENT 92 24 92 25 80 47 46 58
REMARK Flexibility Score: inf
ROOT
ATOM      1  C   UNL A   1      34.378  32.463  28.296  1.00  0.00     0.202 C 
ENDROOT
BRANCH   1   2
ATOM      2  O   UNL A   1      34.146  31.065  28.147  1.00  0.00    -0.374 OA
BRANCH   2   3
ATOM      3  C   UNL A   1      33.373  30.657  27.017  1.00  0.00     0.202 C 
BRANCH   3   4
ATOM      4  C   UNL A   1      33.813  29.357  26.335  1.00  0.00     0.261 C 
BRANCH   4   5
ATOM      5  O   UNL A   1      32.865  28.947  25.331  1.00  0.00    -0.463 OA
BRANCH   5   6
ATOM      6  C   UNL A   1      33.372  28.575  24.130  1.00  0.00     0.306 C 
ATOM      7  O   UNL A   1      33.633  29.336  23.208  1.00  0.00    -0.252 OA
BRANCH   6   8
ATOM      8  C   UNL A   1      33.540  27.076  24.021  1.00  0.00     0.126 C 
BRANCH   8   9
ATOM      9  C   UNL A   1      32.346  26.174  24.406  1.00  0.00     0.003 C 
ATOM     10  C   UNL A   1      31.791  22.017  24.797  1.00  0.00     0.234 C 
ATOM     11  O   UNL A   1      31.293  21.415  25.756  1.00  0.00    -0.274 OA
ATOM     12  N   UNL A   1      31.712  23.393  24.739  1.00  0.00    -0.342 N 
ATOM     13  C   UNL A   1      31.835  24.176  25.949  1.00  0.00     0.120 C 
ATOM     14  C   UNL A   1      31.043  24.096  23.662  1.00  0.00     0.120 C 
ATOM     15  C   UNL A   1      32.759  25.350  25.653  1.00  0.00     0.026 C 
ATOM     16  C   UNL A   1      31.885  25.287  23.224  1.00  0.00     0.026 C 
BRANCH  10  17
ATOM     17  C   UNL A   1      32.794  21.291  23.851  1.00  0.00     0.095 C 
ATOM     18  C   UNL A   1      32.021  21.143  22.516  1.00  0.00     0.028 C 
ATOM     19  C   UNL A   1      34.024  22.196  23.627  1.00  0.00     0.028 C 
ATOM     20  C   UNL A   1      33.295  19.884  24.232  1.00  0.00     0.277 C 
ATOM     21  C   UNL A   1      34.953  22.152  24.840  1.00  0.00     0.063 C 
ATOM     22  N   UNL A   1      34.224  19.841  25.363  1.00  0.00    -0.345 N 
ATOM     23  C   UNL A   1      35.375  20.720  25.165  1.00  0.00     0.260 C 
ATOM     24  H   UNL A   1      33.729  20.134  26.206  1.00  0.00     0.346 HD
ATOM     25  H   UNL A   1      34.570  18.887  25.448  1.00  0.00     0.346 HD
ENDBRANCH  10  17
ENDBRANCH   8   9
ENDBRANCH   6   8
ENDBRANCH   5   6
ENDBRANCH   4   5
ENDBRANCH   3   4
ENDBRANCH   2   3
ENDBRANCH   1   2
BRANCH   1  26
ATOM     26  C   UNL A   1      34.959  32.921  29.640  1.00  0.00     0.261 C 
BRANCH  26  27
ATOM     27  O   UNL A   1      36.353  32.590  29.773  1.00  0.00    -0.460 OA
BRANCH  27  28
ATOM     28  C   UNL A   1      36.604  31.544  30.596  1.00  0.00     0.338 C 
ATOM     29  O   UNL A   1      35.913  31.169  31.537  1.00  0.00    -0.246 OA
BRANCH  28  30
ATOM     30  C   UNL A   1      37.755  30.761  30.105  1.00  0.00     0.060 A 
ATOM     31  C   UNL A   1      38.705  30.362  31.054  1.00  0.00     0.016 A 
ATOM     32  C   UNL A   1      37.948  30.484  28.750  1.00  0.00     0.016 A 
ATOM     33  C   UNL A   1      39.881  29.737  30.646  1.00  0.00     0.010 A 
ATOM     34  C   UNL A   1      39.136  29.860  28.342  1.00  0.00     0.010 A 
ATOM     35  C   UNL A   1      40.125  29.520  29.283  1.00  0.00    -0.014 A 
BRANCH  35  36
ATOM     36  C   UNL A   1      41.474  29.079  28.849  1.00  0.00     0.031 A 
ATOM     37  C   UNL A   1      42.597  30.084  28.822  1.00  0.00     0.074 A 
ATOM     38  C   UNL A   1      41.716  27.790  28.544  1.00  0.00     0.049 A 
ATOM     39  N   UNL A   1      43.842  29.926  28.453  1.00  0.00    -0.248 NA
ATOM     40  C   UNL A   1      42.273  31.446  29.276  1.00  0.00     0.031 C 
ATOM     41  C   UNL A   1      40.727  26.713  28.580  1.00  0.00     0.029 A 
ATOM     42  N   UNL A   1      42.871  27.169  28.139  1.00  0.00    -0.354 N 
ATOM     43  C   UNL A   1      44.452  31.162  28.639  1.00  0.00     0.074 A 
ATOM     44  C   UNL A   1      43.431  32.070  29.113  1.00  0.00     0.031 C 
ATOM     45  C   UNL A   1      41.316  25.566  28.199  1.00  0.00     0.029 A 
ATOM     46  C   UNL A   1      42.713  25.832  27.862  1.00  0.00     0.049 A 
ATOM     47  H   UNL A   1      43.734  27.638  28.054  1.00  0.00     0.167 HD
ATOM     48  C   UNL A   1      45.749  31.505  28.449  1.00  0.00     0.037 A 
ATOM     49  C   UNL A   1      43.589  24.933  27.368  1.00  0.00     0.037 A 
ATOM     50  C   UNL A   1      46.763  30.601  27.973  1.00  0.00     0.049 A 
ATOM     51  C   UNL A   1      45.006  25.362  27.082  1.00  0.00     0.074 A 
ATOM     52  C   UNL A   1      48.101  30.861  27.726  1.00  0.00     0.029 A 
ATOM     53  N   UNL A   1      46.557  29.262  27.677  1.00  0.00    -0.354 N 
ATOM     54  N   UNL A   1      45.566  26.536  27.258  1.00  0.00    -0.248 NA
ATOM     55  C   UNL A   1      45.914  24.343  26.532  1.00  0.00     0.031 C 
ATOM     56  C   UNL A   1      48.694  29.690  27.244  1.00  0.00     0.029 A 
ATOM     57  C   UNL A   1      47.738  28.687  27.239  1.00  0.00     0.049 A 
ATOM     58  H   UNL A   1      45.697  28.790  27.765  1.00  0.00     0.167 HD
ATOM     59  C   UNL A   1      46.896  26.385  26.874  1.00  0.00     0.074 A 
ATOM     60  C   UNL A   1      47.060  25.006  26.468  1.00  0.00     0.031 C 
ATOM     61  C   UNL A   1      47.891  27.306  26.858  1.00  0.00     0.037 A 
BRANCH  48  62
ATOM     62  C   UNL A   1      46.150  32.921  28.756  1.00  0.00     0.058 A 
ATOM     63  C   UNL A   1      46.633  33.287  30.021  1.00  0.00     0.135 A 
ATOM     64  C   UNL A   1      46.113  33.908  27.757  1.00  0.00     0.135 A 
ATOM     65  F   UNL A   1      46.672  32.387  31.017  1.00  0.00    -0.206 F 
ATOM     66  C   UNL A   1      47.055  34.585  30.291  1.00  0.00     0.059 A 
ATOM     67  C   UNL A   1      46.554  35.207  27.998  1.00  0.00     0.059 A 
ATOM     68  F   UNL A   1      45.657  33.612  26.530  1.00  0.00    -0.206 F 
ATOM     69  C   UNL A   1      47.016  35.537  29.271  1.00  0.00     0.060 A 
BRANCH  69  70
ATOM     70  S   UNL A   1      47.598  37.208  29.630  1.00  0.00     0.124 S 
ATOM     71  O   UNL A   1      46.359  37.868  30.031  1.00  0.00    -0.237 OA
ATOM     72  O   UNL A   1      48.566  36.978  30.698  1.00  0.00    -0.237 OA
ATOM     73  O   UNL A   1      48.162  37.653  28.361  1.00  0.00    -0.744 OA
ENDBRANCH  69  70
ENDBRANCH  48  62
BRANCH  49  74
ATOM     74  C   UNL A   1      43.152  23.540  27.074  1.00  0.00     0.058 A 
ATOM     75  C   UNL A   1      43.029  22.582  28.090  1.00  0.00     0.135 A 
ATOM     76  C   UNL A   1      42.898  23.129  25.755  1.00  0.00     0.135 A 
ATOM     77  F   UNL A   1      43.270  22.922  29.366  1.00  0.00    -0.206 F 
ATOM     78  C   UNL A   1      42.707  21.257  27.810  1.00  0.00     0.059 A 
ATOM     79  C   UNL A   1      42.544  21.818  25.453  1.00  0.00     0.059 A 
ATOM     80  F   UNL A   1      42.986  24.009  24.746  1.00  0.00    -0.206 F 
ATOM     81  C   UNL A   1      42.472  20.885  26.484  1.00  0.00     0.060 A 
BRANCH  81  82
ATOM     82  S   UNL A   1      42.051  19.166  26.125  1.00  0.00     0.124 S 
ATOM     83  O   UNL A   1      42.869  18.905  24.945  1.00  0.00    -0.237 OA
ATOM     84  O   UNL A   1      42.459  18.486  27.349  1.00  0.00    -0.237 OA
ATOM     85  O   UNL A   1      40.610  19.218  25.895  1.00  0.00    -0.744 OA
ENDBRANCH  81  82
ENDBRANCH  49  74
BRANCH  61  86
ATOM     86  C   UNL A   1      49.260  26.845  26.435  1.00  0.00     0.058 A 
ATOM     87  C   UNL A   1      50.137  26.209  27.327  1.00  0.00     0.135 A 
ATOM     88  C   UNL A   1      49.678  26.995  25.101  1.00  0.00     0.135 A 
ATOM     89  F   UNL A   1      49.788  26.045  28.613  1.00  0.00    -0.206 F 
ATOM     90  C   UNL A   1      51.390  25.762  26.921  1.00  0.00     0.059 A 
ATOM     91  C   UNL A   1      50.915  26.530  24.666  1.00  0.00     0.059 A 
ATOM     92  F   UNL A   1      48.873  27.585  24.203  1.00  0.00    -0.206 F 
ATOM     93  C   UNL A   1      51.769  25.926  25.587  1.00  0.00     0.060 A 
BRANCH  93  94
ATOM     94  S   UNL A   1      53.386  25.312  25.065  1.00  0.00     0.124 S 
ATOM     95  O   UNL A   1      53.261  23.885  25.345  1.00  0.00    -0.237 OA
ATOM     96  O   UNL A   1      53.419  25.679  23.652  1.00  0.00    -0.237 OA
ATOM     97  O   UNL A   1      54.318  26.041  25.918  1.00  0.00    -0.744 OA
ENDBRANCH  93  94
ENDBRANCH  61  86
ENDBRANCH  35  36
ENDBRANCH  28  30
ENDBRANCH  27  28
ENDBRANCH  26  27
ENDBRANCH   1  26
TORSDOF 19
ENDMDL
MODEL 3
REMARK VINA RESULT:     -10.7      6.806     12.301
REMARK SMILES C[C@]1(C(=O)N2CCC(CC(=O)OCCOCCOC(=O)c3ccc(-c4c5nc(c(-c6c(F)cc(S(=O)(=O)[O-])cc6F)c6ccc([nH]6)c(-c6c(F)cc(S(=O)(=O)[O-])cc6F)c6nc(c(-c7c(F)cc(S(=O)(=O)[O-])cc7F)c7ccc4[nH]7)C=C6)C=C5)cc3)CC2)CCC[NH2+]C1
REMARK SMILES IDX 16 1 15 2 14 3 13 4 12 5 10 6 11 7 9 8 8 9 3 10 4 11 5 12
REMARK SMILES IDX 6 13 88 14 7 15 87 16 2 17 1 18 89 19 93 20 90 21 92 22
REMARK SMILES IDX 91 23 17 26 18 27 19 28 20 29 21 30 22 31 86 32 23 33 85 34
REMARK SMILES IDX 24 35 25 36 26 37 79 38 27 39 84 40 78 41 80 42 28 43 83 44
REMARK SMILES IDX 77 45 76 46 29 48 63 49 42 50 62 51 43 52 46 53 61 54 81 55
REMARK SMILES IDX 44 56 45 57 60 59 82 60 47 61 30 62 31 63 40 64 32 65 33 66
REMARK SMILES IDX 39 67 41 68 34 69 35 70 36 71 37 72 38 73 64 74 65 75 74 76
REMARK SMILES IDX 66 77 67 78 73 79 75 80 68 81 69 82 70 83 71 84 72 85 48 86
REMARK SMILES IDX 49 87 58 88 50 89 51 90 57 91 59 92 52 93 53 94 54 95 55 96
REMARK SMILES IDX 56 97
REMARK H PARENT 92 24 92 25 80 47 46 58
REMARK Flexibility Score: inf
ROOT
ATOM      1  C   UNL A   1      33.907  29.225  26.851  1.00  0.00     0.202 C 
ENDROOT
BRANCH   1   2
ATOM      2  O   UNL A   1      32.502  29.132  27.070  1.00  0.00    -0.374 OA
BRANCH   2   3
ATOM      3  C   UNL A   1      31.724  28.547  26.024  1.00  0.00     0.202 C 
BRANCH   3   4
ATOM      4  C   UNL A   1      31.647  29.344  24.717  1.00  0.00     0.261 C 
BRANCH   4   5
ATOM      5  O   UNL A   1      30.413  29.086  24.021  1.00  0.00    -0.463 OA
BRANCH   5   6
ATOM      6  C   UNL A   1      30.515  28.648  22.742  1.00  0.00     0.306 C 
ATOM      7  O   UNL A   1      29.663  28.792  21.876  1.00  0.00    -0.252 OA
BRANCH   6   8
ATOM      8  C   UNL A   1      31.803  27.893  22.498  1.00  0.00     0.126 C 
BRANCH   8   9
ATOM      9  C   UNL A   1      31.722  26.375  22.216  1.00  0.00     0.003 C 
ATOM     10  C   UNL A   1      33.073  22.925  24.218  1.00  0.00     0.234 C 
ATOM     11  O   UNL A   1      32.415  21.915  24.497  1.00  0.00    -0.274 OA
ATOM     12  N   UNL A   1      32.535  23.879  23.380  1.00  0.00    -0.342 N 
ATOM     13  C   UNL A   1      31.126  24.196  23.454  1.00  0.00     0.120 C 
ATOM     14  C   UNL A   1      33.145  24.246  22.117  1.00  0.00     0.120 C 
ATOM     15  C   UNL A   1      30.986  25.712  23.410  1.00  0.00     0.026 C 
ATOM     16  C   UNL A   1      33.117  25.759  21.952  1.00  0.00     0.026 C 
BRANCH  10  17
ATOM     17  C   UNL A   1      34.329  23.299  25.061  1.00  0.00     0.095 C 
ATOM     18  C   UNL A   1      33.843  24.444  25.985  1.00  0.00     0.028 C 
ATOM     19  C   UNL A   1      34.736  22.087  25.926  1.00  0.00     0.028 C 
ATOM     20  C   UNL A   1      35.587  23.817  24.335  1.00  0.00     0.277 C 
ATOM     21  C   UNL A   1      35.466  21.042  25.082  1.00  0.00     0.063 C 
ATOM     22  N   UNL A   1      36.318  22.809  23.565  1.00  0.00    -0.345 N 
ATOM     23  C   UNL A   1      36.679  21.648  24.376  1.00  0.00     0.260 C 
ATOM     24  H   UNL A   1      35.731  22.498  22.791  1.00  0.00     0.346 HD
ATOM     25  H   UNL A   1      37.181  23.236  23.229  1.00  0.00     0.346 HD
ENDBRANCH  10  17
ENDBRANCH   8   9
ENDBRANCH   6   8
ENDBRANCH   5   6
ENDBRANCH   4   5
ENDBRANCH   3   4
ENDBRANCH   2   3
ENDBRANCH   1   2
BRANCH   1  26
ATOM     26  C   UNL A   1      34.693  30.115  27.824  1.00  0.00     0.261 C 
BRANCH  26  27
ATOM     27  O   UNL A   1      35.641  29.364  28.604  1.00  0.00    -0.460 OA
BRANCH  27  28
ATOM     28  C   UNL A   1      36.352  30.105  29.486  1.00  0.00     0.338 C 
ATOM     29  O   UNL A   1      35.916  30.688  30.473  1.00  0.00    -0.246 OA
BRANCH  28  30
ATOM     30  C   UNL A   1      37.799  29.982  29.221  1.00  0.00     0.060 A 
ATOM     31  C   UNL A   1      38.193  29.844  27.884  1.00  0.00     0.016 A 
ATOM     32  C   UNL A   1      38.745  29.927  30.247  1.00  0.00     0.016 A 
ATOM     33  C   UNL A   1      39.526  29.590  27.571  1.00  0.00     0.010 A 
ATOM     34  C   UNL A   1      40.085  29.665  29.929  1.00  0.00     0.010 A 
ATOM     35  C   UNL A   1      40.475  29.457  28.593  1.00  0.00    -0.014 A 
BRANCH  35  36
ATOM     36  C   UNL A   1      41.831  28.950  28.262  1.00  0.00     0.031 A 
ATOM     37  C   UNL A   1      42.987  29.917  28.243  1.00  0.00     0.074 A 
ATOM     38  C   UNL A   1      42.044  27.639  28.043  1.00  0.00     0.049 A 
ATOM     39  N   UNL A   1      44.244  29.699  27.955  1.00  0.00    -0.248 NA
ATOM     40  C   UNL A   1      42.685  31.312  28.601  1.00  0.00     0.031 C 
ATOM     41  C   UNL A   1      41.019  26.597  28.082  1.00  0.00     0.029 A 
ATOM     42  N   UNL A   1      43.198  26.960  27.739  1.00  0.00    -0.354 N 
ATOM     43  C   UNL A   1      44.885  30.924  28.106  1.00  0.00     0.074 A 
ATOM     44  C   UNL A   1      43.871  31.890  28.470  1.00  0.00     0.031 C 
ATOM     45  C   UNL A   1      41.588  25.412  27.800  1.00  0.00     0.029 A 
ATOM     46  C   UNL A   1      43.010  25.615  27.529  1.00  0.00     0.049 A 
ATOM     47  H   UNL A   1      44.080  27.396  27.678  1.00  0.00     0.167 HD
ATOM     48  C   UNL A   1      46.202  31.215  27.971  1.00  0.00     0.037 A 
ATOM     49  C   UNL A   1      43.880  24.662  27.137  1.00  0.00     0.037 A 
ATOM     50  C   UNL A   1      47.209  30.254  27.605  1.00  0.00     0.049 A 
ATOM     51  C   UNL A   1      45.325  25.030  26.908  1.00  0.00     0.074 A 
ATOM     52  C   UNL A   1      48.566  30.458  27.420  1.00  0.00     0.029 A 
ATOM     53  N   UNL A   1      46.974  28.908  27.373  1.00  0.00    -0.354 N 
ATOM     54  N   UNL A   1      45.915  26.194  27.051  1.00  0.00    -0.248 NA
ATOM     55  C   UNL A   1      46.226  23.954  26.469  1.00  0.00     0.031 C 
ATOM     56  C   UNL A   1      49.144  29.243  27.039  1.00  0.00     0.029 A 
ATOM     57  C   UNL A   1      48.157  28.272  27.035  1.00  0.00     0.049 A 
ATOM     58  H   UNL A   1      46.095  28.469  27.438  1.00  0.00     0.167 HD
ATOM     59  C   UNL A   1      47.257  25.980  26.752  1.00  0.00     0.074 A 
ATOM     60  C   UNL A   1      47.396  24.576  26.433  1.00  0.00     0.031 C 
ATOM     61  C   UNL A   1      48.283  26.867  26.741  1.00  0.00     0.037 A 
BRANCH  48  62
ATOM     62  C   UNL A   1      46.633  32.633  28.221  1.00  0.00     0.058 A 
ATOM     63  C   UNL A   1      46.601  33.599  27.203  1.00  0.00     0.135 A 
ATOM     64  C   UNL A   1      47.022  33.049  29.506  1.00  0.00     0.135 A 
ATOM     65  F   UNL A   1      46.256  33.252  25.953  1.00  0.00    -0.206 F 
ATOM     66  C   UNL A   1      46.949  34.924  27.445  1.00  0.00     0.059 A 
ATOM     67  C   UNL A   1      47.350  34.373  29.777  1.00  0.00     0.059 A 
ATOM     68  F   UNL A   1      47.073  32.165  30.515  1.00  0.00    -0.206 F 
ATOM     69  C   UNL A   1      47.318  35.303  28.737  1.00  0.00     0.060 A 
BRANCH  69  70
ATOM     70  S   UNL A   1      47.736  37.033  29.040  1.00  0.00     0.124 S 
ATOM     71  O   UNL A   1      49.106  36.920  29.529  1.00  0.00    -0.237 OA
ATOM     72  O   UNL A   1      47.582  37.627  27.716  1.00  0.00    -0.237 OA
ATOM     73  O   UNL A   1      46.751  37.453  30.031  1.00  0.00    -0.744 OA
ENDBRANCH  69  70
ENDBRANCH  48  62
BRANCH  49  74
ATOM     74  C   UNL A   1      43.413  23.269  26.896  1.00  0.00     0.058 A 
ATOM     75  C   UNL A   1      43.121  22.402  27.958  1.00  0.00     0.135 A 
ATOM     76  C   UNL A   1      43.299  22.764  25.591  1.00  0.00     0.135 A 
ATOM     77  F   UNL A   1      43.224  22.834  29.225  1.00  0.00    -0.206 F 
ATOM     78  C   UNL A   1      42.769  21.073  27.741  1.00  0.00     0.059 A 
ATOM     79  C   UNL A   1      42.919  21.448  25.346  1.00  0.00     0.059 A 
ATOM     80  F   UNL A   1      43.551  23.555  24.537  1.00  0.00    -0.206 F 
ATOM     81  C   UNL A   1      42.677  20.605  26.428  1.00  0.00     0.060 A 
BRANCH  81  82
ATOM     82  S   UNL A   1      42.217  18.881  26.149  1.00  0.00     0.124 S 
ATOM     83  O   UNL A   1      43.153  18.495  25.099  1.00  0.00    -0.237 OA
ATOM     84  O   UNL A   1      42.445  18.285  27.460  1.00  0.00    -0.237 OA
ATOM     85  O   UNL A   1      40.817  18.972  25.745  1.00  0.00    -0.744 OA
ENDBRANCH  81  82
ENDBRANCH  49  74
BRANCH  61  86
ATOM     86  C   UNL A   1      49.656  26.341  26.422  1.00  0.00     0.058 A 
ATOM     87  C   UNL A   1      50.166  26.344  25.115  1.00  0.00     0.135 A 
ATOM     88  C   UNL A   1      50.494  25.875  27.451  1.00  0.00     0.135 A 
ATOM     89  F   UNL A   1      49.406  26.774  24.095  1.00  0.00    -0.206 F 
ATOM     90  C   UNL A   1      51.447  25.880  24.833  1.00  0.00     0.059 A 
ATOM     91  C   UNL A   1      51.789  25.434  27.196  1.00  0.00     0.059 A 
ATOM     92  F   UNL A   1      50.060  25.862  28.721  1.00  0.00    -0.206 F 
ATOM     93  C   UNL A   1      52.252  25.428  25.881  1.00  0.00     0.060 A 
BRANCH  93  94
ATOM     94  S   UNL A   1      53.924  24.859  25.506  1.00  0.00     0.124 S 
ATOM     95  O   UNL A   1      54.279  25.715  24.378  1.00  0.00    -0.237 OA
ATOM     96  O   UNL A   1      54.634  25.129  26.753  1.00  0.00    -0.237 OA
ATOM     97  O   UNL A   1      53.740  23.446  25.190  1.00  0.00    -0.744 OA
ENDBRANCH  93  94
ENDBRANCH  61  86
ENDBRANCH  35  36
ENDBRANCH  28  30
ENDBRANCH  27  28
ENDBRANCH  26  27
ENDBRANCH   1  26
TORSDOF 19
ENDMDL
