MODEL 1
REMARK VINA RESULT:     -10.8      0.000      0.000
REMARK SMILES CC(=O)N1C[C@@H]2C[N@H+](CC(=O)NCc3ccccc3)C[C@]2(C(=O)OCCOCCOC(=O)c2ccc(-c3c4nc(c(-c5c(F)cc(S(=O)(=O)[O-])cc5F)c5ccc([nH]5)c(-c5c(F)cc(S(=O)(=O)[O-])cc5F)c5nc(c(-c6c(F)cc(S(=O)(=O)[O-])cc6F)c6ccc3[nH]6)C=C5)C=C4)cc2)C1
REMARK SMILES IDX 26 1 25 2 24 3 22 4 23 5 21 6 4 7 5 8 99 9 6 10 7 11 20 12
REMARK SMILES IDX 8 13 2 15 1 16 3 17 9 18 10 19 11 20 12 21 13 23 14 24 15 25
REMARK SMILES IDX 19 26 16 27 18 28 17 29 27 30 28 31 29 32 30 33 31 34 32 35
REMARK SMILES IDX 33 36 34 37 98 38 35 39 97 40 36 41 37 42 38 43 91 44 39 45
REMARK SMILES IDX 96 46 90 47 92 48 40 49 95 50 89 51 88 52 41 54 75 55 54 56
REMARK SMILES IDX 74 57 55 58 58 59 73 60 93 61 56 62 57 63 72 65 94 66 59 67
REMARK SMILES IDX 42 68 43 69 52 70 44 71 45 72 51 73 53 74 46 75 47 76 48 77
REMARK SMILES IDX 49 78 50 79 76 80 77 81 86 82 78 83 79 84 85 85 87 86 80 87
REMARK SMILES IDX 81 88 82 89 83 90 84 91 60 92 61 93 70 94 62 95 63 96 69 97
REMARK SMILES IDX 71 98 64 99 65 100 66 101 67 102 68 103
REMARK H PARENT 8 14 12 22 92 53 58 64
REMARK Flexibility Score: inf
ROOT
ATOM      1  C   UNL A   1      33.855  31.982  28.028  1.00  0.00     0.202 C 
ENDROOT
BRANCH   1   2
ATOM      2  C   UNL A   1      34.112  30.658  27.298  1.00  0.00     0.261 C 
BRANCH   2   3
ATOM      3  O   UNL A   1      32.853  29.942  27.039  1.00  0.00    -0.463 OA
BRANCH   3   4
ATOM      4  C   UNL A   1      32.006  30.214  25.970  1.00  0.00     0.320 C 
ATOM      5  O   UNL A   1      31.276  31.196  25.938  1.00  0.00    -0.251 OA
BRANCH   4   6
ATOM      6  C   UNL A   1      31.819  28.971  25.098  1.00  0.00     0.144 C 
ATOM      7  N   UNL A   1      30.881  26.778  25.574  1.00  0.00    -0.341 N 
ATOM      8  C   UNL A   1      30.596  27.037  24.196  1.00  0.00     0.130 C 
ATOM      9  C   UNL A   1      31.389  27.971  26.194  1.00  0.00     0.144 C 
ATOM     10  C   UNL A   1      30.796  28.563  24.000  1.00  0.00     0.089 C 
ATOM     11  C   UNL A   1      31.449  28.706  22.621  1.00  0.00     0.269 C 
ATOM     12  C   UNL A   1      33.095  29.049  24.279  1.00  0.00     0.284 C 
ATOM     13  N   UNL A   1      32.863  28.731  22.902  1.00  0.00    -0.326 N 
ATOM     14  H   UNL A   1      33.129  29.478  22.261  1.00  0.00     0.348 HD
BRANCH   7  15
ATOM     15  C   UNL A   1      30.621  25.547  26.128  1.00  0.00     0.219 C 
ATOM     16  C   UNL A   1      31.699  24.498  26.051  1.00  0.00     0.114 C 
ATOM     17  O   UNL A   1      29.554  25.283  26.685  1.00  0.00    -0.275 OA
ENDBRANCH   7  15
BRANCH  13  18
ATOM     18  C   UNL A   1      33.861  27.899  22.247  1.00  0.00     0.363 C 
BRANCH  18  19
ATOM     19  C   UNL A   1      33.411  26.445  22.046  1.00  0.00     0.275 C 
ATOM     20  O   UNL A   1      32.893  26.103  20.977  1.00  0.00    -0.268 OA
ATOM     21  N   UNL A   1      33.533  25.489  23.018  1.00  0.00    -0.347 N 
ATOM     22  H   UNL A   1      33.114  24.632  22.774  1.00  0.00     0.164 HD
BRANCH  21  23
ATOM     23  C   UNL A   1      34.156  25.470  24.343  1.00  0.00     0.151 C 
BRANCH  23  24
ATOM     24  C   UNL A   1      35.189  24.359  24.546  1.00  0.00    -0.029 A 
ATOM     25  C   UNL A   1      35.895  24.175  25.742  1.00  0.00     0.005 A 
ATOM     26  C   UNL A   1      35.513  23.507  23.474  1.00  0.00     0.005 A 
ATOM     27  C   UNL A   1      36.934  23.235  25.836  1.00  0.00     0.000 A 
ATOM     28  C   UNL A   1      36.558  22.573  23.569  1.00  0.00     0.000 A 
ATOM     29  C   UNL A   1      37.288  22.455  24.745  1.00  0.00     0.000 A 
ENDBRANCH  23  24
ENDBRANCH  21  23
ENDBRANCH  18  19
ENDBRANCH  13  18
ENDBRANCH   4   6
ENDBRANCH   3   4
ENDBRANCH   2   3
ENDBRANCH   1   2
BRANCH   1  30
ATOM     30  O   UNL A   1      34.705  33.054  27.618  1.00  0.00    -0.374 OA
BRANCH  30  31
ATOM     31  C   UNL A   1      35.896  33.199  28.380  1.00  0.00     0.202 C 
BRANCH  31  32
ATOM     32  C   UNL A   1      35.653  33.010  29.882  1.00  0.00     0.261 C 
BRANCH  32  33
ATOM     33  O   UNL A   1      36.161  31.759  30.388  1.00  0.00    -0.460 OA
BRANCH  33  34
ATOM     34  C   UNL A   1      37.319  31.874  31.077  1.00  0.00     0.338 C 
ATOM     35  O   UNL A   1      37.536  32.630  32.029  1.00  0.00    -0.246 OA
BRANCH  34  36
ATOM     36  C   UNL A   1      38.360  30.964  30.568  1.00  0.00     0.060 A 
ATOM     37  C   UNL A   1      39.361  30.543  31.454  1.00  0.00     0.016 A 
ATOM     38  C   UNL A   1      38.471  30.689  29.200  1.00  0.00     0.016 A 
ATOM     39  C   UNL A   1      40.518  29.934  30.968  1.00  0.00     0.010 A 
ATOM     40  C   UNL A   1      39.634  30.080  28.714  1.00  0.00     0.010 A 
ATOM     41  C   UNL A   1      40.687  29.756  29.588  1.00  0.00    -0.014 A 
BRANCH  41  42
ATOM     42  C   UNL A   1      42.033  29.444  29.043  1.00  0.00     0.031 A 
ATOM     43  C   UNL A   1      42.307  28.045  28.552  1.00  0.00     0.074 A 
ATOM     44  C   UNL A   1      42.993  30.384  28.967  1.00  0.00     0.049 A 
ATOM     45  N   UNL A   1      43.418  27.524  28.099  1.00  0.00    -0.248 NA
ATOM     46  C   UNL A   1      41.171  27.107  28.578  1.00  0.00     0.031 C 
ATOM     47  C   UNL A   1      42.840  31.781  29.366  1.00  0.00     0.029 A 
ATOM     48  N   UNL A   1      44.293  30.296  28.535  1.00  0.00    -0.354 N 
ATOM     49  C   UNL A   1      43.120  26.199  27.797  1.00  0.00     0.074 A 
ATOM     50  C   UNL A   1      41.731  25.988  28.141  1.00  0.00     0.031 C 
ATOM     51  C   UNL A   1      44.009  32.419  29.177  1.00  0.00     0.029 A 
ATOM     52  C   UNL A   1      45.000  31.468  28.672  1.00  0.00     0.049 A 
ATOM     53  H   UNL A   1      44.683  29.473  28.162  1.00  0.00     0.167 HD
ATOM     54  C   UNL A   1      43.928  25.245  27.274  1.00  0.00     0.037 A 
ATOM     55  C   UNL A   1      46.300  31.733  28.438  1.00  0.00     0.037 A 
ATOM     56  C   UNL A   1      45.309  25.458  26.929  1.00  0.00     0.049 A 
ATOM     57  C   UNL A   1      47.198  30.642  27.914  1.00  0.00     0.074 A 
ATOM     58  C   UNL A   1      46.210  24.559  26.385  1.00  0.00     0.029 A 
ATOM     59  N   UNL A   1      45.991  26.654  27.100  1.00  0.00    -0.354 N 
ATOM     60  N   UNL A   1      46.900  29.397  27.624  1.00  0.00    -0.248 NA
ATOM     61  C   UNL A   1      48.608  30.990  27.683  1.00  0.00     0.031 C 
ATOM     62  C   UNL A   1      47.447  25.199  26.264  1.00  0.00     0.029 A 
ATOM     63  C   UNL A   1      47.305  26.511  26.689  1.00  0.00     0.049 A 
ATOM     64  H   UNL A   1      45.598  27.482  27.459  1.00  0.00     0.167 HD
ATOM     65  C   UNL A   1      48.077  28.823  27.150  1.00  0.00     0.074 A 
ATOM     66  C   UNL A   1      49.089  29.858  27.186  1.00  0.00     0.031 C 
ATOM     67  C   UNL A   1      48.299  27.556  26.720  1.00  0.00     0.037 A 
BRANCH  54  68
ATOM     68  C   UNL A   1      43.343  23.875  27.068  1.00  0.00     0.058 A 
ATOM     69  C   UNL A   1      42.834  23.468  25.825  1.00  0.00     0.135 A 
ATOM     70  C   UNL A   1      43.312  22.948  28.123  1.00  0.00     0.135 A 
ATOM     71  F   UNL A   1      42.822  24.320  24.787  1.00  0.00    -0.206 F 
ATOM     72  C   UNL A   1      42.291  22.201  25.640  1.00  0.00     0.059 A 
ATOM     73  C   UNL A   1      42.796  21.667  27.956  1.00  0.00     0.059 A 
ATOM     74  F   UNL A   1      43.784  23.287  29.333  1.00  0.00    -0.206 F 
ATOM     75  C   UNL A   1      42.273  21.308  26.714  1.00  0.00     0.060 A 
BRANCH  75  76
ATOM     76  S   UNL A   1      41.562  19.667  26.463  1.00  0.00     0.124 S 
ATOM     77  O   UNL A   1      41.800  19.045  27.761  1.00  0.00    -0.237 OA
ATOM     78  O   UNL A   1      40.169  19.973  26.153  1.00  0.00    -0.237 OA
ATOM     79  O   UNL A   1      42.343  19.125  25.355  1.00  0.00    -0.744 OA
ENDBRANCH  75  76
ENDBRANCH  54  68
BRANCH  55  80
ATOM     80  C   UNL A   1      46.840  33.092  28.713  1.00  0.00     0.058 A 
ATOM     81  C   UNL A   1      47.385  33.417  29.963  1.00  0.00     0.135 A 
ATOM     82  C   UNL A   1      46.823  34.090  27.726  1.00  0.00     0.135 A 
ATOM     83  F   UNL A   1      47.414  32.500  30.941  1.00  0.00    -0.206 F 
ATOM     84  C   UNL A   1      47.888  34.687  30.230  1.00  0.00     0.059 A 
ATOM     85  C   UNL A   1      47.340  35.360  27.962  1.00  0.00     0.059 A 
ATOM     86  F   UNL A   1      46.320  33.827  26.510  1.00  0.00    -0.206 F 
ATOM     87  C   UNL A   1      47.863  35.651  29.221  1.00  0.00     0.060 A 
BRANCH  87  88
ATOM     88  S   UNL A   1      48.573  37.278  29.558  1.00  0.00     0.124 S 
ATOM     89  O   UNL A   1      49.806  36.922  30.251  1.00  0.00    -0.237 OA
ATOM     90  O   UNL A   1      48.729  37.827  28.215  1.00  0.00    -0.237 OA
ATOM     91  O   UNL A   1      47.551  37.924  30.375  1.00  0.00    -0.744 OA
ENDBRANCH  87  88
ENDBRANCH  55  80
BRANCH  67  92
ATOM     92  C   UNL A   1      49.675  27.222  26.215  1.00  0.00     0.058 A 
ATOM     93  C   UNL A   1      50.012  27.342  24.859  1.00  0.00     0.135 A 
ATOM     94  C   UNL A   1      50.685  26.838  27.113  1.00  0.00     0.135 A 
ATOM     95  F   UNL A   1      49.083  27.701  23.960  1.00  0.00    -0.206 F 
ATOM     96  C   UNL A   1      51.301  27.074  24.406  1.00  0.00     0.059 A 
ATOM     97  C   UNL A   1      51.984  26.589  26.685  1.00  0.00     0.059 A 
ATOM     98  F   UNL A   1      50.415  26.720  28.422  1.00  0.00    -0.206 F 
ATOM     99  C   UNL A   1      52.281  26.700  25.328  1.00  0.00     0.060 A 
BRANCH  99 100
ATOM    100  S   UNL A   1      53.959  26.392  24.734  1.00  0.00     0.124 S 
ATOM    101  O   UNL A   1      54.019  27.259  23.563  1.00  0.00    -0.237 OA
ATOM    102  O   UNL A   1      54.775  26.806  25.872  1.00  0.00    -0.237 OA
ATOM    103  O   UNL A   1      53.963  24.958  24.458  1.00  0.00    -0.744 OA
ENDBRANCH  99 100
ENDBRANCH  67  92
ENDBRANCH  41  42
ENDBRANCH  34  36
ENDBRANCH  33  34
ENDBRANCH  32  33
ENDBRANCH  31  32
ENDBRANCH  30  31
ENDBRANCH   1  30
TORSDOF 22
ENDMDL
MODEL 2
REMARK VINA RESULT:     -10.7      1.681      8.379
REMARK SMILES CC(=O)N1C[C@@H]2C[N@H+](CC(=O)NCc3ccccc3)C[C@]2(C(=O)OCCOCCOC(=O)c2ccc(-c3c4nc(c(-c5c(F)cc(S(=O)(=O)[O-])cc5F)c5ccc([nH]5)c(-c5c(F)cc(S(=O)(=O)[O-])cc5F)c5nc(c(-c6c(F)cc(S(=O)(=O)[O-])cc6F)c6ccc3[nH]6)C=C5)C=C4)cc2)C1
REMARK SMILES IDX 26 1 25 2 24 3 22 4 23 5 21 6 4 7 5 8 99 9 6 10 7 11 20 12
REMARK SMILES IDX 8 13 2 15 1 16 3 17 9 18 10 19 11 20 12 21 13 23 14 24 15 25
REMARK SMILES IDX 19 26 16 27 18 28 17 29 27 30 28 31 29 32 30 33 31 34 32 35
REMARK SMILES IDX 33 36 34 37 98 38 35 39 97 40 36 41 37 42 38 43 91 44 39 45
REMARK SMILES IDX 96 46 90 47 92 48 40 49 95 50 89 51 88 52 41 54 75 55 54 56
REMARK SMILES IDX 74 57 55 58 58 59 73 60 93 61 56 62 57 63 72 65 94 66 59 67
REMARK SMILES IDX 42 68 43 69 52 70 44 71 45 72 51 73 53 74 46 75 47 76 48 77
REMARK SMILES IDX 49 78 50 79 76 80 77 81 86 82 78 83 79 84 85 85 87 86 80 87
REMARK SMILES IDX 81 88 82 89 83 90 84 91 60 92 61 93 70 94 62 95 63 96 69 97
REMARK SMILES IDX 71 98 64 99 65 100 66 101 67 102 68 103
REMARK H PARENT 8 14 12 22 92 53 58 64
REMARK Flexibility Score: inf
ROOT
ATOM      1  C   UNL A   1      34.505  30.473  26.986  1.00  0.00     0.202 C 
ENDROOT
BRANCH   1   2
ATOM      2  C   UNL A   1      34.388  28.979  27.316  1.00  0.00     0.261 C 
BRANCH   2   3
ATOM      3  O   UNL A   1      32.999  28.513  27.180  1.00  0.00    -0.463 OA
BRANCH   3   4
ATOM      4  C   UNL A   1      32.022  29.179  26.446  1.00  0.00     0.320 C 
ATOM      5  O   UNL A   1      31.386  30.123  26.896  1.00  0.00    -0.251 OA
BRANCH   4   6
ATOM      6  C   UNL A   1      31.591  28.344  25.238  1.00  0.00     0.144 C 
ATOM      7  N   UNL A   1      30.414  28.934  23.194  1.00  0.00    -0.341 N 
ATOM      8  C   UNL A   1      31.298  27.865  22.844  1.00  0.00     0.130 C 
ATOM      9  C   UNL A   1      30.716  29.395  24.520  1.00  0.00     0.144 C 
ATOM     10  C   UNL A   1      32.334  27.776  23.996  1.00  0.00     0.089 C 
ATOM     11  C   UNL A   1      32.581  26.277  24.195  1.00  0.00     0.269 C 
ATOM     12  C   UNL A   1      31.207  27.059  25.949  1.00  0.00     0.284 C 
ATOM     13  N   UNL A   1      31.653  25.902  25.233  1.00  0.00    -0.326 N 
ATOM     14  H   UNL A   1      32.270  25.299  25.775  1.00  0.00     0.348 HD
BRANCH   7  15
ATOM     15  C   UNL A   1      29.483  29.400  22.295  1.00  0.00     0.219 C 
ATOM     16  C   UNL A   1      28.029  29.308  22.675  1.00  0.00     0.114 C 
ATOM     17  O   UNL A   1      29.800  29.893  21.211  1.00  0.00    -0.275 OA
ENDBRANCH   7  15
BRANCH  13  18
ATOM     18  C   UNL A   1      30.727  24.782  25.161  1.00  0.00     0.363 C 
BRANCH  18  19
ATOM     19  C   UNL A   1      30.939  23.739  26.266  1.00  0.00     0.275 C 
ATOM     20  O   UNL A   1      30.208  23.739  27.263  1.00  0.00    -0.268 OA
ATOM     21  N   UNL A   1      31.934  22.799  26.220  1.00  0.00    -0.347 N 
ATOM     22  H   UNL A   1      32.001  22.264  27.044  1.00  0.00     0.164 HD
BRANCH  21  23
ATOM     23  C   UNL A   1      32.919  22.421  25.204  1.00  0.00     0.151 C 
BRANCH  23  24
ATOM     24  C   UNL A   1      32.828  20.965  24.740  1.00  0.00    -0.029 A 
ATOM     25  C   UNL A   1      32.395  20.591  23.461  1.00  0.00     0.005 A 
ATOM     26  C   UNL A   1      33.126  19.927  25.643  1.00  0.00     0.005 A 
ATOM     27  C   UNL A   1      32.191  19.242  23.127  1.00  0.00     0.000 A 
ATOM     28  C   UNL A   1      32.914  18.580  25.309  1.00  0.00     0.000 A 
ATOM     29  C   UNL A   1      32.421  18.238  24.056  1.00  0.00     0.000 A 
ENDBRANCH  23  24
ENDBRANCH  21  23
ENDBRANCH  18  19
ENDBRANCH  13  18
ENDBRANCH   4   6
ENDBRANCH   3   4
ENDBRANCH   2   3
ENDBRANCH   1   2
BRANCH   1  30
ATOM     30  O   UNL A   1      35.417  31.189  27.821  1.00  0.00    -0.374 OA
BRANCH  30  31
ATOM     31  C   UNL A   1      34.833  31.785  28.971  1.00  0.00     0.202 C 
BRANCH  31  32
ATOM     32  C   UNL A   1      35.883  32.385  29.913  1.00  0.00     0.261 C 
BRANCH  32  33
ATOM     33  O   UNL A   1      36.129  31.574  31.081  1.00  0.00    -0.460 OA
BRANCH  33  34
ATOM     34  C   UNL A   1      36.668  30.364  30.807  1.00  0.00     0.338 C 
ATOM     35  O   UNL A   1      36.129  29.265  30.971  1.00  0.00    -0.246 OA
BRANCH  34  36
ATOM     36  C   UNL A   1      38.032  30.475  30.262  1.00  0.00     0.060 A 
ATOM     37  C   UNL A   1      38.244  30.093  28.930  1.00  0.00     0.016 A 
ATOM     38  C   UNL A   1      39.121  30.756  31.095  1.00  0.00     0.016 A 
ATOM     39  C   UNL A   1      39.542  29.897  28.455  1.00  0.00     0.010 A 
ATOM     40  C   UNL A   1      40.421  30.556  30.617  1.00  0.00     0.010 A 
ATOM     41  C   UNL A   1      40.635  30.067  29.316  1.00  0.00    -0.014 A 
BRANCH  41  42
ATOM     42  C   UNL A   1      41.965  29.528  28.935  1.00  0.00     0.031 A 
ATOM     43  C   UNL A   1      43.144  30.468  28.905  1.00  0.00     0.074 A 
ATOM     44  C   UNL A   1      42.135  28.227  28.638  1.00  0.00     0.049 A 
ATOM     45  N   UNL A   1      44.380  30.241  28.542  1.00  0.00    -0.248 NA
ATOM     46  C   UNL A   1      42.890  31.851  29.342  1.00  0.00     0.031 C 
ATOM     47  C   UNL A   1      41.087  27.209  28.673  1.00  0.00     0.029 A 
ATOM     48  N   UNL A   1      43.255  27.543  28.236  1.00  0.00    -0.354 N 
ATOM     49  C   UNL A   1      45.048  31.452  28.696  1.00  0.00     0.074 A 
ATOM     50  C   UNL A   1      44.075  32.416  29.161  1.00  0.00     0.031 C 
ATOM     51  C   UNL A   1      41.610  26.031  28.290  1.00  0.00     0.029 A 
ATOM     52  C   UNL A   1      43.022  26.218  27.955  1.00  0.00     0.049 A 
ATOM     53  H   UNL A   1      44.142  27.962  28.157  1.00  0.00     0.167 HD
ATOM     54  C   UNL A   1      46.355  31.735  28.477  1.00  0.00     0.037 A 
ATOM     55  C   UNL A   1      43.846  25.273  27.461  1.00  0.00     0.037 A 
ATOM     56  C   UNL A   1      47.322  30.774  28.017  1.00  0.00     0.049 A 
ATOM     57  C   UNL A   1      45.283  25.623  27.166  1.00  0.00     0.074 A 
ATOM     58  C   UNL A   1      48.672  30.958  27.773  1.00  0.00     0.029 A 
ATOM     59  N   UNL A   1      47.041  29.446  27.728  1.00  0.00    -0.354 N 
ATOM     60  N   UNL A   1      45.903  26.769  27.325  1.00  0.00    -0.248 NA
ATOM     61  C   UNL A   1      46.133  24.552  26.625  1.00  0.00     0.031 C 
ATOM     62  C   UNL A   1      49.198  29.753  27.298  1.00  0.00     0.029 A 
ATOM     63  C   UNL A   1      48.186  28.805  27.290  1.00  0.00     0.049 A 
ATOM     64  H   UNL A   1      46.156  29.023  27.821  1.00  0.00     0.167 HD
ATOM     65  C   UNL A   1      47.220  26.549  26.933  1.00  0.00     0.074 A 
ATOM     66  C   UNL A   1      47.309  25.159  26.534  1.00  0.00     0.031 C 
ATOM     67  C   UNL A   1      48.262  27.416  26.908  1.00  0.00     0.037 A 
BRANCH  54  68
ATOM     68  C   UNL A   1      46.808  33.150  28.707  1.00  0.00     0.058 A 
ATOM     69  C   UNL A   1      47.313  33.573  29.946  1.00  0.00     0.135 A 
ATOM     70  C   UNL A   1      46.758  34.092  27.666  1.00  0.00     0.135 A 
ATOM     71  F   UNL A   1      47.366  32.719  30.981  1.00  0.00    -0.206 F 
ATOM     72  C   UNL A   1      47.728  34.884  30.154  1.00  0.00     0.059 A 
ATOM     73  C   UNL A   1      47.190  35.403  27.843  1.00  0.00     0.059 A 
ATOM     74  F   UNL A   1      46.282  33.741  26.460  1.00  0.00    -0.206 F 
ATOM     75  C   UNL A   1      47.659  35.793  29.097  1.00  0.00     0.060 A 
BRANCH  75  76
ATOM     76  S   UNL A   1      48.197  37.494  29.381  1.00  0.00     0.124 S 
ATOM     77  O   UNL A   1      48.303  37.997  28.015  1.00  0.00    -0.237 OA
ATOM     78  O   UNL A   1      47.102  38.041  30.175  1.00  0.00    -0.237 OA
ATOM     79  O   UNL A   1      49.463  37.335  30.090  1.00  0.00    -0.744 OA
ENDBRANCH  75  76
ENDBRANCH  54  68
BRANCH  55  80
ATOM     80  C   UNL A   1      43.331  23.902  27.200  1.00  0.00     0.058 A 
ATOM     81  C   UNL A   1      43.010  23.484  25.901  1.00  0.00     0.135 A 
ATOM     82  C   UNL A   1      43.154  22.984  28.246  1.00  0.00     0.135 A 
ATOM     83  F   UNL A   1      43.151  24.329  24.869  1.00  0.00    -0.206 F 
ATOM     84  C   UNL A   1      42.522  22.206  25.648  1.00  0.00     0.059 A 
ATOM     85  C   UNL A   1      42.690  21.693  28.015  1.00  0.00     0.059 A 
ATOM     86  F   UNL A   1      43.456  23.333  29.507  1.00  0.00    -0.206 F 
ATOM     87  C   UNL A   1      42.369  21.315  26.713  1.00  0.00     0.060 A 
BRANCH  87  88
ATOM     88  S   UNL A   1      41.793  19.638  26.366  1.00  0.00     0.124 S 
ATOM     89  O   UNL A   1      40.353  19.840  26.256  1.00  0.00    -0.237 OA
ATOM     90  O   UNL A   1      42.492  19.327  25.124  1.00  0.00    -0.237 OA
ATOM     91  O   UNL A   1      42.240  18.885  27.533  1.00  0.00    -0.744 OA
ENDBRANCH  87  88
ENDBRANCH  55  80
BRANCH  67  92
ATOM     92  C   UNL A   1      49.600  26.886  26.475  1.00  0.00     0.058 A 
ATOM     93  C   UNL A   1      50.421  26.153  27.345  1.00  0.00     0.135 A 
ATOM     94  C   UNL A   1      50.036  27.061  25.150  1.00  0.00     0.135 A 
ATOM     95  F   UNL A   1      50.053  25.962  28.621  1.00  0.00    -0.206 F 
ATOM     96  C   UNL A   1      51.638  25.628  26.922  1.00  0.00     0.059 A 
ATOM     97  C   UNL A   1      51.237  26.524  24.701  1.00  0.00     0.059 A 
ATOM     98  F   UNL A   1      49.282  27.745  24.276  1.00  0.00    -0.206 F 
ATOM     99  C   UNL A   1      52.038  25.817  25.597  1.00  0.00     0.060 A 
BRANCH  99 100
ATOM    100  S   UNL A   1      53.601  25.098  25.050  1.00  0.00     0.124 S 
ATOM    101  O   UNL A   1      53.328  23.670  25.179  1.00  0.00    -0.237 OA
ATOM    102  O   UNL A   1      53.716  25.599  23.684  1.00  0.00    -0.237 OA
ATOM    103  O   UNL A   1      54.573  25.641  25.994  1.00  0.00    -0.744 OA
ENDBRANCH  99 100
ENDBRANCH  67  92
ENDBRANCH  41  42
ENDBRANCH  34  36
ENDBRANCH  33  34
ENDBRANCH  32  33
ENDBRANCH  31  32
ENDBRANCH  30  31
ENDBRANCH   1  30
TORSDOF 22
ENDMDL
MODEL 3
REMARK VINA RESULT:     -10.6      6.212     11.681
REMARK SMILES CC(=O)N1C[C@@H]2C[N@H+](CC(=O)NCc3ccccc3)C[C@]2(C(=O)OCCOCCOC(=O)c2ccc(-c3c4nc(c(-c5c(F)cc(S(=O)(=O)[O-])cc5F)c5ccc([nH]5)c(-c5c(F)cc(S(=O)(=O)[O-])cc5F)c5nc(c(-c6c(F)cc(S(=O)(=O)[O-])cc6F)c6ccc3[nH]6)C=C5)C=C4)cc2)C1
REMARK SMILES IDX 26 1 25 2 24 3 22 4 23 5 21 6 4 7 5 8 99 9 6 10 7 11 20 12
REMARK SMILES IDX 8 13 2 15 1 16 3 17 9 18 10 19 11 20 12 21 13 23 14 24 15 25
REMARK SMILES IDX 19 26 16 27 18 28 17 29 27 30 28 31 29 32 30 33 31 34 32 35
REMARK SMILES IDX 33 36 34 37 98 38 35 39 97 40 36 41 37 42 38 43 91 44 39 45
REMARK SMILES IDX 96 46 90 47 92 48 40 49 95 50 89 51 88 52 41 54 75 55 54 56
REMARK SMILES IDX 74 57 55 58 58 59 73 60 93 61 56 62 57 63 72 65 94 66 59 67
REMARK SMILES IDX 42 68 43 69 52 70 44 71 45 72 51 73 53 74 46 75 47 76 48 77
REMARK SMILES IDX 49 78 50 79 76 80 77 81 86 82 78 83 79 84 85 85 87 86 80 87
REMARK SMILES IDX 81 88 82 89 83 90 84 91 60 92 61 93 70 94 62 95 63 96 69 97
REMARK SMILES IDX 71 98 64 99 65 100 66 101 67 102 68 103
REMARK H PARENT 8 14 12 22 92 53 58 64
REMARK Flexibility Score: inf
ROOT
ATOM      1  C   UNL A   1      38.985  21.904  26.165  1.00  0.00     0.202 C 
ENDROOT
BRANCH   1   2
ATOM      2  C   UNL A   1      37.858  21.566  25.182  1.00  0.00     0.261 C 
BRANCH   2   3
ATOM      3  O   UNL A   1      36.956  22.713  24.994  1.00  0.00    -0.463 OA
BRANCH   3   4
ATOM      4  C   UNL A   1      36.155  22.901  23.872  1.00  0.00     0.320 C 
ATOM      5  O   UNL A   1      36.605  22.919  22.734  1.00  0.00    -0.251 OA
BRANCH   4   6
ATOM      6  C   UNL A   1      34.790  23.466  24.271  1.00  0.00     0.144 C 
ATOM      7  N   UNL A   1      32.835  22.430  25.280  1.00  0.00    -0.341 N 
ATOM      8  C   UNL A   1      32.847  23.782  25.746  1.00  0.00     0.130 C 
ATOM      9  C   UNL A   1      34.070  22.140  24.604  1.00  0.00     0.144 C 
ATOM     10  C   UNL A   1      34.279  24.314  25.470  1.00  0.00     0.089 C 
ATOM     11  C   UNL A   1      34.086  25.765  25.019  1.00  0.00     0.269 C 
ATOM     12  C   UNL A   1      34.582  24.441  23.126  1.00  0.00     0.284 C 
ATOM     13  N   UNL A   1      34.027  25.681  23.580  1.00  0.00    -0.326 N 
ATOM     14  H   UNL A   1      34.605  26.491  23.359  1.00  0.00     0.348 HD
BRANCH   7  15
ATOM     15  C   UNL A   1      31.766  21.605  25.541  1.00  0.00     0.219 C 
ATOM     16  C   UNL A   1      30.536  22.219  26.156  1.00  0.00     0.114 C 
ATOM     17  O   UNL A   1      31.781  20.400  25.282  1.00  0.00    -0.275 OA
ENDBRANCH   7  15
BRANCH  13  18
ATOM     18  C   UNL A   1      32.989  26.274  22.750  1.00  0.00     0.363 C 
BRANCH  18  19
ATOM     19  C   UNL A   1      31.650  25.527  22.815  1.00  0.00     0.275 C 
ATOM     20  O   UNL A   1      31.552  24.397  22.324  1.00  0.00    -0.268 OA
ATOM     21  N   UNL A   1      30.525  26.066  23.378  1.00  0.00    -0.347 N 
ATOM     22  H   UNL A   1      29.724  25.505  23.259  1.00  0.00     0.164 HD
BRANCH  21  23
ATOM     23  C   UNL A   1      30.260  27.299  24.123  1.00  0.00     0.151 C 
BRANCH  23  24
ATOM     24  C   UNL A   1      29.599  28.409  23.302  1.00  0.00    -0.029 A 
ATOM     25  C   UNL A   1      28.211  28.588  23.229  1.00  0.00     0.005 A 
ATOM     26  C   UNL A   1      30.397  29.266  22.522  1.00  0.00     0.005 A 
ATOM     27  C   UNL A   1      27.644  29.528  22.353  1.00  0.00     0.000 A 
ATOM     28  C   UNL A   1      29.827  30.200  21.641  1.00  0.00     0.000 A 
ATOM     29  C   UNL A   1      28.446  30.313  21.537  1.00  0.00     0.000 A 
ENDBRANCH  23  24
ENDBRANCH  21  23
ENDBRANCH  18  19
ENDBRANCH  13  18
ENDBRANCH   4   6
ENDBRANCH   3   4
ENDBRANCH   2   3
ENDBRANCH   1   2
BRANCH   1  30
ATOM     30  O   UNL A   1      40.256  21.355  25.812  1.00  0.00    -0.374 OA
BRANCH  30  31
ATOM     31  C   UNL A   1      41.344  21.802  26.609  1.00  0.00     0.202 C 
BRANCH  31  32
ATOM     32  C   UNL A   1      41.930  23.126  26.107  1.00  0.00     0.261 C 
BRANCH  32  33
ATOM     33  O   UNL A   1      40.956  24.187  26.031  1.00  0.00    -0.460 OA
BRANCH  33  34
ATOM     34  C   UNL A   1      41.494  25.428  26.024  1.00  0.00     0.338 C 
ATOM     35  O   UNL A   1      41.855  26.068  25.031  1.00  0.00    -0.246 OA
BRANCH  34  36
ATOM     36  C   UNL A   1      41.619  25.986  27.381  1.00  0.00     0.060 A 
ATOM     37  C   UNL A   1      40.569  25.769  28.284  1.00  0.00     0.016 A 
ATOM     38  C   UNL A   1      42.650  26.876  27.703  1.00  0.00     0.016 A 
ATOM     39  C   UNL A   1      40.494  26.509  29.465  1.00  0.00     0.010 A 
ATOM     40  C   UNL A   1      42.572  27.619  28.887  1.00  0.00     0.010 A 
ATOM     41  C   UNL A   1      41.463  27.483  29.742  1.00  0.00    -0.014 A 
BRANCH  41  42
ATOM     42  C   UNL A   1      41.207  28.502  30.792  1.00  0.00     0.031 A 
ATOM     43  C   UNL A   1      42.048  28.475  32.044  1.00  0.00     0.074 A 
ATOM     44  C   UNL A   1      40.261  29.445  30.637  1.00  0.00     0.049 A 
ATOM     45  N   UNL A   1      41.964  29.216  33.118  1.00  0.00    -0.248 NA
ATOM     46  C   UNL A   1      43.127  27.474  32.088  1.00  0.00     0.031 C 
ATOM     47  C   UNL A   1      39.414  29.605  29.457  1.00  0.00     0.029 A 
ATOM     48  N   UNL A   1      39.848  30.441  31.486  1.00  0.00    -0.354 N 
ATOM     49  C   UNL A   1      42.969  28.766  33.968  1.00  0.00     0.074 A 
ATOM     50  C   UNL A   1      43.634  27.671  33.296  1.00  0.00     0.031 C 
ATOM     51  C   UNL A   1      38.568  30.630  29.664  1.00  0.00     0.029 A 
ATOM     52  C   UNL A   1      38.794  31.178  31.002  1.00  0.00     0.049 A 
ATOM     53  H   UNL A   1      40.268  30.613  32.360  1.00  0.00     0.167 HD
ATOM     54  C   UNL A   1      43.313  29.227  35.196  1.00  0.00     0.037 A 
ATOM     55  C   UNL A   1      38.079  32.163  31.581  1.00  0.00     0.037 A 
ATOM     56  C   UNL A   1      42.652  30.318  35.862  1.00  0.00     0.049 A 
ATOM     57  C   UNL A   1      38.439  32.621  32.971  1.00  0.00     0.074 A 
ATOM     58  C   UNL A   1      42.931  30.866  37.102  1.00  0.00     0.029 A 
ATOM     59  N   UNL A   1      41.578  31.026  35.344  1.00  0.00    -0.354 N 
ATOM     60  N   UNL A   1      39.397  32.193  33.759  1.00  0.00    -0.248 NA
ATOM     61  C   UNL A   1      37.621  33.697  33.552  1.00  0.00     0.031 C 
ATOM     62  C   UNL A   1      41.999  31.879  37.351  1.00  0.00     0.029 A 
ATOM     63  C   UNL A   1      41.169  31.993  36.246  1.00  0.00     0.049 A 
ATOM     64  H   UNL A   1      41.166  30.864  34.464  1.00  0.00     0.167 HD
ATOM     65  C   UNL A   1      39.316  32.965  34.915  1.00  0.00     0.074 A 
ATOM     66  C   UNL A   1      38.218  33.891  34.721  1.00  0.00     0.031 C 
ATOM     67  C   UNL A   1      40.081  32.916  36.032  1.00  0.00     0.037 A 
BRANCH  54  68
ATOM     68  C   UNL A   1      44.439  28.531  35.909  1.00  0.00     0.058 A 
ATOM     69  C   UNL A   1      45.774  28.938  35.757  1.00  0.00     0.135 A 
ATOM     70  C   UNL A   1      44.178  27.457  36.775  1.00  0.00     0.135 A 
ATOM     71  F   UNL A   1      46.082  29.947  34.927  1.00  0.00    -0.206 F 
ATOM     72  C   UNL A   1      46.812  28.289  36.416  1.00  0.00     0.059 A 
ATOM     73  C   UNL A   1      45.197  26.808  37.465  1.00  0.00     0.059 A 
ATOM     74  F   UNL A   1      42.919  27.026  36.956  1.00  0.00    -0.206 F 
ATOM     75  C   UNL A   1      46.514  27.222  37.266  1.00  0.00     0.060 A 
BRANCH  75  76
ATOM     76  S   UNL A   1      47.872  26.385  38.114  1.00  0.00     0.124 S 
ATOM     77  O   UNL A   1      48.408  25.546  37.046  1.00  0.00    -0.237 OA
ATOM     78  O   UNL A   1      48.717  27.500  38.528  1.00  0.00    -0.237 OA
ATOM     79  O   UNL A   1      47.206  25.671  39.198  1.00  0.00    -0.744 OA
ENDBRANCH  75  76
ENDBRANCH  54  68
BRANCH  55  80
ATOM     80  C   UNL A   1      36.939  32.779  30.852  1.00  0.00     0.058 A 
ATOM     81  C   UNL A   1      37.145  33.787  29.900  1.00  0.00     0.135 A 
ATOM     82  C   UNL A   1      35.619  32.367  31.093  1.00  0.00     0.135 A 
ATOM     83  F   UNL A   1      38.388  34.223  29.643  1.00  0.00    -0.206 F 
ATOM     84  C   UNL A   1      36.084  34.373  29.217  1.00  0.00     0.059 A 
ATOM     85  C   UNL A   1      34.543  32.921  30.407  1.00  0.00     0.059 A 
ATOM     86  F   UNL A   1      35.368  31.399  31.988  1.00  0.00    -0.206 F 
ATOM     87  C   UNL A   1      34.785  33.930  29.476  1.00  0.00     0.060 A 
BRANCH  87  88
ATOM     88  S   UNL A   1      33.419  34.654  28.540  1.00  0.00     0.124 S 
ATOM     89  O   UNL A   1      33.004  33.529  27.710  1.00  0.00    -0.237 OA
ATOM     90  O   UNL A   1      32.495  35.042  29.601  1.00  0.00    -0.237 OA
ATOM     91  O   UNL A   1      34.051  35.763  27.833  1.00  0.00    -0.744 OA
ENDBRANCH  87  88
ENDBRANCH  55  80
BRANCH  67  92
ATOM     92  C   UNL A   1      39.793  33.913  37.120  1.00  0.00     0.058 A 
ATOM     93  C   UNL A   1      39.046  33.570  38.257  1.00  0.00     0.135 A 
ATOM     94  C   UNL A   1      40.326  35.211  37.050  1.00  0.00     0.135 A 
ATOM     95  F   UNL A   1      38.511  32.345  38.370  1.00  0.00    -0.206 F 
ATOM     96  C   UNL A   1      38.821  34.486  39.280  1.00  0.00     0.059 A 
ATOM     97  C   UNL A   1      40.134  36.134  38.073  1.00  0.00     0.059 A 
ATOM     98  F   UNL A   1      41.057  35.585  35.988  1.00  0.00    -0.206 F 
ATOM     99  C   UNL A   1      39.371  35.766  39.180  1.00  0.00     0.060 A 
BRANCH  99 100
ATOM    100  S   UNL A   1      39.105  36.934  40.531  1.00  0.00     0.124 S 
ATOM    101  O   UNL A   1      40.460  37.099  41.047  1.00  0.00    -0.237 OA
ATOM    102  O   UNL A   1      38.545  38.091  39.840  1.00  0.00    -0.237 OA
ATOM    103  O   UNL A   1      38.178  36.229  41.411  1.00  0.00    -0.744 OA
ENDBRANCH  99 100
ENDBRANCH  67  92
ENDBRANCH  41  42
ENDBRANCH  34  36
ENDBRANCH  33  34
ENDBRANCH  32  33
ENDBRANCH  31  32
ENDBRANCH  30  31
ENDBRANCH   1  30
TORSDOF 22
ENDMDL
