MODEL 1
REMARK VINA RESULT:     -10.2      0.000      0.000
REMARK SMILES O=C(/C=C/C(=O)OCCOCCOC(=O)c1ccc(-c2c3nc(c(-c4c(F)cc(S(=O)(=O)[O-])cc4F)c4ccc([nH]4)c(-c4c(F)cc(S(=O)(=O)[O-])cc4F)c4nc(c(-c5c(F)cc(S(=O)(=O)[O-])cc5F)c5ccc2[nH]5)C=C4)C=C3)cc1)Nc1ccccn1
REMARK SMILES IDX 11 1 10 2 9 3 8 4 7 5 5 6 6 7 4 8 3 9 2 10 1 11 82 12 83 14
REMARK SMILES IDX 84 15 88 16 85 17 87 18 86 19 12 20 13 21 14 22 15 23 16 24
REMARK SMILES IDX 17 25 81 26 18 27 80 28 19 29 20 30 21 31 74 32 22 33 79 34
REMARK SMILES IDX 73 35 75 36 23 37 78 38 72 39 71 40 24 42 58 43 37 44 57 45
REMARK SMILES IDX 38 46 41 47 56 48 76 49 39 50 40 51 55 53 77 54 42 55 25 56
REMARK SMILES IDX 26 57 35 58 27 59 28 60 34 61 36 62 29 63 30 64 31 65 32 66
REMARK SMILES IDX 33 67 59 68 60 69 69 70 61 71 62 72 68 73 70 74 63 75 64 76
REMARK SMILES IDX 65 77 66 78 67 79 43 80 44 81 53 82 45 83 46 84 52 85 54 86
REMARK SMILES IDX 47 87 48 88 49 89 50 90 51 91
REMARK H PARENT 82 13 75 41 41 52
REMARK Flexibility Score: inf
ROOT
ATOM      1  C   UNL A   1      41.267  21.651  26.486  1.00  0.00     0.202 C 
ENDROOT
BRANCH   1   2
ATOM      2  O   UNL A   1      42.007  20.703  25.715  1.00  0.00    -0.374 OA
BRANCH   2   3
ATOM      3  C   UNL A   1      42.286  19.447  26.336  1.00  0.00     0.202 C 
BRANCH   3   4
ATOM      4  C   UNL A   1      43.283  18.557  25.589  1.00  0.00     0.261 C 
BRANCH   4   5
ATOM      5  O   UNL A   1      43.843  19.243  24.456  1.00  0.00    -0.460 OA
BRANCH   5   6
ATOM      6  C   UNL A   1      45.189  19.387  24.459  1.00  0.00     0.331 C 
ATOM      7  O   UNL A   1      46.004  18.689  23.877  1.00  0.00    -0.247 OA
BRANCH   6   8
ATOM      8  C   UNL A   1      45.614  20.572  25.229  1.00  0.00     0.099 C 
ATOM      9  C   UNL A   1      45.182  21.820  25.004  1.00  0.00     0.079 C 
BRANCH   9  10
ATOM     10  C   UNL A   1      45.553  22.923  25.920  1.00  0.00     0.249 C 
ATOM     11  O   UNL A   1      46.221  23.848  25.479  1.00  0.00    -0.270 OA
ATOM     12  N   UNL A   1      45.138  22.754  27.215  1.00  0.00    -0.307 N 
ATOM     13  H   UNL A   1      44.758  21.875  27.446  1.00  0.00     0.171 HD
BRANCH  12  14
ATOM     14  C   UNL A   1      45.199  23.701  28.241  1.00  0.00     0.132 A 
ATOM     15  C   UNL A   1      44.171  23.906  29.154  1.00  0.00     0.047 A 
ATOM     16  N   UNL A   1      46.368  24.374  28.303  1.00  0.00    -0.239 NA
ATOM     17  C   UNL A   1      44.336  24.860  30.155  1.00  0.00     0.005 A 
ATOM     18  C   UNL A   1      46.491  25.313  29.270  1.00  0.00     0.113 A 
ATOM     19  C   UNL A   1      45.513  25.590  30.211  1.00  0.00     0.020 A 
ENDBRANCH  12  14
ENDBRANCH   9  10
ENDBRANCH   6   8
ENDBRANCH   5   6
ENDBRANCH   4   5
ENDBRANCH   3   4
ENDBRANCH   2   3
ENDBRANCH   1   2
BRANCH   1  20
ATOM     20  C   UNL A   1      41.814  23.083  26.495  1.00  0.00     0.261 C 
BRANCH  20  21
ATOM     21  O   UNL A   1      40.761  24.062  26.444  1.00  0.00    -0.460 OA
BRANCH  21  22
ATOM     22  C   UNL A   1      41.180  25.331  26.229  1.00  0.00     0.338 C 
ATOM     23  O   UNL A   1      41.348  25.874  25.143  1.00  0.00    -0.246 OA
BRANCH  22  24
ATOM     24  C   UNL A   1      41.261  26.075  27.501  1.00  0.00     0.060 A 
ATOM     25  C   UNL A   1      40.195  25.929  28.399  1.00  0.00     0.016 A 
ATOM     26  C   UNL A   1      42.305  26.960  27.781  1.00  0.00     0.016 A 
ATOM     27  C   UNL A   1      40.132  26.719  29.544  1.00  0.00     0.010 A 
ATOM     28  C   UNL A   1      42.238  27.756  28.930  1.00  0.00     0.010 A 
ATOM     29  C   UNL A   1      41.129  27.671  29.793  1.00  0.00    -0.014 A 
BRANCH  29  30
ATOM     30  C   UNL A   1      40.913  28.691  30.850  1.00  0.00     0.031 A 
ATOM     31  C   UNL A   1      41.799  28.668  32.070  1.00  0.00     0.074 A 
ATOM     32  C   UNL A   1      39.983  29.653  30.708  1.00  0.00     0.049 A 
ATOM     33  N   UNL A   1      41.773  29.434  33.128  1.00  0.00    -0.248 NA
ATOM     34  C   UNL A   1      42.857  27.644  32.095  1.00  0.00     0.031 C 
ATOM     35  C   UNL A   1      39.092  29.804  29.557  1.00  0.00     0.029 A 
ATOM     36  N   UNL A   1      39.630  30.683  31.543  1.00  0.00    -0.354 N 
ATOM     37  C   UNL A   1      42.809  28.991  33.942  1.00  0.00     0.074 A 
ATOM     38  C   UNL A   1      43.421  27.863  33.274  1.00  0.00     0.031 C 
ATOM     39  C   UNL A   1      38.281  30.856  29.769  1.00  0.00     0.029 A 
ATOM     40  C   UNL A   1      38.580  31.437  31.077  1.00  0.00     0.049 A 
ATOM     41  H   UNL A   1      40.087  30.865  32.396  1.00  0.00     0.167 HD
ATOM     42  C   UNL A   1      43.225  29.487  35.132  1.00  0.00     0.037 A 
ATOM     43  C   UNL A   1      37.922  32.465  31.650  1.00  0.00     0.037 A 
ATOM     44  C   UNL A   1      42.615  30.609  35.797  1.00  0.00     0.049 A 
ATOM     45  C   UNL A   1      38.369  32.964  33.002  1.00  0.00     0.074 A 
ATOM     46  C   UNL A   1      42.945  31.170  37.018  1.00  0.00     0.029 A 
ATOM     47  N   UNL A   1      41.555  31.346  35.291  1.00  0.00    -0.354 N 
ATOM     48  N   UNL A   1      39.345  32.529  33.763  1.00  0.00    -0.248 NA
ATOM     49  C   UNL A   1      37.630  34.102  33.570  1.00  0.00     0.031 C 
ATOM     50  C   UNL A   1      42.065  32.230  37.265  1.00  0.00     0.029 A 
ATOM     51  C   UNL A   1      41.218  32.356  36.175  1.00  0.00     0.049 A 
ATOM     52  H   UNL A   1      41.107  31.175  34.431  1.00  0.00     0.167 HD
ATOM     53  C   UNL A   1      39.363  33.363  34.877  1.00  0.00     0.074 A 
ATOM     54  C   UNL A   1      38.304  34.332  34.689  1.00  0.00     0.031 C 
ATOM     55  C   UNL A   1      40.181  33.332  35.957  1.00  0.00     0.037 A 
BRANCH  42  56
ATOM     56  C   UNL A   1      44.397  28.821  35.796  1.00  0.00     0.058 A 
ATOM     57  C   UNL A   1      45.712  29.259  35.570  1.00  0.00     0.135 A 
ATOM     58  C   UNL A   1      44.204  27.771  36.709  1.00  0.00     0.135 A 
ATOM     59  F   UNL A   1      45.954  30.244  34.691  1.00  0.00    -0.206 F 
ATOM     60  C   UNL A   1      46.794  28.673  36.217  1.00  0.00     0.059 A 
ATOM     61  C   UNL A   1      45.271  27.186  37.385  1.00  0.00     0.059 A 
ATOM     62  F   UNL A   1      42.967  27.311  36.955  1.00  0.00    -0.206 F 
ATOM     63  C   UNL A   1      46.563  27.639  37.126  1.00  0.00     0.060 A 
BRANCH  63  64
ATOM     64  S   UNL A   1      47.977  26.910  37.980  1.00  0.00     0.124 S 
ATOM     65  O   UNL A   1      47.656  27.199  39.374  1.00  0.00    -0.237 OA
ATOM     66  O   UNL A   1      47.890  25.507  37.586  1.00  0.00    -0.237 OA
ATOM     67  O   UNL A   1      49.117  27.641  37.435  1.00  0.00    -0.744 OA
ENDBRANCH  63  64
ENDBRANCH  42  56
BRANCH  43  68
ATOM     68  C   UNL A   1      36.754  33.085  30.968  1.00  0.00     0.058 A 
ATOM     69  C   UNL A   1      36.920  33.972  29.895  1.00  0.00     0.135 A 
ATOM     70  C   UNL A   1      35.445  32.833  31.410  1.00  0.00     0.135 A 
ATOM     71  F   UNL A   1      38.152  34.251  29.441  1.00  0.00    -0.206 F 
ATOM     72  C   UNL A   1      35.837  34.617  29.305  1.00  0.00     0.059 A 
ATOM     73  C   UNL A   1      34.343  33.442  30.819  1.00  0.00     0.059 A 
ATOM     74  F   UNL A   1      35.228  31.980  32.424  1.00  0.00    -0.206 F 
ATOM     75  C   UNL A   1      34.551  34.349  29.780  1.00  0.00     0.060 A 
BRANCH  75  76
ATOM     76  S   UNL A   1      33.147  35.184  29.008  1.00  0.00     0.124 S 
ATOM     77  O   UNL A   1      32.293  35.441  30.160  1.00  0.00    -0.237 OA
ATOM     78  O   UNL A   1      33.777  36.353  28.405  1.00  0.00    -0.237 OA
ATOM     79  O   UNL A   1      32.650  34.192  28.061  1.00  0.00    -0.744 OA
ENDBRANCH  75  76
ENDBRANCH  43  68
BRANCH  55  80
ATOM     80  C   UNL A   1      40.012  34.412  36.990  1.00  0.00     0.058 A 
ATOM     81  C   UNL A   1      40.749  35.605  36.945  1.00  0.00     0.135 A 
ATOM     82  C   UNL A   1      39.062  34.265  38.015  1.00  0.00     0.135 A 
ATOM     83  F   UNL A   1      41.671  35.794  35.988  1.00  0.00    -0.206 F 
ATOM     84  C   UNL A   1      40.570  36.605  37.896  1.00  0.00     0.059 A 
ATOM     85  C   UNL A   1      38.848  35.263  38.960  1.00  0.00     0.059 A 
ATOM     86  F   UNL A   1      38.322  33.148  38.095  1.00  0.00    -0.206 F 
ATOM     87  C   UNL A   1      39.618  36.424  38.901  1.00  0.00     0.060 A 
BRANCH  87  88
ATOM     88  S   UNL A   1      39.376  37.738  40.116  1.00  0.00     0.124 S 
ATOM     89  O   UNL A   1      40.641  38.460  40.023  1.00  0.00    -0.237 OA
ATOM     90  O   UNL A   1      38.206  38.437  39.594  1.00  0.00    -0.237 OA
ATOM     91  O   UNL A   1      39.159  37.011  41.364  1.00  0.00    -0.744 OA
ENDBRANCH  87  88
ENDBRANCH  55  80
ENDBRANCH  29  30
ENDBRANCH  22  24
ENDBRANCH  21  22
ENDBRANCH  20  21
ENDBRANCH   1  20
TORSDOF 19
ENDMDL
MODEL 2
REMARK VINA RESULT:     -10.2      1.747      3.091
REMARK SMILES O=C(/C=C/C(=O)OCCOCCOC(=O)c1ccc(-c2c3nc(c(-c4c(F)cc(S(=O)(=O)[O-])cc4F)c4ccc([nH]4)c(-c4c(F)cc(S(=O)(=O)[O-])cc4F)c4nc(c(-c5c(F)cc(S(=O)(=O)[O-])cc5F)c5ccc2[nH]5)C=C4)C=C3)cc1)Nc1ccccn1
REMARK SMILES IDX 11 1 10 2 9 3 8 4 7 5 5 6 6 7 4 8 3 9 2 10 1 11 82 12 83 14
REMARK SMILES IDX 84 15 88 16 85 17 87 18 86 19 12 20 13 21 14 22 15 23 16 24
REMARK SMILES IDX 17 25 81 26 18 27 80 28 19 29 20 30 21 31 74 32 22 33 79 34
REMARK SMILES IDX 73 35 75 36 23 37 78 38 72 39 71 40 24 42 58 43 37 44 57 45
REMARK SMILES IDX 38 46 41 47 56 48 76 49 39 50 40 51 55 53 77 54 42 55 25 56
REMARK SMILES IDX 26 57 35 58 27 59 28 60 34 61 36 62 29 63 30 64 31 65 32 66
REMARK SMILES IDX 33 67 59 68 60 69 69 70 61 71 62 72 68 73 70 74 63 75 64 76
REMARK SMILES IDX 65 77 66 78 67 79 43 80 44 81 53 82 45 83 46 84 52 85 54 86
REMARK SMILES IDX 47 87 48 88 49 89 50 90 51 91
REMARK H PARENT 82 13 75 41 41 52
REMARK Flexibility Score: inf
ROOT
ATOM      1  C   UNL A   1      45.381  22.517  26.599  1.00  0.00     0.202 C 
ENDROOT
BRANCH   1   2
ATOM      2  O   UNL A   1      46.366  22.235  25.605  1.00  0.00    -0.374 OA
BRANCH   2   3
ATOM      3  C   UNL A   1      46.105  21.132  24.736  1.00  0.00     0.202 C 
BRANCH   3   4
ATOM      4  C   UNL A   1      44.645  20.970  24.306  1.00  0.00     0.261 C 
BRANCH   4   5
ATOM      5  O   UNL A   1      44.294  19.582  24.175  1.00  0.00    -0.460 OA
BRANCH   5   6
ATOM      6  C   UNL A   1      43.803  18.989  25.287  1.00  0.00     0.331 C 
ATOM      7  O   UNL A   1      44.334  18.108  25.947  1.00  0.00    -0.247 OA
BRANCH   6   8
ATOM      8  C   UNL A   1      42.512  19.574  25.700  1.00  0.00     0.099 C 
ATOM      9  C   UNL A   1      42.291  20.173  26.878  1.00  0.00     0.079 C 
BRANCH   9  10
ATOM     10  C   UNL A   1      41.006  20.858  27.145  1.00  0.00     0.249 C 
ATOM     11  O   UNL A   1      40.682  21.059  28.307  1.00  0.00    -0.270 OA
ATOM     12  N   UNL A   1      40.274  21.157  26.025  1.00  0.00    -0.307 N 
ATOM     13  H   UNL A   1      40.595  20.778  25.174  1.00  0.00     0.171 HD
BRANCH  12  14
ATOM     14  C   UNL A   1      39.120  21.944  25.967  1.00  0.00     0.132 A 
ATOM     15  C   UNL A   1      39.062  23.249  26.438  1.00  0.00     0.047 A 
ATOM     16  N   UNL A   1      38.070  21.341  25.367  1.00  0.00    -0.239 NA
ATOM     17  C   UNL A   1      37.870  23.960  26.316  1.00  0.00     0.005 A 
ATOM     18  C   UNL A   1      36.918  22.045  25.285  1.00  0.00     0.113 A 
ATOM     19  C   UNL A   1      36.769  23.345  25.739  1.00  0.00     0.020 A 
ENDBRANCH  12  14
ENDBRANCH   9  10
ENDBRANCH   6   8
ENDBRANCH   5   6
ENDBRANCH   4   5
ENDBRANCH   3   4
ENDBRANCH   2   3
ENDBRANCH   1   2
BRANCH   1  20
ATOM     20  C   UNL A   1      45.134  24.001  26.898  1.00  0.00     0.261 C 
BRANCH  20  21
ATOM     21  O   UNL A   1      44.390  24.645  25.848  1.00  0.00    -0.460 OA
BRANCH  21  22
ATOM     22  C   UNL A   1      43.052  24.449  25.902  1.00  0.00     0.338 C 
ATOM     23  O   UNL A   1      42.424  23.529  25.392  1.00  0.00    -0.246 OA
BRANCH  22  24
ATOM     24  C   UNL A   1      42.422  25.419  26.819  1.00  0.00     0.060 A 
ATOM     25  C   UNL A   1      42.840  26.753  26.730  1.00  0.00     0.016 A 
ATOM     26  C   UNL A   1      41.508  25.028  27.802  1.00  0.00     0.016 A 
ATOM     27  C   UNL A   1      42.402  27.687  27.666  1.00  0.00     0.010 A 
ATOM     28  C   UNL A   1      41.073  25.967  28.745  1.00  0.00     0.010 A 
ATOM     29  C   UNL A   1      41.554  27.290  28.707  1.00  0.00    -0.014 A 
BRANCH  29  30
ATOM     30  C   UNL A   1      41.322  28.212  29.847  1.00  0.00     0.031 A 
ATOM     31  C   UNL A   1      42.218  28.109  31.055  1.00  0.00     0.074 A 
ATOM     32  C   UNL A   1      40.367  29.158  29.793  1.00  0.00     0.049 A 
ATOM     33  N   UNL A   1      42.182  28.782  32.175  1.00  0.00    -0.248 NA
ATOM     34  C   UNL A   1      43.300  27.112  30.988  1.00  0.00     0.031 C 
ATOM     35  C   UNL A   1      39.463  29.384  28.664  1.00  0.00     0.029 A 
ATOM     36  N   UNL A   1      39.996  30.105  30.714  1.00  0.00    -0.354 N 
ATOM     37  C   UNL A   1      43.235  28.298  32.942  1.00  0.00     0.074 A 
ATOM     38  C   UNL A   1      43.868  27.246  32.177  1.00  0.00     0.031 C 
ATOM     39  C   UNL A   1      38.629  30.394  28.969  1.00  0.00     0.029 A 
ATOM     40  C   UNL A   1      38.924  30.870  30.319  1.00  0.00     0.049 A 
ATOM     41  H   UNL A   1      40.455  30.227  31.577  1.00  0.00     0.167 HD
ATOM     42  C   UNL A   1      43.649  28.703  34.167  1.00  0.00     0.037 A 
ATOM     43  C   UNL A   1      38.246  31.829  30.981  1.00  0.00     0.037 A 
ATOM     44  C   UNL A   1      43.017  29.749  34.927  1.00  0.00     0.049 A 
ATOM     45  C   UNL A   1      38.692  32.223  32.368  1.00  0.00     0.074 A 
ATOM     46  C   UNL A   1      43.343  30.214  36.190  1.00  0.00     0.029 A 
ATOM     47  N   UNL A   1      41.935  30.499  34.492  1.00  0.00    -0.354 N 
ATOM     48  N   UNL A   1      39.684  31.750  33.083  1.00  0.00    -0.248 NA
ATOM     49  C   UNL A   1      37.930  33.291  33.034  1.00  0.00     0.031 C 
ATOM     50  C   UNL A   1      42.441  31.227  36.530  1.00  0.00     0.029 A 
ATOM     51  C   UNL A   1      41.581  31.423  35.460  1.00  0.00     0.049 A 
ATOM     52  H   UNL A   1      41.485  30.390  33.623  1.00  0.00     0.167 HD
ATOM     53  C   UNL A   1      39.691  32.488  34.263  1.00  0.00     0.074 A 
ATOM     54  C   UNL A   1      38.608  33.443  34.164  1.00  0.00     0.031 C 
ATOM     55  C   UNL A   1      40.519  32.387  35.332  1.00  0.00     0.037 A 
BRANCH  42  56
ATOM     56  C   UNL A   1      44.842  28.012  34.764  1.00  0.00     0.058 A 
ATOM     57  C   UNL A   1      46.140  28.523  34.603  1.00  0.00     0.135 A 
ATOM     58  C   UNL A   1      44.685  26.860  35.553  1.00  0.00     0.135 A 
ATOM     59  F   UNL A   1      46.348  29.610  33.843  1.00  0.00    -0.206 F 
ATOM     60  C   UNL A   1      47.241  27.912  35.192  1.00  0.00     0.059 A 
ATOM     61  C   UNL A   1      45.770  26.245  36.171  1.00  0.00     0.059 A 
ATOM     62  F   UNL A   1      43.467  26.328  35.733  1.00  0.00    -0.206 F 
ATOM     63  C   UNL A   1      47.045  26.775  35.978  1.00  0.00     0.060 A 
BRANCH  63  64
ATOM     64  S   UNL A   1      48.482  26.010  36.761  1.00  0.00     0.124 S 
ATOM     65  O   UNL A   1      48.738  24.887  35.865  1.00  0.00    -0.237 OA
ATOM     66  O   UNL A   1      49.467  27.087  36.725  1.00  0.00    -0.237 OA
ATOM     67  O   UNL A   1      47.995  25.655  38.090  1.00  0.00    -0.744 OA
ENDBRANCH  63  64
ENDBRANCH  42  56
BRANCH  43  68
ATOM     68  C   UNL A   1      37.057  32.475  30.362  1.00  0.00     0.058 A 
ATOM     69  C   UNL A   1      37.192  33.527  29.445  1.00  0.00     0.135 A 
ATOM     70  C   UNL A   1      35.757  32.076  30.711  1.00  0.00     0.135 A 
ATOM     71  F   UNL A   1      38.414  33.949  29.085  1.00  0.00    -0.206 F 
ATOM     72  C   UNL A   1      36.085  34.188  28.923  1.00  0.00     0.059 A 
ATOM     73  C   UNL A   1      34.633  32.702  30.182  1.00  0.00     0.059 A 
ATOM     74  F   UNL A   1      35.571  31.064  31.573  1.00  0.00    -0.206 F 
ATOM     75  C   UNL A   1      34.807  33.771  29.303  1.00  0.00     0.060 A 
BRANCH  75  76
ATOM     76  S   UNL A   1      33.372  34.627  28.619  1.00  0.00     0.124 S 
ATOM     77  O   UNL A   1      32.584  34.880  29.819  1.00  0.00    -0.237 OA
ATOM     78  O   UNL A   1      33.979  35.798  27.995  1.00  0.00    -0.237 OA
ATOM     79  O   UNL A   1      32.813  33.651  27.690  1.00  0.00    -0.744 OA
ENDBRANCH  75  76
ENDBRANCH  43  68
BRANCH  55  80
ATOM     80  C   UNL A   1      40.333  33.372  36.453  1.00  0.00     0.058 A 
ATOM     81  C   UNL A   1      41.096  34.546  36.545  1.00  0.00     0.135 A 
ATOM     82  C   UNL A   1      39.340  33.156  37.424  1.00  0.00     0.135 A 
ATOM     83  F   UNL A   1      42.058  34.798  35.646  1.00  0.00    -0.206 F 
ATOM     84  C   UNL A   1      40.901  35.458  37.578  1.00  0.00     0.059 A 
ATOM     85  C   UNL A   1      39.110  34.067  38.449  1.00  0.00     0.059 A 
ATOM     86  F   UNL A   1      38.574  32.055  37.373  1.00  0.00    -0.206 F 
ATOM     87  C   UNL A   1      39.906  35.210  38.526  1.00  0.00     0.060 A 
BRANCH  87  88
ATOM     88  S   UNL A   1      39.645  36.412  39.847  1.00  0.00     0.124 S 
ATOM     89  O   UNL A   1      39.055  37.529  39.116  1.00  0.00    -0.237 OA
ATOM     90  O   UNL A   1      38.745  35.698  40.748  1.00  0.00    -0.237 OA
ATOM     91  O   UNL A   1      40.989  36.642  40.368  1.00  0.00    -0.744 OA
ENDBRANCH  87  88
ENDBRANCH  55  80
ENDBRANCH  29  30
ENDBRANCH  22  24
ENDBRANCH  21  22
ENDBRANCH  20  21
ENDBRANCH   1  20
TORSDOF 19
ENDMDL
MODEL 3
REMARK VINA RESULT:     -10.1      6.017     14.015
REMARK SMILES O=C(/C=C/C(=O)OCCOCCOC(=O)c1ccc(-c2c3nc(c(-c4c(F)cc(S(=O)(=O)[O-])cc4F)c4ccc([nH]4)c(-c4c(F)cc(S(=O)(=O)[O-])cc4F)c4nc(c(-c5c(F)cc(S(=O)(=O)[O-])cc5F)c5ccc2[nH]5)C=C4)C=C3)cc1)Nc1ccccn1
REMARK SMILES IDX 11 1 10 2 9 3 8 4 7 5 5 6 6 7 4 8 3 9 2 10 1 11 82 12 83 14
REMARK SMILES IDX 84 15 88 16 85 17 87 18 86 19 12 20 13 21 14 22 15 23 16 24
REMARK SMILES IDX 17 25 81 26 18 27 80 28 19 29 20 30 21 31 74 32 22 33 79 34
REMARK SMILES IDX 73 35 75 36 23 37 78 38 72 39 71 40 24 42 58 43 37 44 57 45
REMARK SMILES IDX 38 46 41 47 56 48 76 49 39 50 40 51 55 53 77 54 42 55 25 56
REMARK SMILES IDX 26 57 35 58 27 59 28 60 34 61 36 62 29 63 30 64 31 65 32 66
REMARK SMILES IDX 33 67 59 68 60 69 69 70 61 71 62 72 68 73 70 74 63 75 64 76
REMARK SMILES IDX 65 77 66 78 67 79 43 80 44 81 53 82 45 83 46 84 52 85 54 86
REMARK SMILES IDX 47 87 48 88 49 89 50 90 51 91
REMARK H PARENT 82 13 75 41 41 52
REMARK Flexibility Score: inf
ROOT
ATOM      1  C   UNL A   1      36.747  33.860  32.555  1.00  0.00     0.202 C 
ENDROOT
BRANCH   1   2
ATOM      2  O   UNL A   1      36.095  35.123  32.699  1.00  0.00    -0.374 OA
BRANCH   2   3
ATOM      3  C   UNL A   1      34.896  35.142  33.475  1.00  0.00     0.202 C 
BRANCH   3   4
ATOM      4  C   UNL A   1      33.926  36.281  33.150  1.00  0.00     0.261 C 
BRANCH   4   5
ATOM      5  O   UNL A   1      32.890  35.840  32.255  1.00  0.00    -0.460 OA
BRANCH   5   6
ATOM      6  C   UNL A   1      33.049  36.181  30.955  1.00  0.00     0.331 C 
ATOM      7  O   UNL A   1      32.886  37.285  30.459  1.00  0.00    -0.247 OA
BRANCH   6   8
ATOM      8  C   UNL A   1      33.524  35.044  30.141  1.00  0.00     0.099 C 
ATOM      9  C   UNL A   1      33.267  34.884  28.836  1.00  0.00     0.079 C 
BRANCH   9  10
ATOM     10  C   UNL A   1      33.907  33.789  28.071  1.00  0.00     0.249 C 
ATOM     11  O   UNL A   1      34.945  34.028  27.469  1.00  0.00    -0.270 OA
ATOM     12  N   UNL A   1      33.217  32.606  28.082  1.00  0.00    -0.307 N 
ATOM     13  H   UNL A   1      32.313  32.625  28.472  1.00  0.00     0.171 HD
BRANCH  12  14
ATOM     14  C   UNL A   1      33.665  31.374  27.594  1.00  0.00     0.132 A 
ATOM     15  C   UNL A   1      34.877  30.803  27.961  1.00  0.00     0.047 A 
ATOM     16  N   UNL A   1      32.794  30.757  26.767  1.00  0.00    -0.239 NA
ATOM     17  C   UNL A   1      35.226  29.561  27.437  1.00  0.00     0.005 A 
ATOM     18  C   UNL A   1      33.169  29.564  26.252  1.00  0.00     0.113 A 
ATOM     19  C   UNL A   1      34.363  28.929  26.555  1.00  0.00     0.020 A 
ENDBRANCH  12  14
ENDBRANCH   9  10
ENDBRANCH   6   8
ENDBRANCH   5   6
ENDBRANCH   4   5
ENDBRANCH   3   4
ENDBRANCH   2   3
ENDBRANCH   1   2
BRANCH   1  20
ATOM     20  C   UNL A   1      35.838  32.670  32.228  1.00  0.00     0.261 C 
BRANCH  20  21
ATOM     21  O   UNL A   1      36.242  31.999  31.020  1.00  0.00    -0.460 OA
BRANCH  21  22
ATOM     22  C   UNL A   1      36.737  30.753  31.205  1.00  0.00     0.338 C 
ATOM     23  O   UNL A   1      36.116  29.766  31.584  1.00  0.00    -0.246 OA
BRANCH  22  24
ATOM     24  C   UNL A   1      38.130  30.669  30.725  1.00  0.00     0.060 A 
ATOM     25  C   UNL A   1      38.326  30.530  29.345  1.00  0.00     0.016 A 
ATOM     26  C   UNL A   1      39.218  30.642  31.600  1.00  0.00     0.016 A 
ATOM     27  C   UNL A   1      39.602  30.290  28.840  1.00  0.00     0.010 A 
ATOM     28  C   UNL A   1      40.499  30.396  31.092  1.00  0.00     0.010 A 
ATOM     29  C   UNL A   1      40.690  30.175  29.715  1.00  0.00    -0.014 A 
BRANCH  29  30
ATOM     30  C   UNL A   1      41.980  29.645  29.206  1.00  0.00     0.031 A 
ATOM     31  C   UNL A   1      43.160  30.579  29.113  1.00  0.00     0.074 A 
ATOM     32  C   UNL A   1      42.118  28.347  28.880  1.00  0.00     0.049 A 
ATOM     33  N   UNL A   1      44.367  30.348  28.670  1.00  0.00    -0.248 NA
ATOM     34  C   UNL A   1      42.946  31.957  29.586  1.00  0.00     0.031 C 
ATOM     35  C   UNL A   1      41.062  27.336  28.964  1.00  0.00     0.029 A 
ATOM     36  N   UNL A   1      43.206  27.657  28.407  1.00  0.00    -0.354 N 
ATOM     37  C   UNL A   1      45.059  31.546  28.814  1.00  0.00     0.074 A 
ATOM     38  C   UNL A   1      44.125  32.513  29.349  1.00  0.00     0.031 C 
ATOM     39  C   UNL A   1      41.552  26.159  28.538  1.00  0.00     0.029 A 
ATOM     40  C   UNL A   1      42.945  26.336  28.130  1.00  0.00     0.049 A 
ATOM     41  H   UNL A   1      44.091  28.069  28.278  1.00  0.00     0.167 HD
ATOM     42  C   UNL A   1      46.358  31.813  28.541  1.00  0.00     0.037 A 
ATOM     43  C   UNL A   1      43.733  25.385  27.590  1.00  0.00     0.037 A 
ATOM     44  C   UNL A   1      47.286  30.851  28.008  1.00  0.00     0.049 A 
ATOM     45  C   UNL A   1      45.162  25.723  27.242  1.00  0.00     0.074 A 
ATOM     46  C   UNL A   1      48.616  31.031  27.670  1.00  0.00     0.029 A 
ATOM     47  N   UNL A   1      46.982  29.524  27.742  1.00  0.00    -0.354 N 
ATOM     48  N   UNL A   1      45.798  26.862  27.376  1.00  0.00    -0.248 NA
ATOM     49  C   UNL A   1      45.984  24.642  26.677  1.00  0.00     0.031 C 
ATOM     50  C   UNL A   1      49.110  29.820  27.174  1.00  0.00     0.029 A 
ATOM     51  C   UNL A   1      48.099  28.874  27.246  1.00  0.00     0.049 A 
ATOM     52  H   UNL A   1      46.102  29.106  27.885  1.00  0.00     0.167 HD
ATOM     53  C   UNL A   1      47.102  26.624  26.952  1.00  0.00     0.074 A 
ATOM     54  C   UNL A   1      47.166  25.232  26.561  1.00  0.00     0.031 C 
ATOM     55  C   UNL A   1      48.153  27.479  26.891  1.00  0.00     0.037 A 
BRANCH  42  56
ATOM     56  C   UNL A   1      46.857  33.204  28.813  1.00  0.00     0.058 A 
ATOM     57  C   UNL A   1      46.792  34.209  27.834  1.00  0.00     0.135 A 
ATOM     58  C   UNL A   1      47.354  33.555  30.079  1.00  0.00     0.135 A 
ATOM     59  F   UNL A   1      46.345  33.923  26.601  1.00  0.00    -0.206 F 
ATOM     60  C   UNL A   1      47.211  35.508  28.097  1.00  0.00     0.059 A 
ATOM     61  C   UNL A   1      47.757  34.854  30.371  1.00  0.00     0.059 A 
ATOM     62  F   UNL A   1      47.443  32.630  31.048  1.00  0.00    -0.206 F 
ATOM     63  C   UNL A   1      47.689  35.823  29.371  1.00  0.00     0.060 A 
BRANCH  63  64
ATOM     64  S   UNL A   1      48.202  37.522  29.704  1.00  0.00     0.124 S 
ATOM     65  O   UNL A   1      49.532  37.319  30.268  1.00  0.00    -0.237 OA
ATOM     66  O   UNL A   1      48.161  38.126  28.376  1.00  0.00    -0.237 OA
ATOM     67  O   UNL A   1      47.190  38.004  30.640  1.00  0.00    -0.744 OA
ENDBRANCH  63  64
ENDBRANCH  42  56
BRANCH  43  68
ATOM     68  C   UNL A   1      43.195  24.025  27.318  1.00  0.00     0.058 A 
ATOM     69  C   UNL A   1      43.076  23.069  28.337  1.00  0.00     0.135 A 
ATOM     70  C   UNL A   1      42.828  23.642  26.018  1.00  0.00     0.135 A 
ATOM     71  F   UNL A   1      43.422  23.384  29.595  1.00  0.00    -0.206 F 
ATOM     72  C   UNL A   1      42.649  21.771  28.075  1.00  0.00     0.059 A 
ATOM     73  C   UNL A   1      42.371  22.360  25.735  1.00  0.00     0.059 A 
ATOM     74  F   UNL A   1      42.908  24.523  25.008  1.00  0.00    -0.206 F 
ATOM     75  C   UNL A   1      42.304  21.424  26.767  1.00  0.00     0.060 A 
BRANCH  75  76
ATOM     76  S   UNL A   1      41.745  19.740  26.431  1.00  0.00     0.124 S 
ATOM     77  O   UNL A   1      40.303  19.925  26.336  1.00  0.00    -0.237 OA
ATOM     78  O   UNL A   1      42.434  19.430  25.183  1.00  0.00    -0.237 OA
ATOM     79  O   UNL A   1      42.212  18.995  27.596  1.00  0.00    -0.744 OA
ENDBRANCH  75  76
ENDBRANCH  43  68
BRANCH  55  80
ATOM     80  C   UNL A   1      49.479  26.923  26.449  1.00  0.00     0.058 A 
ATOM     81  C   UNL A   1      50.352  26.284  27.342  1.00  0.00     0.135 A 
ATOM     82  C   UNL A   1      49.856  26.993  25.097  1.00  0.00     0.135 A 
ATOM     83  F   UNL A   1      50.040  26.194  28.643  1.00  0.00    -0.206 F 
ATOM     84  C   UNL A   1      51.567  25.758  26.916  1.00  0.00     0.059 A 
ATOM     85  C   UNL A   1      51.054  26.450  24.645  1.00  0.00     0.059 A 
ATOM     86  F   UNL A   1      49.051  27.582  24.200  1.00  0.00    -0.206 F 
ATOM     87  C   UNL A   1      51.910  25.846  25.565  1.00  0.00     0.060 A 
BRANCH  87  88
ATOM     88  S   UNL A   1      53.479  25.138  25.019  1.00  0.00     0.124 S 
ATOM     89  O   UNL A   1      54.417  25.741  25.959  1.00  0.00    -0.237 OA
ATOM     90  O   UNL A   1      53.251  23.705  25.182  1.00  0.00    -0.237 OA
ATOM     91  O   UNL A   1      53.594  25.593  23.636  1.00  0.00    -0.744 OA
ENDBRANCH  87  88
ENDBRANCH  55  80
ENDBRANCH  29  30
ENDBRANCH  22  24
ENDBRANCH  21  22
ENDBRANCH  20  21
ENDBRANCH   1  20
TORSDOF 19
ENDMDL
