MODEL 1
REMARK VINA RESULT:     -10.9      0.000      0.000
REMARK SMILES Cc1ccc(-c2cc(Cl)cc3c2O[C@H](C(F)(F)F)C(C(=O)OCCOCCOC(=O)c2ccc(-c4c5nc(c(-c6c(F)cc(S(=O)(=O)[O-])cc6F)c6ccc([nH]6)c(-c6c(F)cc(S(=O)(=O)[O-])cc6F)c6nc(c(-c7c(F)cc(S(=O)(=O)[O-])cc7F)c7ccc4[nH]7)C=C6)C=C5)cc2)=C3)cc1F
REMARK SMILES IDX 26 1 25 2 24 3 23 4 22 5 20 6 21 7 19 8 6 9 7 10 12 11 8 12
REMARK SMILES IDX 11 13 13 14 9 15 10 16 97 17 14 18 5 19 1 20 2 21 3 22 99 23
REMARK SMILES IDX 4 24 98 25 100 26 15 27 16 28 17 29 18 30 27 31 28 32 29 33
REMARK SMILES IDX 30 34 31 35 32 36 96 37 33 38 95 39 34 40 35 41 36 42 89 43
REMARK SMILES IDX 37 44 94 45 88 46 90 47 38 48 93 49 87 50 86 51 39 53 73 54
REMARK SMILES IDX 52 55 72 56 53 57 56 58 71 59 91 60 54 61 55 62 70 64 92 65
REMARK SMILES IDX 57 66 40 67 41 68 50 69 42 70 43 71 49 72 51 73 44 74 45 75
REMARK SMILES IDX 46 76 47 77 48 78 74 79 75 80 84 81 76 82 77 83 83 84 85 85
REMARK SMILES IDX 78 86 79 87 80 88 81 89 82 90 58 91 59 92 68 93 60 94 61 95
REMARK SMILES IDX 67 96 69 97 62 98 63 99 64 100 65 101 66 102
REMARK H PARENT 90 52 56 63
REMARK Flexibility Score: inf
ROOT
ATOM      1  C   UNL A   1      43.509  25.180  28.573  1.00  0.00     0.202 C 
ENDROOT
BRANCH   1   2
ATOM      2  O   UNL A   1      44.155  25.079  29.841  1.00  0.00    -0.374 OA
BRANCH   2   3
ATOM      3  C   UNL A   1      43.815  26.039  30.847  1.00  0.00     0.202 C 
BRANCH   3   4
ATOM      4  C   UNL A   1      44.982  26.507  31.974  1.00  0.00     0.261 C 
BRANCH   4   5
ATOM      5  O   UNL A   1      44.808  26.733  33.965  1.00  0.00    -0.460 OA
BRANCH   5   6
ATOM      6  C   UNL A   1      44.341  26.921  35.284  1.00  0.00     0.338 C 
ATOM      7  O   UNL A   1      44.950  26.705  36.325  1.00  0.00    -0.246 OA
BRANCH   6   8
ATOM      8  C   UNL A   1      43.066  27.663  35.322  1.00  0.00     0.087 C 
ATOM      9  C   UNL A   1      40.128  30.450  34.564  1.00  0.00     0.026 A 
ATOM     10  C   UNL A   1      39.149  30.193  33.602  1.00  0.00     0.033 A 
ATOM     11  C   UNL A   1      40.977  29.400  34.968  1.00  0.00     0.135 A 
ATOM     12  C   UNL A   1      39.034  28.907  33.063  1.00  0.00     0.042 A 
ATOM     13  C   UNL A   1      40.930  28.150  34.357  1.00  0.00     0.019 A 
ATOM     14  O   UNL A   1      41.846  29.693  35.985  1.00  0.00    -0.475 OA
ATOM     15  Cl  UNL A   1      37.835  28.600  31.862  1.00  0.00    -0.084 Cl
ATOM     16  C   UNL A   1      39.920  27.887  33.427  1.00  0.00     0.032 A 
ATOM     17  C   UNL A   1      42.040  27.229  34.570  1.00  0.00     0.027 C 
ATOM     18  C   UNL A   1      43.076  28.952  36.073  1.00  0.00     0.316 C 
BRANCH   9  19
ATOM     19  C   UNL A   1      40.409  31.790  35.098  1.00  0.00    -0.012 A 
ATOM     20  C   UNL A   1      40.335  36.062  35.579  1.00  0.00     0.047 C 
ATOM     21  C   UNL A   1      40.454  34.572  35.523  1.00  0.00    -0.015 A 
ATOM     22  C   UNL A   1      41.479  33.947  34.801  1.00  0.00     0.007 A 
ATOM     23  C   UNL A   1      39.454  33.782  36.090  1.00  0.00     0.126 A 
ATOM     24  C   UNL A   1      41.459  32.564  34.592  1.00  0.00     0.009 A 
ATOM     25  C   UNL A   1      39.437  32.407  35.904  1.00  0.00     0.048 A 
ATOM     26  F   UNL A   1      38.444  34.356  36.759  1.00  0.00    -0.207 F 
ENDBRANCH   9  19
BRANCH  18  27
ATOM     27  C   UNL A   1      44.222  29.874  35.646  1.00  0.00     0.430 C 
ATOM     28  F   UNL A   1      44.386  29.867  34.301  1.00  0.00    -0.167 F 
ATOM     29  F   UNL A   1      43.995  31.162  35.992  1.00  0.00    -0.167 F 
ATOM     30  F   UNL A   1      45.404  29.502  36.194  1.00  0.00    -0.167 F 
ENDBRANCH  18  27
ENDBRANCH   6   8
ENDBRANCH   5   6
ENDBRANCH   4   5
ENDBRANCH   3   4
ENDBRANCH   2   3
ENDBRANCH   1   2
BRANCH   1  31
ATOM     31  C   UNL A   1      42.585  23.999  28.268  1.00  0.00     0.261 C 
BRANCH  31  32
ATOM     32  O   UNL A   1      41.914  24.233  27.027  1.00  0.00    -0.460 OA
BRANCH  32  33
ATOM     33  C   UNL A   1      40.573  24.073  27.019  1.00  0.00     0.338 C 
ATOM     34  O   UNL A   1      39.935  23.047  27.172  1.00  0.00    -0.246 OA
BRANCH  33  35
ATOM     35  C   UNL A   1      40.062  25.431  27.296  1.00  0.00     0.060 A 
ATOM     36  C   UNL A   1      40.482  26.541  26.551  1.00  0.00     0.016 A 
ATOM     37  C   UNL A   1      39.467  25.586  28.552  1.00  0.00     0.016 A 
ATOM     38  C   UNL A   1      40.427  27.810  27.131  1.00  0.00     0.010 A 
ATOM     39  C   UNL A   1      39.444  26.842  29.135  1.00  0.00     0.010 A 
ATOM     40  C   UNL A   1      39.982  27.941  28.453  1.00  0.00    -0.014 A 
BRANCH  40  41
ATOM     41  C   UNL A   1      40.101  29.190  29.203  1.00  0.00     0.031 A 
ATOM     42  C   UNL A   1      39.076  30.239  29.057  1.00  0.00     0.074 A 
ATOM     43  C   UNL A   1      41.134  29.405  30.051  1.00  0.00     0.049 A 
ATOM     44  N   UNL A   1      39.299  31.501  29.214  1.00  0.00    -0.248 NA
ATOM     45  C   UNL A   1      37.694  29.922  28.715  1.00  0.00     0.031 C 
ATOM     46  C   UNL A   1      41.310  30.513  30.988  1.00  0.00     0.029 A 
ATOM     47  N   UNL A   1      42.379  28.755  30.074  1.00  0.00    -0.354 N 
ATOM     48  C   UNL A   1      38.071  32.105  29.335  1.00  0.00     0.074 A 
ATOM     49  C   UNL A   1      37.110  31.107  28.914  1.00  0.00     0.031 C 
ATOM     50  C   UNL A   1      42.626  30.680  31.207  1.00  0.00     0.029 A 
ATOM     51  C   UNL A   1      43.330  29.775  30.307  1.00  0.00     0.049 A 
ATOM     52  H   UNL A   1      42.552  27.793  29.952  1.00  0.00     0.167 HD
ATOM     53  C   UNL A   1      37.958  33.314  29.954  1.00  0.00     0.037 A 
ATOM     54  C   UNL A   1      44.242  30.152  29.367  1.00  0.00     0.037 A 
ATOM     55  C   UNL A   1      39.246  33.881  30.338  1.00  0.00     0.049 A 
ATOM     56  C   UNL A   1      44.167  31.645  28.988  1.00  0.00     0.074 A 
ATOM     57  C   UNL A   1      39.939  34.008  31.533  1.00  0.00     0.029 A 
ATOM     58  N   UNL A   1      40.160  34.191  29.345  1.00  0.00    -0.354 N 
ATOM     59  N   UNL A   1      43.213  32.458  29.366  1.00  0.00    -0.248 NA
ATOM     60  C   UNL A   1      45.119  32.322  28.100  1.00  0.00     0.031 C 
ATOM     61  C   UNL A   1      41.277  34.391  31.245  1.00  0.00     0.029 A 
ATOM     62  C   UNL A   1      41.404  34.467  29.874  1.00  0.00     0.049 A 
ATOM     63  H   UNL A   1      39.949  34.211  28.383  1.00  0.00     0.167 HD
ATOM     64  C   UNL A   1      43.390  33.697  28.789  1.00  0.00     0.074 A 
ATOM     65  C   UNL A   1      44.599  33.561  28.004  1.00  0.00     0.031 C 
ATOM     66  C   UNL A   1      42.518  34.733  28.980  1.00  0.00     0.037 A 
BRANCH  53  67
ATOM     67  C   UNL A   1      36.617  33.784  30.455  1.00  0.00     0.058 A 
ATOM     68  C   UNL A   1      35.619  34.228  29.568  1.00  0.00     0.135 A 
ATOM     69  C   UNL A   1      36.307  33.903  31.824  1.00  0.00     0.135 A 
ATOM     70  F   UNL A   1      35.758  34.126  28.242  1.00  0.00    -0.206 F 
ATOM     71  C   UNL A   1      34.448  34.846  29.999  1.00  0.00     0.059 A 
ATOM     72  C   UNL A   1      35.162  34.563  32.283  1.00  0.00     0.059 A 
ATOM     73  F   UNL A   1      37.132  33.399  32.757  1.00  0.00    -0.206 F 
ATOM     74  C   UNL A   1      34.245  35.045  31.357  1.00  0.00     0.060 A 
BRANCH  74  75
ATOM     75  S   UNL A   1      32.799  35.991  31.873  1.00  0.00     0.124 S 
ATOM     76  O   UNL A   1      33.370  36.933  32.830  1.00  0.00    -0.237 OA
ATOM     77  O   UNL A   1      32.348  36.564  30.610  1.00  0.00    -0.237 OA
ATOM     78  O   UNL A   1      31.924  34.976  32.455  1.00  0.00    -0.744 OA
ENDBRANCH  74  75
ENDBRANCH  53  67
BRANCH  54  79
ATOM     79  C   UNL A   1      44.646  29.066  28.413  1.00  0.00     0.058 A 
ATOM     80  C   UNL A   1      43.905  28.838  26.762  1.00  0.00     0.135 A 
ATOM     81  C   UNL A   1      46.095  28.087  28.837  1.00  0.00     0.135 A 
ATOM     82  F   UNL A   1      42.833  29.560  26.402  1.00  0.00    -0.206 F 
ATOM     83  C   UNL A   1      44.632  27.655  25.563  1.00  0.00     0.059 A 
ATOM     84  C   UNL A   1      46.839  26.956  27.678  1.00  0.00     0.059 A 
ATOM     85  F   UNL A   1      46.694  28.270  30.022  1.00  0.00    -0.206 F 
ATOM     86  C   UNL A   1      46.119  26.738  26.038  1.00  0.00     0.060 A 
BRANCH  86  87
ATOM     87  S   UNL A   1      46.909  25.522  25.011  1.00  0.00     0.124 S 
ATOM     88  O   UNL A   1      47.386  26.312  23.883  1.00  0.00    -0.237 OA
ATOM     89  O   UNL A   1      47.932  24.992  25.904  1.00  0.00    -0.237 OA
ATOM     90  O   UNL A   1      45.801  24.616  24.733  1.00  0.00    -0.744 OA
ENDBRANCH  86  87
ENDBRANCH  54  79
BRANCH  66  91
ATOM     91  C   UNL A   1      42.637  36.120  28.402  1.00  0.00     0.058 A 
ATOM     92  C   UNL A   1      42.967  37.242  29.176  1.00  0.00     0.135 A 
ATOM     93  C   UNL A   1      42.209  36.383  27.079  1.00  0.00     0.135 A 
ATOM     94  F   UNL A   1      43.353  37.099  30.453  1.00  0.00    -0.206 F 
ATOM     95  C   UNL A   1      42.871  38.547  28.673  1.00  0.00     0.059 A 
ATOM     96  C   UNL A   1      42.068  37.673  26.569  1.00  0.00     0.059 A 
ATOM     97  F   UNL A   1      41.918  35.379  26.236  1.00  0.00    -0.206 F 
ATOM     98  C   UNL A   1      42.409  38.753  27.371  1.00  0.00     0.060 A 
BRANCH  98  99
ATOM     99  S   UNL A   1      42.203  40.433  26.739  1.00  0.00     0.124 S 
ATOM    100  O   UNL A   1      43.160  40.486  25.637  1.00  0.00    -0.237 OA
ATOM    101  O   UNL A   1      40.796  40.431  26.352  1.00  0.00    -0.237 OA
ATOM    102  O   UNL A   1      42.539  41.270  27.887  1.00  0.00    -0.744 OA
ENDBRANCH  98  99
ENDBRANCH  66  91
ENDBRANCH  40  41
ENDBRANCH  33  35
ENDBRANCH  32  33
ENDBRANCH  31  32
ENDBRANCH   1  31
TORSDOF 19
ENDMDL
MODEL 2
REMARK VINA RESULT:     -10.4      5.447     13.716
REMARK SMILES Cc1ccc(-c2cc(Cl)cc3c2O[C@H](C(F)(F)F)C(C(=O)OCCOCCOC(=O)c2ccc(-c4c5nc(c(-c6c(F)cc(S(=O)(=O)[O-])cc6F)c6ccc([nH]6)c(-c6c(F)cc(S(=O)(=O)[O-])cc6F)c6nc(c(-c7c(F)cc(S(=O)(=O)[O-])cc7F)c7ccc4[nH]7)C=C6)C=C5)cc2)=C3)cc1F
REMARK SMILES IDX 26 1 25 2 24 3 23 4 22 5 20 6 21 7 19 8 6 9 7 10 12 11 8 12
REMARK SMILES IDX 11 13 13 14 9 15 10 16 97 17 14 18 5 19 1 20 2 21 3 22 99 23
REMARK SMILES IDX 4 24 98 25 100 26 15 27 16 28 17 29 18 30 27 31 28 32 29 33
REMARK SMILES IDX 30 34 31 35 32 36 96 37 33 38 95 39 34 40 35 41 36 42 89 43
REMARK SMILES IDX 37 44 94 45 88 46 90 47 38 48 93 49 87 50 86 51 39 53 73 54
REMARK SMILES IDX 52 55 72 56 53 57 56 58 71 59 91 60 54 61 55 62 70 64 92 65
REMARK SMILES IDX 57 66 40 67 41 68 50 69 42 70 43 71 49 72 51 73 44 74 45 75
REMARK SMILES IDX 46 76 47 77 48 78 74 79 75 80 84 81 76 82 77 83 83 84 85 85
REMARK SMILES IDX 78 86 79 87 80 88 81 89 82 90 58 91 59 92 68 93 60 94 61 95
REMARK SMILES IDX 67 96 69 97 62 98 63 99 64 100 65 101 66 102
REMARK H PARENT 90 52 56 63
REMARK Flexibility Score: inf
ROOT
ATOM      1  C   UNL A   1      34.934  31.456  27.969  1.00  0.00     0.202 C 
ENDROOT
BRANCH   1   2
ATOM      2  O   UNL A   1      34.121  30.969  26.902  1.00  0.00    -0.374 OA
BRANCH   2   3
ATOM      3  C   UNL A   1      32.878  30.343  27.237  1.00  0.00     0.202 C 
BRANCH   3   4
ATOM      4  C   UNL A   1      31.505  30.684  26.316  1.00  0.00     0.261 C 
BRANCH   4   5
ATOM      5  O   UNL A   1      30.833  29.777  24.650  1.00  0.00    -0.460 OA
BRANCH   5   6
ATOM      6  C   UNL A   1      30.699  29.034  23.458  1.00  0.00     0.338 C 
ATOM      7  O   UNL A   1      30.589  29.470  22.319  1.00  0.00    -0.246 OA
BRANCH   6   8
ATOM      8  C   UNL A   1      30.946  27.594  23.669  1.00  0.00     0.087 C 
ATOM      9  C   UNL A   1      32.352  24.044  25.219  1.00  0.00     0.026 A 
ATOM     10  C   UNL A   1      31.598  23.344  26.163  1.00  0.00     0.033 A 
ATOM     11  C   UNL A   1      31.755  25.124  24.537  1.00  0.00     0.135 A 
ATOM     12  C   UNL A   1      30.276  23.728  26.410  1.00  0.00     0.042 A 
ATOM     13  C   UNL A   1      30.476  25.571  24.858  1.00  0.00     0.019 A 
ATOM     14  O   UNL A   1      32.515  25.702  23.554  1.00  0.00    -0.475 OA
ATOM     15  Cl  UNL A   1      29.355  22.871  27.591  1.00  0.00    -0.084 Cl
ATOM     16  C   UNL A   1      29.713  24.838  25.772  1.00  0.00     0.032 A 
ATOM     17  C   UNL A   1      30.053  26.879  24.374  1.00  0.00     0.027 C 
ATOM     18  C   UNL A   1      32.275  27.082  23.223  1.00  0.00     0.316 C 
BRANCH   9  19
ATOM     19  C   UNL A   1      33.780  23.799  24.977  1.00  0.00    -0.012 A 
ATOM     20  C   UNL A   1      37.808  22.399  25.536  1.00  0.00     0.047 C 
ATOM     21  C   UNL A   1      36.452  22.947  25.218  1.00  0.00    -0.015 A 
ATOM     22  C   UNL A   1      36.084  24.247  25.591  1.00  0.00     0.007 A 
ATOM     23  C   UNL A   1      35.488  22.112  24.657  1.00  0.00     0.126 A 
ATOM     24  C   UNL A   1      34.757  24.672  25.468  1.00  0.00     0.009 A 
ATOM     25  C   UNL A   1      34.173  22.531  24.514  1.00  0.00     0.048 A 
ATOM     26  F   UNL A   1      35.804  20.853  24.321  1.00  0.00    -0.207 F 
ENDBRANCH   9  19
BRANCH  18  27
ATOM     27  C   UNL A   1      33.441  27.914  23.766  1.00  0.00     0.430 C 
ATOM     28  F   UNL A   1      34.630  27.312  23.526  1.00  0.00    -0.167 F 
ATOM     29  F   UNL A   1      33.510  29.133  23.184  1.00  0.00    -0.167 F 
ATOM     30  F   UNL A   1      33.350  28.100  25.105  1.00  0.00    -0.167 F 
ENDBRANCH  18  27
ENDBRANCH   6   8
ENDBRANCH   5   6
ENDBRANCH   4   5
ENDBRANCH   3   4
ENDBRANCH   2   3
ENDBRANCH   1   2
BRANCH   1  31
ATOM     31  C   UNL A   1      35.742  30.358  28.664  1.00  0.00     0.261 C 
BRANCH  31  32
ATOM     32  O   UNL A   1      36.884  30.943  29.298  1.00  0.00    -0.460 OA
BRANCH  32  33
ATOM     33  C   UNL A   1      36.843  31.057  30.643  1.00  0.00     0.338 C 
ATOM     34  O   UNL A   1      35.907  30.837  31.390  1.00  0.00    -0.246 OA
BRANCH  33  35
ATOM     35  C   UNL A   1      38.266  31.002  31.037  1.00  0.00     0.060 A 
ATOM     36  C   UNL A   1      39.266  31.606  30.265  1.00  0.00     0.016 A 
ATOM     37  C   UNL A   1      38.574  30.009  31.973  1.00  0.00     0.016 A 
ATOM     38  C   UNL A   1      40.572  31.115  30.338  1.00  0.00     0.010 A 
ATOM     39  C   UNL A   1      39.863  29.505  32.019  1.00  0.00     0.010 A 
ATOM     40  C   UNL A   1      40.844  30.011  31.157  1.00  0.00    -0.014 A 
BRANCH  40  41
ATOM     41  C   UNL A   1      42.123  29.302  31.122  1.00  0.00     0.031 A 
ATOM     42  C   UNL A   1      42.236  28.020  30.405  1.00  0.00     0.074 A 
ATOM     43  C   UNL A   1      43.223  29.807  31.729  1.00  0.00     0.049 A 
ATOM     44  N   UNL A   1      43.071  27.085  30.711  1.00  0.00    -0.248 NA
ATOM     45  C   UNL A   1      41.388  27.702  29.260  1.00  0.00     0.031 C 
ATOM     46  C   UNL A   1      44.596  29.314  31.648  1.00  0.00     0.029 A 
ATOM     47  N   UNL A   1      43.278  30.769  32.750  1.00  0.00    -0.354 N 
ATOM     48  C   UNL A   1      43.114  26.228  29.639  1.00  0.00     0.074 A 
ATOM     49  C   UNL A   1      41.980  26.590  28.814  1.00  0.00     0.031 C 
ATOM     50  C   UNL A   1      45.248  29.687  32.763  1.00  0.00     0.029 A 
ATOM     51  C   UNL A   1      44.268  30.306  33.647  1.00  0.00     0.049 A 
ATOM     52  H   UNL A   1      42.741  31.591  32.825  1.00  0.00     0.167 HD
ATOM     53  C   UNL A   1      44.197  25.423  29.445  1.00  0.00     0.037 A 
ATOM     54  C   UNL A   1      43.971  29.887  34.909  1.00  0.00     0.037 A 
ATOM     55  C   UNL A   1      45.178  25.517  30.521  1.00  0.00     0.049 A 
ATOM     56  C   UNL A   1      44.404  28.436  35.203  1.00  0.00     0.074 A 
ATOM     57  C   UNL A   1      46.412  26.131  30.665  1.00  0.00     0.029 A 
ATOM     58  N   UNL A   1      44.804  25.132  31.798  1.00  0.00    -0.354 N 
ATOM     59  N   UNL A   1      44.841  27.596  34.299  1.00  0.00    -0.248 NA
ATOM     60  C   UNL A   1      44.313  27.796  36.520  1.00  0.00     0.031 C 
ATOM     61  C   UNL A   1      46.771  26.116  32.040  1.00  0.00     0.029 A 
ATOM     62  C   UNL A   1      45.740  25.519  32.735  1.00  0.00     0.049 A 
ATOM     63  H   UNL A   1      43.974  24.645  32.011  1.00  0.00     0.167 HD
ATOM     64  C   UNL A   1      45.059  26.359  34.866  1.00  0.00     0.074 A 
ATOM     65  C   UNL A   1      44.714  26.536  36.261  1.00  0.00     0.031 C 
ATOM     66  C   UNL A   1      45.483  25.279  34.144  1.00  0.00     0.037 A 
BRANCH  53  67
ATOM     67  C   UNL A   1      44.444  24.802  28.095  1.00  0.00     0.058 A 
ATOM     68  C   UNL A   1      43.992  23.504  27.793  1.00  0.00     0.135 A 
ATOM     69  C   UNL A   1      45.214  25.423  27.092  1.00  0.00     0.135 A 
ATOM     70  F   UNL A   1      43.208  22.817  28.631  1.00  0.00    -0.206 F 
ATOM     71  C   UNL A   1      44.364  22.827  26.635  1.00  0.00     0.059 A 
ATOM     72  C   UNL A   1      45.643  24.749  25.944  1.00  0.00     0.059 A 
ATOM     73  F   UNL A   1      45.595  26.705  27.220  1.00  0.00    -0.206 F 
ATOM     74  C   UNL A   1      45.222  23.441  25.734  1.00  0.00     0.060 A 
BRANCH  74  75
ATOM     75  S   UNL A   1      45.814  22.479  24.328  1.00  0.00     0.124 S 
ATOM     76  O   UNL A   1      46.721  23.416  23.671  1.00  0.00    -0.237 OA
ATOM     77  O   UNL A   1      46.445  21.341  24.987  1.00  0.00    -0.237 OA
ATOM     78  O   UNL A   1      44.592  22.182  23.586  1.00  0.00    -0.744 OA
ENDBRANCH  74  75
ENDBRANCH  53  67
BRANCH  54  79
ATOM     79  C   UNL A   1      42.767  30.540  35.521  1.00  0.00     0.058 A 
ATOM     80  C   UNL A   1      42.771  32.226  36.219  1.00  0.00     0.135 A 
ATOM     81  C   UNL A   1      41.187  29.698  35.343  1.00  0.00     0.135 A 
ATOM     82  F   UNL A   1      43.927  32.894  36.354  1.00  0.00    -0.206 F 
ATOM     83  C   UNL A   1      41.203  33.042  36.709  1.00  0.00     0.059 A 
ATOM     84  C   UNL A   1      39.647  30.483  35.781  1.00  0.00     0.059 A 
ATOM     85  F   UNL A   1      41.144  28.480  34.785  1.00  0.00    -0.206 F 
ATOM     86  C   UNL A   1      39.644  32.155  36.459  1.00  0.00     0.060 A 
BRANCH  86  87
ATOM     87  S   UNL A   1      38.052  32.788  36.928  1.00  0.00     0.124 S 
ATOM     88  O   UNL A   1      37.520  33.292  35.669  1.00  0.00    -0.237 OA
ATOM     89  O   UNL A   1      37.404  31.600  37.472  1.00  0.00    -0.237 OA
ATOM     90  O   UNL A   1      38.423  33.796  37.915  1.00  0.00    -0.744 OA
ENDBRANCH  86  87
ENDBRANCH  54  79
BRANCH  66  91
ATOM     91  C   UNL A   1      45.759  23.897  34.680  1.00  0.00     0.058 A 
ATOM     92  C   UNL A   1      44.794  22.879  34.699  1.00  0.00     0.135 A 
ATOM     93  C   UNL A   1      46.955  23.630  35.387  1.00  0.00     0.135 A 
ATOM     94  F   UNL A   1      43.613  23.050  34.085  1.00  0.00    -0.206 F 
ATOM     95  C   UNL A   1      44.998  21.674  35.384  1.00  0.00     0.059 A 
ATOM     96  C   UNL A   1      47.165  22.455  36.108  1.00  0.00     0.059 A 
ATOM     97  F   UNL A   1      47.966  24.514  35.390  1.00  0.00    -0.206 F 
ATOM     98  C   UNL A   1      46.182  21.476  36.096  1.00  0.00     0.060 A 
BRANCH  98  99
ATOM     99  S   UNL A   1      46.423  19.960  37.050  1.00  0.00     0.124 S 
ATOM    100  O   UNL A   1      45.662  18.972  36.289  1.00  0.00    -0.237 OA
ATOM    101  O   UNL A   1      47.874  19.810  37.004  1.00  0.00    -0.237 OA
ATOM    102  O   UNL A   1      45.866  20.293  38.358  1.00  0.00    -0.744 OA
ENDBRANCH  98  99
ENDBRANCH  66  91
ENDBRANCH  40  41
ENDBRANCH  33  35
ENDBRANCH  32  33
ENDBRANCH  31  32
ENDBRANCH   1  31
TORSDOF 19
ENDMDL
MODEL 3
REMARK VINA RESULT:     -10.3      3.941      6.392
REMARK SMILES Cc1ccc(-c2cc(Cl)cc3c2O[C@H](C(F)(F)F)C(C(=O)OCCOCCOC(=O)c2ccc(-c4c5nc(c(-c6c(F)cc(S(=O)(=O)[O-])cc6F)c6ccc([nH]6)c(-c6c(F)cc(S(=O)(=O)[O-])cc6F)c6nc(c(-c7c(F)cc(S(=O)(=O)[O-])cc7F)c7ccc4[nH]7)C=C6)C=C5)cc2)=C3)cc1F
REMARK SMILES IDX 26 1 25 2 24 3 23 4 22 5 20 6 21 7 19 8 6 9 7 10 12 11 8 12
REMARK SMILES IDX 11 13 13 14 9 15 10 16 97 17 14 18 5 19 1 20 2 21 3 22 99 23
REMARK SMILES IDX 4 24 98 25 100 26 15 27 16 28 17 29 18 30 27 31 28 32 29 33
REMARK SMILES IDX 30 34 31 35 32 36 96 37 33 38 95 39 34 40 35 41 36 42 89 43
REMARK SMILES IDX 37 44 94 45 88 46 90 47 38 48 93 49 87 50 86 51 39 53 73 54
REMARK SMILES IDX 52 55 72 56 53 57 56 58 71 59 91 60 54 61 55 62 70 64 92 65
REMARK SMILES IDX 57 66 40 67 41 68 50 69 42 70 43 71 49 72 51 73 44 74 45 75
REMARK SMILES IDX 46 76 47 77 48 78 74 79 75 80 84 81 76 82 77 83 83 84 85 85
REMARK SMILES IDX 78 86 79 87 80 88 81 89 82 90 58 91 59 92 68 93 60 94 61 95
REMARK SMILES IDX 67 96 69 97 62 98 63 99 64 100 65 101 66 102
REMARK H PARENT 90 52 56 63
REMARK Flexibility Score: inf
ROOT
ATOM      1  C   UNL A   1      43.576  24.669  28.092  1.00  0.00     0.202 C 
ENDROOT
BRANCH   1   2
ATOM      2  O   UNL A   1      44.421  24.028  29.047  1.00  0.00    -0.374 OA
BRANCH   2   3
ATOM      3  C   UNL A   1      44.508  24.598  30.356  1.00  0.00     0.202 C 
BRANCH   3   4
ATOM      4  C   UNL A   1      44.154  23.642  31.702  1.00  0.00     0.261 C 
BRANCH   4   5
ATOM      5  O   UNL A   1      44.548  23.985  33.645  1.00  0.00    -0.460 OA
BRANCH   5   6
ATOM      6  C   UNL A   1      45.031  23.939  34.970  1.00  0.00     0.338 C 
ATOM      7  O   UNL A   1      44.694  24.652  35.909  1.00  0.00    -0.246 OA
BRANCH   6   8
ATOM      8  C   UNL A   1      45.859  22.743  35.221  1.00  0.00     0.087 C 
ATOM      9  C   UNL A   1      48.888  20.279  36.535  1.00  0.00     0.026 A 
ATOM     10  C   UNL A   1      48.755  19.586  37.739  1.00  0.00     0.033 A 
ATOM     11  C   UNL A   1      47.759  20.928  35.995  1.00  0.00     0.135 A 
ATOM     12  C   UNL A   1      47.511  19.550  38.380  1.00  0.00     0.042 A 
ATOM     13  C   UNL A   1      46.550  20.980  36.684  1.00  0.00     0.019 A 
ATOM     14  O   UNL A   1      47.934  21.504  34.764  1.00  0.00    -0.475 OA
ATOM     15  Cl  UNL A   1      47.356  18.707  39.876  1.00  0.00    -0.084 Cl
ATOM     16  C   UNL A   1      46.412  20.246  37.866  1.00  0.00     0.032 A 
ATOM     17  C   UNL A   1      45.542  21.938  36.249  1.00  0.00     0.027 C 
ATOM     18  C   UNL A   1      47.102  22.621  34.404  1.00  0.00     0.316 C 
BRANCH   9  19
ATOM     19  C   UNL A   1      50.173  20.479  35.852  1.00  0.00    -0.012 A 
ATOM     20  C   UNL A   1      53.059  21.749  32.927  1.00  0.00     0.047 C 
ATOM     21  C   UNL A   1      52.165  21.244  34.016  1.00  0.00    -0.015 A 
ATOM     22  C   UNL A   1      51.613  19.957  33.970  1.00  0.00     0.007 A 
ATOM     23  C   UNL A   1      51.764  22.110  35.032  1.00  0.00     0.126 A 
ATOM     24  C   UNL A   1      50.626  19.574  34.884  1.00  0.00     0.009 A 
ATOM     25  C   UNL A   1      50.800  21.733  35.955  1.00  0.00     0.048 A 
ATOM     26  F   UNL A   1      52.252  23.359  35.081  1.00  0.00    -0.207 F 
ENDBRANCH   9  19
BRANCH  18  27
ATOM     27  C   UNL A   1      47.960  23.889  34.443  1.00  0.00     0.430 C 
ATOM     28  F   UNL A   1      47.375  24.902  33.761  1.00  0.00    -0.167 F 
ATOM     29  F   UNL A   1      48.144  24.341  35.705  1.00  0.00    -0.167 F 
ATOM     30  F   UNL A   1      49.182  23.691  33.893  1.00  0.00    -0.167 F 
ENDBRANCH  18  27
ENDBRANCH   6   8
ENDBRANCH   5   6
ENDBRANCH   4   5
ENDBRANCH   3   4
ENDBRANCH   2   3
ENDBRANCH   1   2
BRANCH   1  31
ATOM     31  C   UNL A   1      42.723  23.688  27.285  1.00  0.00     0.261 C 
BRANCH  31  32
ATOM     32  O   UNL A   1      41.663  24.402  26.643  1.00  0.00    -0.460 OA
BRANCH  32  33
ATOM     33  C   UNL A   1      40.411  24.176  27.097  1.00  0.00     0.338 C 
ATOM     34  O   UNL A   1      39.953  23.147  27.560  1.00  0.00    -0.246 OA
BRANCH  33  35
ATOM     35  C   UNL A   1      39.897  25.530  27.383  1.00  0.00     0.060 A 
ATOM     36  C   UNL A   1      40.327  26.649  26.657  1.00  0.00     0.016 A 
ATOM     37  C   UNL A   1      39.285  25.670  28.633  1.00  0.00     0.016 A 
ATOM     38  C   UNL A   1      40.265  27.911  27.252  1.00  0.00     0.010 A 
ATOM     39  C   UNL A   1      39.254  26.919  29.230  1.00  0.00     0.010 A 
ATOM     40  C   UNL A   1      39.802  28.026  28.569  1.00  0.00    -0.014 A 
BRANCH  40  41
ATOM     41  C   UNL A   1      39.911  29.266  29.336  1.00  0.00     0.031 A 
ATOM     42  C   UNL A   1      38.884  30.314  29.195  1.00  0.00     0.074 A 
ATOM     43  C   UNL A   1      40.937  29.474  30.194  1.00  0.00     0.049 A 
ATOM     44  N   UNL A   1      39.100  31.574  29.369  1.00  0.00    -0.248 NA
ATOM     45  C   UNL A   1      37.505  29.996  28.839  1.00  0.00     0.031 C 
ATOM     46  C   UNL A   1      41.102  30.570  31.146  1.00  0.00     0.029 A 
ATOM     47  N   UNL A   1      42.184  28.828  30.218  1.00  0.00    -0.354 N 
ATOM     48  C   UNL A   1      37.870  32.172  29.490  1.00  0.00     0.074 A 
ATOM     49  C   UNL A   1      36.915  31.176  29.048  1.00  0.00     0.031 C 
ATOM     50  C   UNL A   1      42.415  30.739  31.378  1.00  0.00     0.029 A 
ATOM     51  C   UNL A   1      43.129  29.848  30.471  1.00  0.00     0.049 A 
ATOM     52  H   UNL A   1      42.361  27.868  30.086  1.00  0.00     0.167 HD
ATOM     53  C   UNL A   1      37.748  33.373  30.122  1.00  0.00     0.037 A 
ATOM     54  C   UNL A   1      44.047  30.239  29.543  1.00  0.00     0.037 A 
ATOM     55  C   UNL A   1      39.031  33.940  30.523  1.00  0.00     0.049 A 
ATOM     56  C   UNL A   1      43.970  31.737  29.182  1.00  0.00     0.074 A 
ATOM     57  C   UNL A   1      39.715  34.054  31.724  1.00  0.00     0.029 A 
ATOM     58  N   UNL A   1      39.952  34.265  29.541  1.00  0.00    -0.354 N 
ATOM     59  N   UNL A   1      43.011  32.543  29.563  1.00  0.00    -0.248 NA
ATOM     60  C   UNL A   1      44.926  32.428  28.310  1.00  0.00     0.031 C 
ATOM     61  C   UNL A   1      41.053  34.444  31.451  1.00  0.00     0.029 A 
ATOM     62  C   UNL A   1      41.191  34.539  30.082  1.00  0.00     0.049 A 
ATOM     63  H   UNL A   1      39.747  34.297  28.578  1.00  0.00     0.167 HD
ATOM     64  C   UNL A   1      43.187  33.789  29.003  1.00  0.00     0.074 A 
ATOM     65  C   UNL A   1      44.402  33.667  28.226  1.00  0.00     0.031 C 
ATOM     66  C   UNL A   1      42.310  34.819  29.200  1.00  0.00     0.037 A 
BRANCH  53  67
ATOM     67  C   UNL A   1      36.402  33.832  30.619  1.00  0.00     0.058 A 
ATOM     68  C   UNL A   1      35.417  34.307  29.733  1.00  0.00     0.135 A 
ATOM     69  C   UNL A   1      36.073  33.910  31.987  1.00  0.00     0.135 A 
ATOM     70  F   UNL A   1      35.574  34.244  28.406  1.00  0.00    -0.206 F 
ATOM     71  C   UNL A   1      34.243  34.915  30.166  1.00  0.00     0.059 A 
ATOM     72  C   UNL A   1      34.924  34.560  32.450  1.00  0.00     0.059 A 
ATOM     73  F   UNL A   1      36.884  33.375  32.916  1.00  0.00    -0.206 F 
ATOM     74  C   UNL A   1      34.021  35.074  31.527  1.00  0.00     0.060 A 
BRANCH  74  75
ATOM     75  S   UNL A   1      32.571  36.008  32.051  1.00  0.00     0.124 S 
ATOM     76  O   UNL A   1      31.668  34.951  32.501  1.00  0.00    -0.237 OA
ATOM     77  O   UNL A   1      33.124  36.858  33.099  1.00  0.00    -0.237 OA
ATOM     78  O   UNL A   1      32.155  36.695  30.832  1.00  0.00    -0.744 OA
ENDBRANCH  74  75
ENDBRANCH  53  67
BRANCH  54  79
ATOM     79  C   UNL A   1      44.462  29.168  28.579  1.00  0.00     0.058 A 
ATOM     80  C   UNL A   1      43.794  29.008  26.889  1.00  0.00     0.135 A 
ATOM     81  C   UNL A   1      45.858  28.131  29.042  1.00  0.00     0.135 A 
ATOM     82  F   UNL A   1      42.763  29.773  26.500  1.00  0.00    -0.206 F 
ATOM     83  C   UNL A   1      44.539  27.835  25.692  1.00  0.00     0.059 A 
ATOM     84  C   UNL A   1      46.621  27.008  27.886  1.00  0.00     0.059 A 
ATOM     85  F   UNL A   1      46.406  28.263  30.258  1.00  0.00    -0.206 F 
ATOM     86  C   UNL A   1      45.973  26.857  26.209  1.00  0.00     0.060 A 
BRANCH  86  87
ATOM     87  S   UNL A   1      46.773  25.645  25.186  1.00  0.00     0.124 S 
ATOM     88  O   UNL A   1      45.683  24.739  24.845  1.00  0.00    -0.237 OA
ATOM     89  O   UNL A   1      47.294  26.464  24.099  1.00  0.00    -0.237 OA
ATOM     90  O   UNL A   1      47.780  25.117  26.100  1.00  0.00    -0.744 OA
ENDBRANCH  86  87
ENDBRANCH  54  79
BRANCH  66  91
ATOM     91  C   UNL A   1      42.429  36.214  28.641  1.00  0.00     0.058 A 
ATOM     92  C   UNL A   1      42.103  36.535  27.315  1.00  0.00     0.135 A 
ATOM     93  C   UNL A   1      43.080  37.229  29.382  1.00  0.00     0.135 A 
ATOM     94  F   UNL A   1      41.513  35.629  26.521  1.00  0.00    -0.206 F 
ATOM     95  C   UNL A   1      42.412  37.781  26.754  1.00  0.00     0.059 A 
ATOM     96  C   UNL A   1      43.433  38.461  28.834  1.00  0.00     0.059 A 
ATOM     97  F   UNL A   1      43.390  37.047  30.676  1.00  0.00    -0.206 F 
ATOM     98  C   UNL A   1      43.088  38.734  27.518  1.00  0.00     0.060 A 
BRANCH  98  99
ATOM     99  S   UNL A   1      43.565  40.314  26.782  1.00  0.00     0.124 S 
ATOM    100  O   UNL A   1      44.524  39.918  25.754  1.00  0.00    -0.237 OA
ATOM    101  O   UNL A   1      42.284  40.808  26.291  1.00  0.00    -0.237 OA
ATOM    102  O   UNL A   1      44.136  41.051  27.905  1.00  0.00    -0.744 OA
ENDBRANCH  98  99
ENDBRANCH  66  91
ENDBRANCH  40  41
ENDBRANCH  33  35
ENDBRANCH  32  33
ENDBRANCH  31  32
ENDBRANCH   1  31
TORSDOF 19
ENDMDL
