MODEL 1
REMARK VINA RESULT:     -11.1      0.000      0.000
REMARK SMILES C[C@@H](C(=O)OCCOCCOC(=O)c1ccc(-c2c3nc(c(-c4c(F)cc(S(=O)(=O)[O-])cc4F)c4ccc([nH]4)c(-c4c(F)cc(S(=O)(=O)[O-])cc4F)c4nc(c(-c5c(F)cc(S(=O)(=O)[O-])cc5F)c5ccc2[nH]5)C=C4)C=C3)cc1)c1ccc2c(c1)[nH]c1ccc(Cl)cc12
REMARK SMILES IDX 9 1 8 2 7 3 6 4 5 5 3 6 4 7 2 8 1 9 80 10 81 11 85 12 82 13
REMARK SMILES IDX 84 14 83 15 86 16 93 17 87 18 92 20 88 21 90 22 89 23 91 24
REMARK SMILES IDX 10 25 11 26 12 27 13 28 14 29 15 30 79 31 16 32 78 33 17 34
REMARK SMILES IDX 18 35 19 36 72 37 20 38 77 39 71 40 73 41 21 42 76 43 70 44
REMARK SMILES IDX 69 45 22 47 56 48 35 49 55 50 36 51 39 52 54 53 74 54 37 55
REMARK SMILES IDX 38 56 53 58 75 59 40 60 23 61 24 62 33 63 25 64 26 65 32 66
REMARK SMILES IDX 34 67 27 68 28 69 29 70 30 71 31 72 57 73 58 74 67 75 59 76
REMARK SMILES IDX 60 77 66 78 68 79 61 80 62 81 63 82 64 83 65 84 41 85 42 86
REMARK SMILES IDX 51 87 43 88 44 89 50 90 52 91 45 92 46 93 47 94 48 95 49 96
REMARK H PARENT 86 19 73 46 39 57
REMARK Flexibility Score: inf
ROOT
ATOM      1  C   UNL A   1      37.685  22.531  25.734  1.00  0.00     0.202 C 
ENDROOT
BRANCH   1   2
ATOM      2  O   UNL A   1      37.717  21.124  25.500  1.00  0.00    -0.374 OA
BRANCH   2   3
ATOM      3  C   UNL A   1      36.551  20.509  24.960  1.00  0.00     0.202 C 
BRANCH   3   4
ATOM      4  C   UNL A   1      35.185  21.052  25.390  1.00  0.00     0.261 C 
BRANCH   4   5
ATOM      5  O   UNL A   1      34.324  21.352  24.277  1.00  0.00    -0.463 OA
BRANCH   5   6
ATOM      6  C   UNL A   1      33.143  21.938  24.619  1.00  0.00     0.313 C 
ATOM      7  O   UNL A   1      32.463  21.556  25.568  1.00  0.00    -0.252 OA
BRANCH   6   8
ATOM      8  C   UNL A   1      32.734  23.126  23.707  1.00  0.00     0.126 C 
ATOM      9  C   UNL A   1      33.159  22.950  22.243  1.00  0.00     0.025 C 
BRANCH   8  10
ATOM     10  C   UNL A   1      33.125  24.475  24.337  1.00  0.00    -0.032 A 
ATOM     11  C   UNL A   1      34.162  24.656  25.266  1.00  0.00     0.005 A 
ATOM     12  C   UNL A   1      32.366  25.601  23.974  1.00  0.00     0.031 A 
ATOM     13  C   UNL A   1      34.401  25.910  25.877  1.00  0.00     0.011 A 
ATOM     14  C   UNL A   1      32.515  26.782  24.695  1.00  0.00     0.047 A 
ATOM     15  C   UNL A   1      33.526  26.988  25.621  1.00  0.00     0.007 A 
ATOM     16  N   UNL A   1      31.716  27.896  24.688  1.00  0.00    -0.355 N 
ATOM     17  C   UNL A   1      33.382  28.337  26.095  1.00  0.00     0.009 A 
ATOM     18  C   UNL A   1      32.189  28.836  25.566  1.00  0.00     0.047 A 
ATOM     19  H   UNL A   1      30.914  28.005  24.129  1.00  0.00     0.167 HD
ATOM     20  C   UNL A   1      34.124  29.172  26.957  1.00  0.00     0.031 A 
ATOM     21  C   UNL A   1      31.645  30.075  25.916  1.00  0.00     0.028 A 
ATOM     22  C   UNL A   1      33.619  30.442  27.269  1.00  0.00     0.041 A 
ATOM     23  C   UNL A   1      32.388  30.876  26.783  1.00  0.00     0.022 A 
ATOM     24  Cl  UNL A   1      34.541  31.494  28.276  1.00  0.00    -0.084 Cl
ENDBRANCH   8  10
ENDBRANCH   6   8
ENDBRANCH   5   6
ENDBRANCH   4   5
ENDBRANCH   3   4
ENDBRANCH   2   3
ENDBRANCH   1   2
BRANCH   1  25
ATOM     25  C   UNL A   1      38.910  23.188  26.390  1.00  0.00     0.261 C 
BRANCH  25  26
ATOM     26  O   UNL A   1      38.874  24.627  26.364  1.00  0.00    -0.460 OA
BRANCH  26  27
ATOM     27  C   UNL A   1      40.092  25.223  26.363  1.00  0.00     0.338 C 
ATOM     28  O   UNL A   1      40.887  25.270  25.430  1.00  0.00    -0.246 OA
BRANCH  27  29
ATOM     29  C   UNL A   1      40.291  26.009  27.594  1.00  0.00     0.060 A 
ATOM     30  C   UNL A   1      39.327  25.888  28.604  1.00  0.00     0.016 A 
ATOM     31  C   UNL A   1      41.338  26.923  27.721  1.00  0.00     0.016 A 
ATOM     32  C   UNL A   1      39.379  26.715  29.724  1.00  0.00     0.010 A 
ATOM     33  C   UNL A   1      41.382  27.761  28.842  1.00  0.00     0.010 A 
ATOM     34  C   UNL A   1      40.383  27.686  29.829  1.00  0.00    -0.014 A 
BRANCH  34  35
ATOM     35  C   UNL A   1      40.290  28.715  30.895  1.00  0.00     0.031 A 
ATOM     36  C   UNL A   1      41.201  28.613  32.089  1.00  0.00     0.074 A 
ATOM     37  C   UNL A   1      39.437  29.749  30.783  1.00  0.00     0.049 A 
ATOM     38  N   UNL A   1      41.277  29.384  33.143  1.00  0.00    -0.248 NA
ATOM     39  C   UNL A   1      42.156  27.492  32.093  1.00  0.00     0.031 C 
ATOM     40  C   UNL A   1      38.532  29.979  29.658  1.00  0.00     0.029 A 
ATOM     41  N   UNL A   1      39.190  30.798  31.634  1.00  0.00    -0.354 N 
ATOM     42  C   UNL A   1      42.282  28.842  33.937  1.00  0.00     0.074 A 
ATOM     43  C   UNL A   1      42.765  27.659  33.258  1.00  0.00     0.031 C 
ATOM     44  C   UNL A   1      37.817  31.092  29.894  1.00  0.00     0.029 A 
ATOM     45  C   UNL A   1      38.193  31.637  31.197  1.00  0.00     0.049 A 
ATOM     46  H   UNL A   1      39.680  30.934  32.477  1.00  0.00     0.167 HD
ATOM     47  C   UNL A   1      42.764  29.296  35.119  1.00  0.00     0.037 A 
ATOM     48  C   UNL A   1      37.633  32.710  31.792  1.00  0.00     0.037 A 
ATOM     49  C   UNL A   1      42.280  30.472  35.791  1.00  0.00     0.049 A 
ATOM     50  C   UNL A   1      38.142  33.160  33.136  1.00  0.00     0.074 A 
ATOM     51  C   UNL A   1      42.710  31.018  36.989  1.00  0.00     0.029 A 
ATOM     52  N   UNL A   1      41.253  31.282  35.330  1.00  0.00    -0.354 N 
ATOM     53  N   UNL A   1      39.103  32.647  33.868  1.00  0.00    -0.248 NA
ATOM     54  C   UNL A   1      37.496  34.337  33.735  1.00  0.00     0.031 C 
ATOM     55  C   UNL A   1      41.914  32.133  37.273  1.00  0.00     0.029 A 
ATOM     56  C   UNL A   1      41.020  32.310  36.229  1.00  0.00     0.049 A 
ATOM     57  H   UNL A   1      40.762  31.145  34.488  1.00  0.00     0.167 HD
ATOM     58  C   UNL A   1      39.192  33.452  35.000  1.00  0.00     0.074 A 
ATOM     59  C   UNL A   1      38.195  34.492  34.851  1.00  0.00     0.031 C 
ATOM     60  C   UNL A   1      40.026  33.342  36.064  1.00  0.00     0.037 A 
BRANCH  47  61
ATOM     61  C   UNL A   1      43.862  28.499  35.771  1.00  0.00     0.058 A 
ATOM     62  C   UNL A   1      45.217  28.774  35.531  1.00  0.00     0.135 A 
ATOM     63  C   UNL A   1      43.552  27.463  36.667  1.00  0.00     0.135 A 
ATOM     64  F   UNL A   1      45.569  29.742  34.671  1.00  0.00    -0.206 F 
ATOM     65  C   UNL A   1      46.228  28.032  36.136  1.00  0.00     0.059 A 
ATOM     66  C   UNL A   1      44.547  26.725  37.303  1.00  0.00     0.059 A 
ATOM     67  F   UNL A   1      42.271  27.157  36.931  1.00  0.00    -0.206 F 
ATOM     68  C   UNL A   1      45.882  27.007  37.018  1.00  0.00     0.060 A 
BRANCH  68  69
ATOM     69  S   UNL A   1      47.203  26.051  37.792  1.00  0.00     0.124 S 
ATOM     70  O   UNL A   1      47.465  25.040  36.773  1.00  0.00    -0.237 OA
ATOM     71  O   UNL A   1      48.249  27.053  37.974  1.00  0.00    -0.237 OA
ATOM     72  O   UNL A   1      46.591  25.559  39.022  1.00  0.00    -0.744 OA
ENDBRANCH  68  69
ENDBRANCH  47  61
BRANCH  48  73
ATOM     73  C   UNL A   1      36.512  33.423  31.124  1.00  0.00     0.058 A 
ATOM     74  C   UNL A   1      36.727  34.215  29.987  1.00  0.00     0.135 A 
ATOM     75  C   UNL A   1      35.198  33.318  31.610  1.00  0.00     0.135 A 
ATOM     76  F   UNL A   1      37.966  34.356  29.494  1.00  0.00    -0.206 F 
ATOM     77  C   UNL A   1      35.682  34.885  29.359  1.00  0.00     0.059 A 
ATOM     78  C   UNL A   1      34.134  33.959  30.984  1.00  0.00     0.059 A 
ATOM     79  F   UNL A   1      34.938  32.564  32.689  1.00  0.00    -0.206 F 
ATOM     80  C   UNL A   1      34.388  34.748  29.863  1.00  0.00     0.060 A 
BRANCH  80  81
ATOM     81  S   UNL A   1      33.029  35.573  29.005  1.00  0.00     0.124 S 
ATOM     82  O   UNL A   1      32.191  35.995  30.122  1.00  0.00    -0.237 OA
ATOM     83  O   UNL A   1      33.721  36.637  28.286  1.00  0.00    -0.237 OA
ATOM     84  O   UNL A   1      32.474  34.517  28.163  1.00  0.00    -0.744 OA
ENDBRANCH  80  81
ENDBRANCH  48  73
BRANCH  60  85
ATOM     85  C   UNL A   1      39.921  34.388  37.141  1.00  0.00     0.058 A 
ATOM     86  C   UNL A   1      40.536  35.642  37.015  1.00  0.00     0.135 A 
ATOM     87  C   UNL A   1      39.149  34.149  38.290  1.00  0.00     0.135 A 
ATOM     88  F   UNL A   1      41.290  35.921  35.939  1.00  0.00    -0.206 F 
ATOM     89  C   UNL A   1      40.407  36.617  37.999  1.00  0.00     0.059 A 
ATOM     90  C   UNL A   1      38.985  35.118  39.274  1.00  0.00     0.059 A 
ATOM     91  F   UNL A   1      38.530  32.969  38.455  1.00  0.00    -0.206 F 
ATOM     92  C   UNL A   1      39.628  36.346  39.125  1.00  0.00     0.060 A 
BRANCH  92  93
ATOM     93  S   UNL A   1      39.441  37.630  40.381  1.00  0.00     0.124 S 
ATOM     94  O   UNL A   1      38.611  38.606  39.682  1.00  0.00    -0.237 OA
ATOM     95  O   UNL A   1      38.792  36.910  41.472  1.00  0.00    -0.237 OA
ATOM     96  O   UNL A   1      40.814  38.050  40.645  1.00  0.00    -0.744 OA
ENDBRANCH  92  93
ENDBRANCH  60  85
ENDBRANCH  34  35
ENDBRANCH  27  29
ENDBRANCH  26  27
ENDBRANCH  25  26
ENDBRANCH   1  25
TORSDOF 18
ENDMDL
MODEL 2
REMARK VINA RESULT:     -10.9      2.475      9.103
REMARK SMILES C[C@@H](C(=O)OCCOCCOC(=O)c1ccc(-c2c3nc(c(-c4c(F)cc(S(=O)(=O)[O-])cc4F)c4ccc([nH]4)c(-c4c(F)cc(S(=O)(=O)[O-])cc4F)c4nc(c(-c5c(F)cc(S(=O)(=O)[O-])cc5F)c5ccc2[nH]5)C=C4)C=C3)cc1)c1ccc2c(c1)[nH]c1ccc(Cl)cc12
REMARK SMILES IDX 9 1 8 2 7 3 6 4 5 5 3 6 4 7 2 8 1 9 80 10 81 11 85 12 82 13
REMARK SMILES IDX 84 14 83 15 86 16 93 17 87 18 92 20 88 21 90 22 89 23 91 24
REMARK SMILES IDX 10 25 11 26 12 27 13 28 14 29 15 30 79 31 16 32 78 33 17 34
REMARK SMILES IDX 18 35 19 36 72 37 20 38 77 39 71 40 73 41 21 42 76 43 70 44
REMARK SMILES IDX 69 45 22 47 56 48 35 49 55 50 36 51 39 52 54 53 74 54 37 55
REMARK SMILES IDX 38 56 53 58 75 59 40 60 23 61 24 62 33 63 25 64 26 65 32 66
REMARK SMILES IDX 34 67 27 68 28 69 29 70 30 71 31 72 57 73 58 74 67 75 59 76
REMARK SMILES IDX 60 77 66 78 68 79 61 80 62 81 63 82 64 83 65 84 41 85 42 86
REMARK SMILES IDX 51 87 43 88 44 89 50 90 52 91 45 92 46 93 47 94 48 95 49 96
REMARK H PARENT 86 19 73 46 39 57
REMARK Flexibility Score: inf
ROOT
ATOM      1  C   UNL A   1      45.390  24.291  25.588  1.00  0.00     0.202 C 
ENDROOT
BRANCH   1   2
ATOM      2  O   UNL A   1      45.152  23.897  24.239  1.00  0.00    -0.374 OA
BRANCH   2   3
ATOM      3  C   UNL A   1      44.586  22.610  24.007  1.00  0.00     0.202 C 
BRANCH   3   4
ATOM      4  C   UNL A   1      43.988  21.861  25.202  1.00  0.00     0.261 C 
BRANCH   4   5
ATOM      5  O   UNL A   1      42.580  22.105  25.371  1.00  0.00    -0.463 OA
BRANCH   5   6
ATOM      6  C   UNL A   1      42.150  22.053  26.661  1.00  0.00     0.313 C 
ATOM      7  O   UNL A   1      42.757  22.586  27.586  1.00  0.00    -0.252 OA
BRANCH   6   8
ATOM      8  C   UNL A   1      40.829  21.261  26.861  1.00  0.00     0.126 C 
ATOM      9  C   UNL A   1      40.877  19.836  26.294  1.00  0.00     0.025 C 
BRANCH   8  10
ATOM     10  C   UNL A   1      39.608  22.091  26.423  1.00  0.00    -0.032 A 
ATOM     11  C   UNL A   1      39.360  23.417  26.810  1.00  0.00     0.005 A 
ATOM     12  C   UNL A   1      38.660  21.460  25.599  1.00  0.00     0.031 A 
ATOM     13  C   UNL A   1      38.166  24.086  26.447  1.00  0.00     0.011 A 
ATOM     14  C   UNL A   1      37.431  22.075  25.383  1.00  0.00     0.047 A 
ATOM     15  C   UNL A   1      37.156  23.382  25.757  1.00  0.00     0.007 A 
ATOM     16  N   UNL A   1      36.289  21.542  24.845  1.00  0.00    -0.355 N 
ATOM     17  C   UNL A   1      35.821  23.666  25.308  1.00  0.00     0.009 A 
ATOM     18  C   UNL A   1      35.281  22.468  24.833  1.00  0.00     0.047 A 
ATOM     19  H   UNL A   1      36.206  20.619  24.512  1.00  0.00     0.167 HD
ATOM     20  C   UNL A   1      35.000  24.813  25.296  1.00  0.00     0.031 A 
ATOM     21  C   UNL A   1      33.947  22.324  24.437  1.00  0.00     0.028 A 
ATOM     22  C   UNL A   1      33.679  24.695  24.844  1.00  0.00     0.041 A 
ATOM     23  C   UNL A   1      33.151  23.468  24.450  1.00  0.00     0.022 A 
ATOM     24  Cl  UNL A   1      32.680  26.099  24.772  1.00  0.00    -0.084 Cl
ENDBRANCH   8  10
ENDBRANCH   6   8
ENDBRANCH   5   6
ENDBRANCH   4   5
ENDBRANCH   3   4
ENDBRANCH   2   3
ENDBRANCH   1   2
BRANCH   1  25
ATOM     25  C   UNL A   1      44.419  25.292  26.236  1.00  0.00     0.261 C 
BRANCH  25  26
ATOM     26  O   UNL A   1      43.596  25.994  25.286  1.00  0.00    -0.460 OA
BRANCH  26  27
ATOM     27  C   UNL A   1      42.343  26.275  25.723  1.00  0.00     0.338 C 
ATOM     28  O   UNL A   1      41.288  25.929  25.203  1.00  0.00    -0.246 OA
BRANCH  27  29
ATOM     29  C   UNL A   1      42.383  26.905  27.055  1.00  0.00     0.060 A 
ATOM     30  C   UNL A   1      41.612  26.325  28.071  1.00  0.00     0.016 A 
ATOM     31  C   UNL A   1      43.075  28.095  27.284  1.00  0.00     0.016 A 
ATOM     32  C   UNL A   1      41.490  26.958  29.306  1.00  0.00     0.010 A 
ATOM     33  C   UNL A   1      42.942  28.736  28.523  1.00  0.00     0.010 A 
ATOM     34  C   UNL A   1      42.120  28.189  29.525  1.00  0.00    -0.014 A 
BRANCH  34  35
ATOM     35  C   UNL A   1      41.791  28.967  30.744  1.00  0.00     0.031 A 
ATOM     36  C   UNL A   1      40.595  29.881  30.726  1.00  0.00     0.074 A 
ATOM     37  C   UNL A   1      42.520  28.833  31.867  1.00  0.00     0.049 A 
ATOM     38  N   UNL A   1      40.137  30.667  31.666  1.00  0.00    -0.248 NA
ATOM     39  C   UNL A   1      39.809  29.910  29.481  1.00  0.00     0.031 C 
ATOM     40  C   UNL A   1      43.677  27.951  32.021  1.00  0.00     0.029 A 
ATOM     41  N   UNL A   1      42.397  29.444  33.090  1.00  0.00    -0.354 N 
ATOM     42  C   UNL A   1      39.014  31.287  31.128  1.00  0.00     0.074 A 
ATOM     43  C   UNL A   1      38.879  30.808  29.769  1.00  0.00     0.031 C 
ATOM     44  C   UNL A   1      44.167  28.089  33.264  1.00  0.00     0.029 A 
ATOM     45  C   UNL A   1      43.378  29.087  33.984  1.00  0.00     0.049 A 
ATOM     46  H   UNL A   1      41.676  30.078  33.305  1.00  0.00     0.167 HD
ATOM     47  C   UNL A   1      38.168  32.166  31.717  1.00  0.00     0.037 A 
ATOM     48  C   UNL A   1      43.623  29.532  35.234  1.00  0.00     0.037 A 
ATOM     49  C   UNL A   1      38.308  32.640  33.068  1.00  0.00     0.049 A 
ATOM     50  C   UNL A   1      42.705  30.557  35.847  1.00  0.00     0.074 A 
ATOM     51  C   UNL A   1      37.497  33.524  33.759  1.00  0.00     0.029 A 
ATOM     52  N   UNL A   1      39.327  32.275  33.935  1.00  0.00    -0.354 N 
ATOM     53  N   UNL A   1      41.639  31.122  35.332  1.00  0.00    -0.248 NA
ATOM     54  C   UNL A   1      43.020  31.002  37.212  1.00  0.00     0.031 C 
ATOM     55  C   UNL A   1      38.050  33.728  35.027  1.00  0.00     0.029 A 
ATOM     56  C   UNL A   1      39.179  32.932  35.145  1.00  0.00     0.049 A 
ATOM     57  H   UNL A   1      40.050  31.641  33.720  1.00  0.00     0.167 HD
ATOM     58  C   UNL A   1      41.143  31.971  36.318  1.00  0.00     0.074 A 
ATOM     59  C   UNL A   1      42.019  31.836  37.463  1.00  0.00     0.031 C 
ATOM     60  C   UNL A   1      40.058  32.784  36.279  1.00  0.00     0.037 A 
BRANCH  47  61
ATOM     61  C   UNL A   1      37.026  32.689  30.889  1.00  0.00     0.058 A 
ATOM     62  C   UNL A   1      37.203  33.722  29.955  1.00  0.00     0.135 A 
ATOM     63  C   UNL A   1      35.743  32.133  31.014  1.00  0.00     0.135 A 
ATOM     64  F   UNL A   1      38.405  34.301  29.807  1.00  0.00    -0.206 F 
ATOM     65  C   UNL A   1      36.143  34.204  29.193  1.00  0.00     0.059 A 
ATOM     66  C   UNL A   1      34.673  32.582  30.244  1.00  0.00     0.059 A 
ATOM     67  F   UNL A   1      35.518  31.144  31.894  1.00  0.00    -0.206 F 
ATOM     68  C   UNL A   1      34.881  33.629  29.348  1.00  0.00     0.060 A 
BRANCH  68  69
ATOM     69  S   UNL A   1      33.514  34.266  28.356  1.00  0.00     0.124 S 
ATOM     70  O   UNL A   1      32.603  34.745  29.390  1.00  0.00    -0.237 OA
ATOM     71  O   UNL A   1      34.163  35.300  27.556  1.00  0.00    -0.237 OA
ATOM     72  O   UNL A   1      33.059  33.096  27.611  1.00  0.00    -0.744 OA
ENDBRANCH  68  69
ENDBRANCH  47  61
BRANCH  48  73
ATOM     73  C   UNL A   1      44.801  29.020  35.982  1.00  0.00     0.058 A 
ATOM     74  C   UNL A   1      44.698  27.906  36.829  1.00  0.00     0.135 A 
ATOM     75  C   UNL A   1      46.058  29.633  35.857  1.00  0.00     0.135 A 
ATOM     76  F   UNL A   1      43.516  27.295  36.990  1.00  0.00    -0.206 F 
ATOM     77  C   UNL A   1      45.797  27.423  37.532  1.00  0.00     0.059 A 
ATOM     78  C   UNL A   1      47.177  29.153  36.530  1.00  0.00     0.059 A 
ATOM     79  F   UNL A   1      46.211  30.695  35.052  1.00  0.00    -0.206 F 
ATOM     80  C   UNL A   1      47.033  28.051  37.373  1.00  0.00     0.060 A 
BRANCH  80  81
ATOM     81  S   UNL A   1      48.467  27.380  38.243  1.00  0.00     0.124 S 
ATOM     82  O   UNL A   1      48.145  27.700  39.630  1.00  0.00    -0.237 OA
ATOM     83  O   UNL A   1      48.411  25.967  37.884  1.00  0.00    -0.237 OA
ATOM     84  O   UNL A   1      49.585  28.121  37.667  1.00  0.00    -0.744 OA
ENDBRANCH  80  81
ENDBRANCH  48  73
BRANCH  60  85
ATOM     85  C   UNL A   1      39.735  33.572  37.520  1.00  0.00     0.058 A 
ATOM     86  C   UNL A   1      38.813  33.109  38.470  1.00  0.00     0.135 A 
ATOM     87  C   UNL A   1      40.399  34.781  37.785  1.00  0.00     0.135 A 
ATOM     88  F   UNL A   1      38.147  31.962  38.263  1.00  0.00    -0.206 F 
ATOM     89  C   UNL A   1      38.545  33.826  39.632  1.00  0.00     0.059 A 
ATOM     90  C   UNL A   1      40.165  35.502  38.952  1.00  0.00     0.059 A 
ATOM     91  F   UNL A   1      41.298  35.264  36.914  1.00  0.00    -0.206 F 
ATOM     92  C   UNL A   1      39.227  35.022  39.864  1.00  0.00     0.060 A 
BRANCH  92  93
ATOM     93  S   UNL A   1      38.894  35.928  41.390  1.00  0.00     0.124 S 
ATOM     94  O   UNL A   1      38.851  37.305  40.912  1.00  0.00    -0.237 OA
ATOM     95  O   UNL A   1      37.617  35.365  41.817  1.00  0.00    -0.237 OA
ATOM     96  O   UNL A   1      40.033  35.594  42.240  1.00  0.00    -0.744 OA
ENDBRANCH  92  93
ENDBRANCH  60  85
ENDBRANCH  34  35
ENDBRANCH  27  29
ENDBRANCH  26  27
ENDBRANCH  25  26
ENDBRANCH   1  25
TORSDOF 18
ENDMDL
MODEL 3
REMARK VINA RESULT:     -10.8      5.045     11.979
REMARK SMILES C[C@@H](C(=O)OCCOCCOC(=O)c1ccc(-c2c3nc(c(-c4c(F)cc(S(=O)(=O)[O-])cc4F)c4ccc([nH]4)c(-c4c(F)cc(S(=O)(=O)[O-])cc4F)c4nc(c(-c5c(F)cc(S(=O)(=O)[O-])cc5F)c5ccc2[nH]5)C=C4)C=C3)cc1)c1ccc2c(c1)[nH]c1ccc(Cl)cc12
REMARK SMILES IDX 9 1 8 2 7 3 6 4 5 5 3 6 4 7 2 8 1 9 80 10 81 11 85 12 82 13
REMARK SMILES IDX 84 14 83 15 86 16 93 17 87 18 92 20 88 21 90 22 89 23 91 24
REMARK SMILES IDX 10 25 11 26 12 27 13 28 14 29 15 30 79 31 16 32 78 33 17 34
REMARK SMILES IDX 18 35 19 36 72 37 20 38 77 39 71 40 73 41 21 42 76 43 70 44
REMARK SMILES IDX 69 45 22 47 56 48 35 49 55 50 36 51 39 52 54 53 74 54 37 55
REMARK SMILES IDX 38 56 53 58 75 59 40 60 23 61 24 62 33 63 25 64 26 65 32 66
REMARK SMILES IDX 34 67 27 68 28 69 29 70 30 71 31 72 57 73 58 74 67 75 59 76
REMARK SMILES IDX 60 77 66 78 68 79 61 80 62 81 63 82 64 83 65 84 41 85 42 86
REMARK SMILES IDX 51 87 43 88 44 89 50 90 52 91 45 92 46 93 47 94 48 95 49 96
REMARK H PARENT 86 19 73 46 39 57
REMARK Flexibility Score: inf
ROOT
ATOM      1  C   UNL A   1      33.755  34.249  29.307  1.00  0.00     0.202 C 
ENDROOT
BRANCH   1   2
ATOM      2  O   UNL A   1      34.022  33.941  30.673  1.00  0.00    -0.374 OA
BRANCH   2   3
ATOM      3  C   UNL A   1      35.180  34.512  31.274  1.00  0.00     0.202 C 
BRANCH   3   4
ATOM      4  C   UNL A   1      35.212  34.638  32.800  1.00  0.00     0.261 C 
BRANCH   4   5
ATOM      5  O   UNL A   1      36.506  34.356  33.361  1.00  0.00    -0.463 OA
BRANCH   5   6
ATOM      6  C   UNL A   1      36.637  33.102  33.874  1.00  0.00     0.313 C 
ATOM      7  O   UNL A   1      36.366  32.830  35.040  1.00  0.00    -0.252 OA
BRANCH   6   8
ATOM      8  C   UNL A   1      37.157  32.049  32.858  1.00  0.00     0.126 C 
ATOM      9  C   UNL A   1      36.079  31.062  32.391  1.00  0.00     0.025 C 
BRANCH   8  10
ATOM     10  C   UNL A   1      38.463  31.397  33.348  1.00  0.00    -0.032 A 
ATOM     11  C   UNL A   1      39.436  32.038  34.131  1.00  0.00     0.005 A 
ATOM     12  C   UNL A   1      38.709  30.070  32.955  1.00  0.00     0.031 A 
ATOM     13  C   UNL A   1      40.658  31.407  34.462  1.00  0.00     0.011 A 
ATOM     14  C   UNL A   1      39.973  29.524  33.158  1.00  0.00     0.047 A 
ATOM     15  C   UNL A   1      40.954  30.137  33.923  1.00  0.00     0.007 A 
ATOM     16  N   UNL A   1      40.503  28.374  32.635  1.00  0.00    -0.355 N 
ATOM     17  C   UNL A   1      42.077  29.241  33.946  1.00  0.00     0.009 A 
ATOM     18  C   UNL A   1      41.796  28.202  33.055  1.00  0.00     0.047 A 
ATOM     19  H   UNL A   1      40.021  27.755  32.040  1.00  0.00     0.167 HD
ATOM     20  C   UNL A   1      43.326  29.229  34.603  1.00  0.00     0.031 A 
ATOM     21  C   UNL A   1      42.716  27.208  32.709  1.00  0.00     0.028 A 
ATOM     22  C   UNL A   1      44.235  28.203  34.310  1.00  0.00     0.041 A 
ATOM     23  C   UNL A   1      43.950  27.227  33.359  1.00  0.00     0.022 A 
ATOM     24  Cl  UNL A   1      45.742  28.145  35.145  1.00  0.00    -0.084 Cl
ENDBRANCH   8  10
ENDBRANCH   6   8
ENDBRANCH   5   6
ENDBRANCH   4   5
ENDBRANCH   3   4
ENDBRANCH   2   3
ENDBRANCH   1   2
BRANCH   1  25
ATOM     25  C   UNL A   1      33.617  33.087  28.311  1.00  0.00     0.261 C 
BRANCH  25  26
ATOM     26  O   UNL A   1      34.836  32.343  28.121  1.00  0.00    -0.460 OA
BRANCH  26  27
ATOM     27  C   UNL A   1      34.666  31.004  27.991  1.00  0.00     0.338 C 
ATOM     28  O   UNL A   1      33.642  30.423  27.647  1.00  0.00    -0.246 OA
BRANCH  27  29
ATOM     29  C   UNL A   1      35.953  30.299  28.125  1.00  0.00     0.060 A 
ATOM     30  C   UNL A   1      36.263  29.744  29.374  1.00  0.00     0.016 A 
ATOM     31  C   UNL A   1      36.884  30.265  27.086  1.00  0.00     0.016 A 
ATOM     32  C   UNL A   1      37.523  29.198  29.605  1.00  0.00     0.010 A 
ATOM     33  C   UNL A   1      38.155  29.725  27.323  1.00  0.00     0.010 A 
ATOM     34  C   UNL A   1      38.491  29.224  28.594  1.00  0.00    -0.014 A 
BRANCH  34  35
ATOM     35  C   UNL A   1      39.894  28.864  28.920  1.00  0.00     0.031 A 
ATOM     36  C   UNL A   1      40.772  29.888  29.588  1.00  0.00     0.074 A 
ATOM     37  C   UNL A   1      40.367  27.631  28.665  1.00  0.00     0.049 A 
ATOM     38  N   UNL A   1      42.028  29.798  29.942  1.00  0.00    -0.248 NA
ATOM     39  C   UNL A   1      40.150  31.185  29.900  1.00  0.00     0.031 C 
ATOM     40  C   UNL A   1      39.603  26.543  28.059  1.00  0.00     0.029 A 
ATOM     41  N   UNL A   1      41.611  27.091  28.881  1.00  0.00    -0.354 N 
ATOM     42  C   UNL A   1      42.349  31.025  30.514  1.00  0.00     0.074 A 
ATOM     43  C   UNL A   1      41.164  31.852  30.431  1.00  0.00     0.031 C 
ATOM     44  C   UNL A   1      40.399  25.467  27.937  1.00  0.00     0.029 A 
ATOM     45  C   UNL A   1      41.734  25.799  28.430  1.00  0.00     0.049 A 
ATOM     46  H   UNL A   1      42.344  27.583  29.316  1.00  0.00     0.167 HD
ATOM     47  C   UNL A   1      43.520  31.421  31.067  1.00  0.00     0.037 A 
ATOM     48  C   UNL A   1      42.809  24.984  28.401  1.00  0.00     0.037 A 
ATOM     49  C   UNL A   1      44.696  30.596  31.147  1.00  0.00     0.049 A 
ATOM     50  C   UNL A   1      44.119  25.467  28.964  1.00  0.00     0.074 A 
ATOM     51  C   UNL A   1      45.929  30.903  31.697  1.00  0.00     0.029 A 
ATOM     52  N   UNL A   1      44.790  29.301  30.658  1.00  0.00    -0.354 N 
ATOM     53  N   UNL A   1      44.403  26.624  29.516  1.00  0.00    -0.248 NA
ATOM     54  C   UNL A   1      45.254  24.536  28.908  1.00  0.00     0.031 C 
ATOM     55  C   UNL A   1      46.781  29.812  31.501  1.00  0.00     0.029 A 
ATOM     56  C   UNL A   1      46.065  28.804  30.873  1.00  0.00     0.049 A 
ATOM     57  H   UNL A   1      44.058  28.809  30.222  1.00  0.00     0.167 HD
ATOM     58  C   UNL A   1      45.741  26.549  29.892  1.00  0.00     0.074 A 
ATOM     59  C   UNL A   1      46.207  25.230  29.515  1.00  0.00     0.031 C 
ATOM     60  C   UNL A   1      46.513  27.486  30.497  1.00  0.00     0.037 A 
BRANCH  47  61
ATOM     61  C   UNL A   1      43.591  32.823  31.610  1.00  0.00     0.058 A 
ATOM     62  C   UNL A   1      43.610  33.943  30.764  1.00  0.00     0.135 A 
ATOM     63  C   UNL A   1      43.616  33.049  32.996  1.00  0.00     0.135 A 
ATOM     64  F   UNL A   1      43.605  33.784  29.432  1.00  0.00    -0.206 F 
ATOM     65  C   UNL A   1      43.678  35.237  31.272  1.00  0.00     0.059 A 
ATOM     66  C   UNL A   1      43.658  34.335  33.526  1.00  0.00     0.059 A 
ATOM     67  F   UNL A   1      43.602  32.012  33.850  1.00  0.00    -0.206 F 
ATOM     68  C   UNL A   1      43.704  35.422  32.655  1.00  0.00     0.060 A 
BRANCH  68  69
ATOM     69  S   UNL A   1      43.796  37.106  33.299  1.00  0.00     0.124 S 
ATOM     70  O   UNL A   1      43.795  37.889  32.068  1.00  0.00    -0.237 OA
ATOM     71  O   UNL A   1      42.585  37.198  34.109  1.00  0.00    -0.237 OA
ATOM     72  O   UNL A   1      45.049  37.116  34.049  1.00  0.00    -0.744 OA
ENDBRANCH  68  69
ENDBRANCH  47  61
BRANCH  48  73
ATOM     73  C   UNL A   1      42.692  23.629  27.799  1.00  0.00     0.058 A 
ATOM     74  C   UNL A   1      42.856  23.428  26.421  1.00  0.00     0.135 A 
ATOM     75  C   UNL A   1      42.421  22.506  28.596  1.00  0.00     0.135 A 
ATOM     76  F   UNL A   1      43.104  24.472  25.616  1.00  0.00    -0.206 F 
ATOM     77  C   UNL A   1      42.747  22.163  25.852  1.00  0.00     0.059 A 
ATOM     78  C   UNL A   1      42.332  21.228  28.055  1.00  0.00     0.059 A 
ATOM     79  F   UNL A   1      42.266  22.644  29.922  1.00  0.00    -0.206 F 
ATOM     80  C   UNL A   1      42.489  21.068  26.678  1.00  0.00     0.060 A 
BRANCH  80  81
ATOM     81  S   UNL A   1      42.409  19.422  25.939  1.00  0.00     0.124 S 
ATOM     82  O   UNL A   1      43.286  19.575  24.784  1.00  0.00    -0.237 OA
ATOM     83  O   UNL A   1      42.913  18.577  27.017  1.00  0.00    -0.237 OA
ATOM     84  O   UNL A   1      40.990  19.258  25.638  1.00  0.00    -0.744 OA
ENDBRANCH  80  81
ENDBRANCH  48  73
BRANCH  60  85
ATOM     85  C   UNL A   1      47.934  27.113  30.820  1.00  0.00     0.058 A 
ATOM     86  C   UNL A   1      48.297  26.601  32.075  1.00  0.00     0.135 A 
ATOM     87  C   UNL A   1      48.937  27.220  29.841  1.00  0.00     0.135 A 
ATOM     88  F   UNL A   1      47.379  26.483  33.048  1.00  0.00    -0.206 F 
ATOM     89  C   UNL A   1      49.607  26.227  32.356  1.00  0.00     0.059 A 
ATOM     90  C   UNL A   1      50.247  26.828  30.092  1.00  0.00     0.059 A 
ATOM     91  F   UNL A   1      48.641  27.694  28.621  1.00  0.00    -0.206 F 
ATOM     92  C   UNL A   1      50.576  26.343  31.358  1.00  0.00     0.060 A 
BRANCH  92  93
ATOM     93  S   UNL A   1      52.266  25.823  31.724  1.00  0.00     0.124 S 
ATOM     94  O   UNL A   1      52.570  26.623  32.905  1.00  0.00    -0.237 OA
ATOM     95  O   UNL A   1      52.110  24.389  31.951  1.00  0.00    -0.237 OA
ATOM     96  O   UNL A   1      53.001  26.182  30.515  1.00  0.00    -0.744 OA
ENDBRANCH  92  93
ENDBRANCH  60  85
ENDBRANCH  34  35
ENDBRANCH  27  29
ENDBRANCH  26  27
ENDBRANCH  25  26
ENDBRANCH   1  25
TORSDOF 18
ENDMDL
