MODEL 1
REMARK VINA RESULT:      -9.0      0.000      0.000
REMARK SMILES N#Cc1ccnc(Oc2cccc(C(=O)OCCOCCOC(=O)c3ccc(-c4c5nc(c(-c6c(F)cc(S(=O)(=O)[O-])cc6F)c6ccc([nH]6)c(-c6c(F)cc(S(=O)(=O)[O-])cc6F)c6nc(c(-c7c(F)cc(S(=O)(=O)[O-])cc7F)c7ccc4[nH]7)C=C6)C=C5)cc3)c2)c1
REMARK SMILES IDX 19 1 18 2 17 3 16 4 14 5 15 6 13 7 9 8 10 9 91 10 11 11
REMARK SMILES IDX 12 12 8 13 7 14 3 15 4 16 92 17 5 18 6 19 2 20 1 21 20 22
REMARK SMILES IDX 21 23 22 24 23 25 24 26 25 27 26 28 90 29 27 30 89 31 28 32
REMARK SMILES IDX 29 33 30 34 83 35 31 36 88 37 82 38 84 39 32 40 87 41 81 42
REMARK SMILES IDX 80 43 33 45 67 46 46 47 66 48 47 49 50 50 65 51 85 52 48 53
REMARK SMILES IDX 49 54 64 56 86 57 51 58 34 59 35 60 44 61 36 62 37 63 43 64
REMARK SMILES IDX 45 65 38 66 39 67 40 68 41 69 42 70 68 71 69 72 78 73 70 74
REMARK SMILES IDX 71 75 77 76 79 77 72 78 73 79 74 80 75 81 76 82 52 83 53 84
REMARK SMILES IDX 62 85 54 86 55 87 61 88 63 89 56 90 57 91 58 92 59 93 60 94
REMARK H PARENT 84 44 50 55
REMARK Flexibility Score: inf
ROOT
ATOM      1  O   UNL A   1      42.664  19.460  24.943  1.00  0.00    -0.374 OA
ENDROOT
BRANCH   1   2
ATOM      2  C   UNL A   1      44.042  19.097  24.905  1.00  0.00     0.202 C 
BRANCH   2   3
ATOM      3  C   UNL A   1      45.093  20.116  25.359  1.00  0.00     0.261 C 
BRANCH   3   4
ATOM      4  O   UNL A   1      45.205  21.213  24.446  1.00  0.00    -0.460 OA
BRANCH   4   5
ATOM      5  C   UNL A   1      44.416  22.274  24.745  1.00  0.00     0.338 C 
ATOM      6  O   UNL A   1      43.405  22.626  24.160  1.00  0.00    -0.246 OA
BRANCH   5   7
ATOM      7  C   UNL A   1      44.854  22.885  26.020  1.00  0.00     0.063 A 
ATOM      8  C   UNL A   1      44.598  23.298  28.376  1.00  0.00     0.130 A 
ATOM      9  C   UNL A   1      45.861  23.897  28.414  1.00  0.00     0.047 A 
ATOM     10  C   UNL A   1      44.047  22.888  27.159  1.00  0.00     0.062 A 
ATOM     11  C   UNL A   1      46.621  23.995  27.250  1.00  0.00     0.005 A 
ATOM     12  C   UNL A   1      46.133  23.458  26.062  1.00  0.00     0.016 A 
BRANCH   8  13
ATOM     13  O   UNL A   1      43.949  23.144  29.578  1.00  0.00    -0.439 OA
BRANCH  13  14
ATOM     14  C   UNL A   1      44.153  24.069  30.584  1.00  0.00     0.220 A 
ATOM     15  C   UNL A   1      44.488  26.267  31.485  1.00  0.00     0.059 A 
ATOM     16  C   UNL A   1      44.726  25.703  32.729  1.00  0.00     0.040 A 
ATOM     17  C   UNL A   1      44.150  25.447  30.409  1.00  0.00     0.088 A 
ATOM     18  C   UNL A   1      44.628  24.329  32.837  1.00  0.00     0.116 A 
ATOM     19  N   UNL A   1      44.358  23.508  31.796  1.00  0.00    -0.222 NA
BRANCH  15  20
ATOM     20  C   UNL A   1      44.605  27.680  31.272  1.00  0.00     0.099 C 
ATOM     21  N   UNL A   1      44.735  28.823  31.147  1.00  0.00    -0.192 NA
ENDBRANCH  15  20
ENDBRANCH  13  14
ENDBRANCH   8  13
ENDBRANCH   5   7
ENDBRANCH   4   5
ENDBRANCH   3   4
ENDBRANCH   2   3
ENDBRANCH   1   2
BRANCH   1  22
ATOM     22  C   UNL A   1      42.043  19.672  26.209  1.00  0.00     0.202 C 
BRANCH  22  23
ATOM     23  C   UNL A   1      40.527  19.906  26.291  1.00  0.00     0.261 C 
BRANCH  23  24
ATOM     24  O   UNL A   1      40.148  21.022  27.107  1.00  0.00    -0.460 OA
BRANCH  24  25
ATOM     25  C   UNL A   1      39.440  21.975  26.447  1.00  0.00     0.338 C 
ATOM     26  O   UNL A   1      38.514  21.800  25.674  1.00  0.00    -0.246 OA
BRANCH  25  27
ATOM     27  C   UNL A   1      39.822  23.309  26.942  1.00  0.00     0.060 A 
ATOM     28  C   UNL A   1      39.471  24.424  26.169  1.00  0.00     0.016 A 
ATOM     29  C   UNL A   1      40.577  23.457  28.105  1.00  0.00     0.016 A 
ATOM     30  C   UNL A   1      39.901  25.694  26.541  1.00  0.00     0.010 A 
ATOM     31  C   UNL A   1      41.017  24.731  28.470  1.00  0.00     0.010 A 
ATOM     32  C   UNL A   1      40.704  25.852  27.677  1.00  0.00    -0.014 A 
BRANCH  32  33
ATOM     33  C   UNL A   1      41.307  27.171  27.988  1.00  0.00     0.031 A 
ATOM     34  C   UNL A   1      42.762  27.404  27.682  1.00  0.00     0.074 A 
ATOM     35  C   UNL A   1      40.563  28.146  28.543  1.00  0.00     0.049 A 
ATOM     36  N   UNL A   1      43.514  28.432  27.973  1.00  0.00    -0.248 NA
ATOM     37  C   UNL A   1      43.461  26.331  26.955  1.00  0.00     0.031 C 
ATOM     38  C   UNL A   1      39.134  28.052  28.840  1.00  0.00     0.029 A 
ATOM     39  N   UNL A   1      40.914  29.403  28.969  1.00  0.00    -0.354 N 
ATOM     40  C   UNL A   1      44.777  28.131  27.475  1.00  0.00     0.074 A 
ATOM     41  C   UNL A   1      44.697  26.809  26.893  1.00  0.00     0.031 C 
ATOM     42  C   UNL A   1      38.733  29.198  29.416  1.00  0.00     0.029 A 
ATOM     43  C   UNL A   1      39.884  30.084  29.573  1.00  0.00     0.049 A 
ATOM     44  H   UNL A   1      41.816  29.779  28.854  1.00  0.00     0.167 HD
ATOM     45  C   UNL A   1      45.896  28.892  27.496  1.00  0.00     0.037 A 
ATOM     46  C   UNL A   1      39.880  31.271  30.212  1.00  0.00     0.037 A 
ATOM     47  C   UNL A   1      45.963  30.208  28.081  1.00  0.00     0.049 A 
ATOM     48  C   UNL A   1      41.164  32.057  30.307  1.00  0.00     0.074 A 
ATOM     49  C   UNL A   1      47.048  31.066  28.145  1.00  0.00     0.029 A 
ATOM     50  N   UNL A   1      44.908  30.853  28.710  1.00  0.00    -0.354 N 
ATOM     51  N   UNL A   1      42.347  31.770  29.818  1.00  0.00    -0.248 NA
ATOM     52  C   UNL A   1      41.112  33.328  31.042  1.00  0.00     0.031 C 
ATOM     53  C   UNL A   1      46.667  32.199  28.868  1.00  0.00     0.029 A 
ATOM     54  C   UNL A   1      45.325  32.083  29.193  1.00  0.00     0.049 A 
ATOM     55  H   UNL A   1      43.997  30.491  28.799  1.00  0.00     0.167 HD
ATOM     56  C   UNL A   1      43.169  32.842  30.155  1.00  0.00     0.074 A 
ATOM     57  C   UNL A   1      42.343  33.789  30.873  1.00  0.00     0.031 C 
ATOM     58  C   UNL A   1      44.489  33.025  29.897  1.00  0.00     0.037 A 
BRANCH  45  59
ATOM     59  C   UNL A   1      47.150  28.325  26.887  1.00  0.00     0.058 A 
ATOM     60  C   UNL A   1      47.393  28.379  25.504  1.00  0.00     0.135 A 
ATOM     61  C   UNL A   1      48.155  27.780  27.704  1.00  0.00     0.135 A 
ATOM     62  F   UNL A   1      46.462  28.873  24.673  1.00  0.00    -0.206 F 
ATOM     63  C   UNL A   1      48.578  27.901  24.953  1.00  0.00     0.059 A 
ATOM     64  C   UNL A   1      49.361  27.325  27.178  1.00  0.00     0.059 A 
ATOM     65  F   UNL A   1      47.976  27.698  29.032  1.00  0.00    -0.206 F 
ATOM     66  C   UNL A   1      49.560  27.384  25.800  1.00  0.00     0.060 A 
BRANCH  66  67
ATOM     67  S   UNL A   1      51.105  26.800  25.070  1.00  0.00     0.124 S 
ATOM     68  O   UNL A   1      50.815  26.913  23.644  1.00  0.00    -0.237 OA
ATOM     69  O   UNL A   1      52.075  27.755  25.596  1.00  0.00    -0.237 OA
ATOM     70  O   UNL A   1      51.230  25.438  25.577  1.00  0.00    -0.744 OA
ENDBRANCH  66  67
ENDBRANCH  45  59
BRANCH  46  71
ATOM     71  C   UNL A   1      38.631  31.784  30.842  1.00  0.00     0.058 A 
ATOM     72  C   UNL A   1      37.841  32.750  30.202  1.00  0.00     0.135 A 
ATOM     73  C   UNL A   1      38.220  31.343  32.111  1.00  0.00     0.135 A 
ATOM     74  F   UNL A   1      38.196  33.212  28.993  1.00  0.00    -0.206 F 
ATOM     75  C   UNL A   1      36.710  33.286  30.808  1.00  0.00     0.059 A 
ATOM     76  C   UNL A   1      37.072  31.837  32.722  1.00  0.00     0.059 A 
ATOM     77  F   UNL A   1      38.931  30.411  32.765  1.00  0.00    -0.206 F 
ATOM     78  C   UNL A   1      36.333  32.822  32.069  1.00  0.00     0.060 A 
BRANCH  78  79
ATOM     79  S   UNL A   1      34.854  33.514  32.839  1.00  0.00     0.124 S 
ATOM     80  O   UNL A   1      34.904  34.897  32.380  1.00  0.00    -0.237 OA
ATOM     81  O   UNL A   1      33.798  32.687  32.264  1.00  0.00    -0.237 OA
ATOM     82  O   UNL A   1      35.095  33.314  34.265  1.00  0.00    -0.744 OA
ENDBRANCH  78  79
ENDBRANCH  46  71
BRANCH  58  83
ATOM     83  C   UNL A   1      45.117  34.316  30.354  1.00  0.00     0.058 A 
ATOM     84  C   UNL A   1      45.101  35.472  29.559  1.00  0.00     0.135 A 
ATOM     85  C   UNL A   1      45.697  34.410  31.631  1.00  0.00     0.135 A 
ATOM     86  F   UNL A   1      44.567  35.440  28.328  1.00  0.00    -0.206 F 
ATOM     87  C   UNL A   1      45.665  36.666  29.998  1.00  0.00     0.059 A 
ATOM     88  C   UNL A   1      46.232  35.603  32.106  1.00  0.00     0.059 A 
ATOM     89  F   UNL A   1      45.731  33.339  32.440  1.00  0.00    -0.206 F 
ATOM     90  C   UNL A   1      46.223  36.724  31.277  1.00  0.00     0.060 A 
BRANCH  90  91
ATOM     91  S   UNL A   1      46.915  38.291  31.846  1.00  0.00     0.124 S 
ATOM     92  O   UNL A   1      47.835  37.846  32.887  1.00  0.00    -0.237 OA
ATOM     93  O   UNL A   1      47.535  38.814  30.633  1.00  0.00    -0.237 OA
ATOM     94  O   UNL A   1      45.746  39.029  32.316  1.00  0.00    -0.744 OA
ENDBRANCH  90  91
ENDBRANCH  58  83
ENDBRANCH  32  33
ENDBRANCH  25  27
ENDBRANCH  24  25
ENDBRANCH  23  24
ENDBRANCH  22  23
ENDBRANCH   1  22
TORSDOF 20
ENDMDL
MODEL 2
REMARK VINA RESULT:      -8.5      5.195     10.477
REMARK SMILES N#Cc1ccnc(Oc2cccc(C(=O)OCCOCCOC(=O)c3ccc(-c4c5nc(c(-c6c(F)cc(S(=O)(=O)[O-])cc6F)c6ccc([nH]6)c(-c6c(F)cc(S(=O)(=O)[O-])cc6F)c6nc(c(-c7c(F)cc(S(=O)(=O)[O-])cc7F)c7ccc4[nH]7)C=C6)C=C5)cc3)c2)c1
REMARK SMILES IDX 19 1 18 2 17 3 16 4 14 5 15 6 13 7 9 8 10 9 91 10 11 11
REMARK SMILES IDX 12 12 8 13 7 14 3 15 4 16 92 17 5 18 6 19 2 20 1 21 20 22
REMARK SMILES IDX 21 23 22 24 23 25 24 26 25 27 26 28 90 29 27 30 89 31 28 32
REMARK SMILES IDX 29 33 30 34 83 35 31 36 88 37 82 38 84 39 32 40 87 41 81 42
REMARK SMILES IDX 80 43 33 45 67 46 46 47 66 48 47 49 50 50 65 51 85 52 48 53
REMARK SMILES IDX 49 54 64 56 86 57 51 58 34 59 35 60 44 61 36 62 37 63 43 64
REMARK SMILES IDX 45 65 38 66 39 67 40 68 41 69 42 70 68 71 69 72 78 73 70 74
REMARK SMILES IDX 71 75 77 76 79 77 72 78 73 79 74 80 75 81 76 82 52 83 53 84
REMARK SMILES IDX 62 85 54 86 55 87 61 88 63 89 56 90 57 91 58 92 59 93 60 94
REMARK H PARENT 84 44 50 55
REMARK Flexibility Score: inf
ROOT
ATOM      1  O   UNL A   1      44.716  22.563  24.971  1.00  0.00    -0.374 OA
ENDROOT
BRANCH   1   2
ATOM      2  C   UNL A   1      44.120  21.899  26.082  1.00  0.00     0.202 C 
BRANCH   2   3
ATOM      3  C   UNL A   1      42.759  21.219  25.902  1.00  0.00     0.261 C 
BRANCH   3   4
ATOM      4  O   UNL A   1      41.683  22.037  26.376  1.00  0.00    -0.460 OA
BRANCH   4   5
ATOM      5  C   UNL A   1      40.566  21.352  26.719  1.00  0.00     0.338 C 
ATOM      6  O   UNL A   1      40.507  20.317  27.363  1.00  0.00    -0.246 OA
BRANCH   5   7
ATOM      7  C   UNL A   1      39.363  22.127  26.342  1.00  0.00     0.063 A 
ATOM      8  C   UNL A   1      37.135  22.292  25.449  1.00  0.00     0.130 A 
ATOM      9  C   UNL A   1      37.065  23.627  25.856  1.00  0.00     0.047 A 
ATOM     10  C   UNL A   1      38.322  21.571  25.595  1.00  0.00     0.062 A 
ATOM     11  C   UNL A   1      38.149  24.217  26.502  1.00  0.00     0.005 A 
ATOM     12  C   UNL A   1      39.284  23.457  26.777  1.00  0.00     0.016 A 
BRANCH   8  13
ATOM     13  O   UNL A   1      35.994  21.747  24.911  1.00  0.00    -0.439 OA
BRANCH  13  14
ATOM     14  C   UNL A   1      34.862  22.531  24.781  1.00  0.00     0.220 A 
ATOM     15  C   UNL A   1      32.736  23.411  25.457  1.00  0.00     0.059 A 
ATOM     16  C   UNL A   1      32.624  24.041  24.226  1.00  0.00     0.040 A 
ATOM     17  C   UNL A   1      33.887  22.687  25.759  1.00  0.00     0.088 A 
ATOM     18  C   UNL A   1      33.675  23.903  23.341  1.00  0.00     0.116 A 
ATOM     19  N   UNL A   1      34.778  23.159  23.588  1.00  0.00    -0.222 NA
BRANCH  15  20
ATOM     20  C   UNL A   1      31.677  23.467  26.422  1.00  0.00     0.099 C 
ATOM     21  N   UNL A   1      30.824  23.571  27.197  1.00  0.00    -0.192 NA
ENDBRANCH  15  20
ENDBRANCH  13  14
ENDBRANCH   8  13
ENDBRANCH   5   7
ENDBRANCH   4   5
ENDBRANCH   3   4
ENDBRANCH   2   3
ENDBRANCH   1   2
BRANCH   1  22
ATOM     22  C   UNL A   1      44.345  23.911  24.696  1.00  0.00     0.202 C 
BRANCH  22  23
ATOM     23  C   UNL A   1      44.056  24.880  25.853  1.00  0.00     0.261 C 
BRANCH  23  24
ATOM     24  O   UNL A   1      43.562  26.161  25.438  1.00  0.00    -0.460 OA
BRANCH  24  25
ATOM     25  C   UNL A   1      42.255  26.374  25.737  1.00  0.00     0.338 C 
ATOM     26  O   UNL A   1      41.284  26.007  25.097  1.00  0.00    -0.246 OA
BRANCH  25  27
ATOM     27  C   UNL A   1      42.143  26.966  27.081  1.00  0.00     0.060 A 
ATOM     28  C   UNL A   1      41.226  26.400  27.977  1.00  0.00     0.016 A 
ATOM     29  C   UNL A   1      42.872  28.103  27.430  1.00  0.00     0.016 A 
ATOM     30  C   UNL A   1      41.010  26.989  29.220  1.00  0.00     0.010 A 
ATOM     31  C   UNL A   1      42.644  28.699  28.673  1.00  0.00     0.010 A 
ATOM     32  C   UNL A   1      41.695  28.162  29.563  1.00  0.00    -0.014 A 
BRANCH  32  33
ATOM     33  C   UNL A   1      41.351  28.890  30.807  1.00  0.00     0.031 A 
ATOM     34  C   UNL A   1      40.207  29.868  30.794  1.00  0.00     0.074 A 
ATOM     35  C   UNL A   1      42.056  28.684  31.935  1.00  0.00     0.049 A 
ATOM     36  N   UNL A   1      39.810  30.689  31.729  1.00  0.00    -0.248 NA
ATOM     37  C   UNL A   1      39.409  29.930  29.558  1.00  0.00     0.031 C 
ATOM     38  C   UNL A   1      43.153  27.727  32.081  1.00  0.00     0.029 A 
ATOM     39  N   UNL A   1      41.964  29.280  33.168  1.00  0.00    -0.354 N 
ATOM     40  C   UNL A   1      38.723  31.374  31.196  1.00  0.00     0.074 A 
ATOM     41  C   UNL A   1      38.544  30.894  29.843  1.00  0.00     0.031 C 
ATOM     42  C   UNL A   1      43.643  27.812  33.329  1.00  0.00     0.029 A 
ATOM     43  C   UNL A   1      42.929  28.862  34.053  1.00  0.00     0.049 A 
ATOM     44  H   UNL A   1      41.272  29.942  33.396  1.00  0.00     0.167 HD
ATOM     45  C   UNL A   1      37.942  32.309  31.787  1.00  0.00     0.037 A 
ATOM     46  C   UNL A   1      43.226  29.303  35.292  1.00  0.00     0.037 A 
ATOM     47  C   UNL A   1      38.132  32.779  33.136  1.00  0.00     0.049 A 
ATOM     48  C   UNL A   1      42.401  30.416  35.891  1.00  0.00     0.074 A 
ATOM     49  C   UNL A   1      37.389  33.718  33.831  1.00  0.00     0.029 A 
ATOM     50  N   UNL A   1      39.139  32.356  33.992  1.00  0.00    -0.354 N 
ATOM     51  N   UNL A   1      41.366  31.043  35.384  1.00  0.00    -0.248 NA
ATOM     52  C   UNL A   1      42.787  30.880  37.231  1.00  0.00     0.031 C 
ATOM     53  C   UNL A   1      37.984  33.909  35.081  1.00  0.00     0.029 A 
ATOM     54  C   UNL A   1      39.056  33.038  35.196  1.00  0.00     0.049 A 
ATOM     55  H   UNL A   1      39.812  31.671  33.777  1.00  0.00     0.167 HD
ATOM     56  C   UNL A   1      40.956  31.949  36.358  1.00  0.00     0.074 A 
ATOM     57  C   UNL A   1      41.844  31.775  37.488  1.00  0.00     0.031 C 
ATOM     58  C   UNL A   1      39.939  32.847  36.320  1.00  0.00     0.037 A 
BRANCH  45  59
ATOM     59  C   UNL A   1      36.820  32.906  30.981  1.00  0.00     0.058 A 
ATOM     60  C   UNL A   1      35.480  32.541  31.191  1.00  0.00     0.135 A 
ATOM     61  C   UNL A   1      37.080  33.908  30.031  1.00  0.00     0.135 A 
ATOM     62  F   UNL A   1      35.173  31.576  32.074  1.00  0.00    -0.206 F 
ATOM     63  C   UNL A   1      34.442  33.136  30.481  1.00  0.00     0.059 A 
ATOM     64  C   UNL A   1      36.056  34.539  29.332  1.00  0.00     0.059 A 
ATOM     65  F   UNL A   1      38.342  34.295  29.785  1.00  0.00    -0.206 F 
ATOM     66  C   UNL A   1      34.740  34.141  29.559  1.00  0.00     0.060 A 
BRANCH  66  67
ATOM     67  S   UNL A   1      33.377  34.924  28.671  1.00  0.00     0.124 S 
ATOM     68  O   UNL A   1      34.078  35.949  27.905  1.00  0.00    -0.237 OA
ATOM     69  O   UNL A   1      32.835  33.813  27.895  1.00  0.00    -0.237 OA
ATOM     70  O   UNL A   1      32.514  35.421  29.738  1.00  0.00    -0.744 OA
ENDBRANCH  66  67
ENDBRANCH  45  59
BRANCH  46  71
ATOM     71  C   UNL A   1      44.371  28.720  36.045  1.00  0.00     0.058 A 
ATOM     72  C   UNL A   1      45.671  29.224  35.890  1.00  0.00     0.135 A 
ATOM     73  C   UNL A   1      44.195  27.627  36.910  1.00  0.00     0.135 A 
ATOM     74  F   UNL A   1      45.895  30.261  35.068  1.00  0.00    -0.206 F 
ATOM     75  C   UNL A   1      46.759  28.647  36.536  1.00  0.00     0.059 A 
ATOM     76  C   UNL A   1      45.262  27.056  37.595  1.00  0.00     0.059 A 
ATOM     77  F   UNL A   1      42.971  27.112  37.106  1.00  0.00    -0.206 F 
ATOM     78  C   UNL A   1      46.544  27.562  37.388  1.00  0.00     0.060 A 
BRANCH  78  79
ATOM     79  S   UNL A   1      47.962  26.830  38.232  1.00  0.00     0.124 S 
ATOM     80  O   UNL A   1      47.952  27.552  39.499  1.00  0.00    -0.237 OA
ATOM     81  O   UNL A   1      47.582  25.422  38.296  1.00  0.00    -0.237 OA
ATOM     82  O   UNL A   1      49.076  27.135  37.341  1.00  0.00    -0.744 OA
ENDBRANCH  78  79
ENDBRANCH  46  71
BRANCH  58  83
ATOM     83  C   UNL A   1      39.700  33.683  37.551  1.00  0.00     0.058 A 
ATOM     84  C   UNL A   1      38.866  33.249  38.593  1.00  0.00     0.135 A 
ATOM     85  C   UNL A   1      40.357  34.916  37.710  1.00  0.00     0.135 A 
ATOM     86  F   UNL A   1      38.208  32.084  38.492  1.00  0.00    -0.206 F 
ATOM     87  C   UNL A   1      38.668  34.019  39.736  1.00  0.00     0.059 A 
ATOM     88  C   UNL A   1      40.204  35.683  38.860  1.00  0.00     0.059 A 
ATOM     89  F   UNL A   1      41.175  35.376  36.750  1.00  0.00    -0.206 F 
ATOM     90  C   UNL A   1      39.347  35.232  39.863  1.00  0.00     0.060 A 
BRANCH  90  91
ATOM     91  S   UNL A   1      39.109  36.200  41.368  1.00  0.00     0.124 S 
ATOM     92  O   UNL A   1      39.094  37.562  40.844  1.00  0.00    -0.237 OA
ATOM     93  O   UNL A   1      37.831  35.696  41.860  1.00  0.00    -0.237 OA
ATOM     94  O   UNL A   1      40.270  35.854  42.183  1.00  0.00    -0.744 OA
ENDBRANCH  90  91
ENDBRANCH  58  83
ENDBRANCH  32  33
ENDBRANCH  25  27
ENDBRANCH  24  25
ENDBRANCH  23  24
ENDBRANCH  22  23
ENDBRANCH   1  22
TORSDOF 20
ENDMDL
MODEL 3
REMARK VINA RESULT:      -8.3      4.062      7.089
REMARK SMILES N#Cc1ccnc(Oc2cccc(C(=O)OCCOCCOC(=O)c3ccc(-c4c5nc(c(-c6c(F)cc(S(=O)(=O)[O-])cc6F)c6ccc([nH]6)c(-c6c(F)cc(S(=O)(=O)[O-])cc6F)c6nc(c(-c7c(F)cc(S(=O)(=O)[O-])cc7F)c7ccc4[nH]7)C=C6)C=C5)cc3)c2)c1
REMARK SMILES IDX 19 1 18 2 17 3 16 4 14 5 15 6 13 7 9 8 10 9 91 10 11 11
REMARK SMILES IDX 12 12 8 13 7 14 3 15 4 16 92 17 5 18 6 19 2 20 1 21 20 22
REMARK SMILES IDX 21 23 22 24 23 25 24 26 25 27 26 28 90 29 27 30 89 31 28 32
REMARK SMILES IDX 29 33 30 34 83 35 31 36 88 37 82 38 84 39 32 40 87 41 81 42
REMARK SMILES IDX 80 43 33 45 67 46 46 47 66 48 47 49 50 50 65 51 85 52 48 53
REMARK SMILES IDX 49 54 64 56 86 57 51 58 34 59 35 60 44 61 36 62 37 63 43 64
REMARK SMILES IDX 45 65 38 66 39 67 40 68 41 69 42 70 68 71 69 72 78 73 70 74
REMARK SMILES IDX 71 75 77 76 79 77 72 78 73 79 74 80 75 81 76 82 52 83 53 84
REMARK SMILES IDX 62 85 54 86 55 87 61 88 63 89 56 90 57 91 58 92 59 93 60 94
REMARK H PARENT 84 44 50 55
REMARK Flexibility Score: inf
ROOT
ATOM      1  O   UNL A   1      38.416  21.864  25.997  1.00  0.00    -0.374 OA
ENDROOT
BRANCH   1   2
ATOM      2  C   UNL A   1      37.573  21.402  24.945  1.00  0.00     0.202 C 
BRANCH   2   3
ATOM      3  C   UNL A   1      36.960  22.421  23.979  1.00  0.00     0.261 C 
BRANCH   3   4
ATOM      4  O   UNL A   1      36.561  23.622  24.649  1.00  0.00    -0.460 OA
BRANCH   4   5
ATOM      5  C   UNL A   1      35.610  23.445  25.599  1.00  0.00     0.338 C 
ATOM      6  O   UNL A   1      35.699  23.710  26.787  1.00  0.00    -0.246 OA
BRANCH   5   7
ATOM      7  C   UNL A   1      34.339  23.026  24.968  1.00  0.00     0.063 A 
ATOM      8  C   UNL A   1      32.575  21.433  24.598  1.00  0.00     0.130 A 
ATOM      9  C   UNL A   1      31.841  22.398  23.903  1.00  0.00     0.047 A 
ATOM     10  C   UNL A   1      33.870  21.713  25.039  1.00  0.00     0.062 A 
ATOM     11  C   UNL A   1      32.360  23.680  23.734  1.00  0.00     0.005 A 
ATOM     12  C   UNL A   1      33.592  24.004  24.297  1.00  0.00     0.016 A 
BRANCH   8  13
ATOM     13  O   UNL A   1      31.959  20.223  24.814  1.00  0.00    -0.439 OA
BRANCH  13  14
ATOM     14  C   UNL A   1      32.484  19.080  24.240  1.00  0.00     0.220 A 
ATOM     15  C   UNL A   1      33.827  17.094  24.182  1.00  0.00     0.059 A 
ATOM     16  C   UNL A   1      33.533  16.954  22.834  1.00  0.00     0.040 A 
ATOM     17  C   UNL A   1      33.260  18.140  24.907  1.00  0.00     0.088 A 
ATOM     18  C   UNL A   1      32.687  17.886  22.265  1.00  0.00     0.116 A 
ATOM     19  N   UNL A   1      32.169  18.942  22.934  1.00  0.00    -0.222 NA
BRANCH  15  20
ATOM     20  C   UNL A   1      34.727  16.197  24.846  1.00  0.00     0.099 C 
ATOM     21  N   UNL A   1      35.408  15.434  25.387  1.00  0.00    -0.192 NA
ENDBRANCH  15  20
ENDBRANCH  13  14
ENDBRANCH   8  13
ENDBRANCH   5   7
ENDBRANCH   4   5
ENDBRANCH   3   4
ENDBRANCH   2   3
ENDBRANCH   1   2
BRANCH   1  22
ATOM     22  C   UNL A   1      39.764  21.404  26.050  1.00  0.00     0.202 C 
BRANCH  22  23
ATOM     23  C   UNL A   1      40.057  19.901  26.173  1.00  0.00     0.261 C 
BRANCH  23  24
ATOM     24  O   UNL A   1      41.234  19.472  25.473  1.00  0.00    -0.460 OA
BRANCH  24  25
ATOM     25  C   UNL A   1      42.335  19.358  26.260  1.00  0.00     0.338 C 
ATOM     26  O   UNL A   1      42.859  18.328  26.649  1.00  0.00    -0.246 OA
BRANCH  25  27
ATOM     27  C   UNL A   1      42.953  20.683  26.442  1.00  0.00     0.060 A 
ATOM     28  C   UNL A   1      42.937  21.247  27.725  1.00  0.00     0.016 A 
ATOM     29  C   UNL A   1      43.472  21.391  25.358  1.00  0.00     0.016 A 
ATOM     30  C   UNL A   1      43.414  22.539  27.924  1.00  0.00     0.010 A 
ATOM     31  C   UNL A   1      43.939  22.692  25.559  1.00  0.00     0.010 A 
ATOM     32  C   UNL A   1      43.889  23.283  26.836  1.00  0.00    -0.014 A 
BRANCH  32  33
ATOM     33  C   UNL A   1      44.240  24.713  27.005  1.00  0.00     0.031 A 
ATOM     34  C   UNL A   1      45.672  25.143  26.836  1.00  0.00     0.074 A 
ATOM     35  C   UNL A   1      43.289  25.617  27.310  1.00  0.00     0.049 A 
ATOM     36  N   UNL A   1      46.215  26.312  27.049  1.00  0.00    -0.248 NA
ATOM     37  C   UNL A   1      46.617  24.114  26.372  1.00  0.00     0.031 C 
ATOM     38  C   UNL A   1      41.863  25.325  27.450  1.00  0.00     0.029 A 
ATOM     39  N   UNL A   1      43.386  26.960  27.573  1.00  0.00    -0.354 N 
ATOM     40  C   UNL A   1      47.566  26.162  26.754  1.00  0.00     0.074 A 
ATOM     41  C   UNL A   1      47.765  24.779  26.380  1.00  0.00     0.031 C 
ATOM     42  C   UNL A   1      41.219  26.455  27.790  1.00  0.00     0.029 A 
ATOM     43  C   UNL A   1      42.192  27.535  27.939  1.00  0.00     0.049 A 
ATOM     44  H   UNL A   1      44.229  27.463  27.505  1.00  0.00     0.167 HD
ATOM     45  C   UNL A   1      48.545  27.097  26.785  1.00  0.00     0.037 A 
ATOM     46  C   UNL A   1      41.922  28.780  28.380  1.00  0.00     0.037 A 
ATOM     47  C   UNL A   1      48.333  28.472  27.161  1.00  0.00     0.049 A 
ATOM     48  C   UNL A   1      43.050  29.775  28.499  1.00  0.00     0.074 A 
ATOM     49  C   UNL A   1      49.259  29.500  27.215  1.00  0.00     0.029 A 
ATOM     50  N   UNL A   1      47.117  29.011  27.555  1.00  0.00    -0.354 N 
ATOM     51  N   UNL A   1      44.319  29.627  28.201  1.00  0.00    -0.248 NA
ATOM     52  C   UNL A   1      42.707  31.108  29.015  1.00  0.00     0.031 C 
ATOM     53  C   UNL A   1      48.617  30.641  27.703  1.00  0.00     0.029 A 
ATOM     54  C   UNL A   1      47.275  30.347  27.884  1.00  0.00     0.049 A 
ATOM     55  H   UNL A   1      46.266  28.516  27.593  1.00  0.00     0.167 HD
ATOM     56  C   UNL A   1      44.918  30.858  28.459  1.00  0.00     0.074 A 
ATOM     57  C   UNL A   1      43.868  31.741  28.920  1.00  0.00     0.031 C 
ATOM     58  C   UNL A   1      46.218  31.222  28.330  1.00  0.00     0.037 A 
BRANCH  45  59
ATOM     59  C   UNL A   1      49.942  26.670  26.421  1.00  0.00     0.058 A 
ATOM     60  C   UNL A   1      50.882  26.299  27.397  1.00  0.00     0.135 A 
ATOM     61  C   UNL A   1      50.327  26.564  25.074  1.00  0.00     0.135 A 
ATOM     62  F   UNL A   1      50.576  26.396  28.702  1.00  0.00    -0.206 F 
ATOM     63  C   UNL A   1      52.154  25.854  27.053  1.00  0.00     0.059 A 
ATOM     64  C   UNL A   1      51.582  26.091  24.705  1.00  0.00     0.059 A 
ATOM     65  F   UNL A   1      49.472  26.908  24.098  1.00  0.00    -0.206 F 
ATOM     66  C   UNL A   1      52.492  25.745  25.702  1.00  0.00     0.060 A 
BRANCH  66  67
ATOM     67  S   UNL A   1      54.136  25.133  25.275  1.00  0.00     0.124 S 
ATOM     68  O   UNL A   1      54.846  25.293  26.540  1.00  0.00    -0.237 OA
ATOM     69  O   UNL A   1      53.858  23.757  24.874  1.00  0.00    -0.237 OA
ATOM     70  O   UNL A   1      54.563  26.022  24.201  1.00  0.00    -0.744 OA
ENDBRANCH  66  67
ENDBRANCH  45  59
BRANCH  46  71
ATOM     71  C   UNL A   1      40.536  29.157  28.773  1.00  0.00     0.058 A 
ATOM     72  C   UNL A   1      39.564  29.451  27.805  1.00  0.00     0.135 A 
ATOM     73  C   UNL A   1      40.164  29.263  30.123  1.00  0.00     0.135 A 
ATOM     74  F   UNL A   1      39.872  29.375  26.501  1.00  0.00    -0.206 F 
ATOM     75  C   UNL A   1      38.286  29.869  28.159  1.00  0.00     0.059 A 
ATOM     76  C   UNL A   1      38.881  29.643  30.502  1.00  0.00     0.059 A 
ATOM     77  F   UNL A   1      41.050  28.981  31.092  1.00  0.00    -0.206 F 
ATOM     78  C   UNL A   1      37.953  29.961  29.511  1.00  0.00     0.060 A 
BRANCH  78  79
ATOM     79  S   UNL A   1      36.286  30.491  29.959  1.00  0.00     0.124 S 
ATOM     80  O   UNL A   1      35.939  29.522  30.991  1.00  0.00    -0.237 OA
ATOM     81  O   UNL A   1      36.516  31.858  30.416  1.00  0.00    -0.237 OA
ATOM     82  O   UNL A   1      35.549  30.369  28.705  1.00  0.00    -0.744 OA
ENDBRANCH  78  79
ENDBRANCH  46  71
BRANCH  58  83
ATOM     83  C   UNL A   1      46.577  32.651  28.650  1.00  0.00     0.058 A 
ATOM     84  C   UNL A   1      46.444  33.679  27.704  1.00  0.00     0.135 A 
ATOM     85  C   UNL A   1      47.013  33.002  29.940  1.00  0.00     0.135 A 
ATOM     86  F   UNL A   1      46.039  33.401  26.455  1.00  0.00    -0.206 F 
ATOM     87  C   UNL A   1      46.758  34.999  28.015  1.00  0.00     0.059 A 
ATOM     88  C   UNL A   1      47.295  34.320  30.283  1.00  0.00     0.059 A 
ATOM     89  F   UNL A   1      47.149  32.061  30.888  1.00  0.00    -0.206 F 
ATOM     90  C   UNL A   1      47.177  35.310  29.310  1.00  0.00     0.060 A 
BRANCH  90  91
ATOM     91  S   UNL A   1      47.543  37.033  29.707  1.00  0.00     0.124 S 
ATOM     92  O   UNL A   1      47.811  36.955  31.139  1.00  0.00    -0.237 OA
ATOM     93  O   UNL A   1      48.698  37.307  28.859  1.00  0.00    -0.237 OA
ATOM     94  O   UNL A   1      46.318  37.736  29.336  1.00  0.00    -0.744 OA
ENDBRANCH  90  91
ENDBRANCH  58  83
ENDBRANCH  32  33
ENDBRANCH  25  27
ENDBRANCH  24  25
ENDBRANCH  23  24
ENDBRANCH  22  23
ENDBRANCH   1  22
TORSDOF 20
ENDMDL
