MODEL 1
REMARK VINA RESULT:     -11.5      0.000      0.000
REMARK SMILES O=C(Cc1ccn[nH]1)Nc1sc2c(c1C(=O)OCCOCCOC(=O)c1ccc(-c3c4nc(c(-c5c(F)cc(S(=O)(=O)[O-])cc5F)c5ccc([nH]5)c(-c5c(F)cc(S(=O)(=O)[O-])cc5F)c5nc(c(-c6c(F)cc(S(=O)(=O)[O-])cc6F)c6ccc3[nH]6)C=C5)C=C4)cc1)CCC2
REMARK SMILES IDX 20 1 19 2 18 3 17 4 15 5 16 6 14 7 10 8 11 9 12 10 13 11
REMARK SMILES IDX 94 12 92 13 93 14 9 15 1 16 2 17 3 19 4 20 5 21 8 22 6 23
REMARK SMILES IDX 7 24 21 26 22 27 23 28 24 29 25 30 26 31 27 32 91 33 28 34
REMARK SMILES IDX 90 35 29 36 30 37 31 38 84 39 32 40 89 41 83 42 85 43 33 44
REMARK SMILES IDX 88 45 82 46 81 47 34 49 68 50 47 51 67 52 48 53 51 54 66 55
REMARK SMILES IDX 86 56 49 57 50 58 65 60 87 61 52 62 35 63 36 64 45 65 37 66
REMARK SMILES IDX 38 67 44 68 46 69 39 70 40 71 41 72 42 73 43 74 69 75 70 76
REMARK SMILES IDX 79 77 71 78 72 79 78 80 80 81 73 82 74 83 75 84 76 85 77 86
REMARK SMILES IDX 53 87 54 88 63 89 55 90 56 91 62 92 64 93 57 94 58 95 59 96
REMARK SMILES IDX 60 97 61 98
REMARK H PARENT 9 18 8 25 85 48 51 59
REMARK Flexibility Score: inf
ROOT
ATOM      1  O   UNL A   1      35.416  21.039  25.864  1.00  0.00    -0.374 OA
ENDROOT
BRANCH   1   2
ATOM      2  C   UNL A   1      35.052  22.356  26.269  1.00  0.00     0.202 C 
BRANCH   2   3
ATOM      3  C   UNL A   1      33.738  22.569  27.028  1.00  0.00     0.261 C 
BRANCH   3   4
ATOM      4  O   UNL A   1      32.595  22.745  26.170  1.00  0.00    -0.460 OA
BRANCH   4   5
ATOM      5  C   UNL A   1      31.882  23.892  26.382  1.00  0.00     0.341 C 
ATOM      6  O   UNL A   1      31.445  24.238  27.476  1.00  0.00    -0.246 OA
BRANCH   5   7
ATOM      7  C   UNL A   1      31.738  24.720  25.188  1.00  0.00     0.098 A 
ATOM      8  C   UNL A   1      31.665  24.197  23.899  1.00  0.00     0.110 A 
ATOM      9  S   UNL A   1      31.900  25.357  22.666  1.00  0.00    -0.122 S 
ATOM     10  C   UNL A   1      31.819  26.577  23.806  1.00  0.00     0.011 A 
ATOM     11  C   UNL A   1      31.693  26.139  25.098  1.00  0.00    -0.017 A 
ATOM     12  C   UNL A   1      31.922  28.045  23.666  1.00  0.00     0.047 C 
ATOM     13  C   UNL A   1      31.654  27.286  26.044  1.00  0.00     0.038 C 
ATOM     14  C   UNL A   1      31.480  28.510  25.085  1.00  0.00     0.010 C 
BRANCH   8  15
ATOM     15  N   UNL A   1      31.433  22.916  23.436  1.00  0.00    -0.317 N 
ATOM     16  O   UNL A   1      33.686  22.503  23.107  1.00  0.00    -0.274 OA
ATOM     17  C   UNL A   1      32.507  22.197  22.938  1.00  0.00     0.230 C 
ATOM     18  H   UNL A   1      30.529  22.526  23.459  1.00  0.00     0.170 HD
BRANCH  17  19
ATOM     19  C   UNL A   1      32.131  20.903  22.234  1.00  0.00     0.155 C 
BRANCH  19  20
ATOM     20  C   UNL A   1      32.262  19.779  23.195  1.00  0.00     0.044 A 
ATOM     21  C   UNL A   1      32.305  18.414  23.002  1.00  0.00     0.045 A 
ATOM     22  N   UNL A   1      32.398  19.966  24.540  1.00  0.00    -0.282 N 
ATOM     23  C   UNL A   1      32.558  17.884  24.277  1.00  0.00     0.135 A 
ATOM     24  N   UNL A   1      32.618  18.830  25.218  1.00  0.00    -0.184 NA
ATOM     25  H   UNL A   1      32.339  20.850  24.972  1.00  0.00     0.190 HD
ENDBRANCH  19  20
ENDBRANCH  17  19
ENDBRANCH   8  15
ENDBRANCH   5   7
ENDBRANCH   4   5
ENDBRANCH   3   4
ENDBRANCH   2   3
ENDBRANCH   1   2
BRANCH   1  26
ATOM     26  C   UNL A   1      36.305  20.866  24.771  1.00  0.00     0.202 C 
BRANCH  26  27
ATOM     27  C   UNL A   1      37.802  21.111  24.919  1.00  0.00     0.261 C 
BRANCH  27  28
ATOM     28  O   UNL A   1      38.132  22.320  25.580  1.00  0.00    -0.460 OA
BRANCH  28  29
ATOM     29  C   UNL A   1      39.360  22.288  26.134  1.00  0.00     0.338 C 
ATOM     30  O   UNL A   1      40.218  21.416  25.980  1.00  0.00    -0.246 OA
BRANCH  29  31
ATOM     31  C   UNL A   1      39.467  23.368  27.109  1.00  0.00     0.060 A 
ATOM     32  C   UNL A   1      38.606  24.453  26.975  1.00  0.00     0.016 A 
ATOM     33  C   UNL A   1      40.576  23.423  27.961  1.00  0.00     0.016 A 
ATOM     34  C   UNL A   1      39.037  25.680  27.448  1.00  0.00     0.010 A 
ATOM     35  C   UNL A   1      40.955  24.634  28.490  1.00  0.00     0.010 A 
ATOM     36  C   UNL A   1      40.288  25.788  28.090  1.00  0.00    -0.014 A 
BRANCH  36  37
ATOM     37  C   UNL A   1      40.713  27.052  28.698  1.00  0.00     0.031 A 
ATOM     38  C   UNL A   1      41.955  27.463  27.977  1.00  0.00     0.074 A 
ATOM     39  C   UNL A   1      40.062  27.749  29.675  1.00  0.00     0.049 A 
ATOM     40  N   UNL A   1      43.156  27.244  28.402  1.00  0.00    -0.248 NA
ATOM     41  C   UNL A   1      41.920  27.761  26.526  1.00  0.00     0.031 C 
ATOM     42  C   UNL A   1      38.790  27.457  30.355  1.00  0.00     0.029 A 
ATOM     43  N   UNL A   1      40.410  28.948  30.277  1.00  0.00    -0.354 N 
ATOM     44  C   UNL A   1      43.988  27.779  27.430  1.00  0.00     0.074 A 
ATOM     45  C   UNL A   1      43.221  27.779  26.221  1.00  0.00     0.031 C 
ATOM     46  C   UNL A   1      38.348  28.554  31.030  1.00  0.00     0.029 A 
ATOM     47  C   UNL A   1      39.346  29.605  30.960  1.00  0.00     0.049 A 
ATOM     48  H   UNL A   1      41.322  29.316  30.236  1.00  0.00     0.167 HD
ATOM     49  C   UNL A   1      45.041  28.541  27.829  1.00  0.00     0.037 A 
ATOM     50  C   UNL A   1      39.342  30.890  31.470  1.00  0.00     0.037 A 
ATOM     51  C   UNL A   1      45.327  28.270  29.222  1.00  0.00     0.049 A 
ATOM     52  C   UNL A   1      40.775  31.267  31.649  1.00  0.00     0.074 A 
ATOM     53  C   UNL A   1      45.616  27.131  29.951  1.00  0.00     0.029 A 
ATOM     54  N   UNL A   1      44.841  29.192  30.116  1.00  0.00    -0.354 N 
ATOM     55  N   UNL A   1      41.543  30.671  32.523  1.00  0.00    -0.248 NA
ATOM     56  C   UNL A   1      41.433  31.789  30.458  1.00  0.00     0.031 C 
ATOM     57  C   UNL A   1      44.868  27.264  31.156  1.00  0.00     0.029 A 
ATOM     58  C   UNL A   1      44.302  28.537  31.190  1.00  0.00     0.049 A 
ATOM     59  H   UNL A   1      44.876  30.168  30.003  1.00  0.00     0.167 HD
ATOM     60  C   UNL A   1      42.644  30.284  31.778  1.00  0.00     0.074 A 
ATOM     61  C   UNL A   1      42.508  30.996  30.498  1.00  0.00     0.031 C 
ATOM     62  C   UNL A   1      43.374  29.172  32.095  1.00  0.00     0.037 A 
BRANCH  49  63
ATOM     63  C   UNL A   1      45.432  29.853  27.179  1.00  0.00     0.058 A 
ATOM     64  C   UNL A   1      46.806  30.109  26.984  1.00  0.00     0.135 A 
ATOM     65  C   UNL A   1      44.583  30.972  27.011  1.00  0.00     0.135 A 
ATOM     66  F   UNL A   1      47.711  29.127  27.134  1.00  0.00    -0.206 F 
ATOM     67  C   UNL A   1      47.302  31.380  26.705  1.00  0.00     0.059 A 
ATOM     68  C   UNL A   1      45.052  32.240  26.685  1.00  0.00     0.059 A 
ATOM     69  F   UNL A   1      43.264  30.920  27.223  1.00  0.00    -0.206 F 
ATOM     70  C   UNL A   1      46.415  32.439  26.551  1.00  0.00     0.060 A 
BRANCH  70  71
ATOM     71  S   UNL A   1      47.063  34.066  26.142  1.00  0.00     0.124 S 
ATOM     72  O   UNL A   1      46.885  34.783  27.399  1.00  0.00    -0.237 OA
ATOM     73  O   UNL A   1      48.439  33.748  25.775  1.00  0.00    -0.237 OA
ATOM     74  O   UNL A   1      46.211  34.500  25.038  1.00  0.00    -0.744 OA
ENDBRANCH  70  71
ENDBRANCH  49  63
BRANCH  50  75
ATOM     75  C   UNL A   1      38.270  31.959  31.413  1.00  0.00     0.058 A 
ATOM     76  C   UNL A   1      37.260  32.022  30.413  1.00  0.00     0.135 A 
ATOM     77  C   UNL A   1      38.027  32.762  32.539  1.00  0.00     0.135 A 
ATOM     78  F   UNL A   1      37.383  31.310  29.279  1.00  0.00    -0.206 F 
ATOM     79  C   UNL A   1      36.062  32.760  30.570  1.00  0.00     0.059 A 
ATOM     80  C   UNL A   1      36.849  33.493  32.718  1.00  0.00     0.059 A 
ATOM     81  F   UNL A   1      38.893  32.787  33.558  1.00  0.00    -0.206 F 
ATOM     82  C   UNL A   1      35.850  33.463  31.753  1.00  0.00     0.060 A 
BRANCH  82  83
ATOM     83  S   UNL A   1      34.237  34.219  32.126  1.00  0.00     0.124 S 
ATOM     84  O   UNL A   1      33.652  34.381  30.800  1.00  0.00    -0.237 OA
ATOM     85  O   UNL A   1      33.610  33.220  32.983  1.00  0.00    -0.237 OA
ATOM     86  O   UNL A   1      34.599  35.466  32.800  1.00  0.00    -0.744 OA
ENDBRANCH  82  83
ENDBRANCH  50  75
BRANCH  62  87
ATOM     87  C   UNL A   1      43.163  28.490  33.420  1.00  0.00     0.058 A 
ATOM     88  C   UNL A   1      42.079  27.662  33.767  1.00  0.00     0.135 A 
ATOM     89  C   UNL A   1      44.234  28.550  34.325  1.00  0.00     0.135 A 
ATOM     90  F   UNL A   1      41.070  27.453  32.906  1.00  0.00    -0.206 F 
ATOM     91  C   UNL A   1      42.043  26.972  34.986  1.00  0.00     0.059 A 
ATOM     92  C   UNL A   1      44.237  27.847  35.520  1.00  0.00     0.059 A 
ATOM     93  F   UNL A   1      45.332  29.261  34.021  1.00  0.00    -0.206 F 
ATOM     94  C   UNL A   1      43.128  27.080  35.861  1.00  0.00     0.060 A 
BRANCH  94  95
ATOM     95  S   UNL A   1      43.103  26.214  37.446  1.00  0.00     0.124 S 
ATOM     96  O   UNL A   1      43.586  24.887  37.075  1.00  0.00    -0.237 OA
ATOM     97  O   UNL A   1      44.010  27.016  38.260  1.00  0.00    -0.237 OA
ATOM     98  O   UNL A   1      41.699  26.274  37.846  1.00  0.00    -0.744 OA
ENDBRANCH  94  95
ENDBRANCH  62  87
ENDBRANCH  36  37
ENDBRANCH  29  31
ENDBRANCH  28  29
ENDBRANCH  27  28
ENDBRANCH  26  27
ENDBRANCH   1  26
TORSDOF 20
ENDMDL
MODEL 2
REMARK VINA RESULT:     -10.8      1.803      2.505
REMARK SMILES O=C(Cc1ccn[nH]1)Nc1sc2c(c1C(=O)OCCOCCOC(=O)c1ccc(-c3c4nc(c(-c5c(F)cc(S(=O)(=O)[O-])cc5F)c5ccc([nH]5)c(-c5c(F)cc(S(=O)(=O)[O-])cc5F)c5nc(c(-c6c(F)cc(S(=O)(=O)[O-])cc6F)c6ccc3[nH]6)C=C5)C=C4)cc1)CCC2
REMARK SMILES IDX 20 1 19 2 18 3 17 4 15 5 16 6 14 7 10 8 11 9 12 10 13 11
REMARK SMILES IDX 94 12 92 13 93 14 9 15 1 16 2 17 3 19 4 20 5 21 8 22 6 23
REMARK SMILES IDX 7 24 21 26 22 27 23 28 24 29 25 30 26 31 27 32 91 33 28 34
REMARK SMILES IDX 90 35 29 36 30 37 31 38 84 39 32 40 89 41 83 42 85 43 33 44
REMARK SMILES IDX 88 45 82 46 81 47 34 49 68 50 47 51 67 52 48 53 51 54 66 55
REMARK SMILES IDX 86 56 49 57 50 58 65 60 87 61 52 62 35 63 36 64 45 65 37 66
REMARK SMILES IDX 38 67 44 68 46 69 39 70 40 71 41 72 42 73 43 74 69 75 70 76
REMARK SMILES IDX 79 77 71 78 72 79 78 80 80 81 73 82 74 83 75 84 76 85 77 86
REMARK SMILES IDX 53 87 54 88 63 89 55 90 56 91 62 92 64 93 57 94 58 95 59 96
REMARK SMILES IDX 60 97 61 98
REMARK H PARENT 9 18 8 25 85 48 51 59
REMARK Flexibility Score: inf
ROOT
ATOM      1  O   UNL A   1      38.513  22.261  25.859  1.00  0.00    -0.374 OA
ENDROOT
BRANCH   1   2
ATOM      2  C   UNL A   1      37.131  22.237  25.510  1.00  0.00     0.202 C 
BRANCH   2   3
ATOM      3  C   UNL A   1      36.531  23.422  24.747  1.00  0.00     0.261 C 
BRANCH   3   4
ATOM      4  O   UNL A   1      35.900  24.399  25.596  1.00  0.00    -0.460 OA
BRANCH   4   5
ATOM      5  C   UNL A   1      34.533  24.395  25.569  1.00  0.00     0.341 C 
ATOM      6  O   UNL A   1      33.833  23.690  26.290  1.00  0.00    -0.246 OA
BRANCH   5   7
ATOM      7  C   UNL A   1      33.964  25.365  24.639  1.00  0.00     0.098 A 
ATOM      8  C   UNL A   1      33.586  25.046  23.336  1.00  0.00     0.110 A 
ATOM      9  S   UNL A   1      33.331  26.408  22.335  1.00  0.00    -0.122 S 
ATOM     10  C   UNL A   1      33.444  27.405  23.672  1.00  0.00     0.011 A 
ATOM     11  C   UNL A   1      33.740  26.756  24.841  1.00  0.00    -0.017 A 
ATOM     12  C   UNL A   1      33.340  28.874  23.798  1.00  0.00     0.047 C 
ATOM     13  C   UNL A   1      33.845  27.719  25.969  1.00  0.00     0.038 C 
ATOM     14  C   UNL A   1      33.272  29.035  25.346  1.00  0.00     0.010 C 
BRANCH   8  15
ATOM     15  N   UNL A   1      33.374  23.833  22.710  1.00  0.00    -0.317 N 
ATOM     16  O   UNL A   1      31.304  23.550  23.706  1.00  0.00    -0.274 OA
ATOM     17  C   UNL A   1      32.255  23.099  23.069  1.00  0.00     0.230 C 
ATOM     18  H   UNL A   1      34.002  23.499  22.028  1.00  0.00     0.170 HD
BRANCH  17  19
ATOM     19  C   UNL A   1      32.221  21.683  22.516  1.00  0.00     0.155 C 
BRANCH  19  20
ATOM     20  C   UNL A   1      32.467  20.730  23.627  1.00  0.00     0.044 A 
ATOM     21  C   UNL A   1      32.380  19.354  23.684  1.00  0.00     0.045 A 
ATOM     22  N   UNL A   1      32.882  21.126  24.866  1.00  0.00    -0.282 N 
ATOM     23  C   UNL A   1      32.848  19.023  24.966  1.00  0.00     0.135 A 
ATOM     24  N   UNL A   1      33.157  20.103  25.689  1.00  0.00    -0.184 NA
ATOM     25  H   UNL A   1      32.969  22.071  25.130  1.00  0.00     0.190 HD
ENDBRANCH  19  20
ENDBRANCH  17  19
ENDBRANCH   8  15
ENDBRANCH   5   7
ENDBRANCH   4   5
ENDBRANCH   3   4
ENDBRANCH   2   3
ENDBRANCH   1   2
BRANCH   1  26
ATOM     26  C   UNL A   1      39.245  21.045  25.895  1.00  0.00     0.202 C 
BRANCH  26  27
ATOM     27  C   UNL A   1      40.754  21.034  26.099  1.00  0.00     0.261 C 
BRANCH  27  28
ATOM     28  O   UNL A   1      41.277  22.229  26.653  1.00  0.00    -0.460 OA
BRANCH  28  29
ATOM     29  C   UNL A   1      42.174  22.825  25.844  1.00  0.00     0.338 C 
ATOM     30  O   UNL A   1      42.909  22.274  25.022  1.00  0.00    -0.246 OA
BRANCH  29  31
ATOM     31  C   UNL A   1      42.283  24.232  26.215  1.00  0.00     0.060 A 
ATOM     32  C   UNL A   1      43.343  24.609  27.033  1.00  0.00     0.016 A 
ATOM     33  C   UNL A   1      41.205  25.094  25.982  1.00  0.00     0.016 A 
ATOM     34  C   UNL A   1      43.166  25.709  27.854  1.00  0.00     0.010 A 
ATOM     35  C   UNL A   1      41.075  26.227  26.750  1.00  0.00     0.010 A 
ATOM     36  C   UNL A   1      41.959  26.438  27.802  1.00  0.00    -0.014 A 
BRANCH  36  37
ATOM     37  C   UNL A   1      41.794  27.671  28.578  1.00  0.00     0.031 A 
ATOM     38  C   UNL A   1      42.914  28.571  28.171  1.00  0.00     0.074 A 
ATOM     39  C   UNL A   1      40.779  27.963  29.443  1.00  0.00     0.049 A 
ATOM     40  N   UNL A   1      44.021  28.707  28.824  1.00  0.00    -0.248 NA
ATOM     41  C   UNL A   1      43.028  29.045  26.771  1.00  0.00     0.031 C 
ATOM     42  C   UNL A   1      39.596  27.170  29.813  1.00  0.00     0.029 A 
ATOM     43  N   UNL A   1      40.568  29.110  30.192  1.00  0.00    -0.354 N 
ATOM     44  C   UNL A   1      44.764  29.622  28.093  1.00  0.00     0.074 A 
ATOM     45  C   UNL A   1      44.270  29.540  26.752  1.00  0.00     0.031 C 
ATOM     46  C   UNL A   1      38.683  27.948  30.457  1.00  0.00     0.029 A 
ATOM     47  C   UNL A   1      39.238  29.270  30.679  1.00  0.00     0.049 A 
ATOM     48  H   UNL A   1      41.282  29.763  30.373  1.00  0.00     0.167 HD
ATOM     49  C   UNL A   1      45.391  30.626  28.762  1.00  0.00     0.037 A 
ATOM     50  C   UNL A   1      38.689  30.393  31.269  1.00  0.00     0.037 A 
ATOM     51  C   UNL A   1      45.508  30.270  30.160  1.00  0.00     0.049 A 
ATOM     52  C   UNL A   1      39.840  31.197  31.777  1.00  0.00     0.074 A 
ATOM     53  C   UNL A   1      46.051  29.200  30.848  1.00  0.00     0.029 A 
ATOM     54  N   UNL A   1      44.578  30.839  30.996  1.00  0.00    -0.354 N 
ATOM     55  N   UNL A   1      40.605  30.772  32.748  1.00  0.00    -0.248 NA
ATOM     56  C   UNL A   1      40.466  32.074  30.795  1.00  0.00     0.031 C 
ATOM     57  C   UNL A   1      45.107  28.902  31.873  1.00  0.00     0.029 A 
ATOM     58  C   UNL A   1      44.130  29.894  31.879  1.00  0.00     0.049 A 
ATOM     59  H   UNL A   1      44.283  31.776  30.965  1.00  0.00     0.167 HD
ATOM     60  C   UNL A   1      41.884  30.886  32.228  1.00  0.00     0.074 A 
ATOM     61  C   UNL A   1      41.729  31.687  31.005  1.00  0.00     0.031 C 
ATOM     62  C   UNL A   1      42.894  30.048  32.610  1.00  0.00     0.037 A 
BRANCH  49  63
ATOM     63  C   UNL A   1      45.397  32.072  28.309  1.00  0.00     0.058 A 
ATOM     64  C   UNL A   1      46.633  32.753  28.292  1.00  0.00     0.135 A 
ATOM     65  C   UNL A   1      44.255  32.896  28.177  1.00  0.00     0.135 A 
ATOM     66  F   UNL A   1      47.786  32.078  28.427  1.00  0.00    -0.206 F 
ATOM     67  C   UNL A   1      46.725  34.141  28.211  1.00  0.00     0.059 A 
ATOM     68  C   UNL A   1      44.326  34.279  28.047  1.00  0.00     0.059 A 
ATOM     69  F   UNL A   1      43.006  32.422  28.238  1.00  0.00    -0.206 F 
ATOM     70  C   UNL A   1      45.565  34.895  28.083  1.00  0.00     0.060 A 
BRANCH  70  71
ATOM     71  S   UNL A   1      45.700  36.682  27.930  1.00  0.00     0.124 S 
ATOM     72  O   UNL A   1      46.803  36.977  28.835  1.00  0.00    -0.237 OA
ATOM     73  O   UNL A   1      45.981  36.832  26.505  1.00  0.00    -0.237 OA
ATOM     74  O   UNL A   1      44.386  37.156  28.355  1.00  0.00    -0.744 OA
ENDBRANCH  70  71
ENDBRANCH  49  63
BRANCH  50  75
ATOM     75  C   UNL A   1      37.335  31.040  31.064  1.00  0.00     0.058 A 
ATOM     76  C   UNL A   1      36.635  31.758  32.074  1.00  0.00     0.135 A 
ATOM     77  C   UNL A   1      36.848  31.239  29.763  1.00  0.00     0.135 A 
ATOM     78  F   UNL A   1      36.996  31.642  33.363  1.00  0.00    -0.206 F 
ATOM     79  C   UNL A   1      35.590  32.671  31.789  1.00  0.00     0.059 A 
ATOM     80  C   UNL A   1      35.821  32.139  29.458  1.00  0.00     0.059 A 
ATOM     81  F   UNL A   1      37.423  30.630  28.719  1.00  0.00    -0.206 F 
ATOM     82  C   UNL A   1      35.218  32.883  30.463  1.00  0.00     0.060 A 
BRANCH  82  83
ATOM     83  S   UNL A   1      34.067  34.216  30.007  1.00  0.00     0.124 S 
ATOM     84  O   UNL A   1      33.196  33.562  29.037  1.00  0.00    -0.237 OA
ATOM     85  O   UNL A   1      33.454  34.556  31.286  1.00  0.00    -0.237 OA
ATOM     86  O   UNL A   1      34.948  35.245  29.455  1.00  0.00    -0.744 OA
ENDBRANCH  82  83
ENDBRANCH  50  75
BRANCH  62  87
ATOM     87  C   UNL A   1      42.713  29.152  33.806  1.00  0.00     0.058 A 
ATOM     88  C   UNL A   1      42.784  29.543  35.157  1.00  0.00     0.135 A 
ATOM     89  C   UNL A   1      42.262  27.850  33.543  1.00  0.00     0.135 A 
ATOM     90  F   UNL A   1      43.089  30.807  35.492  1.00  0.00    -0.206 F 
ATOM     91  C   UNL A   1      42.473  28.655  36.195  1.00  0.00     0.059 A 
ATOM     92  C   UNL A   1      41.914  26.965  34.553  1.00  0.00     0.059 A 
ATOM     93  F   UNL A   1      42.099  27.438  32.275  1.00  0.00    -0.206 F 
ATOM     94  C   UNL A   1      42.046  27.361  35.879  1.00  0.00     0.060 A 
BRANCH  94  95
ATOM     95  S   UNL A   1      41.653  26.191  37.197  1.00  0.00     0.124 S 
ATOM     96  O   UNL A   1      42.765  26.389  38.122  1.00  0.00    -0.237 OA
ATOM     97  O   UNL A   1      40.351  26.660  37.659  1.00  0.00    -0.237 OA
ATOM     98  O   UNL A   1      41.636  24.899  36.514  1.00  0.00    -0.744 OA
ENDBRANCH  94  95
ENDBRANCH  62  87
ENDBRANCH  36  37
ENDBRANCH  29  31
ENDBRANCH  28  29
ENDBRANCH  27  28
ENDBRANCH  26  27
ENDBRANCH   1  26
TORSDOF 20
ENDMDL
MODEL 3
REMARK VINA RESULT:     -10.5      2.975      9.319
REMARK SMILES O=C(Cc1ccn[nH]1)Nc1sc2c(c1C(=O)OCCOCCOC(=O)c1ccc(-c3c4nc(c(-c5c(F)cc(S(=O)(=O)[O-])cc5F)c5ccc([nH]5)c(-c5c(F)cc(S(=O)(=O)[O-])cc5F)c5nc(c(-c6c(F)cc(S(=O)(=O)[O-])cc6F)c6ccc3[nH]6)C=C5)C=C4)cc1)CCC2
REMARK SMILES IDX 20 1 19 2 18 3 17 4 15 5 16 6 14 7 10 8 11 9 12 10 13 11
REMARK SMILES IDX 94 12 92 13 93 14 9 15 1 16 2 17 3 19 4 20 5 21 8 22 6 23
REMARK SMILES IDX 7 24 21 26 22 27 23 28 24 29 25 30 26 31 27 32 91 33 28 34
REMARK SMILES IDX 90 35 29 36 30 37 31 38 84 39 32 40 89 41 83 42 85 43 33 44
REMARK SMILES IDX 88 45 82 46 81 47 34 49 68 50 47 51 67 52 48 53 51 54 66 55
REMARK SMILES IDX 86 56 49 57 50 58 65 60 87 61 52 62 35 63 36 64 45 65 37 66
REMARK SMILES IDX 38 67 44 68 46 69 39 70 40 71 41 72 42 73 43 74 69 75 70 76
REMARK SMILES IDX 79 77 71 78 72 79 78 80 80 81 73 82 74 83 75 84 76 85 77 86
REMARK SMILES IDX 53 87 54 88 63 89 55 90 56 91 62 92 64 93 57 94 58 95 59 96
REMARK SMILES IDX 60 97 61 98
REMARK H PARENT 9 18 8 25 85 48 51 59
REMARK Flexibility Score: inf
ROOT
ATOM      1  O   UNL A   1      32.894  28.908  25.951  1.00  0.00    -0.374 OA
ENDROOT
BRANCH   1   2
ATOM      2  C   UNL A   1      31.809  28.081  26.359  1.00  0.00     0.202 C 
BRANCH   2   3
ATOM      3  C   UNL A   1      32.084  26.627  26.757  1.00  0.00     0.261 C 
BRANCH   3   4
ATOM      4  O   UNL A   1      32.204  25.732  25.635  1.00  0.00    -0.460 OA
BRANCH   4   5
ATOM      5  C   UNL A   1      33.486  25.408  25.287  1.00  0.00     0.341 C 
ATOM      6  O   UNL A   1      34.455  26.137  25.477  1.00  0.00    -0.246 OA
BRANCH   5   7
ATOM      7  C   UNL A   1      33.617  24.069  24.720  1.00  0.00     0.098 A 
ATOM      8  C   UNL A   1      32.821  23.599  23.678  1.00  0.00     0.110 A 
ATOM      9  S   UNL A   1      32.888  21.904  23.465  1.00  0.00    -0.122 S 
ATOM     10  C   UNL A   1      34.160  21.824  24.546  1.00  0.00     0.011 A 
ATOM     11  C   UNL A   1      34.493  23.022  25.121  1.00  0.00    -0.017 A 
ATOM     12  C   UNL A   1      34.948  20.673  25.035  1.00  0.00     0.047 C 
ATOM     13  C   UNL A   1      35.614  22.854  26.084  1.00  0.00     0.038 C 
ATOM     14  C   UNL A   1      36.105  21.400  25.780  1.00  0.00     0.010 C 
BRANCH   8  15
ATOM     15  N   UNL A   1      31.994  24.250  22.784  1.00  0.00    -0.317 N 
ATOM     16  O   UNL A   1      33.769  25.290  21.723  1.00  0.00    -0.274 OA
ATOM     17  C   UNL A   1      32.561  25.181  21.928  1.00  0.00     0.230 C 
ATOM     18  H   UNL A   1      31.028  24.060  22.756  1.00  0.00     0.170 HD
BRANCH  17  19
ATOM     19  C   UNL A   1      31.560  26.020  21.150  1.00  0.00     0.155 C 
BRANCH  19  20
ATOM     20  C   UNL A   1      31.321  27.287  21.886  1.00  0.00     0.044 A 
ATOM     21  C   UNL A   1      30.217  27.750  22.571  1.00  0.00     0.045 A 
ATOM     22  N   UNL A   1      32.273  28.257  22.018  1.00  0.00    -0.282 N 
ATOM     23  C   UNL A   1      30.641  28.958  23.149  1.00  0.00     0.135 A 
ATOM     24  N   UNL A   1      31.896  29.268  22.815  1.00  0.00    -0.184 NA
ATOM     25  H   UNL A   1      33.149  28.219  21.571  1.00  0.00     0.190 HD
ENDBRANCH  19  20
ENDBRANCH  17  19
ENDBRANCH   8  15
ENDBRANCH   5   7
ENDBRANCH   4   5
ENDBRANCH   3   4
ENDBRANCH   2   3
ENDBRANCH   1   2
BRANCH   1  26
ATOM     26  C   UNL A   1      32.775  30.319  26.056  1.00  0.00     0.202 C 
BRANCH  26  27
ATOM     27  C   UNL A   1      32.996  31.038  27.380  1.00  0.00     0.261 C 
BRANCH  27  28
ATOM     28  O   UNL A   1      34.031  30.487  28.176  1.00  0.00    -0.460 OA
BRANCH  28  29
ATOM     29  C   UNL A   1      34.851  31.429  28.681  1.00  0.00     0.338 C 
ATOM     30  O   UNL A   1      34.521  32.490  29.214  1.00  0.00    -0.246 OA
BRANCH  29  31
ATOM     31  C   UNL A   1      36.228  31.088  28.339  1.00  0.00     0.060 A 
ATOM     32  C   UNL A   1      36.462  29.862  27.725  1.00  0.00     0.016 A 
ATOM     33  C   UNL A   1      37.280  31.848  28.865  1.00  0.00     0.016 A 
ATOM     34  C   UNL A   1      37.695  29.265  27.923  1.00  0.00     0.010 A 
ATOM     35  C   UNL A   1      38.523  31.274  28.990  1.00  0.00     0.010 A 
ATOM     36  C   UNL A   1      38.683  29.927  28.682  1.00  0.00    -0.014 A 
BRANCH  36  37
ATOM     37  C   UNL A   1      40.032  29.366  28.808  1.00  0.00     0.031 A 
ATOM     38  C   UNL A   1      40.305  29.269  30.273  1.00  0.00     0.074 A 
ATOM     39  C   UNL A   1      40.842  28.949  27.792  1.00  0.00     0.049 A 
ATOM     40  N   UNL A   1      40.969  30.144  30.955  1.00  0.00    -0.248 NA
ATOM     41  C   UNL A   1      39.475  28.397  31.138  1.00  0.00     0.031 C 
ATOM     42  C   UNL A   1      40.600  28.920  26.341  1.00  0.00     0.029 A 
ATOM     43  N   UNL A   1      42.115  28.404  27.853  1.00  0.00    -0.354 N 
ATOM     44  C   UNL A   1      40.972  29.663  32.256  1.00  0.00     0.074 A 
ATOM     45  C   UNL A   1      39.824  28.815  32.359  1.00  0.00     0.031 C 
ATOM     46  C   UNL A   1      41.530  28.146  25.717  1.00  0.00     0.029 A 
ATOM     47  C   UNL A   1      42.528  27.713  26.677  1.00  0.00     0.049 A 
ATOM     48  H   UNL A   1      42.689  28.488  28.649  1.00  0.00     0.167 HD
ATOM     49  C   UNL A   1      42.142  29.684  32.949  1.00  0.00     0.037 A 
ATOM     50  C   UNL A   1      43.641  26.909  26.522  1.00  0.00     0.037 A 
ATOM     51  C   UNL A   1      43.054  30.617  32.322  1.00  0.00     0.049 A 
ATOM     52  C   UNL A   1      44.590  27.305  27.604  1.00  0.00     0.074 A 
ATOM     53  C   UNL A   1      42.994  31.958  31.989  1.00  0.00     0.029 A 
ATOM     54  N   UNL A   1      44.011  30.057  31.513  1.00  0.00    -0.354 N 
ATOM     55  N   UNL A   1      45.155  28.484  27.630  1.00  0.00    -0.248 NA
ATOM     56  C   UNL A   1      44.363  26.667  28.895  1.00  0.00     0.031 C 
ATOM     57  C   UNL A   1      43.584  32.044  30.695  1.00  0.00     0.029 A 
ATOM     58  C   UNL A   1      44.128  30.803  30.372  1.00  0.00     0.049 A 
ATOM     59  H   UNL A   1      44.530  29.248  31.721  1.00  0.00     0.167 HD
ATOM     60  C   UNL A   1      44.877  28.949  28.905  1.00  0.00     0.074 A 
ATOM     61  C   UNL A   1      44.369  27.779  29.636  1.00  0.00     0.031 C 
ATOM     62  C   UNL A   1      44.737  30.283  29.170  1.00  0.00     0.037 A 
BRANCH  49  63
ATOM     63  C   UNL A   1      42.644  28.533  33.799  1.00  0.00     0.058 A 
ATOM     64  C   UNL A   1      42.825  27.281  33.174  1.00  0.00     0.135 A 
ATOM     65  C   UNL A   1      42.675  28.510  35.213  1.00  0.00     0.135 A 
ATOM     66  F   UNL A   1      42.797  27.176  31.835  1.00  0.00    -0.206 F 
ATOM     67  C   UNL A   1      42.964  26.096  33.892  1.00  0.00     0.059 A 
ATOM     68  C   UNL A   1      42.861  27.344  35.949  1.00  0.00     0.059 A 
ATOM     69  F   UNL A   1      42.456  29.595  35.962  1.00  0.00    -0.206 F 
ATOM     70  C   UNL A   1      42.988  26.139  35.281  1.00  0.00     0.060 A 
BRANCH  70  71
ATOM     71  S   UNL A   1      43.218  24.608  36.197  1.00  0.00     0.124 S 
ATOM     72  O   UNL A   1      42.861  23.607  35.200  1.00  0.00    -0.237 OA
ATOM     73  O   UNL A   1      44.633  24.689  36.547  1.00  0.00    -0.237 OA
ATOM     74  O   UNL A   1      42.294  24.745  37.319  1.00  0.00    -0.744 OA
ENDBRANCH  70  71
ENDBRANCH  49  63
BRANCH  50  75
ATOM     75  C   UNL A   1      43.790  25.572  25.826  1.00  0.00     0.058 A 
ATOM     76  C   UNL A   1      44.953  25.172  25.112  1.00  0.00     0.135 A 
ATOM     77  C   UNL A   1      42.902  24.527  26.126  1.00  0.00     0.135 A 
ATOM     78  F   UNL A   1      45.875  26.082  24.752  1.00  0.00    -0.206 F 
ATOM     79  C   UNL A   1      45.245  23.820  24.804  1.00  0.00     0.059 A 
ATOM     80  C   UNL A   1      43.171  23.185  25.838  1.00  0.00     0.059 A 
ATOM     81  F   UNL A   1      41.773  24.766  26.804  1.00  0.00    -0.206 F 
ATOM     82  C   UNL A   1      44.358  22.827  25.212  1.00  0.00     0.060 A 
BRANCH  82  83
ATOM     83  S   UNL A   1      44.788  21.064  25.076  1.00  0.00     0.124 S 
ATOM     84  O   UNL A   1      43.765  20.426  25.898  1.00  0.00    -0.237 OA
ATOM     85  O   UNL A   1      44.693  20.825  23.641  1.00  0.00    -0.237 OA
ATOM     86  O   UNL A   1      46.144  21.006  25.621  1.00  0.00    -0.744 OA
ENDBRANCH  82  83
ENDBRANCH  50  75
BRANCH  62  87
ATOM     87  C   UNL A   1      45.149  31.300  28.139  1.00  0.00     0.058 A 
ATOM     88  C   UNL A   1      44.428  31.649  26.982  1.00  0.00     0.135 A 
ATOM     89  C   UNL A   1      46.265  32.088  28.457  1.00  0.00     0.135 A 
ATOM     90  F   UNL A   1      43.280  31.026  26.670  1.00  0.00    -0.206 F 
ATOM     91  C   UNL A   1      44.838  32.702  26.152  1.00  0.00     0.059 A 
ATOM     92  C   UNL A   1      46.669  33.156  27.671  1.00  0.00     0.059 A 
ATOM     93  F   UNL A   1      46.952  31.856  29.587  1.00  0.00    -0.206 F 
ATOM     94  C   UNL A   1      45.969  33.445  26.504  1.00  0.00     0.060 A 
BRANCH  94  95
ATOM     95  S   UNL A   1      46.529  34.797  25.446  1.00  0.00     0.124 S 
ATOM     96  O   UNL A   1      45.704  34.615  24.257  1.00  0.00    -0.237 OA
ATOM     97  O   UNL A   1      46.230  35.976  26.253  1.00  0.00    -0.237 OA
ATOM     98  O   UNL A   1      47.952  34.522  25.263  1.00  0.00    -0.744 OA
ENDBRANCH  94  95
ENDBRANCH  62  87
ENDBRANCH  36  37
ENDBRANCH  29  31
ENDBRANCH  28  29
ENDBRANCH  27  28
ENDBRANCH  26  27
ENDBRANCH   1  26
TORSDOF 20
ENDMDL
