MODEL 1
REMARK VINA RESULT:      -7.8      0.000      0.000
REMARK SMILES Cc1cc(C)c(C#N)c(NC[C@H](CC(C)C)C(=O)OCCOCCOC(=O)c2ccc(-c3c4nc(c(-c5c(F)cc(S(=O)(=O)[O-])cc5F)c5ccc([nH]5)c(-c5c(F)cc(S(=O)(=O)[O-])cc5F)c5nc(c(-c6c(F)cc(S(=O)(=O)[O-])cc6F)c6ccc3[nH]6)C=C5)C=C4)cc2)n1
REMARK SMILES IDX 21 1 20 2 19 3 17 4 18 5 12 6 11 7 10 8 9 10 1 11 2 12 3 13
REMARK SMILES IDX 94 14 4 15 5 16 6 17 7 18 8 19 13 20 14 21 15 22 16 23 22 24
REMARK SMILES IDX 23 25 24 26 25 27 26 28 27 29 28 30 29 31 93 32 30 33 92 34
REMARK SMILES IDX 31 35 32 36 33 37 86 38 34 39 91 40 85 41 87 42 35 43 90 44
REMARK SMILES IDX 84 45 83 46 36 48 70 49 49 50 69 51 50 52 53 53 68 54 88 55
REMARK SMILES IDX 51 56 52 57 67 59 89 60 54 61 37 62 38 63 47 64 39 65 40 66
REMARK SMILES IDX 46 67 48 68 41 69 42 70 43 71 44 72 45 73 71 74 72 75 81 76
REMARK SMILES IDX 73 77 74 78 80 79 82 80 75 81 76 82 77 83 78 84 79 85 55 86
REMARK SMILES IDX 56 87 65 88 57 89 58 90 64 91 66 92 59 93 60 94 61 95 62 96
REMARK SMILES IDX 63 97
REMARK H PARENT 10 9 87 47 53 58
REMARK Flexibility Score: inf
ROOT
ATOM      1  C   UNL A   1      38.222  32.004  34.905  1.00  0.00     0.202 C 
ENDROOT
BRANCH   1   2
ATOM      2  C   UNL A   1      38.654  30.684  35.549  1.00  0.00     0.261 C 
BRANCH   2   3
ATOM      3  O   UNL A   1      39.733  30.109  34.791  1.00  0.00    -0.463 OA
BRANCH   3   4
ATOM      4  C   UNL A   1      40.778  29.616  35.494  1.00  0.00     0.310 C 
ATOM      5  O   UNL A   1      40.691  28.732  36.338  1.00  0.00    -0.252 OA
BRANCH   4   6
ATOM      6  C   UNL A   1      42.109  30.227  35.084  1.00  0.00     0.118 C 
BRANCH   6   7
ATOM      7  C   UNL A   1      42.682  31.131  36.173  1.00  0.00     0.129 C 
BRANCH   7   8
ATOM      8  N   UNL A   1      41.696  31.555  37.130  1.00  0.00    -0.368 N 
ATOM      9  H   UNL A   1      41.521  30.908  37.851  1.00  0.00     0.162 HD
BRANCH   8  10
ATOM     10  C   UNL A   1      40.963  32.699  37.206  1.00  0.00     0.144 A 
ATOM     11  C   UNL A   1      38.165  33.370  39.508  1.00  0.00     0.067 C 
ATOM     12  C   UNL A   1      39.159  33.586  38.408  1.00  0.00     0.040 A 
ATOM     13  C   UNL A   1      39.184  34.761  37.677  1.00  0.00     0.028 A 
ATOM     14  N   UNL A   1      40.023  32.576  38.171  1.00  0.00    -0.235 NA
ATOM     15  C   UNL A   1      40.150  34.913  36.679  1.00  0.00    -0.028 A 
ATOM     16  C   UNL A   1      40.177  36.174  35.858  1.00  0.00     0.046 C 
ATOM     17  C   UNL A   1      41.078  33.870  36.456  1.00  0.00     0.097 A 
BRANCH  17  18
ATOM     18  C   UNL A   1      42.091  34.067  35.460  1.00  0.00     0.103 C 
ATOM     19  N   UNL A   1      42.933  34.298  34.696  1.00  0.00    -0.192 NA
ENDBRANCH  17  18
ENDBRANCH   8  10
ENDBRANCH   7   8
ENDBRANCH   6   7
BRANCH   6  20
ATOM     20  C   UNL A   1      42.338  30.753  33.646  1.00  0.00     0.020 C 
BRANCH  20  21
ATOM     21  C   UNL A   1      42.954  29.896  32.525  1.00  0.00    -0.017 C 
ATOM     22  C   UNL A   1      44.468  29.761  32.569  1.00  0.00     0.007 C 
ATOM     23  C   UNL A   1      42.318  28.499  32.575  1.00  0.00     0.007 C 
ENDBRANCH  20  21
ENDBRANCH   6  20
ENDBRANCH   4   6
ENDBRANCH   3   4
ENDBRANCH   2   3
ENDBRANCH   1   2
BRANCH   1  24
ATOM     24  O   UNL A   1      36.864  32.404  35.105  1.00  0.00    -0.374 OA
BRANCH  24  25
ATOM     25  C   UNL A   1      36.372  33.479  34.310  1.00  0.00     0.202 C 
BRANCH  25  26
ATOM     26  C   UNL A   1      35.700  33.128  32.974  1.00  0.00     0.261 C 
BRANCH  26  27
ATOM     27  O   UNL A   1      36.645  32.807  31.939  1.00  0.00    -0.460 OA
BRANCH  27  28
ATOM     28  C   UNL A   1      36.164  31.977  30.982  1.00  0.00     0.338 C 
ATOM     29  O   UNL A   1      35.057  32.022  30.472  1.00  0.00    -0.246 OA
BRANCH  28  30
ATOM     30  C   UNL A   1      37.239  31.102  30.463  1.00  0.00     0.060 A 
ATOM     31  C   UNL A   1      38.158  30.611  31.397  1.00  0.00     0.016 A 
ATOM     32  C   UNL A   1      37.406  30.831  29.104  1.00  0.00     0.016 A 
ATOM     33  C   UNL A   1      39.306  29.952  30.971  1.00  0.00     0.010 A 
ATOM     34  C   UNL A   1      38.554  30.150  28.675  1.00  0.00     0.010 A 
ATOM     35  C   UNL A   1      39.546  29.777  29.601  1.00  0.00    -0.014 A 
BRANCH  35  36
ATOM     36  C   UNL A   1      40.918  29.401  29.161  1.00  0.00     0.031 A 
ATOM     37  C   UNL A   1      42.027  30.419  29.284  1.00  0.00     0.074 A 
ATOM     38  C   UNL A   1      41.199  28.150  28.753  1.00  0.00     0.049 A 
ATOM     39  N   UNL A   1      43.307  30.290  29.036  1.00  0.00    -0.248 NA
ATOM     40  C   UNL A   1      41.643  31.762  29.746  1.00  0.00     0.031 C 
ATOM     41  C   UNL A   1      40.229  27.063  28.632  1.00  0.00     0.029 A 
ATOM     42  N   UNL A   1      42.391  27.578  28.383  1.00  0.00    -0.354 N 
ATOM     43  C   UNL A   1      43.873  31.534  29.298  1.00  0.00     0.074 A 
ATOM     44  C   UNL A   1      42.792  32.417  29.676  1.00  0.00     0.031 C 
ATOM     45  C   UNL A   1      40.868  25.949  28.241  1.00  0.00     0.029 A 
ATOM     46  C   UNL A   1      42.286  26.249  28.048  1.00  0.00     0.049 A 
ATOM     47  H   UNL A   1      43.242  28.074  28.359  1.00  0.00     0.167 HD
ATOM     48  C   UNL A   1      45.175  31.908  29.244  1.00  0.00     0.037 A 
ATOM     49  C   UNL A   1      43.224  25.375  27.631  1.00  0.00     0.037 A 
ATOM     50  C   UNL A   1      46.250  31.023  28.871  1.00  0.00     0.049 A 
ATOM     51  C   UNL A   1      44.656  25.831  27.511  1.00  0.00     0.074 A 
ATOM     52  C   UNL A   1      47.605  31.294  28.812  1.00  0.00     0.029 A 
ATOM     53  N   UNL A   1      46.091  29.701  28.479  1.00  0.00    -0.354 N 
ATOM     54  N   UNL A   1      45.181  27.000  27.792  1.00  0.00    -0.248 NA
ATOM     55  C   UNL A   1      45.626  24.840  27.025  1.00  0.00     0.031 C 
ATOM     56  C   UNL A   1      48.257  30.163  28.309  1.00  0.00     0.029 A 
ATOM     57  C   UNL A   1      47.320  29.156  28.139  1.00  0.00     0.049 A 
ATOM     58  H   UNL A   1      45.233  29.220  28.446  1.00  0.00     0.167 HD
ATOM     59  C   UNL A   1      46.548  26.872  27.560  1.00  0.00     0.074 A 
ATOM     60  C   UNL A   1      46.767  25.508  27.124  1.00  0.00     0.031 C 
ATOM     61  C   UNL A   1      47.532  27.795  27.706  1.00  0.00     0.037 A 
BRANCH  48  62
ATOM     62  C   UNL A   1      45.502  33.348  29.551  1.00  0.00     0.058 A 
ATOM     63  C   UNL A   1      45.549  34.338  28.556  1.00  0.00     0.135 A 
ATOM     64  C   UNL A   1      45.767  33.745  30.873  1.00  0.00     0.135 A 
ATOM     65  F   UNL A   1      45.319  34.020  27.272  1.00  0.00    -0.206 F 
ATOM     66  C   UNL A   1      45.897  35.655  28.850  1.00  0.00     0.059 A 
ATOM     67  C   UNL A   1      46.077  35.063  31.197  1.00  0.00     0.059 A 
ATOM     68  F   UNL A   1      45.734  32.846  31.869  1.00  0.00    -0.206 F 
ATOM     69  C   UNL A   1      46.162  36.005  30.175  1.00  0.00     0.060 A 
BRANCH  69  70
ATOM     70  S   UNL A   1      46.636  37.710  30.538  1.00  0.00     0.124 S 
ATOM     71  O   UNL A   1      48.065  37.684  30.238  1.00  0.00    -0.237 OA
ATOM     72  O   UNL A   1      45.806  38.468  29.608  1.00  0.00    -0.237 OA
ATOM     73  O   UNL A   1      46.297  37.864  31.949  1.00  0.00    -0.744 OA
ENDBRANCH  69  70
ENDBRANCH  48  62
BRANCH  49  74
ATOM     74  C   UNL A   1      42.846  23.969  27.319  1.00  0.00     0.058 A 
ATOM     75  C   UNL A   1      42.611  23.560  25.997  1.00  0.00     0.135 A 
ATOM     76  C   UNL A   1      42.712  23.008  28.332  1.00  0.00     0.135 A 
ATOM     77  F   UNL A   1      42.712  24.444  24.992  1.00  0.00    -0.206 F 
ATOM     78  C   UNL A   1      42.247  22.253  25.691  1.00  0.00     0.059 A 
ATOM     79  C   UNL A   1      42.380  21.686  28.049  1.00  0.00     0.059 A 
ATOM     80  F   UNL A   1      42.930  23.344  29.612  1.00  0.00    -0.206 F 
ATOM     81  C   UNL A   1      42.142  21.320  26.725  1.00  0.00     0.060 A 
BRANCH  81  82
ATOM     82  S   UNL A   1      41.731  19.612  26.309  1.00  0.00     0.124 S 
ATOM     83  O   UNL A   1      42.532  19.398  25.110  1.00  0.00    -0.237 OA
ATOM     84  O   UNL A   1      42.165  18.896  27.505  1.00  0.00    -0.237 OA
ATOM     85  O   UNL A   1      40.285  19.654  26.104  1.00  0.00    -0.744 OA
ENDBRANCH  81  82
ENDBRANCH  49  74
BRANCH  61  86
ATOM     86  C   UNL A   1      48.950  27.349  27.448  1.00  0.00     0.058 A 
ATOM     87  C   UNL A   1      49.535  27.402  26.172  1.00  0.00     0.135 A 
ATOM     88  C   UNL A   1      49.747  26.883  28.509  1.00  0.00     0.135 A 
ATOM     89  F   UNL A   1      48.824  27.837  25.119  1.00  0.00    -0.206 F 
ATOM     90  C   UNL A   1      50.838  26.963  25.949  1.00  0.00     0.059 A 
ATOM     91  C   UNL A   1      51.064  26.480  28.316  1.00  0.00     0.059 A 
ATOM     92  F   UNL A   1      49.250  26.826  29.754  1.00  0.00    -0.206 F 
ATOM     93  C   UNL A   1      51.594  26.504  27.028  1.00  0.00     0.060 A 
BRANCH  93  94
ATOM     94  S   UNL A   1      53.283  25.941  26.725  1.00  0.00     0.124 S 
ATOM     95  O   UNL A   1      53.776  26.966  25.811  1.00  0.00    -0.237 OA
ATOM     96  O   UNL A   1      53.860  25.956  28.066  1.00  0.00    -0.237 OA
ATOM     97  O   UNL A   1      53.101  24.616  26.141  1.00  0.00    -0.744 OA
ENDBRANCH  93  94
ENDBRANCH  61  86
ENDBRANCH  35  36
ENDBRANCH  28  30
ENDBRANCH  27  28
ENDBRANCH  26  27
ENDBRANCH  25  26
ENDBRANCH  24  25
ENDBRANCH   1  24
TORSDOF 23
ENDMDL
MODEL 2
REMARK VINA RESULT:      -7.7      6.251     12.907
REMARK SMILES Cc1cc(C)c(C#N)c(NC[C@H](CC(C)C)C(=O)OCCOCCOC(=O)c2ccc(-c3c4nc(c(-c5c(F)cc(S(=O)(=O)[O-])cc5F)c5ccc([nH]5)c(-c5c(F)cc(S(=O)(=O)[O-])cc5F)c5nc(c(-c6c(F)cc(S(=O)(=O)[O-])cc6F)c6ccc3[nH]6)C=C5)C=C4)cc2)n1
REMARK SMILES IDX 21 1 20 2 19 3 17 4 18 5 12 6 11 7 10 8 9 10 1 11 2 12 3 13
REMARK SMILES IDX 94 14 4 15 5 16 6 17 7 18 8 19 13 20 14 21 15 22 16 23 22 24
REMARK SMILES IDX 23 25 24 26 25 27 26 28 27 29 28 30 29 31 93 32 30 33 92 34
REMARK SMILES IDX 31 35 32 36 33 37 86 38 34 39 91 40 85 41 87 42 35 43 90 44
REMARK SMILES IDX 84 45 83 46 36 48 70 49 49 50 69 51 50 52 53 53 68 54 88 55
REMARK SMILES IDX 51 56 52 57 67 59 89 60 54 61 37 62 38 63 47 64 39 65 40 66
REMARK SMILES IDX 46 67 48 68 41 69 42 70 43 71 44 72 45 73 71 74 72 75 81 76
REMARK SMILES IDX 73 77 74 78 80 79 82 80 75 81 76 82 77 83 78 84 79 85 55 86
REMARK SMILES IDX 56 87 65 88 57 89 58 90 64 91 66 92 59 93 60 94 61 95 62 96
REMARK SMILES IDX 63 97
REMARK H PARENT 10 9 87 47 53 58
REMARK Flexibility Score: inf
ROOT
ATOM      1  C   UNL A   1      36.774  22.085  24.070  1.00  0.00     0.202 C 
ENDROOT
BRANCH   1   2
ATOM      2  C   UNL A   1      35.980  23.322  23.642  1.00  0.00     0.261 C 
BRANCH   2   3
ATOM      3  O   UNL A   1      34.645  22.933  23.272  1.00  0.00    -0.463 OA
BRANCH   3   4
ATOM      4  C   UNL A   1      33.742  22.822  24.271  1.00  0.00     0.310 C 
ATOM      5  O   UNL A   1      33.656  21.862  25.028  1.00  0.00    -0.252 OA
BRANCH   4   6
ATOM      6  C   UNL A   1      32.863  24.056  24.414  1.00  0.00     0.118 C 
BRANCH   6   7
ATOM      7  C   UNL A   1      33.593  25.200  25.113  1.00  0.00     0.129 C 
BRANCH   7   8
ATOM      8  N   UNL A   1      33.349  26.480  24.505  1.00  0.00    -0.368 N 
ATOM      9  H   UNL A   1      33.327  26.468  23.521  1.00  0.00     0.162 HD
BRANCH   8  10
ATOM     10  C   UNL A   1      33.144  27.705  25.060  1.00  0.00     0.144 A 
ATOM     11  C   UNL A   1      35.221  29.330  27.634  1.00  0.00     0.067 C 
ATOM     12  C   UNL A   1      34.097  29.120  26.665  1.00  0.00     0.040 A 
ATOM     13  C   UNL A   1      33.100  30.064  26.499  1.00  0.00     0.028 A 
ATOM     14  N   UNL A   1      34.113  27.964  25.968  1.00  0.00    -0.235 NA
ATOM     15  C   UNL A   1      32.092  29.821  25.563  1.00  0.00    -0.028 A 
ATOM     16  C   UNL A   1      30.985  30.826  25.387  1.00  0.00     0.046 C 
ATOM     17  C   UNL A   1      32.128  28.628  24.807  1.00  0.00     0.097 A 
BRANCH  17  18
ATOM     18  C   UNL A   1      31.110  28.421  23.817  1.00  0.00     0.103 C 
ATOM     19  N   UNL A   1      30.348  28.265  22.958  1.00  0.00    -0.192 NA
ENDBRANCH  17  18
ENDBRANCH   8  10
ENDBRANCH   7   8
ENDBRANCH   6   7
BRANCH   6  20
ATOM     20  C   UNL A   1      31.369  23.932  24.803  1.00  0.00     0.020 C 
BRANCH  20  21
ATOM     21  C   UNL A   1      30.803  24.444  26.140  1.00  0.00    -0.017 C 
ATOM     22  C   UNL A   1      29.806  25.587  26.027  1.00  0.00     0.007 C 
ATOM     23  C   UNL A   1      30.144  23.266  26.873  1.00  0.00     0.007 C 
ENDBRANCH  20  21
ENDBRANCH   6  20
ENDBRANCH   4   6
ENDBRANCH   3   4
ENDBRANCH   2   3
ENDBRANCH   1   2
BRANCH   1  24
ATOM     24  O   UNL A   1      37.866  22.300  24.968  1.00  0.00    -0.374 OA
BRANCH  24  25
ATOM     25  C   UNL A   1      38.103  23.635  25.405  1.00  0.00     0.202 C 
BRANCH  25  26
ATOM     26  C   UNL A   1      38.501  23.845  26.874  1.00  0.00     0.261 C 
BRANCH  26  27
ATOM     27  O   UNL A   1      39.857  23.453  27.148  1.00  0.00    -0.460 OA
BRANCH  27  28
ATOM     28  C   UNL A   1      40.765  24.447  27.004  1.00  0.00     0.338 C 
ATOM     29  O   UNL A   1      41.677  24.485  26.194  1.00  0.00    -0.246 OA
BRANCH  28  30
ATOM     30  C   UNL A   1      40.397  25.615  27.836  1.00  0.00     0.060 A 
ATOM     31  C   UNL A   1      41.202  26.753  27.716  1.00  0.00     0.016 A 
ATOM     32  C   UNL A   1      39.356  25.584  28.767  1.00  0.00     0.016 A 
ATOM     33  C   UNL A   1      41.049  27.814  28.602  1.00  0.00     0.010 A 
ATOM     34  C   UNL A   1      39.190  26.663  29.646  1.00  0.00     0.010 A 
ATOM     35  C   UNL A   1      40.086  27.748  29.617  1.00  0.00    -0.014 A 
BRANCH  35  36
ATOM     36  C   UNL A   1      40.177  28.710  30.749  1.00  0.00     0.031 A 
ATOM     37  C   UNL A   1      39.200  29.861  30.810  1.00  0.00     0.074 A 
ATOM     38  C   UNL A   1      41.044  28.514  31.760  1.00  0.00     0.049 A 
ATOM     39  N   UNL A   1      39.044  30.773  31.737  1.00  0.00    -0.248 NA
ATOM     40  C   UNL A   1      38.278  30.004  29.673  1.00  0.00     0.031 C 
ATOM     41  C   UNL A   1      42.007  27.418  31.845  1.00  0.00     0.029 A 
ATOM     42  N   UNL A   1      41.237  29.221  32.921  1.00  0.00    -0.354 N 
ATOM     43  C   UNL A   1      38.020  31.602  31.288  1.00  0.00     0.074 A 
ATOM     44  C   UNL A   1      37.626  31.114  29.985  1.00  0.00     0.031 C 
ATOM     45  C   UNL A   1      42.674  27.511  33.007  1.00  0.00     0.029 A 
ATOM     46  C   UNL A   1      42.212  28.693  33.734  1.00  0.00     0.049 A 
ATOM     47  H   UNL A   1      40.727  30.032  33.149  1.00  0.00     0.167 HD
ATOM     48  C   UNL A   1      37.447  32.663  31.907  1.00  0.00     0.037 A 
ATOM     49  C   UNL A   1      42.678  29.114  34.926  1.00  0.00     0.037 A 
ATOM     50  C   UNL A   1      37.840  33.142  33.208  1.00  0.00     0.049 A 
ATOM     51  C   UNL A   1      42.075  30.338  35.565  1.00  0.00     0.074 A 
ATOM     52  C   UNL A   1      37.306  34.191  33.935  1.00  0.00     0.029 A 
ATOM     53  N   UNL A   1      38.874  32.615  33.970  1.00  0.00    -0.354 N 
ATOM     54  N   UNL A   1      41.087  31.092  35.144  1.00  0.00    -0.248 NA
ATOM     55  C   UNL A   1      42.646  30.763  36.851  1.00  0.00     0.031 C 
ATOM     56  C   UNL A   1      38.066  34.349  35.098  1.00  0.00     0.029 A 
ATOM     57  C   UNL A   1      39.018  33.343  35.141  1.00  0.00     0.049 A 
ATOM     58  H   UNL A   1      39.424  31.840  33.716  1.00  0.00     0.167 HD
ATOM     59  C   UNL A   1      40.888  32.053  36.133  1.00  0.00     0.074 A 
ATOM     60  C   UNL A   1      41.855  31.776  37.176  1.00  0.00     0.031 C 
ATOM     61  C   UNL A   1      39.982  33.062  36.178  1.00  0.00     0.037 A 
BRANCH  48  62
ATOM     62  C   UNL A   1      36.366  33.406  31.162  1.00  0.00     0.058 A 
ATOM     63  C   UNL A   1      35.010  33.321  31.520  1.00  0.00     0.135 A 
ATOM     64  C   UNL A   1      36.697  34.225  30.069  1.00  0.00     0.135 A 
ATOM     65  F   UNL A   1      34.627  32.544  32.547  1.00  0.00    -0.206 F 
ATOM     66  C   UNL A   1      34.020  33.978  30.794  1.00  0.00     0.059 A 
ATOM     67  C   UNL A   1      35.729  34.924  29.354  1.00  0.00     0.059 A 
ATOM     68  F   UNL A   1      37.976  34.350  29.681  1.00  0.00    -0.206 F 
ATOM     69  C   UNL A   1      34.391  34.775  29.710  1.00  0.00     0.060 A 
BRANCH  69  70
ATOM     70  S   UNL A   1      33.094  35.601  28.761  1.00  0.00     0.124 S 
ATOM     71  O   UNL A   1      33.869  36.578  28.001  1.00  0.00    -0.237 OA
ATOM     72  O   UNL A   1      32.528  34.501  27.988  1.00  0.00    -0.237 OA
ATOM     73  O   UNL A   1      32.222  36.158  29.790  1.00  0.00    -0.744 OA
ENDBRANCH  69  70
ENDBRANCH  48  62
BRANCH  49  74
ATOM     74  C   UNL A   1      43.763  28.357  35.611  1.00  0.00     0.058 A 
ATOM     75  C   UNL A   1      43.467  27.363  36.556  1.00  0.00     0.135 A 
ATOM     76  C   UNL A   1      45.115  28.611  35.335  1.00  0.00     0.135 A 
ATOM     77  F   UNL A   1      42.190  27.091  36.866  1.00  0.00    -0.206 F 
ATOM     78  C   UNL A   1      44.470  26.655  37.210  1.00  0.00     0.059 A 
ATOM     79  C   UNL A   1      46.137  27.895  35.952  1.00  0.00     0.059 A 
ATOM     80  F   UNL A   1      45.455  29.547  34.436  1.00  0.00    -0.206 F 
ATOM     81  C   UNL A   1      45.803  26.924  36.894  1.00  0.00     0.060 A 
BRANCH  81  82
ATOM     82  S   UNL A   1      47.094  25.954  37.704  1.00  0.00     0.124 S 
ATOM     83  O   UNL A   1      48.245  26.843  37.595  1.00  0.00    -0.237 OA
ATOM     84  O   UNL A   1      46.545  25.779  39.045  1.00  0.00    -0.237 OA
ATOM     85  O   UNL A   1      47.158  24.738  36.897  1.00  0.00    -0.744 OA
ENDBRANCH  81  82
ENDBRANCH  49  74
BRANCH  61  86
ATOM     86  C   UNL A   1      39.949  33.914  37.423  1.00  0.00     0.058 A 
ATOM     87  C   UNL A   1      39.133  33.607  38.524  1.00  0.00     0.135 A 
ATOM     88  C   UNL A   1      40.774  35.049  37.522  1.00  0.00     0.135 A 
ATOM     89  F   UNL A   1      38.324  32.536  38.488  1.00  0.00    -0.206 F 
ATOM     90  C   UNL A   1      39.099  34.419  39.655  1.00  0.00     0.059 A 
ATOM     91  C   UNL A   1      40.786  35.850  38.659  1.00  0.00     0.059 A 
ATOM     92  F   UNL A   1      41.588  35.385  36.509  1.00  0.00    -0.206 F 
ATOM     93  C   UNL A   1      39.929  35.539  39.712  1.00  0.00     0.060 A 
BRANCH  93  94
ATOM     94  S   UNL A   1      39.876  36.582  41.185  1.00  0.00     0.124 S 
ATOM     95  O   UNL A   1      41.167  36.289  41.800  1.00  0.00    -0.237 OA
ATOM     96  O   UNL A   1      39.734  37.918  40.614  1.00  0.00    -0.237 OA
ATOM     97  O   UNL A   1      38.710  36.088  41.911  1.00  0.00    -0.744 OA
ENDBRANCH  93  94
ENDBRANCH  61  86
ENDBRANCH  35  36
ENDBRANCH  28  30
ENDBRANCH  27  28
ENDBRANCH  26  27
ENDBRANCH  25  26
ENDBRANCH  24  25
ENDBRANCH   1  24
TORSDOF 23
ENDMDL
MODEL 3
REMARK VINA RESULT:      -7.5      1.839      8.865
REMARK SMILES Cc1cc(C)c(C#N)c(NC[C@H](CC(C)C)C(=O)OCCOCCOC(=O)c2ccc(-c3c4nc(c(-c5c(F)cc(S(=O)(=O)[O-])cc5F)c5ccc([nH]5)c(-c5c(F)cc(S(=O)(=O)[O-])cc5F)c5nc(c(-c6c(F)cc(S(=O)(=O)[O-])cc6F)c6ccc3[nH]6)C=C5)C=C4)cc2)n1
REMARK SMILES IDX 21 1 20 2 19 3 17 4 18 5 12 6 11 7 10 8 9 10 1 11 2 12 3 13
REMARK SMILES IDX 94 14 4 15 5 16 6 17 7 18 8 19 13 20 14 21 15 22 16 23 22 24
REMARK SMILES IDX 23 25 24 26 25 27 26 28 27 29 28 30 29 31 93 32 30 33 92 34
REMARK SMILES IDX 31 35 32 36 33 37 86 38 34 39 91 40 85 41 87 42 35 43 90 44
REMARK SMILES IDX 84 45 83 46 36 48 70 49 49 50 69 51 50 52 53 53 68 54 88 55
REMARK SMILES IDX 51 56 52 57 67 59 89 60 54 61 37 62 38 63 47 64 39 65 40 66
REMARK SMILES IDX 46 67 48 68 41 69 42 70 43 71 44 72 45 73 71 74 72 75 81 76
REMARK SMILES IDX 73 77 74 78 80 79 82 80 75 81 76 82 77 83 78 84 79 85 55 86
REMARK SMILES IDX 56 87 65 88 57 89 58 90 64 91 66 92 59 93 60 94 61 95 62 96
REMARK SMILES IDX 63 97
REMARK H PARENT 10 9 87 47 53 58
REMARK Flexibility Score: inf
ROOT
ATOM      1  C   UNL A   1      38.195  32.286  34.807  1.00  0.00     0.202 C 
ENDROOT
BRANCH   1   2
ATOM      2  C   UNL A   1      38.700  31.196  35.755  1.00  0.00     0.261 C 
BRANCH   2   3
ATOM      3  O   UNL A   1      39.232  30.100  34.989  1.00  0.00    -0.463 OA
BRANCH   3   4
ATOM      4  C   UNL A   1      40.518  29.757  35.226  1.00  0.00     0.310 C 
ATOM      5  O   UNL A   1      40.911  29.194  36.241  1.00  0.00    -0.252 OA
BRANCH   4   6
ATOM      6  C   UNL A   1      41.443  30.084  34.063  1.00  0.00     0.118 C 
BRANCH   6   7
ATOM      7  C   UNL A   1      41.795  28.844  33.247  1.00  0.00     0.129 C 
BRANCH   7   8
ATOM      8  N   UNL A   1      41.848  27.645  34.038  1.00  0.00    -0.368 N 
ATOM      9  H   UNL A   1      41.108  27.546  34.681  1.00  0.00     0.162 HD
BRANCH   8  10
ATOM     10  C   UNL A   1      42.747  26.624  34.050  1.00  0.00     0.144 A 
ATOM     11  C   UNL A   1      45.615  26.191  31.776  1.00  0.00     0.067 C 
ATOM     12  C   UNL A   1      44.638  25.897  32.875  1.00  0.00     0.040 A 
ATOM     13  C   UNL A   1      44.741  24.754  33.647  1.00  0.00     0.028 A 
ATOM     14  N   UNL A   1      43.659  26.806  33.068  1.00  0.00    -0.235 NA
ATOM     15  C   UNL A   1      43.815  24.547  34.672  1.00  0.00    -0.028 A 
ATOM     16  C   UNL A   1      43.896  23.297  35.505  1.00  0.00     0.046 C 
ATOM     17  C   UNL A   1      42.811  25.517  34.897  1.00  0.00     0.097 A 
BRANCH  17  18
ATOM     18  C   UNL A   1      41.900  25.308  35.985  1.00  0.00     0.103 C 
ATOM     19  N   UNL A   1      41.102  25.130  36.807  1.00  0.00    -0.192 NA
ENDBRANCH  17  18
ENDBRANCH   8  10
ENDBRANCH   7   8
ENDBRANCH   6   7
BRANCH   6  20
ATOM     20  C   UNL A   1      42.616  31.081  34.232  1.00  0.00     0.020 C 
BRANCH  20  21
ATOM     21  C   UNL A   1      42.498  32.393  35.028  1.00  0.00    -0.017 C 
ATOM     22  C   UNL A   1      43.819  33.024  35.439  1.00  0.00     0.007 C 
ATOM     23  C   UNL A   1      41.692  33.399  34.192  1.00  0.00     0.007 C 
ENDBRANCH  20  21
ENDBRANCH   6  20
ENDBRANCH   4   6
ENDBRANCH   3   4
ENDBRANCH   2   3
ENDBRANCH   1   2
BRANCH   1  24
ATOM     24  O   UNL A   1      36.874  32.782  35.041  1.00  0.00    -0.374 OA
BRANCH  24  25
ATOM     25  C   UNL A   1      36.375  33.769  34.141  1.00  0.00     0.202 C 
BRANCH  25  26
ATOM     26  C   UNL A   1      35.436  33.300  33.019  1.00  0.00     0.261 C 
BRANCH  26  27
ATOM     27  O   UNL A   1      36.073  33.275  31.730  1.00  0.00    -0.460 OA
BRANCH  27  28
ATOM     28  C   UNL A   1      35.697  32.240  30.941  1.00  0.00     0.338 C 
ATOM     29  O   UNL A   1      34.587  32.056  30.468  1.00  0.00    -0.246 OA
BRANCH  28  30
ATOM     30  C   UNL A   1      36.872  31.436  30.540  1.00  0.00     0.060 A 
ATOM     31  C   UNL A   1      37.540  30.745  31.556  1.00  0.00     0.016 A 
ATOM     32  C   UNL A   1      37.366  31.417  29.234  1.00  0.00     0.016 A 
ATOM     33  C   UNL A   1      38.763  30.133  31.300  1.00  0.00     0.010 A 
ATOM     34  C   UNL A   1      38.589  30.783  28.972  1.00  0.00     0.010 A 
ATOM     35  C   UNL A   1      39.329  30.206  30.021  1.00  0.00    -0.014 A 
BRANCH  35  36
ATOM     36  C   UNL A   1      40.770  29.866  29.860  1.00  0.00     0.031 A 
ATOM     37  C   UNL A   1      41.143  28.509  29.311  1.00  0.00     0.074 A 
ATOM     38  C   UNL A   1      41.730  30.778  30.100  1.00  0.00     0.049 A 
ATOM     39  N   UNL A   1      42.324  28.026  29.016  1.00  0.00    -0.248 NA
ATOM     40  C   UNL A   1      40.037  27.570  29.064  1.00  0.00     0.031 C 
ATOM     41  C   UNL A   1      41.501  32.136  30.589  1.00  0.00     0.029 A 
ATOM     42  N   UNL A   1      43.092  30.703  29.945  1.00  0.00    -0.354 N 
ATOM     43  C   UNL A   1      42.103  26.728  28.564  1.00  0.00     0.074 A 
ATOM     44  C   UNL A   1      40.682  26.482  28.671  1.00  0.00     0.031 C 
ATOM     45  C   UNL A   1      42.679  32.776  30.670  1.00  0.00     0.029 A 
ATOM     46  C   UNL A   1      43.751  31.863  30.274  1.00  0.00     0.049 A 
ATOM     47  H   UNL A   1      43.554  29.893  29.628  1.00  0.00     0.167 HD
ATOM     48  C   UNL A   1      42.996  25.826  28.089  1.00  0.00     0.037 A 
ATOM     49  C   UNL A   1      45.067  32.156  30.260  1.00  0.00     0.037 A 
ATOM     50  C   UNL A   1      44.411  26.077  27.980  1.00  0.00     0.049 A 
ATOM     51  C   UNL A   1      46.050  31.114  29.795  1.00  0.00     0.074 A 
ATOM     52  C   UNL A   1      45.396  25.241  27.487  1.00  0.00     0.029 A 
ATOM     53  N   UNL A   1      45.044  27.245  28.384  1.00  0.00    -0.354 N 
ATOM     54  N   UNL A   1      45.824  29.903  29.341  1.00  0.00    -0.248 NA
ATOM     55  C   UNL A   1      47.472  31.484  29.830  1.00  0.00     0.031 C 
ATOM     56  C   UNL A   1      46.633  25.870  27.665  1.00  0.00     0.029 A 
ATOM     57  C   UNL A   1      46.412  27.134  28.186  1.00  0.00     0.049 A 
ATOM     58  H   UNL A   1      44.589  28.034  28.755  1.00  0.00     0.167 HD
ATOM     59  C   UNL A   1      47.069  29.384  28.996  1.00  0.00     0.074 A 
ATOM     60  C   UNL A   1      48.042  30.418  29.286  1.00  0.00     0.031 C 
ATOM     61  C   UNL A   1      47.377  28.169  28.475  1.00  0.00     0.037 A 
BRANCH  48  62
ATOM     62  C   UNL A   1      42.474  24.466  27.697  1.00  0.00     0.058 A 
ATOM     63  C   UNL A   1      42.002  24.185  26.403  1.00  0.00     0.135 A 
ATOM     64  C   UNL A   1      42.451  23.421  28.635  1.00  0.00     0.135 A 
ATOM     65  F   UNL A   1      41.984  25.145  25.465  1.00  0.00    -0.206 F 
ATOM     66  C   UNL A   1      41.481  22.937  26.070  1.00  0.00     0.059 A 
ATOM     67  C   UNL A   1      41.974  22.153  28.314  1.00  0.00     0.059 A 
ATOM     68  F   UNL A   1      42.893  23.625  29.886  1.00  0.00    -0.206 F 
ATOM     69  C   UNL A   1      41.469  21.928  27.035  1.00  0.00     0.060 A 
BRANCH  69  70
ATOM     70  S   UNL A   1      40.768  20.323  26.597  1.00  0.00     0.124 S 
ATOM     71  O   UNL A   1      40.778  19.640  27.888  1.00  0.00    -0.237 OA
ATOM     72  O   UNL A   1      39.452  20.689  26.084  1.00  0.00    -0.237 OA
ATOM     73  O   UNL A   1      41.704  19.801  25.607  1.00  0.00    -0.744 OA
ENDBRANCH  69  70
ENDBRANCH  48  62
BRANCH  49  74
ATOM     74  C   UNL A   1      45.533  33.507  30.679  1.00  0.00     0.058 A 
ATOM     75  C   UNL A   1      45.601  34.566  29.761  1.00  0.00     0.135 A 
ATOM     76  C   UNL A   1      45.919  33.767  32.003  1.00  0.00     0.135 A 
ATOM     77  F   UNL A   1      45.257  34.367  28.479  1.00  0.00    -0.206 F 
ATOM     78  C   UNL A   1      46.045  35.830  30.136  1.00  0.00     0.059 A 
ATOM     79  C   UNL A   1      46.336  35.031  32.410  1.00  0.00     0.059 A 
ATOM     80  F   UNL A   1      45.868  32.792  32.923  1.00  0.00    -0.206 F 
ATOM     81  C   UNL A   1      46.402  36.054  31.467  1.00  0.00     0.060 A 
BRANCH  81  82
ATOM     82  S   UNL A   1      46.916  37.716  31.955  1.00  0.00     0.124 S 
ATOM     83  O   UNL A   1      46.505  38.504  30.799  1.00  0.00    -0.237 OA
ATOM     84  O   UNL A   1      46.145  37.923  33.177  1.00  0.00    -0.237 OA
ATOM     85  O   UNL A   1      48.357  37.580  32.147  1.00  0.00    -0.744 OA
ENDBRANCH  81  82
ENDBRANCH  49  74
BRANCH  61  86
ATOM     86  C   UNL A   1      48.821  27.904  28.128  1.00  0.00     0.058 A 
ATOM     87  C   UNL A   1      49.350  28.168  26.854  1.00  0.00     0.135 A 
ATOM     88  C   UNL A   1      49.699  27.398  29.104  1.00  0.00     0.135 A 
ATOM     89  F   UNL A   1      48.560  28.651  25.881  1.00  0.00    -0.206 F 
ATOM     90  C   UNL A   1      50.680  27.895  26.546  1.00  0.00     0.059 A 
ATOM     91  C   UNL A   1      51.041  27.157  28.829  1.00  0.00     0.059 A 
ATOM     92  F   UNL A   1      49.257  27.142  30.345  1.00  0.00    -0.206 F 
ATOM     93  C   UNL A   1      51.518  27.389  27.541  1.00  0.00     0.060 A 
BRANCH  93  94
ATOM     94  S   UNL A   1      53.241  27.042  27.128  1.00  0.00     0.124 S 
ATOM     95  O   UNL A   1      53.434  27.873  25.944  1.00  0.00    -0.237 OA
ATOM     96  O   UNL A   1      53.942  27.479  28.332  1.00  0.00    -0.237 OA
ATOM     97  O   UNL A   1      53.251  25.601  26.892  1.00  0.00    -0.744 OA
ENDBRANCH  93  94
ENDBRANCH  61  86
ENDBRANCH  35  36
ENDBRANCH  28  30
ENDBRANCH  27  28
ENDBRANCH  26  27
ENDBRANCH  25  26
ENDBRANCH  24  25
ENDBRANCH   1  24
TORSDOF 23
ENDMDL
