MODEL 1
REMARK VINA RESULT:     -11.6      0.000      0.000
REMARK SMILES Cc1cn2c(=O)cc(CSc3ccccc3C(=O)OCCOCCOC(=O)c3ccc(-c4c5nc(c(-c6c(F)cc(S(=O)(=O)[O-])cc6F)c6ccc([nH]6)c(-c6c(F)cc(S(=O)(=O)[O-])cc6F)c6nc(c(-c7c(F)cc(S(=O)(=O)[O-])cc7F)c7ccc4[nH]7)C=C6)C=C5)cc3)nc2s1
REMARK SMILES IDX 22 1 21 2 20 3 19 4 17 5 18 6 16 7 11 8 12 9 13 10 15 11
REMARK SMILES IDX 14 12 10 13 9 14 8 15 1 16 2 17 3 18 96 19 4 20 95 21 5 22
REMARK SMILES IDX 94 23 6 24 7 25 23 26 24 27 25 28 26 29 27 30 28 31 29 32
REMARK SMILES IDX 93 33 30 34 92 35 31 36 32 37 33 38 86 39 34 40 91 41 85 42
REMARK SMILES IDX 87 43 35 44 90 45 84 46 83 47 36 49 70 50 49 51 69 52 50 53
REMARK SMILES IDX 53 54 68 55 88 56 51 57 52 58 67 60 89 61 54 62 37 63 38 64
REMARK SMILES IDX 47 65 39 66 40 67 46 68 48 69 41 70 42 71 43 72 44 73 45 74
REMARK SMILES IDX 71 75 72 76 81 77 73 78 74 79 80 80 82 81 75 82 76 83 77 84
REMARK SMILES IDX 78 85 79 86 55 87 56 88 65 89 57 90 58 91 64 92 66 93 59 94
REMARK SMILES IDX 60 95 61 96 62 97 63 98
REMARK H PARENT 87 48 53 59
REMARK Flexibility Score: inf
ROOT
ATOM      1  O   UNL A   1      38.699  23.136  26.173  1.00  0.00    -0.374 OA
ENDROOT
BRANCH   1   2
ATOM      2  C   UNL A   1      37.494  23.776  25.786  1.00  0.00     0.202 C 
BRANCH   2   3
ATOM      3  C   UNL A   1      36.087  23.276  26.130  1.00  0.00     0.261 C 
BRANCH   3   4
ATOM      4  O   UNL A   1      35.540  22.216  25.368  1.00  0.00    -0.460 OA
BRANCH   4   5
ATOM      5  C   UNL A   1      34.727  21.398  26.058  1.00  0.00     0.339 C 
ATOM      6  O   UNL A   1      34.398  21.472  27.233  1.00  0.00    -0.246 OA
BRANCH   5   7
ATOM      7  C   UNL A   1      34.177  20.418  25.141  1.00  0.00     0.073 A 
ATOM      8  C   UNL A   1      32.891  20.575  24.610  1.00  0.00     0.022 A 
ATOM      9  C   UNL A   1      32.331  19.444  23.999  1.00  0.00     0.016 A 
ATOM     10  C   UNL A   1      33.075  18.259  23.843  1.00  0.00     0.001 A 
ATOM     11  C   UNL A   1      34.957  19.273  24.924  1.00  0.00     0.017 A 
ATOM     12  C   UNL A   1      34.401  18.187  24.269  1.00  0.00     0.001 A 
BRANCH   8  13
ATOM     13  S   UNL A   1      31.876  22.041  24.869  1.00  0.00    -0.119 SA
BRANCH  13  14
ATOM     14  C   UNL A   1      32.478  23.317  23.676  1.00  0.00     0.131 C 
BRANCH  14  15
ATOM     15  C   UNL A   1      31.875  24.711  23.785  1.00  0.00     0.059 A 
ATOM     16  C   UNL A   1      32.029  30.259  26.097  1.00  0.00     0.058 C 
ATOM     17  C   UNL A   1      31.508  28.963  25.565  1.00  0.00     0.022 A 
ATOM     18  C   UNL A   1      31.276  28.678  24.275  1.00  0.00     0.111 A 
ATOM     19  S   UNL A   1      31.384  27.506  26.547  1.00  0.00    -0.102 S 
ATOM     20  N   UNL A   1      31.180  27.324  24.010  1.00  0.00    -0.258 N 
ATOM     21  C   UNL A   1      31.427  26.515  25.091  1.00  0.00     0.197 A 
ATOM     22  C   UNL A   1      31.038  26.773  22.762  1.00  0.00     0.258 A 
ATOM     23  N   UNL A   1      31.731  25.255  25.053  1.00  0.00    -0.224 NA
ATOM     24  O   UNL A   1      30.648  27.353  21.752  1.00  0.00    -0.269 OA
ATOM     25  C   UNL A   1      31.449  25.347  22.678  1.00  0.00     0.097 A 
ENDBRANCH  14  15
ENDBRANCH  13  14
ENDBRANCH   8  13
ENDBRANCH   5   7
ENDBRANCH   4   5
ENDBRANCH   3   4
ENDBRANCH   2   3
ENDBRANCH   1   2
BRANCH   1  26
ATOM     26  C   UNL A   1      38.964  21.754  25.983  1.00  0.00     0.202 C 
BRANCH  26  27
ATOM     27  C   UNL A   1      40.250  21.123  26.492  1.00  0.00     0.261 C 
BRANCH  27  28
ATOM     28  O   UNL A   1      41.362  21.939  26.203  1.00  0.00    -0.460 OA
BRANCH  28  29
ATOM     29  C   UNL A   1      42.499  21.219  26.090  1.00  0.00     0.338 C 
ATOM     30  O   UNL A   1      42.608  20.005  26.145  1.00  0.00    -0.246 OA
BRANCH  29  31
ATOM     31  C   UNL A   1      43.623  22.146  25.825  1.00  0.00     0.060 A 
ATOM     32  C   UNL A   1      44.329  22.422  26.989  1.00  0.00     0.016 A 
ATOM     33  C   UNL A   1      43.368  23.110  24.842  1.00  0.00     0.016 A 
ATOM     34  C   UNL A   1      44.202  23.702  27.439  1.00  0.00     0.010 A 
ATOM     35  C   UNL A   1      43.230  24.390  25.289  1.00  0.00     0.010 A 
ATOM     36  C   UNL A   1      43.520  24.619  26.627  1.00  0.00    -0.014 A 
BRANCH  36  37
ATOM     37  C   UNL A   1      43.197  25.879  27.227  1.00  0.00     0.031 A 
ATOM     38  C   UNL A   1      44.255  26.855  26.954  1.00  0.00     0.074 A 
ATOM     39  C   UNL A   1      42.092  26.083  27.959  1.00  0.00     0.049 A 
ATOM     40  N   UNL A   1      45.233  27.163  27.734  1.00  0.00    -0.248 NA
ATOM     41  C   UNL A   1      44.409  27.302  25.564  1.00  0.00     0.031 C 
ATOM     42  C   UNL A   1      40.883  25.266  28.075  1.00  0.00     0.029 A 
ATOM     43  N   UNL A   1      41.814  27.162  28.725  1.00  0.00    -0.354 N 
ATOM     44  C   UNL A   1      45.995  28.057  27.003  1.00  0.00     0.074 A 
ATOM     45  C   UNL A   1      45.595  27.905  25.629  1.00  0.00     0.031 C 
ATOM     46  C   UNL A   1      39.919  25.996  28.688  1.00  0.00     0.029 A 
ATOM     47  C   UNL A   1      40.494  27.257  29.132  1.00  0.00     0.049 A 
ATOM     48  H   UNL A   1      42.496  27.826  28.975  1.00  0.00     0.167 HD
ATOM     49  C   UNL A   1      46.656  29.063  27.628  1.00  0.00     0.037 A 
ATOM     50  C   UNL A   1      39.944  28.353  29.713  1.00  0.00     0.037 A 
ATOM     51  C   UNL A   1      46.786  28.806  29.042  1.00  0.00     0.049 A 
ATOM     52  C   UNL A   1      41.070  29.145  30.286  1.00  0.00     0.074 A 
ATOM     53  C   UNL A   1      47.414  27.841  29.805  1.00  0.00     0.029 A 
ATOM     54  N   UNL A   1      45.870  29.413  29.867  1.00  0.00    -0.354 N 
ATOM     55  N   UNL A   1      41.803  28.749  31.291  1.00  0.00    -0.248 NA
ATOM     56  C   UNL A   1      41.663  30.196  29.469  1.00  0.00     0.031 C 
ATOM     57  C   UNL A   1      46.573  27.645  30.940  1.00  0.00     0.029 A 
ATOM     58  C   UNL A   1      45.490  28.520  30.837  1.00  0.00     0.049 A 
ATOM     59  H   UNL A   1      45.539  30.336  29.776  1.00  0.00     0.167 HD
ATOM     60  C   UNL A   1      43.087  29.186  30.997  1.00  0.00     0.074 A 
ATOM     61  C   UNL A   1      42.916  30.164  29.929  1.00  0.00     0.031 C 
ATOM     62  C   UNL A   1      44.180  28.508  31.458  1.00  0.00     0.037 A 
BRANCH  49  63
ATOM     63  C   UNL A   1      46.776  30.442  27.036  1.00  0.00     0.058 A 
ATOM     64  C   UNL A   1      48.022  31.092  27.079  1.00  0.00     0.135 A 
ATOM     65  C   UNL A   1      45.671  31.256  26.690  1.00  0.00     0.135 A 
ATOM     66  F   UNL A   1      49.133  30.415  27.409  1.00  0.00    -0.206 F 
ATOM     67  C   UNL A   1      48.148  32.464  26.867  1.00  0.00     0.059 A 
ATOM     68  C   UNL A   1      45.784  32.608  26.413  1.00  0.00     0.059 A 
ATOM     69  F   UNL A   1      44.408  30.813  26.705  1.00  0.00    -0.206 F 
ATOM     70  C   UNL A   1      47.019  33.214  26.550  1.00  0.00     0.060 A 
BRANCH  70  71
ATOM     71  S   UNL A   1      47.152  34.999  26.393  1.00  0.00     0.124 S 
ATOM     72  O   UNL A   1      48.107  35.122  25.298  1.00  0.00    -0.237 OA
ATOM     73  O   UNL A   1      45.775  35.377  26.093  1.00  0.00    -0.237 OA
ATOM     74  O   UNL A   1      47.638  35.416  27.706  1.00  0.00    -0.744 OA
ENDBRANCH  70  71
ENDBRANCH  49  63
BRANCH  50  75
ATOM     75  C   UNL A   1      38.613  28.961  29.453  1.00  0.00     0.058 A 
ATOM     76  C   UNL A   1      37.685  29.091  30.502  1.00  0.00     0.135 A 
ATOM     77  C   UNL A   1      38.354  29.715  28.292  1.00  0.00     0.135 A 
ATOM     78  F   UNL A   1      37.858  28.410  31.645  1.00  0.00    -0.206 F 
ATOM     79  C   UNL A   1      36.615  29.986  30.441  1.00  0.00     0.059 A 
ATOM     80  C   UNL A   1      37.286  30.606  28.204  1.00  0.00     0.059 A 
ATOM     81  F   UNL A   1      39.191  29.686  27.244  1.00  0.00    -0.206 F 
ATOM     82  C   UNL A   1      36.443  30.765  29.299  1.00  0.00     0.060 A 
BRANCH  82  83
ATOM     83  S   UNL A   1      35.198  32.075  29.308  1.00  0.00     0.124 S 
ATOM     84  O   UNL A   1      34.200  31.550  28.383  1.00  0.00    -0.237 OA
ATOM     85  O   UNL A   1      34.808  32.115  30.714  1.00  0.00    -0.237 OA
ATOM     86  O   UNL A   1      35.934  33.245  28.835  1.00  0.00    -0.744 OA
ENDBRANCH  82  83
ENDBRANCH  50  75
BRANCH  62  87
ATOM     87  C   UNL A   1      43.964  27.529  32.582  1.00  0.00     0.058 A 
ATOM     88  C   UNL A   1      43.802  27.882  33.935  1.00  0.00     0.135 A 
ATOM     89  C   UNL A   1      43.809  26.175  32.250  1.00  0.00     0.135 A 
ATOM     90  F   UNL A   1      43.841  29.165  34.321  1.00  0.00    -0.206 F 
ATOM     91  C   UNL A   1      43.543  26.921  34.916  1.00  0.00     0.059 A 
ATOM     92  C   UNL A   1      43.522  25.207  33.206  1.00  0.00     0.059 A 
ATOM     93  F   UNL A   1      43.896  25.785  30.967  1.00  0.00    -0.206 F 
ATOM     94  C   UNL A   1      43.405  25.584  34.542  1.00  0.00     0.060 A 
BRANCH  94  95
ATOM     95  S   UNL A   1      43.017  24.347  35.799  1.00  0.00     0.124 S 
ATOM     96  O   UNL A   1      43.959  23.278  35.482  1.00  0.00    -0.237 OA
ATOM     97  O   UNL A   1      43.271  25.068  37.042  1.00  0.00    -0.237 OA
ATOM     98  O   UNL A   1      41.613  24.031  35.549  1.00  0.00    -0.744 OA
ENDBRANCH  94  95
ENDBRANCH  62  87
ENDBRANCH  36  37
ENDBRANCH  29  31
ENDBRANCH  28  29
ENDBRANCH  27  28
ENDBRANCH  26  27
ENDBRANCH   1  26
TORSDOF 20
ENDMDL
MODEL 2
REMARK VINA RESULT:     -11.5      2.584      9.255
REMARK SMILES Cc1cn2c(=O)cc(CSc3ccccc3C(=O)OCCOCCOC(=O)c3ccc(-c4c5nc(c(-c6c(F)cc(S(=O)(=O)[O-])cc6F)c6ccc([nH]6)c(-c6c(F)cc(S(=O)(=O)[O-])cc6F)c6nc(c(-c7c(F)cc(S(=O)(=O)[O-])cc7F)c7ccc4[nH]7)C=C6)C=C5)cc3)nc2s1
REMARK SMILES IDX 22 1 21 2 20 3 19 4 17 5 18 6 16 7 11 8 12 9 13 10 15 11
REMARK SMILES IDX 14 12 10 13 9 14 8 15 1 16 2 17 3 18 96 19 4 20 95 21 5 22
REMARK SMILES IDX 94 23 6 24 7 25 23 26 24 27 25 28 26 29 27 30 28 31 29 32
REMARK SMILES IDX 93 33 30 34 92 35 31 36 32 37 33 38 86 39 34 40 91 41 85 42
REMARK SMILES IDX 87 43 35 44 90 45 84 46 83 47 36 49 70 50 49 51 69 52 50 53
REMARK SMILES IDX 53 54 68 55 88 56 51 57 52 58 67 60 89 61 54 62 37 63 38 64
REMARK SMILES IDX 47 65 39 66 40 67 46 68 48 69 41 70 42 71 43 72 44 73 45 74
REMARK SMILES IDX 71 75 72 76 81 77 73 78 74 79 80 80 82 81 75 82 76 83 77 84
REMARK SMILES IDX 78 85 79 86 55 87 56 88 65 89 57 90 58 91 64 92 66 93 59 94
REMARK SMILES IDX 60 95 61 96 62 97 63 98
REMARK H PARENT 87 48 53 59
REMARK Flexibility Score: inf
ROOT
ATOM      1  O   UNL A   1      32.934  28.633  26.283  1.00  0.00    -0.374 OA
ENDROOT
BRANCH   1   2
ATOM      2  C   UNL A   1      32.672  29.234  25.025  1.00  0.00     0.202 C 
BRANCH   2   3
ATOM      3  C   UNL A   1      33.043  28.626  23.670  1.00  0.00     0.261 C 
BRANCH   3   4
ATOM      4  O   UNL A   1      32.233  28.924  22.548  1.00  0.00    -0.460 OA
BRANCH   4   5
ATOM      5  C   UNL A   1      31.283  28.009  22.290  1.00  0.00     0.339 C 
ATOM      6  O   UNL A   1      31.425  26.849  21.933  1.00  0.00    -0.246 OA
BRANCH   5   7
ATOM      7  C   UNL A   1      29.992  28.586  22.614  1.00  0.00     0.073 A 
ATOM      8  C   UNL A   1      29.014  27.831  23.273  1.00  0.00     0.022 A 
ATOM      9  C   UNL A   1      27.714  28.355  23.260  1.00  0.00     0.016 A 
ATOM     10  C   UNL A   1      27.446  29.622  22.705  1.00  0.00     0.001 A 
ATOM     11  C   UNL A   1      29.757  29.880  22.128  1.00  0.00     0.017 A 
ATOM     12  C   UNL A   1      28.474  30.401  22.175  1.00  0.00     0.001 A 
BRANCH   8  13
ATOM     13  S   UNL A   1      29.297  26.171  23.914  1.00  0.00    -0.119 SA
BRANCH  13  14
ATOM     14  C   UNL A   1      30.392  26.355  25.390  1.00  0.00     0.131 C 
BRANCH  14  15
ATOM     15  C   UNL A   1      31.431  25.267  25.625  1.00  0.00     0.059 A 
ATOM     16  C   UNL A   1      37.195  23.578  25.913  1.00  0.00     0.058 C 
ATOM     17  C   UNL A   1      35.722  23.542  25.661  1.00  0.00     0.022 A 
ATOM     18  C   UNL A   1      34.778  23.200  26.552  1.00  0.00     0.111 A 
ATOM     19  S   UNL A   1      34.980  24.221  24.215  1.00  0.00    -0.102 S 
ATOM     20  N   UNL A   1      33.506  23.618  26.208  1.00  0.00    -0.258 N 
ATOM     21  C   UNL A   1      33.448  24.382  25.069  1.00  0.00     0.197 A 
ATOM     22  C   UNL A   1      32.389  23.475  26.992  1.00  0.00     0.258 A 
ATOM     23  N   UNL A   1      32.475  25.163  24.716  1.00  0.00    -0.224 NA
ATOM     24  O   UNL A   1      32.256  22.692  27.928  1.00  0.00    -0.269 OA
ATOM     25  C   UNL A   1      31.286  24.410  26.652  1.00  0.00     0.097 A 
ENDBRANCH  14  15
ENDBRANCH  13  14
ENDBRANCH   8  13
ENDBRANCH   5   7
ENDBRANCH   4   5
ENDBRANCH   3   4
ENDBRANCH   2   3
ENDBRANCH   1   2
BRANCH   1  26
ATOM     26  C   UNL A   1      33.991  29.022  27.147  1.00  0.00     0.202 C 
BRANCH  26  27
ATOM     27  C   UNL A   1      34.430  30.475  27.247  1.00  0.00     0.261 C 
BRANCH  27  28
ATOM     28  O   UNL A   1      35.807  30.567  27.533  1.00  0.00    -0.460 OA
BRANCH  28  29
ATOM     29  C   UNL A   1      36.126  31.752  28.096  1.00  0.00     0.338 C 
ATOM     30  O   UNL A   1      36.028  32.857  27.589  1.00  0.00    -0.246 OA
BRANCH  29  31
ATOM     31  C   UNL A   1      36.574  31.510  29.487  1.00  0.00     0.060 A 
ATOM     32  C   UNL A   1      37.716  32.245  29.779  1.00  0.00     0.016 A 
ATOM     33  C   UNL A   1      36.369  30.205  29.950  1.00  0.00     0.016 A 
ATOM     34  C   UNL A   1      38.843  31.499  29.951  1.00  0.00     0.010 A 
ATOM     35  C   UNL A   1      37.493  29.451  30.114  1.00  0.00     0.010 A 
ATOM     36  C   UNL A   1      38.709  30.103  29.966  1.00  0.00    -0.014 A 
BRANCH  36  37
ATOM     37  C   UNL A   1      39.926  29.349  29.908  1.00  0.00     0.031 A 
ATOM     38  C   UNL A   1      40.438  29.109  31.259  1.00  0.00     0.074 A 
ATOM     39  C   UNL A   1      40.501  28.970  28.757  1.00  0.00     0.049 A 
ATOM     40  N   UNL A   1      41.339  29.798  31.870  1.00  0.00    -0.248 NA
ATOM     41  C   UNL A   1      39.659  28.210  32.119  1.00  0.00     0.031 C 
ATOM     42  C   UNL A   1      39.951  28.942  27.401  1.00  0.00     0.029 A 
ATOM     43  N   UNL A   1      41.738  28.446  28.602  1.00  0.00    -0.354 N 
ATOM     44  C   UNL A   1      41.413  29.234  33.132  1.00  0.00     0.074 A 
ATOM     45  C   UNL A   1      40.213  28.460  33.304  1.00  0.00     0.031 C 
ATOM     46  C   UNL A   1      40.778  28.218  26.608  1.00  0.00     0.029 A 
ATOM     47  C   UNL A   1      41.971  27.869  27.365  1.00  0.00     0.049 A 
ATOM     48  H   UNL A   1      42.419  28.473  29.312  1.00  0.00     0.167 HD
ATOM     49  C   UNL A   1      42.596  29.196  33.795  1.00  0.00     0.037 A 
ATOM     50  C   UNL A   1      43.046  27.098  27.064  1.00  0.00     0.037 A 
ATOM     51  C   UNL A   1      43.543  30.129  33.232  1.00  0.00     0.049 A 
ATOM     52  C   UNL A   1      44.104  27.432  28.060  1.00  0.00     0.074 A 
ATOM     53  C   UNL A   1      43.598  31.502  33.095  1.00  0.00     0.029 A 
ATOM     54  N   UNL A   1      44.462  29.617  32.347  1.00  0.00    -0.354 N 
ATOM     55  N   UNL A   1      44.712  28.585  28.119  1.00  0.00    -0.248 NA
ATOM     56  C   UNL A   1      44.192  26.627  29.272  1.00  0.00     0.031 C 
ATOM     57  C   UNL A   1      44.263  31.736  31.856  1.00  0.00     0.029 A 
ATOM     58  C   UNL A   1      44.614  30.500  31.309  1.00  0.00     0.049 A 
ATOM     59  H   UNL A   1      44.933  28.757  32.442  1.00  0.00     0.167 HD
ATOM     60  C   UNL A   1      44.896  28.829  29.473  1.00  0.00     0.074 A 
ATOM     61  C   UNL A   1      44.663  27.544  30.122  1.00  0.00     0.031 C 
ATOM     62  C   UNL A   1      44.946  30.107  29.954  1.00  0.00     0.037 A 
BRANCH  49  63
ATOM     63  C   UNL A   1      43.013  28.020  34.637  1.00  0.00     0.058 A 
ATOM     64  C   UNL A   1      43.309  28.230  35.996  1.00  0.00     0.135 A 
ATOM     65  C   UNL A   1      43.404  26.766  34.111  1.00  0.00     0.135 A 
ATOM     66  F   UNL A   1      42.993  29.392  36.591  1.00  0.00    -0.206 F 
ATOM     67  C   UNL A   1      44.009  27.294  36.754  1.00  0.00     0.059 A 
ATOM     68  C   UNL A   1      44.043  25.795  34.865  1.00  0.00     0.059 A 
ATOM     69  F   UNL A   1      43.286  26.451  32.816  1.00  0.00    -0.206 F 
ATOM     70  C   UNL A   1      44.384  26.086  36.172  1.00  0.00     0.060 A 
BRANCH  70  71
ATOM     71  S   UNL A   1      45.390  24.924  37.105  1.00  0.00     0.124 S 
ATOM     72  O   UNL A   1      46.651  25.648  37.201  1.00  0.00    -0.237 OA
ATOM     73  O   UNL A   1      44.626  24.794  38.342  1.00  0.00    -0.237 OA
ATOM     74  O   UNL A   1      45.404  23.735  36.256  1.00  0.00    -0.744 OA
ENDBRANCH  70  71
ENDBRANCH  49  63
BRANCH  50  75
ATOM     75  C   UNL A   1      43.082  25.839  26.277  1.00  0.00     0.058 A 
ATOM     76  C   UNL A   1      44.094  25.638  25.320  1.00  0.00     0.135 A 
ATOM     77  C   UNL A   1      42.356  24.696  26.667  1.00  0.00     0.135 A 
ATOM     78  F   UNL A   1      44.835  26.673  24.895  1.00  0.00    -0.206 F 
ATOM     79  C   UNL A   1      44.430  24.368  24.848  1.00  0.00     0.059 A 
ATOM     80  C   UNL A   1      42.667  23.420  26.201  1.00  0.00     0.059 A 
ATOM     81  F   UNL A   1      41.390  24.771  27.593  1.00  0.00    -0.206 F 
ATOM     82  C   UNL A   1      43.732  23.259  25.321  1.00  0.00     0.060 A 
BRANCH  82  83
ATOM     83  S   UNL A   1      44.310  21.603  24.883  1.00  0.00     0.124 S 
ATOM     84  O   UNL A   1      45.530  21.491  25.674  1.00  0.00    -0.237 OA
ATOM     85  O   UNL A   1      43.192  20.768  25.311  1.00  0.00    -0.237 OA
ATOM     86  O   UNL A   1      44.507  21.683  23.438  1.00  0.00    -0.744 OA
ENDBRANCH  82  83
ENDBRANCH  50  75
BRANCH  62  87
ATOM     87  C   UNL A   1      45.181  31.213  28.957  1.00  0.00     0.058 A 
ATOM     88  C   UNL A   1      46.446  31.630  28.504  1.00  0.00     0.135 A 
ATOM     89  C   UNL A   1      44.058  31.802  28.358  1.00  0.00     0.135 A 
ATOM     90  F   UNL A   1      47.566  31.049  28.958  1.00  0.00    -0.206 F 
ATOM     91  C   UNL A   1      46.584  32.623  27.530  1.00  0.00     0.059 A 
ATOM     92  C   UNL A   1      44.172  32.770  27.367  1.00  0.00     0.059 A 
ATOM     93  F   UNL A   1      42.824  31.404  28.709  1.00  0.00    -0.206 F 
ATOM     94  C   UNL A   1      45.439  33.189  26.967  1.00  0.00     0.060 A 
BRANCH  94  95
ATOM     95  S   UNL A   1      45.612  34.434  25.670  1.00  0.00     0.124 S 
ATOM     96  O   UNL A   1      47.044  34.396  25.394  1.00  0.00    -0.237 OA
ATOM     97  O   UNL A   1      44.749  33.914  24.614  1.00  0.00    -0.237 OA
ATOM     98  O   UNL A   1      45.134  35.659  26.305  1.00  0.00    -0.744 OA
ENDBRANCH  94  95
ENDBRANCH  62  87
ENDBRANCH  36  37
ENDBRANCH  29  31
ENDBRANCH  28  29
ENDBRANCH  27  28
ENDBRANCH  26  27
ENDBRANCH   1  26
TORSDOF 20
ENDMDL
MODEL 3
REMARK VINA RESULT:     -11.3      2.228      2.870
REMARK SMILES Cc1cn2c(=O)cc(CSc3ccccc3C(=O)OCCOCCOC(=O)c3ccc(-c4c5nc(c(-c6c(F)cc(S(=O)(=O)[O-])cc6F)c6ccc([nH]6)c(-c6c(F)cc(S(=O)(=O)[O-])cc6F)c6nc(c(-c7c(F)cc(S(=O)(=O)[O-])cc7F)c7ccc4[nH]7)C=C6)C=C5)cc3)nc2s1
REMARK SMILES IDX 22 1 21 2 20 3 19 4 17 5 18 6 16 7 11 8 12 9 13 10 15 11
REMARK SMILES IDX 14 12 10 13 9 14 8 15 1 16 2 17 3 18 96 19 4 20 95 21 5 22
REMARK SMILES IDX 94 23 6 24 7 25 23 26 24 27 25 28 26 29 27 30 28 31 29 32
REMARK SMILES IDX 93 33 30 34 92 35 31 36 32 37 33 38 86 39 34 40 91 41 85 42
REMARK SMILES IDX 87 43 35 44 90 45 84 46 83 47 36 49 70 50 49 51 69 52 50 53
REMARK SMILES IDX 53 54 68 55 88 56 51 57 52 58 67 60 89 61 54 62 37 63 38 64
REMARK SMILES IDX 47 65 39 66 40 67 46 68 48 69 41 70 42 71 43 72 44 73 45 74
REMARK SMILES IDX 71 75 72 76 81 77 73 78 74 79 80 80 82 81 75 82 76 83 77 84
REMARK SMILES IDX 78 85 79 86 55 87 56 88 65 89 57 90 58 91 64 92 66 93 59 94
REMARK SMILES IDX 60 95 61 96 62 97 63 98
REMARK H PARENT 87 48 53 59
REMARK Flexibility Score: inf
ROOT
ATOM      1  O   UNL A   1      37.867  23.230  25.173  1.00  0.00    -0.374 OA
ENDROOT
BRANCH   1   2
ATOM      2  C   UNL A   1      36.656  23.060  24.456  1.00  0.00     0.202 C 
BRANCH   2   3
ATOM      3  C   UNL A   1      35.383  22.426  25.024  1.00  0.00     0.261 C 
BRANCH   3   4
ATOM      4  O   UNL A   1      35.416  21.063  25.404  1.00  0.00    -0.460 OA
BRANCH   4   5
ATOM      5  C   UNL A   1      34.215  20.541  25.703  1.00  0.00     0.339 C 
ATOM      6  O   UNL A   1      33.507  20.775  26.672  1.00  0.00    -0.246 OA
BRANCH   5   7
ATOM      7  C   UNL A   1      33.797  19.691  24.605  1.00  0.00     0.073 A 
ATOM      8  C   UNL A   1      32.728  20.059  23.779  1.00  0.00     0.022 A 
ATOM      9  C   UNL A   1      32.201  19.049  22.961  1.00  0.00     0.016 A 
ATOM     10  C   UNL A   1      32.795  17.774  22.907  1.00  0.00     0.001 A 
ATOM     11  C   UNL A   1      34.447  18.452  24.504  1.00  0.00     0.017 A 
ATOM     12  C   UNL A   1      33.941  17.487  23.648  1.00  0.00     0.001 A 
BRANCH   8  13
ATOM     13  S   UNL A   1      31.886  21.648  23.884  1.00  0.00    -0.119 SA
BRANCH  13  14
ATOM     14  C   UNL A   1      32.674  22.747  22.625  1.00  0.00     0.131 C 
BRANCH  14  15
ATOM     15  C   UNL A   1      32.764  24.231  22.955  1.00  0.00     0.059 A 
ATOM     16  C   UNL A   1      34.316  28.608  26.774  1.00  0.00     0.058 C 
ATOM     17  C   UNL A   1      33.567  27.840  25.733  1.00  0.00     0.022 A 
ATOM     18  C   UNL A   1      33.818  27.849  24.414  1.00  0.00     0.111 A 
ATOM     19  S   UNL A   1      32.405  26.575  26.126  1.00  0.00    -0.102 S 
ATOM     20  N   UNL A   1      33.263  26.782  23.732  1.00  0.00    -0.258 N 
ATOM     21  C   UNL A   1      32.635  25.860  24.532  1.00  0.00     0.197 A 
ATOM     22  C   UNL A   1      33.451  26.515  22.400  1.00  0.00     0.258 A 
ATOM     23  N   UNL A   1      32.339  24.640  24.212  1.00  0.00    -0.224 NA
ATOM     24  O   UNL A   1      33.835  27.311  21.547  1.00  0.00    -0.269 OA
ATOM     25  C   UNL A   1      33.186  25.103  22.021  1.00  0.00     0.097 A 
ENDBRANCH  14  15
ENDBRANCH  13  14
ENDBRANCH   8  13
ENDBRANCH   5   7
ENDBRANCH   4   5
ENDBRANCH   3   4
ENDBRANCH   2   3
ENDBRANCH   1   2
BRANCH   1  26
ATOM     26  C   UNL A   1      38.389  22.280  26.090  1.00  0.00     0.202 C 
BRANCH  26  27
ATOM     27  C   UNL A   1      39.868  22.260  26.444  1.00  0.00     0.261 C 
BRANCH  27  28
ATOM     28  O   UNL A   1      40.320  23.548  26.797  1.00  0.00    -0.460 OA
BRANCH  28  29
ATOM     29  C   UNL A   1      41.579  23.523  27.284  1.00  0.00     0.338 C 
ATOM     30  O   UNL A   1      42.051  22.709  28.061  1.00  0.00    -0.246 OA
BRANCH  29  31
ATOM     31  C   UNL A   1      42.346  24.633  26.673  1.00  0.00     0.060 A 
ATOM     32  C   UNL A   1      43.317  25.109  27.545  1.00  0.00     0.016 A 
ATOM     33  C   UNL A   1      41.599  25.469  25.834  1.00  0.00     0.016 A 
ATOM     34  C   UNL A   1      43.086  26.364  28.022  1.00  0.00     0.010 A 
ATOM     35  C   UNL A   1      41.356  26.723  26.313  1.00  0.00     0.010 A 
ATOM     36  C   UNL A   1      42.008  27.082  27.484  1.00  0.00    -0.014 A 
BRANCH  36  37
ATOM     37  C   UNL A   1      41.647  28.289  28.166  1.00  0.00     0.031 A 
ATOM     38  C   UNL A   1      42.715  29.283  28.034  1.00  0.00     0.074 A 
ATOM     39  C   UNL A   1      40.502  28.433  28.849  1.00  0.00     0.049 A 
ATOM     40  N   UNL A   1      43.646  29.525  28.891  1.00  0.00    -0.248 NA
ATOM     41  C   UNL A   1      42.945  29.842  26.696  1.00  0.00     0.031 C 
ATOM     42  C   UNL A   1      39.291  27.610  28.830  1.00  0.00     0.029 A 
ATOM     43  N   UNL A   1      40.177  29.445  29.685  1.00  0.00    -0.354 N 
ATOM     44  C   UNL A   1      44.444  30.476  28.279  1.00  0.00     0.074 A 
ATOM     45  C   UNL A   1      44.123  30.437  26.877  1.00  0.00     0.031 C 
ATOM     46  C   UNL A   1      38.292  28.288  29.446  1.00  0.00     0.029 A 
ATOM     47  C   UNL A   1      38.836  29.507  30.023  1.00  0.00     0.049 A 
ATOM     48  H   UNL A   1      40.842  30.086  30.026  1.00  0.00     0.167 HD
ATOM     49  C   UNL A   1      45.065  31.427  29.021  1.00  0.00     0.037 A 
ATOM     50  C   UNL A   1      38.250  30.552  30.660  1.00  0.00     0.037 A 
ATOM     51  C   UNL A   1      45.117  31.054  30.414  1.00  0.00     0.049 A 
ATOM     52  C   UNL A   1      39.338  31.294  31.358  1.00  0.00     0.074 A 
ATOM     53  C   UNL A   1      45.705  30.029  31.130  1.00  0.00     0.029 A 
ATOM     54  N   UNL A   1      44.154  31.592  31.233  1.00  0.00    -0.354 N 
ATOM     55  N   UNL A   1      40.016  30.816  32.367  1.00  0.00    -0.248 NA
ATOM     56  C   UNL A   1      39.972  32.408  30.665  1.00  0.00     0.031 C 
ATOM     57  C   UNL A   1      44.802  29.741  32.195  1.00  0.00     0.029 A 
ATOM     58  C   UNL A   1      43.723  30.623  32.104  1.00  0.00     0.049 A 
ATOM     59  H   UNL A   1      43.824  32.520  31.200  1.00  0.00     0.167 HD
ATOM     60  C   UNL A   1      41.313  31.275  32.183  1.00  0.00     0.074 A 
ATOM     61  C   UNL A   1      41.198  32.338  31.190  1.00  0.00     0.031 C 
ATOM     62  C   UNL A   1      42.381  30.561  32.647  1.00  0.00     0.037 A 
BRANCH  49  63
ATOM     63  C   UNL A   1      45.213  32.850  28.552  1.00  0.00     0.058 A 
ATOM     64  C   UNL A   1      46.503  33.398  28.446  1.00  0.00     0.135 A 
ATOM     65  C   UNL A   1      44.144  33.775  28.477  1.00  0.00     0.135 A 
ATOM     66  F   UNL A   1      47.587  32.610  28.518  1.00  0.00    -0.206 F 
ATOM     67  C   UNL A   1      46.717  34.772  28.348  1.00  0.00     0.059 A 
ATOM     68  C   UNL A   1      44.334  35.137  28.314  1.00  0.00     0.059 A 
ATOM     69  F   UNL A   1      42.866  33.427  28.661  1.00  0.00    -0.206 F 
ATOM     70  C   UNL A   1      45.624  35.633  28.298  1.00  0.00     0.060 A 
BRANCH  70  71
ATOM     71  S   UNL A   1      45.891  37.410  28.293  1.00  0.00     0.124 S 
ATOM     72  O   UNL A   1      46.588  37.592  27.026  1.00  0.00    -0.237 OA
ATOM     73  O   UNL A   1      44.524  37.918  28.355  1.00  0.00    -0.237 OA
ATOM     74  O   UNL A   1      46.691  37.633  29.494  1.00  0.00    -0.744 OA
ENDBRANCH  70  71
ENDBRANCH  49  63
BRANCH  50  75
ATOM     75  C   UNL A   1      36.934  31.180  30.377  1.00  0.00     0.058 A 
ATOM     76  C   UNL A   1      36.186  31.746  31.426  1.00  0.00     0.135 A 
ATOM     77  C   UNL A   1      36.545  31.535  29.070  1.00  0.00     0.135 A 
ATOM     78  F   UNL A   1      36.491  31.462  32.701  1.00  0.00    -0.206 F 
ATOM     79  C   UNL A   1      35.174  32.680  31.198  1.00  0.00     0.059 A 
ATOM     80  C   UNL A   1      35.530  32.457  28.818  1.00  0.00     0.059 A 
ATOM     81  F   UNL A   1      37.208  31.075  27.999  1.00  0.00    -0.206 F 
ATOM     82  C   UNL A   1      34.875  33.055  29.890  1.00  0.00     0.060 A 
BRANCH  82  83
ATOM     83  S   UNL A   1      33.726  34.422  29.607  1.00  0.00     0.124 S 
ATOM     84  O   UNL A   1      34.580  35.404  28.951  1.00  0.00    -0.237 OA
ATOM     85  O   UNL A   1      32.710  33.795  28.767  1.00  0.00    -0.237 OA
ATOM     86  O   UNL A   1      33.284  34.778  30.953  1.00  0.00    -0.744 OA
ENDBRANCH  82  83
ENDBRANCH  50  75
BRANCH  62  87
ATOM     87  C   UNL A   1      42.106  29.492  33.674  1.00  0.00     0.058 A 
ATOM     88  C   UNL A   1      41.712  28.175  33.376  1.00  0.00     0.135 A 
ATOM     89  C   UNL A   1      42.358  29.798  35.019  1.00  0.00     0.135 A 
ATOM     90  F   UNL A   1      41.542  27.777  32.107  1.00  0.00    -0.206 F 
ATOM     91  C   UNL A   1      41.533  27.220  34.380  1.00  0.00     0.059 A 
ATOM     92  C   UNL A   1      42.215  28.855  36.031  1.00  0.00     0.059 A 
ATOM     93  F   UNL A   1      42.791  31.024  35.359  1.00  0.00    -0.206 F 
ATOM     94  C   UNL A   1      41.787  27.569  35.707  1.00  0.00     0.060 A 
BRANCH  94  95
ATOM     95  S   UNL A   1      41.610  26.323  37.002  1.00  0.00     0.124 S 
ATOM     96  O   UNL A   1      42.811  26.536  37.802  1.00  0.00    -0.237 OA
ATOM     97  O   UNL A   1      40.350  26.701  37.635  1.00  0.00    -0.237 OA
ATOM     98  O   UNL A   1      41.571  25.064  36.263  1.00  0.00    -0.744 OA
ENDBRANCH  94  95
ENDBRANCH  62  87
ENDBRANCH  36  37
ENDBRANCH  29  31
ENDBRANCH  28  29
ENDBRANCH  27  28
ENDBRANCH  26  27
ENDBRANCH   1  26
TORSDOF 20
ENDMDL
