MODEL 1
REMARK VINA RESULT:     -10.8      0.000      0.000
REMARK SMILES O=C(OCCOCCOC(=O)c1ccnc(-c2ccnc(COc3ccccc3)n2)c1)c1ccc(-c2c3nc(c(-c4c(F)cc(S(=O)(=O)[O-])cc4F)c4ccc([nH]4)c(-c4c(F)cc(S(=O)(=O)[O-])cc4F)c4nc(c(-c5c(F)cc(S(=O)(=O)[O-])cc5F)c5ccc2[nH]5)C=C4)C=C3)cc1
REMARK SMILES IDX 7 1 6 2 5 3 4 4 3 5 2 6 1 7 32 8 33 9 97 10 34 11 96 12
REMARK SMILES IDX 35 13 36 14 37 15 90 16 38 17 95 18 89 19 91 20 39 21 94 22
REMARK SMILES IDX 88 23 87 24 40 26 74 27 53 28 73 29 54 30 57 31 72 32 92 33
REMARK SMILES IDX 55 34 56 35 71 37 93 38 58 39 41 40 42 41 51 42 43 43 44 44
REMARK SMILES IDX 50 45 52 46 45 47 46 48 47 49 48 50 49 51 75 52 76 53 85 54
REMARK SMILES IDX 77 55 78 56 84 57 86 58 79 59 80 60 81 61 82 62 83 63 59 64
REMARK SMILES IDX 60 65 69 66 61 67 62 68 68 69 70 70 63 71 64 72 65 73 66 74
REMARK SMILES IDX 67 75 8 76 9 77 10 78 11 79 12 80 13 81 31 82 14 83 16 84
REMARK SMILES IDX 15 85 17 86 18 87 30 88 19 89 21 90 20 91 22 92 23 93 24 94
REMARK SMILES IDX 25 95 29 96 26 97 28 98 27 99
REMARK H PARENT 91 25 57 36
REMARK Flexibility Score: inf
ROOT
ATOM      1  C   UNL A   1      38.830  23.502  26.492  1.00  0.00     0.202 C 
ENDROOT
BRANCH   1   2
ATOM      2  O   UNL A   1      39.896  22.799  27.144  1.00  0.00    -0.374 OA
BRANCH   2   3
ATOM      3  C   UNL A   1      41.065  22.566  26.362  1.00  0.00     0.202 C 
BRANCH   3   4
ATOM      4  C   UNL A   1      42.343  23.202  26.909  1.00  0.00     0.261 C 
BRANCH   4   5
ATOM      5  O   UNL A   1      42.652  24.388  26.160  1.00  0.00    -0.460 OA
BRANCH   5   6
ATOM      6  C   UNL A   1      41.977  25.560  26.137  1.00  0.00     0.338 C 
ATOM      7  O   UNL A   1      41.574  25.985  25.057  1.00  0.00    -0.246 OA
BRANCH   6   8
ATOM      8  C   UNL A   1      41.684  26.360  27.363  1.00  0.00     0.060 A 
ATOM      9  C   UNL A   1      40.694  26.049  28.299  1.00  0.00     0.016 A 
ATOM     10  C   UNL A   1      42.539  27.439  27.638  1.00  0.00     0.016 A 
ATOM     11  C   UNL A   1      40.505  26.814  29.439  1.00  0.00     0.010 A 
ATOM     12  C   UNL A   1      42.386  28.190  28.805  1.00  0.00     0.010 A 
ATOM     13  C   UNL A   1      41.357  27.882  29.700  1.00  0.00    -0.014 A 
BRANCH  13  14
ATOM     14  C   UNL A   1      41.102  28.710  30.889  1.00  0.00     0.031 A 
ATOM     15  C   UNL A   1      39.973  29.687  30.845  1.00  0.00     0.074 A 
ATOM     16  C   UNL A   1      41.841  28.521  31.995  1.00  0.00     0.049 A 
ATOM     17  N   UNL A   1      39.628  30.589  31.719  1.00  0.00    -0.248 NA
ATOM     18  C   UNL A   1      39.110  29.633  29.652  1.00  0.00     0.031 C 
ATOM     19  C   UNL A   1      42.891  27.509  32.142  1.00  0.00     0.029 A 
ATOM     20  N   UNL A   1      41.824  29.164  33.202  1.00  0.00    -0.354 N 
ATOM     21  C   UNL A   1      38.533  31.240  31.168  1.00  0.00     0.074 A 
ATOM     22  C   UNL A   1      38.265  30.623  29.888  1.00  0.00     0.031 C 
ATOM     23  C   UNL A   1      43.426  27.609  33.368  1.00  0.00     0.029 A 
ATOM     24  C   UNL A   1      42.803  28.731  34.064  1.00  0.00     0.049 A 
ATOM     25  H   UNL A   1      41.176  29.868  33.431  1.00  0.00     0.167 HD
ATOM     26  C   UNL A   1      37.834  32.276  31.688  1.00  0.00     0.037 A 
ATOM     27  C   UNL A   1      43.183  29.227  35.256  1.00  0.00     0.037 A 
ATOM     28  C   UNL A   1      38.149  32.866  32.960  1.00  0.00     0.049 A 
ATOM     29  C   UNL A   1      42.438  30.418  35.791  1.00  0.00     0.074 A 
ATOM     30  C   UNL A   1      37.558  33.949  33.583  1.00  0.00     0.029 A 
ATOM     31  N   UNL A   1      39.159  32.416  33.803  1.00  0.00    -0.354 N 
ATOM     32  N   UNL A   1      41.432  31.065  35.247  1.00  0.00    -0.248 NA
ATOM     33  C   UNL A   1      42.875  30.957  37.083  1.00  0.00     0.031 C 
ATOM     34  C   UNL A   1      38.241  34.179  34.782  1.00  0.00     0.029 A 
ATOM     35  C   UNL A   1      39.225  33.210  34.932  1.00  0.00     0.049 A 
ATOM     36  H   UNL A   1      39.744  31.645  33.621  1.00  0.00     0.167 HD
ATOM     37  C   UNL A   1      41.108  32.084  36.132  1.00  0.00     0.074 A 
ATOM     38  C   UNL A   1      42.020  31.959  37.255  1.00  0.00     0.031 C 
ATOM     39  C   UNL A   1      40.147  33.037  36.030  1.00  0.00     0.037 A 
BRANCH  26  40
ATOM     40  C   UNL A   1      36.751  32.862  30.827  1.00  0.00     0.058 A 
ATOM     41  C   UNL A   1      37.017  33.839  29.854  1.00  0.00     0.135 A 
ATOM     42  C   UNL A   1      35.412  32.502  31.042  1.00  0.00     0.135 A 
ATOM     43  F   UNL A   1      38.277  34.242  29.626  1.00  0.00    -0.206 F 
ATOM     44  C   UNL A   1      35.989  34.477  29.165  1.00  0.00     0.059 A 
ATOM     45  C   UNL A   1      34.370  33.109  30.348  1.00  0.00     0.059 A 
ATOM     46  F   UNL A   1      35.100  31.580  31.967  1.00  0.00    -0.206 F 
ATOM     47  C   UNL A   1      34.667  34.117  29.433  1.00  0.00     0.060 A 
BRANCH  47  48
ATOM     48  S   UNL A   1      33.337  35.009  28.598  1.00  0.00     0.124 S 
ATOM     49  O   UNL A   1      32.702  33.936  27.839  1.00  0.00    -0.237 OA
ATOM     50  O   UNL A   1      32.562  35.536  29.716  1.00  0.00    -0.237 OA
ATOM     51  O   UNL A   1      34.044  36.007  27.803  1.00  0.00    -0.744 OA
ENDBRANCH  47  48
ENDBRANCH  26  40
BRANCH  27  52
ATOM     52  C   UNL A   1      44.345  28.626  35.963  1.00  0.00     0.058 A 
ATOM     53  C   UNL A   1      45.649  29.103  35.772  1.00  0.00     0.135 A 
ATOM     54  C   UNL A   1      44.160  27.605  36.913  1.00  0.00     0.135 A 
ATOM     55  F   UNL A   1      45.883  30.070  34.872  1.00  0.00    -0.206 F 
ATOM     56  C   UNL A   1      46.724  28.602  36.504  1.00  0.00     0.059 A 
ATOM     57  C   UNL A   1      45.213  27.105  37.672  1.00  0.00     0.059 A 
ATOM     58  F   UNL A   1      42.929  27.120  37.145  1.00  0.00    -0.206 F 
ATOM     59  C   UNL A   1      46.494  27.609  37.460  1.00  0.00     0.060 A 
BRANCH  59  60
ATOM     60  S   UNL A   1      47.876  27.031  38.468  1.00  0.00     0.124 S 
ATOM     61  O   UNL A   1      48.743  28.204  38.480  1.00  0.00    -0.237 OA
ATOM     62  O   UNL A   1      47.222  26.710  39.733  1.00  0.00    -0.237 OA
ATOM     63  O   UNL A   1      48.379  25.881  37.723  1.00  0.00    -0.744 OA
ENDBRANCH  59  60
ENDBRANCH  27  52
BRANCH  39  64
ATOM     64  C   UNL A   1      40.016  34.002  37.170  1.00  0.00     0.058 A 
ATOM     65  C   UNL A   1      40.626  35.263  37.133  1.00  0.00     0.135 A 
ATOM     66  C   UNL A   1      39.167  33.705  38.248  1.00  0.00     0.135 A 
ATOM     67  F   UNL A   1      41.452  35.587  36.126  1.00  0.00    -0.206 F 
ATOM     68  C   UNL A   1      40.392  36.206  38.128  1.00  0.00     0.059 A 
ATOM     69  C   UNL A   1      38.902  34.639  39.241  1.00  0.00     0.059 A 
ATOM     70  F   UNL A   1      38.556  32.511  38.318  1.00  0.00    -0.206 F 
ATOM     71  C   UNL A   1      39.518  35.888  39.171  1.00  0.00     0.060 A 
BRANCH  71  72
ATOM     72  S   UNL A   1      39.144  37.154  40.401  1.00  0.00     0.124 S 
ATOM     73  O   UNL A   1      40.467  37.427  40.952  1.00  0.00    -0.237 OA
ATOM     74  O   UNL A   1      38.564  38.218  39.588  1.00  0.00    -0.237 OA
ATOM     75  O   UNL A   1      38.212  36.485  41.304  1.00  0.00    -0.744 OA
ENDBRANCH  71  72
ENDBRANCH  39  64
ENDBRANCH  13  14
ENDBRANCH   6   8
ENDBRANCH   5   6
ENDBRANCH   4   5
ENDBRANCH   3   4
ENDBRANCH   2   3
ENDBRANCH   1   2
BRANCH   1  76
ATOM     76  C   UNL A   1      37.993  22.507  25.680  1.00  0.00     0.261 C 
BRANCH  76  77
ATOM     77  O   UNL A   1      36.644  23.002  25.613  1.00  0.00    -0.460 OA
BRANCH  77  78
ATOM     78  C   UNL A   1      35.686  22.049  25.491  1.00  0.00     0.338 C 
ATOM     79  O   UNL A   1      35.649  20.950  26.015  1.00  0.00    -0.246 OA
BRANCH  78  80
ATOM     80  C   UNL A   1      34.533  22.688  24.828  1.00  0.00     0.063 A 
ATOM     81  C   UNL A   1      33.914  22.094  23.732  1.00  0.00     0.036 A 
ATOM     82  C   UNL A   1      34.184  23.978  25.230  1.00  0.00     0.046 A 
ATOM     83  C   UNL A   1      32.986  22.845  23.045  1.00  0.00     0.112 A 
ATOM     84  C   UNL A   1      33.276  24.675  24.451  1.00  0.00     0.090 A 
ATOM     85  N   UNL A   1      32.683  24.121  23.359  1.00  0.00    -0.255 NA
BRANCH  84  86
ATOM     86  C   UNL A   1      32.977  26.093  24.677  1.00  0.00     0.092 A 
ATOM     87  C   UNL A   1      33.434  26.757  25.801  1.00  0.00     0.051 A 
ATOM     88  N   UNL A   1      32.342  26.730  23.672  1.00  0.00    -0.228 NA
ATOM     89  C   UNL A   1      33.212  28.112  25.838  1.00  0.00     0.115 A 
ATOM     90  C   UNL A   1      32.237  28.067  23.765  1.00  0.00     0.166 A 
ATOM     91  N   UNL A   1      32.627  28.790  24.836  1.00  0.00    -0.238 NA
BRANCH  90  92
ATOM     92  C   UNL A   1      31.836  28.829  22.520  1.00  0.00     0.306 C 
BRANCH  92  93
ATOM     93  O   UNL A   1      30.535  28.490  21.998  1.00  0.00    -0.486 OA
BRANCH  93  94
ATOM     94  C   UNL A   1      29.496  29.267  22.434  1.00  0.00     0.119 A 
ATOM     95  C   UNL A   1      29.752  30.635  22.528  1.00  0.00     0.046 A 
ATOM     96  C   UNL A   1      28.273  28.771  22.887  1.00  0.00     0.046 A 
ATOM     97  C   UNL A   1      28.778  31.503  23.027  1.00  0.00     0.004 A 
ATOM     98  C   UNL A   1      27.297  29.637  23.386  1.00  0.00     0.004 A 
ATOM     99  C   UNL A   1      27.548  31.004  23.452  1.00  0.00     0.000 A 
ENDBRANCH  93  94
ENDBRANCH  92  93
ENDBRANCH  90  92
ENDBRANCH  84  86
ENDBRANCH  78  80
ENDBRANCH  77  78
ENDBRANCH  76  77
ENDBRANCH   1  76
TORSDOF 21
ENDMDL
MODEL 2
REMARK VINA RESULT:     -10.6      5.174     12.508
REMARK SMILES O=C(OCCOCCOC(=O)c1ccnc(-c2ccnc(COc3ccccc3)n2)c1)c1ccc(-c2c3nc(c(-c4c(F)cc(S(=O)(=O)[O-])cc4F)c4ccc([nH]4)c(-c4c(F)cc(S(=O)(=O)[O-])cc4F)c4nc(c(-c5c(F)cc(S(=O)(=O)[O-])cc5F)c5ccc2[nH]5)C=C4)C=C3)cc1
REMARK SMILES IDX 7 1 6 2 5 3 4 4 3 5 2 6 1 7 32 8 33 9 97 10 34 11 96 12
REMARK SMILES IDX 35 13 36 14 37 15 90 16 38 17 95 18 89 19 91 20 39 21 94 22
REMARK SMILES IDX 88 23 87 24 40 26 74 27 53 28 73 29 54 30 57 31 72 32 92 33
REMARK SMILES IDX 55 34 56 35 71 37 93 38 58 39 41 40 42 41 51 42 43 43 44 44
REMARK SMILES IDX 50 45 52 46 45 47 46 48 47 49 48 50 49 51 75 52 76 53 85 54
REMARK SMILES IDX 77 55 78 56 84 57 86 58 79 59 80 60 81 61 82 62 83 63 59 64
REMARK SMILES IDX 60 65 69 66 61 67 62 68 68 69 70 70 63 71 64 72 65 73 66 74
REMARK SMILES IDX 67 75 8 76 9 77 10 78 11 79 12 80 13 81 31 82 14 83 16 84
REMARK SMILES IDX 15 85 17 86 18 87 30 88 19 89 21 90 20 91 22 92 23 93 24 94
REMARK SMILES IDX 25 95 29 96 26 97 28 98 27 99
REMARK H PARENT 91 25 57 36
REMARK Flexibility Score: inf
ROOT
ATOM      1  C   UNL A   1      37.465  33.649  29.124  1.00  0.00     0.202 C 
ENDROOT
BRANCH   1   2
ATOM      2  O   UNL A   1      36.177  34.278  29.109  1.00  0.00    -0.374 OA
BRANCH   2   3
ATOM      3  C   UNL A   1      35.055  33.417  29.284  1.00  0.00     0.202 C 
BRANCH   3   4
ATOM      4  C   UNL A   1      34.570  32.723  28.011  1.00  0.00     0.261 C 
BRANCH   4   5
ATOM      5  O   UNL A   1      34.030  31.433  28.339  1.00  0.00    -0.460 OA
BRANCH   5   6
ATOM      6  C   UNL A   1      34.540  30.215  28.044  1.00  0.00     0.338 C 
ATOM      7  O   UNL A   1      33.788  29.361  27.580  1.00  0.00    -0.246 OA
BRANCH   6   8
ATOM      8  C   UNL A   1      35.975  29.859  28.243  1.00  0.00     0.060 A 
ATOM      9  C   UNL A   1      36.971  29.995  27.272  1.00  0.00     0.016 A 
ATOM     10  C   UNL A   1      36.358  29.459  29.533  1.00  0.00     0.016 A 
ATOM     11  C   UNL A   1      38.295  29.684  27.540  1.00  0.00     0.010 A 
ATOM     12  C   UNL A   1      37.696  29.185  29.825  1.00  0.00     0.010 A 
ATOM     13  C   UNL A   1      38.663  29.286  28.820  1.00  0.00    -0.014 A 
BRANCH  13  14
ATOM     14  C   UNL A   1      40.064  28.911  29.064  1.00  0.00     0.031 A 
ATOM     15  C   UNL A   1      40.973  29.923  29.681  1.00  0.00     0.074 A 
ATOM     16  C   UNL A   1      40.469  27.658  28.792  1.00  0.00     0.049 A 
ATOM     17  N   UNL A   1      42.257  29.860  29.890  1.00  0.00    -0.248 NA
ATOM     18  C   UNL A   1      40.343  31.177  30.130  1.00  0.00     0.031 C 
ATOM     19  C   UNL A   1      39.605  26.587  28.287  1.00  0.00     0.029 A 
ATOM     20  N   UNL A   1      41.700  27.073  28.902  1.00  0.00    -0.354 N 
ATOM     21  C   UNL A   1      42.602  31.079  30.457  1.00  0.00     0.074 A 
ATOM     22  C   UNL A   1      41.388  31.859  30.569  1.00  0.00     0.031 C 
ATOM     23  C   UNL A   1      40.340  25.477  28.120  1.00  0.00     0.029 A 
ATOM     24  C   UNL A   1      41.731  25.779  28.441  1.00  0.00     0.049 A 
ATOM     25  H   UNL A   1      42.487  27.533  29.273  1.00  0.00     0.167 HD
ATOM     26  C   UNL A   1      43.831  31.505  30.829  1.00  0.00     0.037 A 
ATOM     27  C   UNL A   1      42.779  24.956  28.252  1.00  0.00     0.037 A 
ATOM     28  C   UNL A   1      45.011  30.698  30.684  1.00  0.00     0.049 A 
ATOM     29  C   UNL A   1      44.147  25.467  28.610  1.00  0.00     0.074 A 
ATOM     30  C   UNL A   1      46.323  31.021  30.971  1.00  0.00     0.029 A 
ATOM     31  N   UNL A   1      45.013  29.395  30.196  1.00  0.00    -0.354 N 
ATOM     32  N   UNL A   1      44.479  26.639  29.102  1.00  0.00    -0.248 NA
ATOM     33  C   UNL A   1      45.280  24.565  28.381  1.00  0.00     0.031 C 
ATOM     34  C   UNL A   1      47.121  29.928  30.616  1.00  0.00     0.029 A 
ATOM     35  C   UNL A   1      46.304  28.905  30.154  1.00  0.00     0.049 A 
ATOM     36  H   UNL A   1      44.210  28.895  29.920  1.00  0.00     0.167 HD
ATOM     37  C   UNL A   1      45.859  26.616  29.251  1.00  0.00     0.074 A 
ATOM     38  C   UNL A   1      46.298  25.305  28.806  1.00  0.00     0.031 C 
ATOM     39  C   UNL A   1      46.689  27.585  29.712  1.00  0.00     0.037 A 
BRANCH  26  40
ATOM     40  C   UNL A   1      43.937  32.920  31.324  1.00  0.00     0.058 A 
ATOM     41  C   UNL A   1      44.052  34.011  30.448  1.00  0.00     0.135 A 
ATOM     42  C   UNL A   1      44.011  33.177  32.702  1.00  0.00     0.135 A 
ATOM     43  F   UNL A   1      44.017  33.820  29.120  1.00  0.00    -0.206 F 
ATOM     44  C   UNL A   1      44.295  35.299  30.919  1.00  0.00     0.059 A 
ATOM     45  C   UNL A   1      44.227  34.459  33.196  1.00  0.00     0.059 A 
ATOM     46  F   UNL A   1      43.915  32.170  33.583  1.00  0.00    -0.206 F 
ATOM     47  C   UNL A   1      44.398  35.509  32.295  1.00  0.00     0.060 A 
BRANCH  47  48
ATOM     48  S   UNL A   1      44.798  37.165  32.893  1.00  0.00     0.124 S 
ATOM     49  O   UNL A   1      44.769  37.935  31.653  1.00  0.00    -0.237 OA
ATOM     50  O   UNL A   1      43.710  37.434  33.828  1.00  0.00    -0.237 OA
ATOM     51  O   UNL A   1      46.115  36.999  33.498  1.00  0.00    -0.744 OA
ENDBRANCH  47  48
ENDBRANCH  26  40
BRANCH  27  52
ATOM     52  C   UNL A   1      42.558  23.614  27.649  1.00  0.00     0.058 A 
ATOM     53  C   UNL A   1      42.787  23.373  26.288  1.00  0.00     0.135 A 
ATOM     54  C   UNL A   1      42.187  22.519  28.450  1.00  0.00     0.135 A 
ATOM     55  F   UNL A   1      43.135  24.384  25.477  1.00  0.00    -0.206 F 
ATOM     56  C   UNL A   1      42.669  22.095  25.743  1.00  0.00     0.059 A 
ATOM     57  C   UNL A   1      42.086  21.231  27.935  1.00  0.00     0.059 A 
ATOM     58  F   UNL A   1      41.968  22.691  29.763  1.00  0.00    -0.206 F 
ATOM     59  C   UNL A   1      42.328  21.028  26.578  1.00  0.00     0.060 A 
BRANCH  59  60
ATOM     60  S   UNL A   1      42.269  19.361  25.884  1.00  0.00     0.124 S 
ATOM     61  O   UNL A   1      40.841  19.197  25.633  1.00  0.00    -0.237 OA
ATOM     62  O   UNL A   1      43.113  19.490  24.700  1.00  0.00    -0.237 OA
ATOM     63  O   UNL A   1      42.822  18.532  26.950  1.00  0.00    -0.744 OA
ENDBRANCH  59  60
ENDBRANCH  27  52
BRANCH  39  64
ATOM     64  C   UNL A   1      48.151  27.258  29.782  1.00  0.00     0.058 A 
ATOM     65  C   UNL A   1      49.035  27.645  28.766  1.00  0.00     0.135 A 
ATOM     66  C   UNL A   1      48.683  26.664  30.938  1.00  0.00     0.135 A 
ATOM     67  F   UNL A   1      48.570  28.210  27.641  1.00  0.00    -0.206 F 
ATOM     68  C   UNL A   1      50.407  27.462  28.897  1.00  0.00     0.059 A 
ATOM     69  C   UNL A   1      50.051  26.491  31.098  1.00  0.00     0.059 A 
ATOM     70  F   UNL A   1      47.871  26.285  31.938  1.00  0.00    -0.206 F 
ATOM     71  C   UNL A   1      50.906  26.895  30.074  1.00  0.00     0.060 A 
BRANCH  71  72
ATOM     72  S   UNL A   1      52.694  26.753  30.274  1.00  0.00     0.124 S 
ATOM     73  O   UNL A   1      53.104  26.319  28.943  1.00  0.00    -0.237 OA
ATOM     74  O   UNL A   1      53.075  28.111  30.645  1.00  0.00    -0.237 OA
ATOM     75  O   UNL A   1      52.838  25.757  31.332  1.00  0.00    -0.744 OA
ENDBRANCH  71  72
ENDBRANCH  39  64
ENDBRANCH  13  14
ENDBRANCH   6   8
ENDBRANCH   5   6
ENDBRANCH   4   5
ENDBRANCH   3   4
ENDBRANCH   2   3
ENDBRANCH   1   2
BRANCH   1  76
ATOM     76  C   UNL A   1      38.283  34.203  30.296  1.00  0.00     0.261 C 
BRANCH  76  77
ATOM     77  O   UNL A   1      37.873  33.520  31.494  1.00  0.00    -0.460 OA
BRANCH  77  78
ATOM     78  C   UNL A   1      37.934  34.262  32.629  1.00  0.00     0.338 C 
ATOM     79  O   UNL A   1      37.195  35.165  32.977  1.00  0.00    -0.246 OA
BRANCH  78  80
ATOM     80  C   UNL A   1      38.894  33.589  33.525  1.00  0.00     0.063 A 
ATOM     81  C   UNL A   1      39.852  34.314  34.228  1.00  0.00     0.036 A 
ATOM     82  C   UNL A   1      38.921  32.193  33.521  1.00  0.00     0.046 A 
ATOM     83  C   UNL A   1      40.837  33.602  34.875  1.00  0.00     0.112 A 
ATOM     84  C   UNL A   1      39.976  31.564  34.160  1.00  0.00     0.090 A 
ATOM     85  N   UNL A   1      40.937  32.258  34.827  1.00  0.00    -0.255 NA
BRANCH  84  86
ATOM     86  C   UNL A   1      40.197  30.118  34.064  1.00  0.00     0.092 A 
ATOM     87  C   UNL A   1      39.638  29.366  33.045  1.00  0.00     0.051 A 
ATOM     88  N   UNL A   1      41.070  29.595  34.949  1.00  0.00    -0.228 NA
ATOM     89  C   UNL A   1      40.027  28.051  32.977  1.00  0.00     0.115 A 
ATOM     90  C   UNL A   1      41.446  28.318  34.756  1.00  0.00     0.166 A 
ATOM     91  N   UNL A   1      40.930  27.506  33.809  1.00  0.00    -0.238 NA
BRANCH  90  92
ATOM     92  C   UNL A   1      42.654  27.818  35.518  1.00  0.00     0.306 C 
BRANCH  92  93
ATOM     93  O   UNL A   1      43.867  27.739  34.742  1.00  0.00    -0.486 OA
BRANCH  93  94
ATOM     94  C   UNL A   1      44.213  26.491  34.298  1.00  0.00     0.119 A 
ATOM     95  C   UNL A   1      44.483  26.380  32.935  1.00  0.00     0.046 A 
ATOM     96  C   UNL A   1      44.197  25.339  35.085  1.00  0.00     0.046 A 
ATOM     97  C   UNL A   1      44.779  25.136  32.372  1.00  0.00     0.004 A 
ATOM     98  C   UNL A   1      44.491  24.094  34.526  1.00  0.00     0.004 A 
ATOM     99  C   UNL A   1      44.787  23.992  33.169  1.00  0.00     0.000 A 
ENDBRANCH  93  94
ENDBRANCH  92  93
ENDBRANCH  90  92
ENDBRANCH  84  86
ENDBRANCH  78  80
ENDBRANCH  77  78
ENDBRANCH  76  77
ENDBRANCH   1  76
TORSDOF 21
ENDMDL
MODEL 3
REMARK VINA RESULT:     -10.2      5.805      8.460
REMARK SMILES O=C(OCCOCCOC(=O)c1ccnc(-c2ccnc(COc3ccccc3)n2)c1)c1ccc(-c2c3nc(c(-c4c(F)cc(S(=O)(=O)[O-])cc4F)c4ccc([nH]4)c(-c4c(F)cc(S(=O)(=O)[O-])cc4F)c4nc(c(-c5c(F)cc(S(=O)(=O)[O-])cc5F)c5ccc2[nH]5)C=C4)C=C3)cc1
REMARK SMILES IDX 7 1 6 2 5 3 4 4 3 5 2 6 1 7 32 8 33 9 97 10 34 11 96 12
REMARK SMILES IDX 35 13 36 14 37 15 90 16 38 17 95 18 89 19 91 20 39 21 94 22
REMARK SMILES IDX 88 23 87 24 40 26 74 27 53 28 73 29 54 30 57 31 72 32 92 33
REMARK SMILES IDX 55 34 56 35 71 37 93 38 58 39 41 40 42 41 51 42 43 43 44 44
REMARK SMILES IDX 50 45 52 46 45 47 46 48 47 49 48 50 49 51 75 52 76 53 85 54
REMARK SMILES IDX 77 55 78 56 84 57 86 58 79 59 80 60 81 61 82 62 83 63 59 64
REMARK SMILES IDX 60 65 69 66 61 67 62 68 68 69 70 70 63 71 64 72 65 73 66 74
REMARK SMILES IDX 67 75 8 76 9 77 10 78 11 79 12 80 13 81 31 82 14 83 16 84
REMARK SMILES IDX 15 85 17 86 18 87 30 88 19 89 21 90 20 91 22 92 23 93 24 94
REMARK SMILES IDX 25 95 29 96 26 97 28 98 27 99
REMARK H PARENT 91 25 57 36
REMARK Flexibility Score: inf
ROOT
ATOM      1  C   UNL A   1      45.810  20.556  24.572  1.00  0.00     0.202 C 
ENDROOT
BRANCH   1   2
ATOM      2  O   UNL A   1      44.580  19.903  24.230  1.00  0.00    -0.374 OA
BRANCH   2   3
ATOM      3  C   UNL A   1      44.304  18.685  24.916  1.00  0.00     0.202 C 
BRANCH   3   4
ATOM      4  C   UNL A   1      43.101  18.735  25.858  1.00  0.00     0.261 C 
BRANCH   4   5
ATOM      5  O   UNL A   1      42.122  19.653  25.346  1.00  0.00    -0.460 OA
BRANCH   5   6
ATOM      6  C   UNL A   1      41.252  20.419  26.041  1.00  0.00     0.338 C 
ATOM      7  O   UNL A   1      40.086  20.042  26.137  1.00  0.00    -0.246 OA
BRANCH   6   8
ATOM      8  C   UNL A   1      41.639  21.695  26.711  1.00  0.00     0.060 A 
ATOM      9  C   UNL A   1      41.784  22.923  26.061  1.00  0.00     0.016 A 
ATOM     10  C   UNL A   1      41.762  21.668  28.109  1.00  0.00     0.016 A 
ATOM     11  C   UNL A   1      42.105  24.080  26.754  1.00  0.00     0.010 A 
ATOM     12  C   UNL A   1      42.042  22.835  28.823  1.00  0.00     0.010 A 
ATOM     13  C   UNL A   1      42.226  24.041  28.139  1.00  0.00    -0.014 A 
BRANCH  13  14
ATOM     14  C   UNL A   1      42.620  25.269  28.845  1.00  0.00     0.031 A 
ATOM     15  C   UNL A   1      41.621  26.375  28.957  1.00  0.00     0.074 A 
ATOM     16  C   UNL A   1      43.831  25.339  29.424  1.00  0.00     0.049 A 
ATOM     17  N   UNL A   1      41.772  27.578  29.433  1.00  0.00    -0.248 NA
ATOM     18  C   UNL A   1      40.263  26.078  28.470  1.00  0.00     0.031 C 
ATOM     19  C   UNL A   1      44.816  24.254  29.444  1.00  0.00     0.029 A 
ATOM     20  N   UNL A   1      44.438  26.357  30.105  1.00  0.00    -0.354 N 
ATOM     21  C   UNL A   1      40.542  28.199  29.268  1.00  0.00     0.074 A 
ATOM     22  C   UNL A   1      39.652  27.237  28.656  1.00  0.00     0.031 C 
ATOM     23  C   UNL A   1      45.912  24.672  30.096  1.00  0.00     0.029 A 
ATOM     24  C   UNL A   1      45.729  26.068  30.478  1.00  0.00     0.049 A 
ATOM     25  H   UNL A   1      43.996  27.212  30.308  1.00  0.00     0.167 HD
ATOM     26  C   UNL A   1      40.204  29.470  29.586  1.00  0.00     0.037 A 
ATOM     27  C   UNL A   1      46.670  26.866  31.017  1.00  0.00     0.037 A 
ATOM     28  C   UNL A   1      41.129  30.396  30.179  1.00  0.00     0.049 A 
ATOM     29  C   UNL A   1      46.298  28.294  31.306  1.00  0.00     0.074 A 
ATOM     30  C   UNL A   1      40.937  31.725  30.505  1.00  0.00     0.029 A 
ATOM     31  N   UNL A   1      42.437  30.079  30.529  1.00  0.00    -0.354 N 
ATOM     32  N   UNL A   1      45.148  28.897  31.104  1.00  0.00    -0.248 NA
ATOM     33  C   UNL A   1      47.339  29.155  31.876  1.00  0.00     0.031 C 
ATOM     34  C   UNL A   1      42.143  32.221  31.012  1.00  0.00     0.029 A 
ATOM     35  C   UNL A   1      43.073  31.191  31.049  1.00  0.00     0.049 A 
ATOM     36  H   UNL A   1      42.851  29.192  30.421  1.00  0.00     0.167 HD
ATOM     37  C   UNL A   1      45.321  30.206  31.531  1.00  0.00     0.074 A 
ATOM     38  C   UNL A   1      46.687  30.304  32.012  1.00  0.00     0.031 C 
ATOM     39  C   UNL A   1      44.436  31.234  31.526  1.00  0.00     0.037 A 
BRANCH  26  40
ATOM     40  C   UNL A   1      38.823  29.921  29.201  1.00  0.00     0.058 A 
ATOM     41  C   UNL A   1      38.397  29.964  27.864  1.00  0.00     0.135 A 
ATOM     42  C   UNL A   1      37.942  30.399  30.184  1.00  0.00     0.135 A 
ATOM     43  F   UNL A   1      39.209  29.546  26.880  1.00  0.00    -0.206 F 
ATOM     44  C   UNL A   1      37.169  30.518  27.510  1.00  0.00     0.059 A 
ATOM     45  C   UNL A   1      36.701  30.935  29.856  1.00  0.00     0.059 A 
ATOM     46  F   UNL A   1      38.303  30.389  31.477  1.00  0.00    -0.206 F 
ATOM     47  C   UNL A   1      36.336  31.017  28.513  1.00  0.00     0.060 A 
BRANCH  47  48
ATOM     48  S   UNL A   1      34.785  31.811  28.039  1.00  0.00     0.124 S 
ATOM     49  O   UNL A   1      34.219  30.819  27.129  1.00  0.00    -0.237 OA
ATOM     50  O   UNL A   1      34.101  31.957  29.319  1.00  0.00    -0.237 OA
ATOM     51  O   UNL A   1      35.218  33.058  27.417  1.00  0.00    -0.744 OA
ENDBRANCH  47  48
ENDBRANCH  26  40
BRANCH  27  52
ATOM     52  C   UNL A   1      48.038  26.332  31.250  1.00  0.00     0.058 A 
ATOM     53  C   UNL A   1      49.082  26.564  30.344  1.00  0.00     0.135 A 
ATOM     54  C   UNL A   1      48.348  25.640  32.435  1.00  0.00     0.135 A 
ATOM     55  F   UNL A   1      48.840  27.212  29.194  1.00  0.00    -0.206 F 
ATOM     56  C   UNL A   1      50.384  26.144  30.608  1.00  0.00     0.059 A 
ATOM     57  C   UNL A   1      49.644  25.231  32.732  1.00  0.00     0.059 A 
ATOM     58  F   UNL A   1      47.388  25.402  33.344  1.00  0.00    -0.206 F 
ATOM     59  C   UNL A   1      50.657  25.487  31.811  1.00  0.00     0.060 A 
BRANCH  59  60
ATOM     60  S   UNL A   1      52.364  25.027  32.187  1.00  0.00     0.124 S 
ATOM     61  O   UNL A   1      52.585  25.725  33.448  1.00  0.00    -0.237 OA
ATOM     62  O   UNL A   1      52.280  23.572  32.269  1.00  0.00    -0.237 OA
ATOM     63  O   UNL A   1      53.110  25.539  31.042  1.00  0.00    -0.744 OA
ENDBRANCH  59  60
ENDBRANCH  27  52
BRANCH  39  64
ATOM     64  C   UNL A   1      44.907  32.546  32.080  1.00  0.00     0.058 A 
ATOM     65  C   UNL A   1      44.737  32.871  33.432  1.00  0.00     0.135 A 
ATOM     66  C   UNL A   1      45.645  33.425  31.271  1.00  0.00     0.135 A 
ATOM     67  F   UNL A   1      44.032  32.064  34.240  1.00  0.00    -0.206 F 
ATOM     68  C   UNL A   1      45.294  34.026  33.971  1.00  0.00     0.059 A 
ATOM     69  C   UNL A   1      46.228  34.573  31.793  1.00  0.00     0.059 A 
ATOM     70  F   UNL A   1      45.838  33.147  29.972  1.00  0.00    -0.206 F 
ATOM     71  C   UNL A   1      46.048  34.863  33.145  1.00  0.00     0.060 A 
BRANCH  71  72
ATOM     72  S   UNL A   1      46.848  36.306  33.877  1.00  0.00     0.124 S 
ATOM     73  O   UNL A   1      46.897  37.221  32.742  1.00  0.00    -0.237 OA
ATOM     74  O   UNL A   1      45.921  36.668  34.945  1.00  0.00    -0.237 OA
ATOM     75  O   UNL A   1      48.137  35.788  34.324  1.00  0.00    -0.744 OA
ENDBRANCH  71  72
ENDBRANCH  39  64
ENDBRANCH  13  14
ENDBRANCH   6   8
ENDBRANCH   5   6
ENDBRANCH   4   5
ENDBRANCH   3   4
ENDBRANCH   2   3
ENDBRANCH   1   2
BRANCH   1  76
ATOM     76  C   UNL A   1      45.637  21.290  25.906  1.00  0.00     0.261 C 
BRANCH  76  77
ATOM     77  O   UNL A   1      44.890  22.495  25.665  1.00  0.00    -0.460 OA
BRANCH  77  78
ATOM     78  C   UNL A   1      45.382  23.292  24.682  1.00  0.00     0.338 C 
ATOM     79  O   UNL A   1      45.291  23.139  23.477  1.00  0.00    -0.246 OA
BRANCH  78  80
ATOM     80  C   UNL A   1      45.809  24.547  25.327  1.00  0.00     0.063 A 
ATOM     81  C   UNL A   1      46.924  24.585  26.159  1.00  0.00     0.036 A 
ATOM     82  C   UNL A   1      44.972  25.658  25.210  1.00  0.00     0.046 A 
ATOM     83  C   UNL A   1      47.136  25.737  26.884  1.00  0.00     0.112 A 
ATOM     84  C   UNL A   1      45.235  26.755  26.013  1.00  0.00     0.090 A 
ATOM     85  N   UNL A   1      46.304  26.798  26.853  1.00  0.00    -0.255 NA
BRANCH  84  86
ATOM     86  C   UNL A   1      44.320  27.897  26.101  1.00  0.00     0.092 A 
ATOM     87  C   UNL A   1      42.979  27.776  25.781  1.00  0.00     0.051 A 
ATOM     88  N   UNL A   1      44.835  29.027  26.625  1.00  0.00    -0.228 NA
ATOM     89  C   UNL A   1      42.192  28.872  26.034  1.00  0.00     0.115 A 
ATOM     90  C   UNL A   1      43.974  30.021  26.905  1.00  0.00     0.166 A 
ATOM     91  N   UNL A   1      42.659  29.998  26.600  1.00  0.00    -0.238 NA
BRANCH  90  92
ATOM     92  C   UNL A   1      44.464  31.150  27.786  1.00  0.00     0.306 C 
BRANCH  92  93
ATOM     93  O   UNL A   1      45.182  32.189  27.090  1.00  0.00    -0.486 OA
BRANCH  93  94
ATOM     94  C   UNL A   1      44.432  33.251  26.663  1.00  0.00     0.119 A 
ATOM     95  C   UNL A   1      43.891  34.060  27.664  1.00  0.00     0.046 A 
ATOM     96  C   UNL A   1      44.090  33.495  25.333  1.00  0.00     0.046 A 
ATOM     97  C   UNL A   1      43.055  35.128  27.333  1.00  0.00     0.004 A 
ATOM     98  C   UNL A   1      43.253  34.562  25.000  1.00  0.00     0.004 A 
ATOM     99  C   UNL A   1      42.739  35.383  26.000  1.00  0.00     0.000 A 
ENDBRANCH  93  94
ENDBRANCH  92  93
ENDBRANCH  90  92
ENDBRANCH  84  86
ENDBRANCH  78  80
ENDBRANCH  77  78
ENDBRANCH  76  77
ENDBRANCH   1  76
TORSDOF 21
ENDMDL
