MODEL 1
REMARK VINA RESULT:     -12.3      0.000      0.000
REMARK SMILES Cc1c(C(=O)OCCOCCOC(=O)c2ccc(-c3c4nc(c(-c5c(F)cc(S(=O)(=O)[O-])cc5F)c5ccc([nH]5)c(-c5c(F)cc(S(=O)(=O)[O-])cc5F)c5nc(c(-c6c(F)cc(S(=O)(=O)[O-])cc6F)c6ccc3[nH]6)C=C5)C=C4)cc2)oc2c1/C(=N/NC(=O)C(c1ccccc1)c1ccccc1)CCC2
REMARK SMILES IDX 9 1 8 2 7 3 6 4 4 5 5 6 3 7 1 8 2 9 83 10 81 11 82 12 84 13
REMARK SMILES IDX 104 14 85 15 102 16 103 17 86 18 87 19 88 21 89 22 90 23
REMARK SMILES IDX 91 24 95 25 92 26 94 27 93 28 96 29 97 30 101 31 98 32
REMARK SMILES IDX 100 33 99 34 10 35 11 36 12 37 13 38 14 39 15 40 16 41 80 42
REMARK SMILES IDX 17 43 79 44 18 45 19 46 20 47 73 48 21 49 78 50 72 51 74 52
REMARK SMILES IDX 22 53 77 54 71 55 70 56 23 58 57 59 36 60 56 61 37 62 40 63
REMARK SMILES IDX 55 64 75 65 38 66 39 67 54 69 76 70 41 71 24 72 25 73 34 74
REMARK SMILES IDX 26 75 27 76 33 77 35 78 28 79 29 80 30 81 31 82 32 83 58 84
REMARK SMILES IDX 59 85 68 86 60 87 61 88 67 89 69 90 62 91 63 92 64 93 65 94
REMARK SMILES IDX 66 95 42 96 43 97 52 98 44 99 45 100 51 101 53 102 46 103
REMARK SMILES IDX 47 104 48 105 49 106 50 107
REMARK H PARENT 86 20 74 57 40 68
REMARK Flexibility Score: inf
ROOT
ATOM      1  O   UNL A   1      37.164  20.805  24.460  1.00  0.00    -0.374 OA
ENDROOT
BRANCH   1   2
ATOM      2  C   UNL A   1      35.902  20.673  25.121  1.00  0.00     0.202 C 
BRANCH   2   3
ATOM      3  C   UNL A   1      35.196  19.322  25.000  1.00  0.00     0.261 C 
BRANCH   3   4
ATOM      4  O   UNL A   1      34.051  19.428  24.162  1.00  0.00    -0.457 OA
BRANCH   4   5
ATOM      5  C   UNL A   1      32.881  19.782  24.777  1.00  0.00     0.374 C 
ATOM      6  O   UNL A   1      32.152  19.044  25.397  1.00  0.00    -0.242 OA
BRANCH   5   7
ATOM      7  C   UNL A   1      32.758  21.218  24.654  1.00  0.00     0.215 A 
ATOM      8  C   UNL A   1      32.578  22.145  27.060  1.00  0.00     0.049 C 
ATOM      9  C   UNL A   1      32.594  22.248  25.581  1.00  0.00     0.012 A 
ATOM     10  C   UNL A   1      32.393  23.415  24.789  1.00  0.00     0.043 A 
ATOM     11  O   UNL A   1      32.878  21.721  23.395  1.00  0.00    -0.453 OA
ATOM     12  C   UNL A   1      32.658  23.031  23.486  1.00  0.00     0.114 A 
ATOM     13  C   UNL A   1      31.868  24.758  25.042  1.00  0.00     0.072 C 
ATOM     14  C   UNL A   1      32.555  23.776  22.216  1.00  0.00     0.076 C 
ATOM     15  N   UNL A   1      31.856  25.169  26.276  1.00  0.00    -0.177 NA
ATOM     16  C   UNL A   1      31.305  25.296  23.748  1.00  0.00     0.059 C 
ATOM     17  C   UNL A   1      32.249  25.219  22.551  1.00  0.00     0.014 C 
BRANCH  15  18
ATOM     18  N   UNL A   1      31.401  26.279  26.951  1.00  0.00    -0.246 N 
ATOM     19  C   UNL A   1      31.539  27.657  26.962  1.00  0.00     0.252 C 
ATOM     20  H   UNL A   1      30.770  26.004  27.657  1.00  0.00     0.193 HD
ATOM     21  O   UNL A   1      30.906  28.284  27.827  1.00  0.00    -0.272 OA
BRANCH  19  22
ATOM     22  C   UNL A   1      32.396  28.433  25.946  1.00  0.00     0.140 C 
BRANCH  22  23
ATOM     23  C   UNL A   1      31.388  29.115  24.930  1.00  0.00    -0.031 A 
ATOM     24  C   UNL A   1      30.962  30.450  25.010  1.00  0.00     0.005 A 
ATOM     25  C   UNL A   1      30.801  28.353  23.877  1.00  0.00     0.005 A 
ATOM     26  C   UNL A   1      29.912  30.925  24.190  1.00  0.00     0.000 A 
ATOM     27  C   UNL A   1      29.735  28.805  23.096  1.00  0.00     0.000 A 
ATOM     28  C   UNL A   1      29.275  30.094  23.266  1.00  0.00     0.000 A 
ENDBRANCH  22  23
BRANCH  22  29
ATOM     29  C   UNL A   1      33.515  29.176  26.796  1.00  0.00    -0.031 A 
ATOM     30  C   UNL A   1      34.808  28.684  27.036  1.00  0.00     0.005 A 
ATOM     31  C   UNL A   1      33.268  30.500  27.263  1.00  0.00     0.005 A 
ATOM     32  C   UNL A   1      35.836  29.552  27.474  1.00  0.00     0.000 A 
ATOM     33  C   UNL A   1      34.287  31.368  27.657  1.00  0.00     0.000 A 
ATOM     34  C   UNL A   1      35.586  30.903  27.726  1.00  0.00     0.000 A 
ENDBRANCH  22  29
ENDBRANCH  19  22
ENDBRANCH  15  18
ENDBRANCH   5   7
ENDBRANCH   4   5
ENDBRANCH   3   4
ENDBRANCH   2   3
ENDBRANCH   1   2
BRANCH   1  35
ATOM     35  C   UNL A   1      38.368  20.665  25.213  1.00  0.00     0.202 C 
BRANCH  35  36
ATOM     36  C   UNL A   1      38.802  21.794  26.131  1.00  0.00     0.261 C 
BRANCH  36  37
ATOM     37  O   UNL A   1      40.203  21.993  26.049  1.00  0.00    -0.460 OA
BRANCH  37  38
ATOM     38  C   UNL A   1      40.790  22.290  27.229  1.00  0.00     0.338 C 
ATOM     39  O   UNL A   1      40.728  21.652  28.265  1.00  0.00    -0.246 OA
BRANCH  38  40
ATOM     40  C   UNL A   1      41.408  23.612  27.101  1.00  0.00     0.060 A 
ATOM     41  C   UNL A   1      42.464  23.845  27.979  1.00  0.00     0.016 A 
ATOM     42  C   UNL A   1      40.708  24.650  26.465  1.00  0.00     0.016 A 
ATOM     43  C   UNL A   1      42.588  25.112  28.488  1.00  0.00     0.010 A 
ATOM     44  C   UNL A   1      40.833  25.915  26.976  1.00  0.00     0.010 A 
ATOM     45  C   UNL A   1      41.681  26.090  28.064  1.00  0.00    -0.014 A 
BRANCH  45  46
ATOM     46  C   UNL A   1      41.683  27.349  28.764  1.00  0.00     0.031 A 
ATOM     47  C   UNL A   1      42.833  28.184  28.371  1.00  0.00     0.074 A 
ATOM     48  C   UNL A   1      40.712  27.703  29.625  1.00  0.00     0.049 A 
ATOM     49  N   UNL A   1      43.922  28.368  29.036  1.00  0.00    -0.248 NA
ATOM     50  C   UNL A   1      42.889  28.646  26.976  1.00  0.00     0.031 C 
ATOM     51  C   UNL A   1      39.423  27.061  29.894  1.00  0.00     0.029 A 
ATOM     52  N   UNL A   1      40.667  28.811  30.408  1.00  0.00    -0.354 N 
ATOM     53  C   UNL A   1      44.709  29.179  28.231  1.00  0.00     0.074 A 
ATOM     54  C   UNL A   1      44.138  29.110  26.913  1.00  0.00     0.031 C 
ATOM     55  C   UNL A   1      38.637  27.916  30.594  1.00  0.00     0.029 A 
ATOM     56  C   UNL A   1      39.413  29.093  30.941  1.00  0.00     0.049 A 
ATOM     57  H   UNL A   1      41.458  29.369  30.585  1.00  0.00     0.167 HD
ATOM     58  C   UNL A   1      45.603  30.048  28.773  1.00  0.00     0.037 A 
ATOM     59  C   UNL A   1      39.073  30.268  31.533  1.00  0.00     0.037 A 
ATOM     60  C   UNL A   1      45.850  29.735  30.158  1.00  0.00     0.049 A 
ATOM     61  C   UNL A   1      40.353  30.911  31.960  1.00  0.00     0.074 A 
ATOM     62  C   UNL A   1      46.381  28.646  30.819  1.00  0.00     0.029 A 
ATOM     63  N   UNL A   1      45.148  30.450  31.102  1.00  0.00    -0.354 N 
ATOM     64  N   UNL A   1      41.131  30.407  32.883  1.00  0.00    -0.248 NA
ATOM     65  C   UNL A   1      41.013  31.797  31.009  1.00  0.00     0.031 C 
ATOM     66  C   UNL A   1      45.587  28.504  31.994  1.00  0.00     0.029 A 
ATOM     67  C   UNL A   1      44.669  29.557  32.027  1.00  0.00     0.049 A 
ATOM     68  H   UNL A   1      45.015  31.425  31.113  1.00  0.00     0.167 HD
ATOM     69  C   UNL A   1      42.424  30.575  32.399  1.00  0.00     0.074 A 
ATOM     70  C   UNL A   1      42.288  31.483  31.260  1.00  0.00     0.031 C 
ATOM     71  C   UNL A   1      43.439  29.740  32.769  1.00  0.00     0.037 A 
BRANCH  58  72
ATOM     72  C   UNL A   1      45.949  31.384  28.171  1.00  0.00     0.058 A 
ATOM     73  C   UNL A   1      44.926  32.332  27.985  1.00  0.00     0.135 A 
ATOM     74  C   UNL A   1      47.173  31.669  27.522  1.00  0.00     0.135 A 
ATOM     75  F   UNL A   1      43.722  32.163  28.556  1.00  0.00    -0.206 F 
ATOM     76  C   UNL A   1      45.079  33.438  27.150  1.00  0.00     0.059 A 
ATOM     77  C   UNL A   1      47.365  32.793  26.734  1.00  0.00     0.059 A 
ATOM     78  F   UNL A   1      48.211  30.827  27.533  1.00  0.00    -0.206 F 
ATOM     79  C   UNL A   1      46.300  33.649  26.516  1.00  0.00     0.060 A 
BRANCH  79  80
ATOM     80  S   UNL A   1      46.471  35.008  25.352  1.00  0.00     0.124 S 
ATOM     81  O   UNL A   1      45.588  34.579  24.273  1.00  0.00    -0.237 OA
ATOM     82  O   UNL A   1      46.011  36.142  26.146  1.00  0.00    -0.237 OA
ATOM     83  O   UNL A   1      47.897  35.006  25.039  1.00  0.00    -0.744 OA
ENDBRANCH  79  80
ENDBRANCH  58  72
BRANCH  59  84
ATOM     84  C   UNL A   1      37.805  31.032  31.358  1.00  0.00     0.058 A 
ATOM     85  C   UNL A   1      36.758  30.949  32.295  1.00  0.00     0.135 A 
ATOM     86  C   UNL A   1      37.705  32.076  30.416  1.00  0.00     0.135 A 
ATOM     87  F   UNL A   1      36.780  30.003  33.247  1.00  0.00    -0.206 F 
ATOM     88  C   UNL A   1      35.698  31.869  32.321  1.00  0.00     0.059 A 
ATOM     89  C   UNL A   1      36.660  32.999  30.417  1.00  0.00     0.059 A 
ATOM     90  F   UNL A   1      38.675  32.289  29.514  1.00  0.00    -0.206 F 
ATOM     91  C   UNL A   1      35.670  32.905  31.387  1.00  0.00     0.060 A 
BRANCH  91  92
ATOM     92  S   UNL A   1      34.407  34.196  31.516  1.00  0.00     0.124 S 
ATOM     93  O   UNL A   1      33.540  33.668  32.563  1.00  0.00    -0.237 OA
ATOM     94  O   UNL A   1      35.197  35.369  31.872  1.00  0.00    -0.237 OA
ATOM     95  O   UNL A   1      33.820  34.228  30.177  1.00  0.00    -0.744 OA
ENDBRANCH  91  92
ENDBRANCH  59  84
BRANCH  71  96
ATOM     96  C   UNL A   1      43.207  28.774  33.903  1.00  0.00     0.058 A 
ATOM     97  C   UNL A   1      43.292  29.112  35.266  1.00  0.00     0.135 A 
ATOM     98  C   UNL A   1      42.666  27.519  33.587  1.00  0.00     0.135 A 
ATOM     99  F   UNL A   1      43.708  30.330  35.648  1.00  0.00    -0.206 F 
ATOM    100  C   UNL A   1      42.871  28.234  36.269  1.00  0.00     0.059 A 
ATOM    101  C   UNL A   1      42.216  26.641  34.567  1.00  0.00     0.059 A 
ATOM    102  F   UNL A   1      42.504  27.165  32.301  1.00  0.00    -0.206 F 
ATOM    103  C   UNL A   1      42.326  27.002  35.907  1.00  0.00     0.060 A 
BRANCH 103 104
ATOM    104  S   UNL A   1      41.683  25.905  37.191  1.00  0.00     0.124 S 
ATOM    105  O   UNL A   1      42.732  25.969  38.202  1.00  0.00    -0.237 OA
ATOM    106  O   UNL A   1      40.418  26.538  37.547  1.00  0.00    -0.237 OA
ATOM    107  O   UNL A   1      41.554  24.619  36.507  1.00  0.00    -0.744 OA
ENDBRANCH 103 104
ENDBRANCH  71  96
ENDBRANCH  45  46
ENDBRANCH  38  40
ENDBRANCH  37  38
ENDBRANCH  36  37
ENDBRANCH  35  36
ENDBRANCH   1  35
TORSDOF 21
ENDMDL
MODEL 2
REMARK VINA RESULT:     -11.7      2.359      9.564
REMARK SMILES Cc1c(C(=O)OCCOCCOC(=O)c2ccc(-c3c4nc(c(-c5c(F)cc(S(=O)(=O)[O-])cc5F)c5ccc([nH]5)c(-c5c(F)cc(S(=O)(=O)[O-])cc5F)c5nc(c(-c6c(F)cc(S(=O)(=O)[O-])cc6F)c6ccc3[nH]6)C=C5)C=C4)cc2)oc2c1/C(=N/NC(=O)C(c1ccccc1)c1ccccc1)CCC2
REMARK SMILES IDX 9 1 8 2 7 3 6 4 4 5 5 6 3 7 1 8 2 9 83 10 81 11 82 12 84 13
REMARK SMILES IDX 104 14 85 15 102 16 103 17 86 18 87 19 88 21 89 22 90 23
REMARK SMILES IDX 91 24 95 25 92 26 94 27 93 28 96 29 97 30 101 31 98 32
REMARK SMILES IDX 100 33 99 34 10 35 11 36 12 37 13 38 14 39 15 40 16 41 80 42
REMARK SMILES IDX 17 43 79 44 18 45 19 46 20 47 73 48 21 49 78 50 72 51 74 52
REMARK SMILES IDX 22 53 77 54 71 55 70 56 23 58 57 59 36 60 56 61 37 62 40 63
REMARK SMILES IDX 55 64 75 65 38 66 39 67 54 69 76 70 41 71 24 72 25 73 34 74
REMARK SMILES IDX 26 75 27 76 33 77 35 78 28 79 29 80 30 81 31 82 32 83 58 84
REMARK SMILES IDX 59 85 68 86 60 87 61 88 67 89 69 90 62 91 63 92 64 93 65 94
REMARK SMILES IDX 66 95 42 96 43 97 52 98 44 99 45 100 51 101 53 102 46 103
REMARK SMILES IDX 47 104 48 105 49 106 50 107
REMARK H PARENT 86 20 74 57 40 68
REMARK Flexibility Score: inf
ROOT
ATOM      1  O   UNL A   1      32.684  31.969  27.206  1.00  0.00    -0.374 OA
ENDROOT
BRANCH   1   2
ATOM      2  C   UNL A   1      32.858  30.551  27.151  1.00  0.00     0.202 C 
BRANCH   2   3
ATOM      3  C   UNL A   1      31.765  29.746  26.447  1.00  0.00     0.261 C 
BRANCH   3   4
ATOM      4  O   UNL A   1      32.011  29.685  25.046  1.00  0.00    -0.457 OA
BRANCH   4   5
ATOM      5  C   UNL A   1      30.990  29.204  24.273  1.00  0.00     0.374 C 
ATOM      6  O   UNL A   1      30.087  29.856  23.802  1.00  0.00    -0.242 OA
BRANCH   5   7
ATOM      7  C   UNL A   1      31.271  27.808  24.025  1.00  0.00     0.215 A 
ATOM      8  C   UNL A   1      30.770  26.558  26.231  1.00  0.00     0.049 C 
ATOM      9  C   UNL A   1      31.227  26.665  24.824  1.00  0.00     0.012 A 
ATOM     10  C   UNL A   1      31.768  25.632  24.005  1.00  0.00     0.043 A 
ATOM     11  O   UNL A   1      31.596  27.483  22.743  1.00  0.00    -0.453 OA
ATOM     12  C   UNL A   1      31.892  26.185  22.742  1.00  0.00     0.114 A 
ATOM     13  C   UNL A   1      32.303  24.292  24.250  1.00  0.00     0.072 C 
ATOM     14  C   UNL A   1      32.452  25.634  21.493  1.00  0.00     0.076 C 
ATOM     15  N   UNL A   1      31.965  23.711  25.363  1.00  0.00    -0.177 NA
ATOM     16  C   UNL A   1      33.288  23.969  23.152  1.00  0.00     0.059 C 
ATOM     17  C   UNL A   1      32.764  24.173  21.733  1.00  0.00     0.014 C 
BRANCH  15  18
ATOM     18  N   UNL A   1      32.281  22.538  26.011  1.00  0.00    -0.246 N 
ATOM     19  C   UNL A   1      32.999  21.369  25.820  1.00  0.00     0.252 C 
ATOM     20  H   UNL A   1      31.861  22.527  26.902  1.00  0.00     0.193 HD
ATOM     21  O   UNL A   1      32.974  20.532  26.736  1.00  0.00    -0.272 OA
BRANCH  19  22
ATOM     22  C   UNL A   1      33.839  21.085  24.561  1.00  0.00     0.140 C 
BRANCH  22  23
ATOM     23  C   UNL A   1      35.229  21.818  24.770  1.00  0.00    -0.031 A 
ATOM     24  C   UNL A   1      35.880  21.948  26.006  1.00  0.00     0.005 A 
ATOM     25  C   UNL A   1      35.880  22.453  23.671  1.00  0.00     0.005 A 
ATOM     26  C   UNL A   1      37.011  22.786  26.144  1.00  0.00     0.000 A 
ATOM     27  C   UNL A   1      36.970  23.315  23.812  1.00  0.00     0.000 A 
ATOM     28  C   UNL A   1      37.529  23.497  25.059  1.00  0.00     0.000 A 
ENDBRANCH  22  23
BRANCH  22  29
ATOM     29  C   UNL A   1      33.633  19.542  24.239  1.00  0.00    -0.031 A 
ATOM     30  C   UNL A   1      32.584  19.010  23.472  1.00  0.00     0.005 A 
ATOM     31  C   UNL A   1      34.636  18.609  24.634  1.00  0.00     0.005 A 
ATOM     32  C   UNL A   1      32.679  17.704  22.935  1.00  0.00     0.000 A 
ATOM     33  C   UNL A   1      34.753  17.336  24.074  1.00  0.00     0.000 A 
ATOM     34  C   UNL A   1      33.789  16.895  23.188  1.00  0.00     0.000 A 
ENDBRANCH  22  29
ENDBRANCH  19  22
ENDBRANCH  15  18
ENDBRANCH   5   7
ENDBRANCH   4   5
ENDBRANCH   3   4
ENDBRANCH   2   3
ENDBRANCH   1   2
BRANCH   1  35
ATOM     35  C   UNL A   1      33.770  32.793  27.628  1.00  0.00     0.202 C 
BRANCH  35  36
ATOM     36  C   UNL A   1      34.932  32.160  28.374  1.00  0.00     0.261 C 
BRANCH  36  37
ATOM     37  O   UNL A   1      35.642  33.138  29.114  1.00  0.00    -0.460 OA
BRANCH  37  38
ATOM     38  C   UNL A   1      35.245  33.254  30.401  1.00  0.00     0.338 C 
ATOM     39  O   UNL A   1      34.295  33.888  30.825  1.00  0.00    -0.246 OA
BRANCH  38  40
ATOM     40  C   UNL A   1      36.253  32.600  31.239  1.00  0.00     0.060 A 
ATOM     41  C   UNL A   1      37.477  33.264  31.298  1.00  0.00     0.016 A 
ATOM     42  C   UNL A   1      36.110  31.243  31.569  1.00  0.00     0.016 A 
ATOM     43  C   UNL A   1      38.607  32.490  31.346  1.00  0.00     0.010 A 
ATOM     44  C   UNL A   1      37.242  30.472  31.616  1.00  0.00     0.010 A 
ATOM     45  C   UNL A   1      38.460  31.099  31.376  1.00  0.00    -0.014 A 
BRANCH  45  46
ATOM     46  C   UNL A   1      39.646  30.299  31.207  1.00  0.00     0.031 A 
ATOM     47  C   UNL A   1      40.353  30.102  32.485  1.00  0.00     0.074 A 
ATOM     48  C   UNL A   1      40.004  29.774  30.022  1.00  0.00     0.049 A 
ATOM     49  N   UNL A   1      41.413  30.715  32.888  1.00  0.00    -0.248 NA
ATOM     50  C   UNL A   1      39.657  29.342  33.534  1.00  0.00     0.031 C 
ATOM     51  C   UNL A   1      39.254  29.707  28.765  1.00  0.00     0.029 A 
ATOM     52  N   UNL A   1      41.144  29.096  29.730  1.00  0.00    -0.354 N 
ATOM     53  C   UNL A   1      41.654  30.227  34.165  1.00  0.00     0.074 A 
ATOM     54  C   UNL A   1      40.435  29.593  34.588  1.00  0.00     0.031 C 
ATOM     55  C   UNL A   1      39.860  28.826  27.930  1.00  0.00     0.029 A 
ATOM     56  C   UNL A   1      41.104  28.385  28.535  1.00  0.00     0.049 A 
ATOM     57  H   UNL A   1      41.934  29.108  30.316  1.00  0.00     0.167 HD
ATOM     58  C   UNL A   1      42.918  30.153  34.659  1.00  0.00     0.037 A 
ATOM     59  C   UNL A   1      42.014  27.443  28.167  1.00  0.00     0.037 A 
ATOM     60  C   UNL A   1      43.827  30.947  33.871  1.00  0.00     0.049 A 
ATOM     61  C   UNL A   1      43.247  27.714  28.966  1.00  0.00     0.074 A 
ATOM     62  C   UNL A   1      43.929  32.294  33.585  1.00  0.00     0.029 A 
ATOM     63  N   UNL A   1      44.565  30.295  32.909  1.00  0.00    -0.354 N 
ATOM     64  N   UNL A   1      43.968  28.797  28.821  1.00  0.00    -0.248 NA
ATOM     65  C   UNL A   1      43.370  27.057  30.261  1.00  0.00     0.031 C 
ATOM     66  C   UNL A   1      44.312  32.352  32.214  1.00  0.00     0.029 A 
ATOM     67  C   UNL A   1      44.502  31.044  31.760  1.00  0.00     0.049 A 
ATOM     68  H   UNL A   1      45.050  29.447  33.024  1.00  0.00     0.167 HD
ATOM     69  C   UNL A   1      44.307  29.183  30.113  1.00  0.00     0.074 A 
ATOM     70  C   UNL A   1      43.950  28.041  30.956  1.00  0.00     0.031 C 
ATOM     71  C   UNL A   1      44.564  30.487  30.426  1.00  0.00     0.037 A 
BRANCH  58  72
ATOM     72  C   UNL A   1      43.392  29.077  35.601  1.00  0.00     0.058 A 
ATOM     73  C   UNL A   1      44.057  29.453  36.783  1.00  0.00     0.135 A 
ATOM     74  C   UNL A   1      43.469  27.706  35.264  1.00  0.00     0.135 A 
ATOM     75  F   UNL A   1      44.049  30.730  37.198  1.00  0.00    -0.206 F 
ATOM     76  C   UNL A   1      44.812  28.550  37.531  1.00  0.00     0.059 A 
ATOM     77  C   UNL A   1      44.166  26.780  36.027  1.00  0.00     0.059 A 
ATOM     78  F   UNL A   1      42.962  27.209  34.132  1.00  0.00    -0.206 F 
ATOM     79  C   UNL A   1      44.871  27.218  37.133  1.00  0.00     0.060 A 
BRANCH  79  80
ATOM     80  S   UNL A   1      45.930  26.072  38.027  1.00  0.00     0.124 S 
ATOM     81  O   UNL A   1      45.352  26.128  39.365  1.00  0.00    -0.237 OA
ATOM     82  O   UNL A   1      45.720  24.833  37.288  1.00  0.00    -0.237 OA
ATOM     83  O   UNL A   1      47.258  26.663  37.888  1.00  0.00    -0.744 OA
ENDBRANCH  79  80
ENDBRANCH  58  72
BRANCH  59  84
ATOM     84  C   UNL A   1      41.739  26.125  27.528  1.00  0.00     0.058 A 
ATOM     85  C   UNL A   1      42.615  25.568  26.578  1.00  0.00     0.135 A 
ATOM     86  C   UNL A   1      40.757  25.254  28.044  1.00  0.00     0.135 A 
ATOM     87  F   UNL A   1      43.597  26.315  26.050  1.00  0.00    -0.206 F 
ATOM     88  C   UNL A   1      42.547  24.220  26.193  1.00  0.00     0.059 A 
ATOM     89  C   UNL A   1      40.666  23.913  27.673  1.00  0.00     0.059 A 
ATOM     90  F   UNL A   1      39.908  25.659  29.000  1.00  0.00    -0.206 F 
ATOM     91  C   UNL A   1      41.579  23.394  26.764  1.00  0.00     0.060 A 
BRANCH  91  92
ATOM     92  S   UNL A   1      41.589  21.619  26.408  1.00  0.00     0.124 S 
ATOM     93  O   UNL A   1      40.183  21.359  26.120  1.00  0.00    -0.237 OA
ATOM     94  O   UNL A   1      42.499  21.537  25.269  1.00  0.00    -0.237 OA
ATOM     95  O   UNL A   1      42.093  21.028  27.646  1.00  0.00    -0.744 OA
ENDBRANCH  91  92
ENDBRANCH  59  84
BRANCH  71  96
ATOM     96  C   UNL A   1      44.720  31.483  29.305  1.00  0.00     0.058 A 
ATOM     97  C   UNL A   1      45.893  31.650  28.546  1.00  0.00     0.135 A 
ATOM     98  C   UNL A   1      43.564  32.134  28.850  1.00  0.00     0.135 A 
ATOM     99  F   UNL A   1      47.015  30.986  28.860  1.00  0.00    -0.206 F 
ATOM    100  C   UNL A   1      45.915  32.442  27.394  1.00  0.00     0.059 A 
ATOM    101  C   UNL A   1      43.557  32.904  27.692  1.00  0.00     0.059 A 
ATOM    102  F   UNL A   1      42.400  31.963  29.499  1.00  0.00    -0.206 F 
ATOM    103  C   UNL A   1      44.738  33.059  26.971  1.00  0.00     0.060 A 
BRANCH 103 104
ATOM    104  S   UNL A   1      44.733  33.998  25.427  1.00  0.00     0.124 S 
ATOM    105  O   UNL A   1      43.806  35.082  25.731  1.00  0.00    -0.237 OA
ATOM    106  O   UNL A   1      46.134  34.382  25.284  1.00  0.00    -0.237 OA
ATOM    107  O   UNL A   1      44.259  33.030  24.440  1.00  0.00    -0.744 OA
ENDBRANCH 103 104
ENDBRANCH  71  96
ENDBRANCH  45  46
ENDBRANCH  38  40
ENDBRANCH  37  38
ENDBRANCH  36  37
ENDBRANCH  35  36
ENDBRANCH   1  35
TORSDOF 21
ENDMDL
MODEL 3
REMARK VINA RESULT:     -11.6      2.735      9.665
REMARK SMILES Cc1c(C(=O)OCCOCCOC(=O)c2ccc(-c3c4nc(c(-c5c(F)cc(S(=O)(=O)[O-])cc5F)c5ccc([nH]5)c(-c5c(F)cc(S(=O)(=O)[O-])cc5F)c5nc(c(-c6c(F)cc(S(=O)(=O)[O-])cc6F)c6ccc3[nH]6)C=C5)C=C4)cc2)oc2c1/C(=N/NC(=O)C(c1ccccc1)c1ccccc1)CCC2
REMARK SMILES IDX 9 1 8 2 7 3 6 4 4 5 5 6 3 7 1 8 2 9 83 10 81 11 82 12 84 13
REMARK SMILES IDX 104 14 85 15 102 16 103 17 86 18 87 19 88 21 89 22 90 23
REMARK SMILES IDX 91 24 95 25 92 26 94 27 93 28 96 29 97 30 101 31 98 32
REMARK SMILES IDX 100 33 99 34 10 35 11 36 12 37 13 38 14 39 15 40 16 41 80 42
REMARK SMILES IDX 17 43 79 44 18 45 19 46 20 47 73 48 21 49 78 50 72 51 74 52
REMARK SMILES IDX 22 53 77 54 71 55 70 56 23 58 57 59 36 60 56 61 37 62 40 63
REMARK SMILES IDX 55 64 75 65 38 66 39 67 54 69 76 70 41 71 24 72 25 73 34 74
REMARK SMILES IDX 26 75 27 76 33 77 35 78 28 79 29 80 30 81 31 82 32 83 58 84
REMARK SMILES IDX 59 85 68 86 60 87 61 88 67 89 69 90 62 91 63 92 64 93 65 94
REMARK SMILES IDX 66 95 42 96 43 97 52 98 44 99 45 100 51 101 53 102 46 103
REMARK SMILES IDX 47 104 48 105 49 106 50 107
REMARK H PARENT 86 20 74 57 40 68
REMARK Flexibility Score: inf
ROOT
ATOM      1  O   UNL A   1      33.866  31.465  27.036  1.00  0.00    -0.374 OA
ENDROOT
BRANCH   1   2
ATOM      2  C   UNL A   1      33.184  30.274  27.436  1.00  0.00     0.202 C 
BRANCH   2   3
ATOM      3  C   UNL A   1      31.811  30.019  26.813  1.00  0.00     0.261 C 
BRANCH   3   4
ATOM      4  O   UNL A   1      31.843  30.267  25.412  1.00  0.00    -0.457 OA
BRANCH   4   5
ATOM      5  C   UNL A   1      31.028  29.484  24.641  1.00  0.00     0.374 C 
ATOM      6  O   UNL A   1      30.150  29.877  23.908  1.00  0.00    -0.242 OA
BRANCH   5   7
ATOM      7  C   UNL A   1      31.502  28.124  24.773  1.00  0.00     0.215 A 
ATOM      8  C   UNL A   1      33.918  28.101  23.854  1.00  0.00     0.049 C 
ATOM      9  C   UNL A   1      32.694  27.487  24.426  1.00  0.00     0.012 A 
ATOM     10  C   UNL A   1      32.456  26.108  24.693  1.00  0.00     0.043 A 
ATOM     11  O   UNL A   1      30.668  27.261  25.415  1.00  0.00    -0.453 OA
ATOM     12  C   UNL A   1      31.245  26.062  25.361  1.00  0.00     0.114 A 
ATOM     13  C   UNL A   1      33.103  24.854  24.304  1.00  0.00     0.072 C 
ATOM     14  C   UNL A   1      30.443  24.918  25.835  1.00  0.00     0.076 C 
ATOM     15  N   UNL A   1      34.336  24.921  23.898  1.00  0.00    -0.177 NA
ATOM     16  C   UNL A   1      32.063  23.759  24.336  1.00  0.00     0.059 C 
ATOM     17  C   UNL A   1      31.263  23.664  25.632  1.00  0.00     0.014 C 
BRANCH  15  18
ATOM     18  N   UNL A   1      35.266  24.044  23.387  1.00  0.00    -0.246 N 
ATOM     19  C   UNL A   1      36.041  22.962  23.769  1.00  0.00     0.252 C 
ATOM     20  H   UNL A   1      35.433  24.253  22.439  1.00  0.00     0.193 HD
ATOM     21  O   UNL A   1      36.800  22.477  22.914  1.00  0.00    -0.272 OA
BRANCH  19  22
ATOM     22  C   UNL A   1      35.977  22.324  25.169  1.00  0.00     0.140 C 
BRANCH  22  23
ATOM     23  C   UNL A   1      35.297  20.904  24.988  1.00  0.00    -0.031 A 
ATOM     24  C   UNL A   1      35.993  19.686  24.975  1.00  0.00     0.005 A 
ATOM     25  C   UNL A   1      33.891  20.802  24.767  1.00  0.00     0.005 A 
ATOM     26  C   UNL A   1      35.343  18.484  24.609  1.00  0.00     0.000 A 
ATOM     27  C   UNL A   1      33.255  19.626  24.364  1.00  0.00     0.000 A 
ATOM     28  C   UNL A   1      33.989  18.462  24.267  1.00  0.00     0.000 A 
ENDBRANCH  22  23
BRANCH  22  29
ATOM     29  C   UNL A   1      37.390  22.607  25.842  1.00  0.00    -0.031 A 
ATOM     30  C   UNL A   1      38.479  21.721  25.838  1.00  0.00     0.005 A 
ATOM     31  C   UNL A   1      37.651  23.895  26.392  1.00  0.00     0.005 A 
ATOM     32  C   UNL A   1      39.784  22.187  26.126  1.00  0.00     0.000 A 
ATOM     33  C   UNL A   1      38.941  24.369  26.637  1.00  0.00     0.000 A 
ATOM     34  C   UNL A   1      40.018  23.521  26.466  1.00  0.00     0.000 A 
ENDBRANCH  22  29
ENDBRANCH  19  22
ENDBRANCH  15  18
ENDBRANCH   5   7
ENDBRANCH   4   5
ENDBRANCH   3   4
ENDBRANCH   2   3
ENDBRANCH   1   2
BRANCH   1  35
ATOM     35  C   UNL A   1      34.969  31.936  27.811  1.00  0.00     0.202 C 
BRANCH  35  36
ATOM     36  C   UNL A   1      35.966  30.932  28.363  1.00  0.00     0.261 C 
BRANCH  36  37
ATOM     37  O   UNL A   1      36.748  31.520  29.389  1.00  0.00    -0.460 OA
BRANCH  37  38
ATOM     38  C   UNL A   1      36.310  31.254  30.640  1.00  0.00     0.338 C 
ATOM     39  O   UNL A   1      35.275  31.635  31.156  1.00  0.00    -0.246 OA
BRANCH  38  40
ATOM     40  C   UNL A   1      37.377  30.538  31.344  1.00  0.00     0.060 A 
ATOM     41  C   UNL A   1      38.497  31.313  31.639  1.00  0.00     0.016 A 
ATOM     42  C   UNL A   1      37.415  29.135  31.311  1.00  0.00     0.016 A 
ATOM     43  C   UNL A   1      39.721  30.703  31.556  1.00  0.00     0.010 A 
ATOM     44  C   UNL A   1      38.640  28.528  31.228  1.00  0.00     0.010 A 
ATOM     45  C   UNL A   1      39.765  29.344  31.226  1.00  0.00    -0.014 A 
BRANCH  45  46
ATOM     46  C   UNL A   1      41.054  28.771  30.929  1.00  0.00     0.031 A 
ATOM     47  C   UNL A   1      41.872  28.621  32.146  1.00  0.00     0.074 A 
ATOM     48  C   UNL A   1      41.410  28.388  29.690  1.00  0.00     0.049 A 
ATOM     49  N   UNL A   1      42.841  29.381  32.528  1.00  0.00    -0.248 NA
ATOM     50  C   UNL A   1      41.389  27.690  33.177  1.00  0.00     0.031 C 
ATOM     51  C   UNL A   1      40.595  28.270  28.478  1.00  0.00     0.029 A 
ATOM     52  N   UNL A   1      42.624  27.935  29.283  1.00  0.00    -0.354 N 
ATOM     53  C   UNL A   1      43.249  28.864  33.750  1.00  0.00     0.074 A 
ATOM     54  C   UNL A   1      42.186  28.006  34.198  1.00  0.00     0.031 C 
ATOM     55  C   UNL A   1      41.279  27.558  27.548  1.00  0.00     0.029 A 
ATOM     56  C   UNL A   1      42.619  27.301  28.045  1.00  0.00     0.049 A 
ATOM     57  H   UNL A   1      43.440  28.047  29.821  1.00  0.00     0.167 HD
ATOM     58  C   UNL A   1      44.539  28.978  34.162  1.00  0.00     0.037 A 
ATOM     59  C   UNL A   1      43.645  26.554  27.556  1.00  0.00     0.037 A 
ATOM     60  C   UNL A   1      45.245  29.963  33.381  1.00  0.00     0.049 A 
ATOM     61  C   UNL A   1      44.870  26.984  28.299  1.00  0.00     0.074 A 
ATOM     62  C   UNL A   1      45.100  31.322  33.187  1.00  0.00     0.029 A 
ATOM     63  N   UNL A   1      46.011  29.507  32.332  1.00  0.00    -0.354 N 
ATOM     64  N   UNL A   1      45.387  28.181  28.190  1.00  0.00    -0.248 NA
ATOM     65  C   UNL A   1      45.192  26.280  29.534  1.00  0.00     0.031 C 
ATOM     66  C   UNL A   1      45.370  31.528  31.804  1.00  0.00     0.029 A 
ATOM     67  C   UNL A   1      45.743  30.303  31.246  1.00  0.00     0.049 A 
ATOM     68  H   UNL A   1      46.638  28.749  32.357  1.00  0.00     0.167 HD
ATOM     69  C   UNL A   1      45.747  28.539  29.485  1.00  0.00     0.074 A 
ATOM     70  C   UNL A   1      45.646  27.304  30.262  1.00  0.00     0.031 C 
ATOM     71  C   UNL A   1      45.804  29.847  29.874  1.00  0.00     0.037 A 
BRANCH  58  72
ATOM     72  C   UNL A   1      45.252  27.944  34.994  1.00  0.00     0.058 A 
ATOM     73  C   UNL A   1      45.408  26.645  34.477  1.00  0.00     0.135 A 
ATOM     74  C   UNL A   1      45.538  28.094  36.371  1.00  0.00     0.135 A 
ATOM     75  F   UNL A   1      45.163  26.388  33.182  1.00  0.00    -0.206 F 
ATOM     76  C   UNL A   1      45.744  25.558  35.284  1.00  0.00     0.059 A 
ATOM     77  C   UNL A   1      45.930  27.038  37.179  1.00  0.00     0.059 A 
ATOM     78  F   UNL A   1      45.357  29.245  37.027  1.00  0.00    -0.206 F 
ATOM     79  C   UNL A   1      45.987  25.765  36.639  1.00  0.00     0.060 A 
BRANCH  79  80
ATOM     80  S   UNL A   1      46.311  24.356  37.707  1.00  0.00     0.124 S 
ATOM     81  O   UNL A   1      45.063  24.268  38.457  1.00  0.00    -0.237 OA
ATOM     82  O   UNL A   1      46.553  23.295  36.735  1.00  0.00    -0.237 OA
ATOM     83  O   UNL A   1      47.480  24.776  38.473  1.00  0.00    -0.744 OA
ENDBRANCH  79  80
ENDBRANCH  58  72
BRANCH  59  84
ATOM     84  C   UNL A   1      43.551  25.250  26.843  1.00  0.00     0.058 A 
ATOM     85  C   UNL A   1      43.968  25.108  25.506  1.00  0.00     0.135 A 
ATOM     86  C   UNL A   1      43.311  24.050  27.543  1.00  0.00     0.135 A 
ATOM     87  F   UNL A   1      44.244  26.194  24.768  1.00  0.00    -0.206 F 
ATOM     88  C   UNL A   1      44.174  23.853  24.913  1.00  0.00     0.059 A 
ATOM     89  C   UNL A   1      43.504  22.790  26.974  1.00  0.00     0.059 A 
ATOM     90  F   UNL A   1      42.969  24.062  28.840  1.00  0.00    -0.206 F 
ATOM     91  C   UNL A   1      43.959  22.697  25.665  1.00  0.00     0.060 A 
BRANCH  91  92
ATOM     92  S   UNL A   1      44.385  21.081  24.970  1.00  0.00     0.124 S 
ATOM     93  O   UNL A   1      43.224  20.277  25.336  1.00  0.00    -0.237 OA
ATOM     94  O   UNL A   1      44.530  21.382  23.549  1.00  0.00    -0.237 OA
ATOM     95  O   UNL A   1      45.626  20.733  25.658  1.00  0.00    -0.744 OA
ENDBRANCH  91  92
ENDBRANCH  59  84
BRANCH  71  96
ATOM     96  C   UNL A   1      45.712  30.921  28.821  1.00  0.00     0.058 A 
ATOM     97  C   UNL A   1      44.505  31.454  28.330  1.00  0.00     0.135 A 
ATOM     98  C   UNL A   1      46.896  31.581  28.461  1.00  0.00     0.135 A 
ATOM     99  F   UNL A   1      43.324  30.939  28.705  1.00  0.00    -0.206 F 
ATOM    100  C   UNL A   1      44.482  32.583  27.507  1.00  0.00     0.059 A 
ATOM    101  C   UNL A   1      46.894  32.722  27.666  1.00  0.00     0.059 A 
ATOM    102  F   UNL A   1      48.074  31.155  28.948  1.00  0.00    -0.206 F 
ATOM    103  C   UNL A   1      45.683  33.216  27.187  1.00  0.00     0.060 A 
BRANCH 103 104
ATOM    104  S   UNL A   1      45.654  34.736  26.211  1.00  0.00     0.124 S 
ATOM    105  O   UNL A   1      46.551  34.409  25.108  1.00  0.00    -0.237 OA
ATOM    106  O   UNL A   1      44.242  34.864  25.864  1.00  0.00    -0.237 OA
ATOM    107  O   UNL A   1      46.151  35.748  27.140  1.00  0.00    -0.744 OA
ENDBRANCH 103 104
ENDBRANCH  71  96
ENDBRANCH  45  46
ENDBRANCH  38  40
ENDBRANCH  37  38
ENDBRANCH  36  37
ENDBRANCH  35  36
ENDBRANCH   1  35
TORSDOF 21
ENDMDL
