MODEL 1
REMARK VINA RESULT:     -11.3      0.000      0.000
REMARK SMILES Cc1cc(C(=O)N[C@H](C(=O)OCCOCCOC(=O)c2ccc(-c3c4nc(c(-c5c(F)cc(S(=O)(=O)[O-])cc5F)c5ccc([nH]5)c(-c5c(F)cc(S(=O)(=O)[O-])cc5F)c5nc(c(-c6c(F)cc(S(=O)(=O)[O-])cc6F)c6ccc3[nH]6)C=C5)C=C4)cc2)c2c(C)n[nH]c2C)c2ccc(C)c(C)c2n1
REMARK SMILES IDX 15 1 14 2 13 3 12 4 11 5 9 6 10 7 8 8 7 9 5 10 6 11 4 13
REMARK SMILES IDX 1 14 2 15 3 16 101 17 100 18 93 19 98 20 94 21 96 22 99 23
REMARK SMILES IDX 95 24 97 25 86 26 87 27 91 28 88 29 89 30 90 31 92 32 16 34
REMARK SMILES IDX 17 35 18 36 19 37 20 38 21 39 85 40 22 41 84 42 23 43 24 44
REMARK SMILES IDX 25 45 78 46 26 47 83 48 77 49 79 50 27 51 82 52 76 53 75 54
REMARK SMILES IDX 28 56 62 57 41 58 61 59 42 60 45 61 60 62 80 63 43 64 44 65
REMARK SMILES IDX 59 67 81 68 46 69 29 70 30 71 39 72 31 73 32 74 38 75 40 76
REMARK SMILES IDX 33 77 34 78 35 79 36 80 37 81 63 82 64 83 73 84 65 85 66 86
REMARK SMILES IDX 72 87 74 88 67 89 68 90 69 91 70 92 71 93 47 94 48 95 57 96
REMARK SMILES IDX 49 97 50 98 56 99 58 100 51 101 52 102 53 103 54 104 55 105
REMARK H PARENT 7 12 90 33 79 55 45 66
REMARK Flexibility Score: inf
ROOT
ATOM      1  C   UNL A   1      31.704  30.510  26.257  1.00  0.00     0.202 C 
ENDROOT
BRANCH   1   2
ATOM      2  O   UNL A   1      31.974  30.092  24.918  1.00  0.00    -0.374 OA
BRANCH   2   3
ATOM      3  C   UNL A   1      30.913  29.439  24.219  1.00  0.00     0.202 C 
BRANCH   3   4
ATOM      4  C   UNL A   1      31.304  28.135  23.521  1.00  0.00     0.261 C 
BRANCH   4   5
ATOM      5  O   UNL A   1      32.359  27.485  24.250  1.00  0.00    -0.461 OA
BRANCH   5   6
ATOM      6  C   UNL A   1      31.975  26.636  25.245  1.00  0.00     0.333 C 
ATOM      7  O   UNL A   1      31.046  26.831  26.022  1.00  0.00    -0.249 OA
BRANCH   6   8
ATOM      8  C   UNL A   1      32.874  25.385  25.262  1.00  0.00     0.227 C 
BRANCH   8   9
ATOM      9  N   UNL A   1      32.396  24.533  26.345  1.00  0.00    -0.335 N 
ATOM     10  C   UNL A   1      32.415  23.209  26.671  1.00  0.00     0.252 C 
ATOM     11  O   UNL A   1      31.655  22.935  27.601  1.00  0.00    -0.269 OA
ATOM     12  H   UNL A   1      31.929  25.062  27.032  1.00  0.00     0.165 HD
BRANCH  10  13
ATOM     13  C   UNL A   1      33.265  22.147  26.021  1.00  0.00     0.051 A 
ATOM     14  C   UNL A   1      32.863  18.895  24.115  1.00  0.00     0.067 C 
ATOM     15  C   UNL A   1      33.469  20.086  24.795  1.00  0.00     0.039 A 
ATOM     16  C   UNL A   1      32.683  21.027  25.430  1.00  0.00     0.038 A 
ATOM     17  N   UNL A   1      34.805  20.164  24.796  1.00  0.00    -0.253 NA
ATOM     18  C   UNL A   1      35.419  21.199  25.390  1.00  0.00     0.074 A 
ATOM     19  C   UNL A   1      34.697  22.247  26.011  1.00  0.00     0.013 A 
ATOM     20  C   UNL A   1      36.826  21.204  25.380  1.00  0.00    -0.022 A 
ATOM     21  C   UNL A   1      35.464  23.301  26.570  1.00  0.00     0.011 A 
ATOM     22  C   UNL A   1      37.556  22.240  25.996  1.00  0.00    -0.046 A 
ATOM     23  C   UNL A   1      37.525  20.054  24.689  1.00  0.00     0.047 C 
ATOM     24  C   UNL A   1      36.857  23.293  26.573  1.00  0.00     0.004 A 
ATOM     25  C   UNL A   1      39.056  22.257  26.040  1.00  0.00     0.044 C 
ENDBRANCH  10  13
ENDBRANCH   8   9
BRANCH   8  26
ATOM     26  C   UNL A   1      32.779  24.593  23.972  1.00  0.00     0.029 A 
ATOM     27  C   UNL A   1      33.856  24.122  23.145  1.00  0.00     0.065 A 
ATOM     28  C   UNL A   1      31.643  24.151  23.298  1.00  0.00     0.038 A 
ATOM     29  C   UNL A   1      35.325  24.273  23.325  1.00  0.00     0.069 C 
ATOM     30  N   UNL A   1      33.412  23.465  22.069  1.00  0.00    -0.180 NA
ATOM     31  N   UNL A   1      32.086  23.531  22.163  1.00  0.00    -0.282 N 
ATOM     32  C   UNL A   1      30.186  24.247  23.560  1.00  0.00     0.066 C 
ATOM     33  H   UNL A   1      31.479  23.166  21.477  1.00  0.00     0.190 HD
ENDBRANCH   8  26
ENDBRANCH   6   8
ENDBRANCH   5   6
ENDBRANCH   4   5
ENDBRANCH   3   4
ENDBRANCH   2   3
ENDBRANCH   1   2
BRANCH   1  34
ATOM     34  C   UNL A   1      32.832  31.275  26.955  1.00  0.00     0.261 C 
BRANCH  34  35
ATOM     35  O   UNL A   1      33.620  30.396  27.784  1.00  0.00    -0.460 OA
BRANCH  35  36
ATOM     36  C   UNL A   1      34.591  31.014  28.495  1.00  0.00     0.338 C 
ATOM     37  O   UNL A   1      34.476  32.018  29.182  1.00  0.00    -0.246 OA
BRANCH  36  38
ATOM     38  C   UNL A   1      35.822  30.206  28.491  1.00  0.00     0.060 A 
ATOM     39  C   UNL A   1      36.264  29.704  29.722  1.00  0.00     0.016 A 
ATOM     40  C   UNL A   1      36.599  30.058  27.340  1.00  0.00     0.016 A 
ATOM     41  C   UNL A   1      37.516  29.106  29.821  1.00  0.00     0.010 A 
ATOM     42  C   UNL A   1      37.867  29.474  27.446  1.00  0.00     0.010 A 
ATOM     43  C   UNL A   1      38.346  29.042  28.695  1.00  0.00    -0.014 A 
BRANCH  43  44
ATOM     44  C   UNL A   1      39.782  28.728  28.890  1.00  0.00     0.031 A 
ATOM     45  C   UNL A   1      40.674  29.794  29.471  1.00  0.00     0.074 A 
ATOM     46  C   UNL A   1      40.271  27.506  28.617  1.00  0.00     0.049 A 
ATOM     47  N   UNL A   1      41.950  29.745  29.749  1.00  0.00    -0.248 NA
ATOM     48  C   UNL A   1      40.039  31.085  29.790  1.00  0.00     0.031 C 
ATOM     49  C   UNL A   1      39.494  26.382  28.097  1.00  0.00     0.029 A 
ATOM     50  N   UNL A   1      41.544  27.008  28.742  1.00  0.00    -0.354 N 
ATOM     51  C   UNL A   1      42.269  30.990  30.279  1.00  0.00     0.074 A 
ATOM     52  C   UNL A   1      41.061  31.785  30.260  1.00  0.00     0.031 C 
ATOM     53  C   UNL A   1      40.312  25.327  27.933  1.00  0.00     0.029 A 
ATOM     54  C   UNL A   1      41.671  25.708  28.316  1.00  0.00     0.049 A 
ATOM     55  H   UNL A   1      42.294  27.533  29.103  1.00  0.00     0.167 HD
ATOM     56  C   UNL A   1      43.460  31.427  30.749  1.00  0.00     0.037 A 
ATOM     57  C   UNL A   1      42.764  24.924  28.230  1.00  0.00     0.037 A 
ATOM     58  C   UNL A   1      44.660  30.634  30.766  1.00  0.00     0.049 A 
ATOM     59  C   UNL A   1      44.096  25.460  28.689  1.00  0.00     0.074 A 
ATOM     60  C   UNL A   1      45.912  30.982  31.240  1.00  0.00     0.029 A 
ATOM     61  N   UNL A   1      44.759  29.339  30.283  1.00  0.00    -0.354 N 
ATOM     62  N   UNL A   1      44.378  26.630  29.210  1.00  0.00    -0.248 NA
ATOM     63  C   UNL A   1      45.258  24.570  28.549  1.00  0.00     0.031 C 
ATOM     64  C   UNL A   1      46.781  29.913  31.000  1.00  0.00     0.029 A 
ATOM     65  C   UNL A   1      46.059  28.883  30.420  1.00  0.00     0.049 A 
ATOM     66  H   UNL A   1      44.016  28.820  29.899  1.00  0.00     0.167 HD
ATOM     67  C   UNL A   1      45.743  26.610  29.478  1.00  0.00     0.074 A 
ATOM     68  C   UNL A   1      46.229  25.308  29.072  1.00  0.00     0.031 C 
ATOM     69  C   UNL A   1      46.524  27.581  30.012  1.00  0.00     0.037 A 
BRANCH  56  70
ATOM     70  C   UNL A   1      43.535  32.831  31.275  1.00  0.00     0.058 A 
ATOM     71  C   UNL A   1      43.347  33.116  32.636  1.00  0.00     0.135 A 
ATOM     72  C   UNL A   1      43.870  33.893  30.420  1.00  0.00     0.135 A 
ATOM     73  F   UNL A   1      43.004  32.139  33.490  1.00  0.00    -0.206 F 
ATOM     74  C   UNL A   1      43.486  34.408  33.132  1.00  0.00     0.059 A 
ATOM     75  C   UNL A   1      44.035  35.189  30.898  1.00  0.00     0.059 A 
ATOM     76  F   UNL A   1      44.050  33.673  29.108  1.00  0.00    -0.206 F 
ATOM     77  C   UNL A   1      43.837  35.437  32.256  1.00  0.00     0.060 A 
BRANCH  77  78
ATOM     78  S   UNL A   1      44.054  37.101  32.924  1.00  0.00     0.124 S 
ATOM     79  O   UNL A   1      45.345  36.980  33.594  1.00  0.00    -0.237 OA
ATOM     80  O   UNL A   1      44.040  37.923  31.718  1.00  0.00    -0.237 OA
ATOM     81  O   UNL A   1      42.904  37.265  33.807  1.00  0.00    -0.744 OA
ENDBRANCH  77  78
ENDBRANCH  56  70
BRANCH  57  82
ATOM     82  C   UNL A   1      42.650  23.552  27.666  1.00  0.00     0.058 A 
ATOM     83  C   UNL A   1      42.435  22.441  28.492  1.00  0.00     0.135 A 
ATOM     84  C   UNL A   1      42.759  23.330  26.284  1.00  0.00     0.135 A 
ATOM     85  F   UNL A   1      42.337  22.602  29.821  1.00  0.00    -0.206 F 
ATOM     86  C   UNL A   1      42.338  21.154  27.972  1.00  0.00     0.059 A 
ATOM     87  C   UNL A   1      42.643  22.056  25.737  1.00  0.00     0.059 A 
ATOM     88  F   UNL A   1      42.958  24.363  25.451  1.00  0.00    -0.206 F 
ATOM     89  C   UNL A   1      42.441  20.974  26.591  1.00  0.00     0.060 A 
BRANCH  89  90
ATOM     90  S   UNL A   1      42.267  19.305  25.921  1.00  0.00     0.124 S 
ATOM     91  O   UNL A   1      43.108  19.375  24.733  1.00  0.00    -0.237 OA
ATOM     92  O   UNL A   1      42.773  18.483  27.015  1.00  0.00    -0.237 OA
ATOM     93  O   UNL A   1      40.832  19.192  25.673  1.00  0.00    -0.744 OA
ENDBRANCH  89  90
ENDBRANCH  57  82
BRANCH  69  94
ATOM     94  C   UNL A   1      47.984  27.280  30.203  1.00  0.00     0.058 A 
ATOM     95  C   UNL A   1      48.935  27.624  29.231  1.00  0.00     0.135 A 
ATOM     96  C   UNL A   1      48.446  26.721  31.405  1.00  0.00     0.135 A 
ATOM     97  F   UNL A   1      48.546  28.157  28.062  1.00  0.00    -0.206 F 
ATOM     98  C   UNL A   1      50.294  27.413  29.440  1.00  0.00     0.059 A 
ATOM     99  C   UNL A   1      49.801  26.523  31.646  1.00  0.00     0.059 A 
ATOM    100  F   UNL A   1      47.576  26.385  32.372  1.00  0.00    -0.206 F 
ATOM    101  C   UNL A   1      50.719  26.868  30.654  1.00  0.00     0.060 A 
BRANCH 101 102
ATOM    102  S   UNL A   1      52.488  26.648  30.930  1.00  0.00     0.124 S 
ATOM    103  O   UNL A   1      52.985  26.514  29.565  1.00  0.00    -0.237 OA
ATOM    104  O   UNL A   1      52.852  27.884  31.619  1.00  0.00    -0.237 OA
ATOM    105  O   UNL A   1      52.559  25.439  31.746  1.00  0.00    -0.744 OA
ENDBRANCH 101 102
ENDBRANCH  69  94
ENDBRANCH  43  44
ENDBRANCH  36  38
ENDBRANCH  35  36
ENDBRANCH  34  35
ENDBRANCH   1  34
TORSDOF 20
ENDMDL
MODEL 2
REMARK VINA RESULT:     -11.3      1.328      2.746
REMARK SMILES Cc1cc(C(=O)N[C@H](C(=O)OCCOCCOC(=O)c2ccc(-c3c4nc(c(-c5c(F)cc(S(=O)(=O)[O-])cc5F)c5ccc([nH]5)c(-c5c(F)cc(S(=O)(=O)[O-])cc5F)c5nc(c(-c6c(F)cc(S(=O)(=O)[O-])cc6F)c6ccc3[nH]6)C=C5)C=C4)cc2)c2c(C)n[nH]c2C)c2ccc(C)c(C)c2n1
REMARK SMILES IDX 15 1 14 2 13 3 12 4 11 5 9 6 10 7 8 8 7 9 5 10 6 11 4 13
REMARK SMILES IDX 1 14 2 15 3 16 101 17 100 18 93 19 98 20 94 21 96 22 99 23
REMARK SMILES IDX 95 24 97 25 86 26 87 27 91 28 88 29 89 30 90 31 92 32 16 34
REMARK SMILES IDX 17 35 18 36 19 37 20 38 21 39 85 40 22 41 84 42 23 43 24 44
REMARK SMILES IDX 25 45 78 46 26 47 83 48 77 49 79 50 27 51 82 52 76 53 75 54
REMARK SMILES IDX 28 56 62 57 41 58 61 59 42 60 45 61 60 62 80 63 43 64 44 65
REMARK SMILES IDX 59 67 81 68 46 69 29 70 30 71 39 72 31 73 32 74 38 75 40 76
REMARK SMILES IDX 33 77 34 78 35 79 36 80 37 81 63 82 64 83 73 84 65 85 66 86
REMARK SMILES IDX 72 87 74 88 67 89 68 90 69 91 70 92 71 93 47 94 48 95 57 96
REMARK SMILES IDX 49 97 50 98 56 99 58 100 51 101 52 102 53 103 54 104 55 105
REMARK H PARENT 7 12 90 33 79 55 45 66
REMARK Flexibility Score: inf
ROOT
ATOM      1  C   UNL A   1      31.674  30.311  26.978  1.00  0.00     0.202 C 
ENDROOT
BRANCH   1   2
ATOM      2  O   UNL A   1      31.438  29.780  25.673  1.00  0.00    -0.374 OA
BRANCH   2   3
ATOM      3  C   UNL A   1      30.728  30.613  24.755  1.00  0.00     0.202 C 
BRANCH   3   4
ATOM      4  C   UNL A   1      29.869  29.865  23.733  1.00  0.00     0.261 C 
BRANCH   4   5
ATOM      5  O   UNL A   1      30.002  28.446  23.924  1.00  0.00    -0.461 OA
BRANCH   5   6
ATOM      6  C   UNL A   1      30.516  27.739  22.877  1.00  0.00     0.333 C 
ATOM      7  O   UNL A   1      30.325  27.991  21.692  1.00  0.00    -0.249 OA
BRANCH   6   8
ATOM      8  C   UNL A   1      31.378  26.570  23.389  1.00  0.00     0.227 C 
BRANCH   8   9
ATOM      9  N   UNL A   1      32.028  25.980  22.224  1.00  0.00    -0.335 N 
ATOM     10  C   UNL A   1      33.017  25.077  21.970  1.00  0.00     0.252 C 
ATOM     11  O   UNL A   1      33.377  25.080  20.792  1.00  0.00    -0.269 OA
ATOM     12  H   UNL A   1      31.646  26.333  21.388  1.00  0.00     0.165 HD
BRANCH  10  13
ATOM     13  C   UNL A   1      33.634  24.131  22.970  1.00  0.00     0.051 A 
ATOM     14  C   UNL A   1      36.269  24.128  25.695  1.00  0.00     0.067 C 
ATOM     15  C   UNL A   1      35.189  23.689  24.753  1.00  0.00     0.039 A 
ATOM     16  C   UNL A   1      34.666  24.549  23.809  1.00  0.00     0.038 A 
ATOM     17  N   UNL A   1      34.793  22.413  24.843  1.00  0.00    -0.253 NA
ATOM     18  C   UNL A   1      33.834  21.946  24.029  1.00  0.00     0.074 A 
ATOM     19  C   UNL A   1      33.192  22.769  23.072  1.00  0.00     0.013 A 
ATOM     20  C   UNL A   1      33.487  20.588  24.156  1.00  0.00    -0.022 A 
ATOM     21  C   UNL A   1      32.169  22.163  22.298  1.00  0.00     0.011 A 
ATOM     22  C   UNL A   1      32.506  20.005  23.330  1.00  0.00    -0.046 A 
ATOM     23  C   UNL A   1      34.212  19.776  25.208  1.00  0.00     0.047 C 
ATOM     24  C   UNL A   1      31.841  20.814  22.416  1.00  0.00     0.004 A 
ATOM     25  C   UNL A   1      32.139  18.552  23.411  1.00  0.00     0.044 C 
ENDBRANCH  10  13
ENDBRANCH   8   9
BRANCH   8  26
ATOM     26  C   UNL A   1      32.464  27.031  24.342  1.00  0.00     0.029 A 
ATOM     27  C   UNL A   1      32.699  26.592  25.690  1.00  0.00     0.065 A 
ATOM     28  C   UNL A   1      33.464  27.979  24.136  1.00  0.00     0.038 A 
ATOM     29  C   UNL A   1      31.965  25.583  26.500  1.00  0.00     0.069 C 
ATOM     30  N   UNL A   1      33.739  27.221  26.247  1.00  0.00    -0.180 NA
ATOM     31  N   UNL A   1      34.154  28.073  25.313  1.00  0.00    -0.282 N 
ATOM     32  C   UNL A   1      33.856  28.831  22.987  1.00  0.00     0.066 C 
ATOM     33  H   UNL A   1      34.889  28.712  25.456  1.00  0.00     0.190 HD
ENDBRANCH   8  26
ENDBRANCH   6   8
ENDBRANCH   5   6
ENDBRANCH   4   5
ENDBRANCH   3   4
ENDBRANCH   2   3
ENDBRANCH   1   2
BRANCH   1  34
ATOM     34  C   UNL A   1      32.995  31.061  27.161  1.00  0.00     0.261 C 
BRANCH  34  35
ATOM     35  O   UNL A   1      33.789  30.467  28.209  1.00  0.00    -0.460 OA
BRANCH  35  36
ATOM     36  C   UNL A   1      34.869  31.194  28.577  1.00  0.00     0.338 C 
ATOM     37  O   UNL A   1      34.874  32.335  29.017  1.00  0.00    -0.246 OA
BRANCH  36  38
ATOM     38  C   UNL A   1      36.081  30.359  28.556  1.00  0.00     0.060 A 
ATOM     39  C   UNL A   1      36.495  29.797  29.771  1.00  0.00     0.016 A 
ATOM     40  C   UNL A   1      36.871  30.240  27.410  1.00  0.00     0.016 A 
ATOM     41  C   UNL A   1      37.731  29.166  29.861  1.00  0.00     0.010 A 
ATOM     42  C   UNL A   1      38.123  29.624  27.508  1.00  0.00     0.010 A 
ATOM     43  C   UNL A   1      38.576  29.129  28.744  1.00  0.00    -0.014 A 
BRANCH  43  44
ATOM     44  C   UNL A   1      40.001  28.775  28.944  1.00  0.00     0.031 A 
ATOM     45  C   UNL A   1      40.919  29.812  29.537  1.00  0.00     0.074 A 
ATOM     46  C   UNL A   1      40.457  27.542  28.665  1.00  0.00     0.049 A 
ATOM     47  N   UNL A   1      42.192  29.726  29.821  1.00  0.00    -0.248 NA
ATOM     48  C   UNL A   1      40.318  31.118  29.861  1.00  0.00     0.031 C 
ATOM     49  C   UNL A   1      39.652  26.443  28.134  1.00  0.00     0.029 A 
ATOM     50  N   UNL A   1      41.715  27.008  28.794  1.00  0.00    -0.354 N 
ATOM     51  C   UNL A   1      42.543  30.959  30.360  1.00  0.00     0.074 A 
ATOM     52  C   UNL A   1      41.357  31.786  30.340  1.00  0.00     0.031 C 
ATOM     53  C   UNL A   1      40.442  25.367  27.967  1.00  0.00     0.029 A 
ATOM     54  C   UNL A   1      41.809  25.707  28.360  1.00  0.00     0.049 A 
ATOM     55  H   UNL A   1      42.478  27.510  29.162  1.00  0.00     0.167 HD
ATOM     56  C   UNL A   1      43.743  31.359  30.839  1.00  0.00     0.037 A 
ATOM     57  C   UNL A   1      42.881  24.894  28.275  1.00  0.00     0.037 A 
ATOM     58  C   UNL A   1      44.919  30.533  30.858  1.00  0.00     0.049 A 
ATOM     59  C   UNL A   1      44.225  25.390  28.744  1.00  0.00     0.074 A 
ATOM     60  C   UNL A   1      46.179  30.844  31.341  1.00  0.00     0.029 A 
ATOM     61  N   UNL A   1      44.985  29.239  30.366  1.00  0.00    -0.354 N 
ATOM     62  N   UNL A   1      44.536  26.548  29.274  1.00  0.00    -0.248 NA
ATOM     63  C   UNL A   1      45.362  24.469  28.604  1.00  0.00     0.031 C 
ATOM     64  C   UNL A   1      47.019  29.753  31.098  1.00  0.00     0.029 A 
ATOM     65  C   UNL A   1      46.271  28.746  30.507  1.00  0.00     0.049 A 
ATOM     66  H   UNL A   1      44.230  28.743  29.975  1.00  0.00     0.167 HD
ATOM     67  C   UNL A   1      45.898  26.489  29.549  1.00  0.00     0.074 A 
ATOM     68  C   UNL A   1      46.350  25.177  29.137  1.00  0.00     0.031 C 
ATOM     69  C   UNL A   1      46.703  27.435  30.093  1.00  0.00     0.037 A 
BRANCH  56  70
ATOM     70  C   UNL A   1      43.854  32.757  31.375  1.00  0.00     0.058 A 
ATOM     71  C   UNL A   1      44.322  33.814  30.578  1.00  0.00     0.135 A 
ATOM     72  C   UNL A   1      43.419  33.056  32.676  1.00  0.00     0.135 A 
ATOM     73  F   UNL A   1      44.769  33.576  29.335  1.00  0.00    -0.206 F 
ATOM     74  C   UNL A   1      44.358  35.120  31.055  1.00  0.00     0.059 A 
ATOM     75  C   UNL A   1      43.426  34.359  33.166  1.00  0.00     0.059 A 
ATOM     76  F   UNL A   1      42.972  32.079  33.480  1.00  0.00    -0.206 F 
ATOM     77  C   UNL A   1      43.901  35.384  32.348  1.00  0.00     0.060 A 
BRANCH  77  78
ATOM     78  S   UNL A   1      43.916  37.091  32.935  1.00  0.00     0.124 S 
ATOM     79  O   UNL A   1      43.731  37.829  31.689  1.00  0.00    -0.237 OA
ATOM     80  O   UNL A   1      42.787  37.111  33.859  1.00  0.00    -0.237 OA
ATOM     81  O   UNL A   1      45.232  37.227  33.552  1.00  0.00    -0.744 OA
ENDBRANCH  77  78
ENDBRANCH  56  70
BRANCH  57  82
ATOM     82  C   UNL A   1      42.732  23.530  27.701  1.00  0.00     0.058 A 
ATOM     83  C   UNL A   1      42.572  22.408  28.525  1.00  0.00     0.135 A 
ATOM     84  C   UNL A   1      42.751  23.326  26.312  1.00  0.00     0.135 A 
ATOM     85  F   UNL A   1      42.560  22.551  29.859  1.00  0.00    -0.206 F 
ATOM     86  C   UNL A   1      42.443  21.128  27.995  1.00  0.00     0.059 A 
ATOM     87  C   UNL A   1      42.602  22.059  25.757  1.00  0.00     0.059 A 
ATOM     88  F   UNL A   1      42.895  24.370  25.481  1.00  0.00    -0.206 F 
ATOM     89  C   UNL A   1      42.456  20.965  26.607  1.00  0.00     0.060 A 
BRANCH  89  90
ATOM     90  S   UNL A   1      42.241  19.305  25.928  1.00  0.00     0.124 S 
ATOM     91  O   UNL A   1      42.742  18.474  27.016  1.00  0.00    -0.237 OA
ATOM     92  O   UNL A   1      40.801  19.256  25.697  1.00  0.00    -0.237 OA
ATOM     93  O   UNL A   1      43.061  19.329  24.720  1.00  0.00    -0.744 OA
ENDBRANCH  89  90
ENDBRANCH  57  82
BRANCH  69  94
ATOM     94  C   UNL A   1      48.153  27.092  30.289  1.00  0.00     0.058 A 
ATOM     95  C   UNL A   1      49.126  27.463  29.350  1.00  0.00     0.135 A 
ATOM     96  C   UNL A   1      48.584  26.463  31.469  1.00  0.00     0.135 A 
ATOM     97  F   UNL A   1      48.766  28.063  28.204  1.00  0.00    -0.206 F 
ATOM     98  C   UNL A   1      50.477  27.213  29.567  1.00  0.00     0.059 A 
ATOM     99  C   UNL A   1      49.931  26.224  31.719  1.00  0.00     0.059 A 
ATOM    100  F   UNL A   1      47.693  26.099  32.404  1.00  0.00    -0.206 F 
ATOM    101  C   UNL A   1      50.871  26.598  30.758  1.00  0.00     0.060 A 
BRANCH 101 102
ATOM    102  S   UNL A   1      52.631  26.325  31.049  1.00  0.00     0.124 S 
ATOM    103  O   UNL A   1      52.620  25.044  31.746  1.00  0.00    -0.237 OA
ATOM    104  O   UNL A   1      53.172  26.305  29.692  1.00  0.00    -0.237 OA
ATOM    105  O   UNL A   1      53.026  27.476  31.856  1.00  0.00    -0.744 OA
ENDBRANCH 101 102
ENDBRANCH  69  94
ENDBRANCH  43  44
ENDBRANCH  36  38
ENDBRANCH  35  36
ENDBRANCH  34  35
ENDBRANCH   1  34
TORSDOF 20
ENDMDL
MODEL 3
REMARK VINA RESULT:     -10.9      4.658     10.395
REMARK SMILES Cc1cc(C(=O)N[C@H](C(=O)OCCOCCOC(=O)c2ccc(-c3c4nc(c(-c5c(F)cc(S(=O)(=O)[O-])cc5F)c5ccc([nH]5)c(-c5c(F)cc(S(=O)(=O)[O-])cc5F)c5nc(c(-c6c(F)cc(S(=O)(=O)[O-])cc6F)c6ccc3[nH]6)C=C5)C=C4)cc2)c2c(C)n[nH]c2C)c2ccc(C)c(C)c2n1
REMARK SMILES IDX 15 1 14 2 13 3 12 4 11 5 9 6 10 7 8 8 7 9 5 10 6 11 4 13
REMARK SMILES IDX 1 14 2 15 3 16 101 17 100 18 93 19 98 20 94 21 96 22 99 23
REMARK SMILES IDX 95 24 97 25 86 26 87 27 91 28 88 29 89 30 90 31 92 32 16 34
REMARK SMILES IDX 17 35 18 36 19 37 20 38 21 39 85 40 22 41 84 42 23 43 24 44
REMARK SMILES IDX 25 45 78 46 26 47 83 48 77 49 79 50 27 51 82 52 76 53 75 54
REMARK SMILES IDX 28 56 62 57 41 58 61 59 42 60 45 61 60 62 80 63 43 64 44 65
REMARK SMILES IDX 59 67 81 68 46 69 29 70 30 71 39 72 31 73 32 74 38 75 40 76
REMARK SMILES IDX 33 77 34 78 35 79 36 80 37 81 63 82 64 83 73 84 65 85 66 86
REMARK SMILES IDX 72 87 74 88 67 89 68 90 69 91 70 92 71 93 47 94 48 95 57 96
REMARK SMILES IDX 49 97 50 98 56 99 58 100 51 101 52 102 53 103 54 104 55 105
REMARK H PARENT 7 12 90 33 79 55 45 66
REMARK Flexibility Score: inf
ROOT
ATOM      1  C   UNL A   1      39.901  22.186  26.127  1.00  0.00     0.202 C 
ENDROOT
BRANCH   1   2
ATOM      2  O   UNL A   1      38.499  21.933  26.237  1.00  0.00    -0.374 OA
BRANCH   2   3
ATOM      3  C   UNL A   1      37.722  22.067  25.047  1.00  0.00     0.202 C 
BRANCH   3   4
ATOM      4  C   UNL A   1      36.985  23.400  24.902  1.00  0.00     0.261 C 
BRANCH   4   5
ATOM      5  O   UNL A   1      35.572  23.168  24.772  1.00  0.00    -0.461 OA
BRANCH   5   6
ATOM      6  C   UNL A   1      34.813  23.412  25.879  1.00  0.00     0.333 C 
ATOM      7  O   UNL A   1      35.031  22.961  26.998  1.00  0.00    -0.249 OA
BRANCH   6   8
ATOM      8  C   UNL A   1      33.635  24.341  25.529  1.00  0.00     0.227 C 
BRANCH   8   9
ATOM      9  N   UNL A   1      33.820  24.758  24.144  1.00  0.00    -0.335 N 
ATOM     10  C   UNL A   1      33.318  25.703  23.299  1.00  0.00     0.252 C 
ATOM     11  O   UNL A   1      33.627  25.506  22.123  1.00  0.00    -0.269 OA
ATOM     12  H   UNL A   1      34.495  24.202  23.693  1.00  0.00     0.165 HD
BRANCH  10  13
ATOM     13  C   UNL A   1      32.486  26.897  23.696  1.00  0.00     0.051 A 
ATOM     14  C   UNL A   1      29.157  28.503  22.855  1.00  0.00     0.067 C 
ATOM     15  C   UNL A   1      30.491  28.226  23.480  1.00  0.00     0.039 A 
ATOM     16  C   UNL A   1      31.267  27.159  23.074  1.00  0.00     0.038 A 
ATOM     17  N   UNL A   1      30.910  29.090  24.413  1.00  0.00    -0.253 NA
ATOM     18  C   UNL A   1      32.097  28.910  25.013  1.00  0.00     0.074 A 
ATOM     19  C   UNL A   1      32.934  27.809  24.710  1.00  0.00     0.013 A 
ATOM     20  C   UNL A   1      32.490  29.871  25.963  1.00  0.00    -0.022 A 
ATOM     21  C   UNL A   1      34.146  27.714  25.442  1.00  0.00     0.011 A 
ATOM     22  C   UNL A   1      33.728  29.775  26.628  1.00  0.00    -0.046 A 
ATOM     23  C   UNL A   1      31.538  31.014  26.237  1.00  0.00     0.047 C 
ATOM     24  C   UNL A   1      34.539  28.676  26.368  1.00  0.00     0.004 A 
ATOM     25  C   UNL A   1      34.198  30.803  27.617  1.00  0.00     0.044 C 
ENDBRANCH  10  13
ENDBRANCH   8   9
BRANCH   8  26
ATOM     26  C   UNL A   1      32.297  23.633  25.626  1.00  0.00     0.029 A 
ATOM     27  C   UNL A   1      32.013  22.248  25.367  1.00  0.00     0.065 A 
ATOM     28  C   UNL A   1      31.053  24.155  25.974  1.00  0.00     0.038 A 
ATOM     29  C   UNL A   1      32.930  21.153  24.950  1.00  0.00     0.069 C 
ATOM     30  N   UNL A   1      30.717  21.963  25.536  1.00  0.00    -0.180 NA
ATOM     31  N   UNL A   1      30.159  23.127  25.859  1.00  0.00    -0.282 N 
ATOM     32  C   UNL A   1      30.578  25.498  26.383  1.00  0.00     0.066 C 
ATOM     33  H   UNL A   1      29.191  23.237  26.003  1.00  0.00     0.190 HD
ENDBRANCH   8  26
ENDBRANCH   6   8
ENDBRANCH   5   6
ENDBRANCH   4   5
ENDBRANCH   3   4
ENDBRANCH   2   3
ENDBRANCH   1   2
BRANCH   1  34
ATOM     34  C   UNL A   1      40.463  23.242  27.082  1.00  0.00     0.261 C 
BRANCH  34  35
ATOM     35  O   UNL A   1      41.481  24.034  26.439  1.00  0.00    -0.460 OA
BRANCH  35  36
ATOM     36  C   UNL A   1      41.194  25.353  26.348  1.00  0.00     0.338 C 
ATOM     37  O   UNL A   1      40.806  25.956  25.357  1.00  0.00    -0.246 OA
BRANCH  36  38
ATOM     38  C   UNL A   1      41.231  25.980  27.680  1.00  0.00     0.060 A 
ATOM     39  C   UNL A   1      40.056  25.941  28.441  1.00  0.00     0.016 A 
ATOM     40  C   UNL A   1      42.340  26.708  28.117  1.00  0.00     0.016 A 
ATOM     41  C   UNL A   1      39.961  26.680  29.615  1.00  0.00     0.010 A 
ATOM     42  C   UNL A   1      42.236  27.468  29.287  1.00  0.00     0.010 A 
ATOM     43  C   UNL A   1      41.031  27.493  30.011  1.00  0.00    -0.014 A 
BRANCH  43  44
ATOM     44  C   UNL A   1      40.790  28.524  31.050  1.00  0.00     0.031 A 
ATOM     45  C   UNL A   1      41.629  28.487  32.301  1.00  0.00     0.074 A 
ATOM     46  C   UNL A   1      39.892  29.505  30.862  1.00  0.00     0.049 A 
ATOM     47  N   UNL A   1      41.613  29.289  33.332  1.00  0.00    -0.248 NA
ATOM     48  C   UNL A   1      42.626  27.405  32.396  1.00  0.00     0.031 C 
ATOM     49  C   UNL A   1      39.057  29.670  29.672  1.00  0.00     0.029 A 
ATOM     50  N   UNL A   1      39.534  30.552  31.674  1.00  0.00    -0.354 N 
ATOM     51  C   UNL A   1      42.597  28.816  34.194  1.00  0.00     0.074 A 
ATOM     52  C   UNL A   1      43.173  27.641  33.579  1.00  0.00     0.031 C 
ATOM     53  C   UNL A   1      38.272  30.749  29.839  1.00  0.00     0.029 A 
ATOM     54  C   UNL A   1      38.533  31.337  31.153  1.00  0.00     0.049 A 
ATOM     55  H   UNL A   1      39.955  30.725  32.547  1.00  0.00     0.167 HD
ATOM     56  C   UNL A   1      42.990  29.324  35.384  1.00  0.00     0.037 A 
ATOM     57  C   UNL A   1      37.892  32.396  31.685  1.00  0.00     0.037 A 
ATOM     58  C   UNL A   1      42.415  30.493  35.992  1.00  0.00     0.049 A 
ATOM     59  C   UNL A   1      38.296  32.897  33.049  1.00  0.00     0.074 A 
ATOM     60  C   UNL A   1      42.759  31.096  37.189  1.00  0.00     0.029 A 
ATOM     61  N   UNL A   1      41.371  31.231  35.456  1.00  0.00    -0.354 N 
ATOM     62  N   UNL A   1      39.244  32.455  33.840  1.00  0.00    -0.248 NA
ATOM     63  C   UNL A   1      37.546  34.039  33.590  1.00  0.00     0.031 C 
ATOM     64  C   UNL A   1      41.891  32.172  37.400  1.00  0.00     0.029 A 
ATOM     65  C   UNL A   1      41.039  32.267  36.311  1.00  0.00     0.049 A 
ATOM     66  H   UNL A   1      40.932  31.047  34.595  1.00  0.00     0.167 HD
ATOM     67  C   UNL A   1      39.217  33.275  34.963  1.00  0.00     0.074 A 
ATOM     68  C   UNL A   1      38.167  34.248  34.744  1.00  0.00     0.031 C 
ATOM     69  C   UNL A   1      39.991  33.228  36.076  1.00  0.00     0.037 A 
BRANCH  56  70
ATOM     70  C   UNL A   1      44.090  28.614  36.121  1.00  0.00     0.058 A 
ATOM     71  C   UNL A   1      43.827  27.507  36.943  1.00  0.00     0.135 A 
ATOM     72  C   UNL A   1      45.427  29.002  35.945  1.00  0.00     0.135 A 
ATOM     73  F   UNL A   1      42.563  27.112  37.160  1.00  0.00    -0.206 F 
ATOM     74  C   UNL A   1      44.855  26.810  37.569  1.00  0.00     0.059 A 
ATOM     75  C   UNL A   1      46.473  28.305  36.545  1.00  0.00     0.059 A 
ATOM     76  F   UNL A   1      45.729  30.060  35.177  1.00  0.00    -0.206 F 
ATOM     77  C   UNL A   1      46.175  27.212  37.357  1.00  0.00     0.060 A 
BRANCH  77  78
ATOM     78  S   UNL A   1      47.499  26.269  38.144  1.00  0.00     0.124 S 
ATOM     79  O   UNL A   1      48.198  25.723  36.984  1.00  0.00    -0.237 OA
ATOM     80  O   UNL A   1      48.214  27.301  38.888  1.00  0.00    -0.237 OA
ATOM     81  O   UNL A   1      46.783  25.292  38.959  1.00  0.00    -0.744 OA
ENDBRANCH  77  78
ENDBRANCH  56  70
BRANCH  57  82
ATOM     82  C   UNL A   1      36.782  33.044  30.937  1.00  0.00     0.058 A 
ATOM     83  C   UNL A   1      37.035  33.997  29.941  1.00  0.00     0.135 A 
ATOM     84  C   UNL A   1      35.443  32.721  31.209  1.00  0.00     0.135 A 
ATOM     85  F   UNL A   1      38.298  34.348  29.653  1.00  0.00    -0.206 F 
ATOM     86  C   UNL A   1      36.001  34.615  29.244  1.00  0.00     0.059 A 
ATOM     87  C   UNL A   1      34.392  33.308  30.511  1.00  0.00     0.059 A 
ATOM     88  F   UNL A   1      35.150  31.809  32.148  1.00  0.00    -0.206 F 
ATOM     89  C   UNL A   1      34.682  34.260  29.536  1.00  0.00     0.060 A 
BRANCH  89  90
ATOM     90  S   UNL A   1      33.349  35.033  28.593  1.00  0.00     0.124 S 
ATOM     91  O   UNL A   1      32.591  35.698  29.646  1.00  0.00    -0.237 OA
ATOM     92  O   UNL A   1      34.085  35.907  27.686  1.00  0.00    -0.237 OA
ATOM     93  O   UNL A   1      32.686  33.897  27.958  1.00  0.00    -0.744 OA
ENDBRANCH  89  90
ENDBRANCH  57  82
BRANCH  69  94
ATOM     94  C   UNL A   1      39.748  34.259  37.142  1.00  0.00     0.058 A 
ATOM     95  C   UNL A   1      39.024  33.954  38.304  1.00  0.00     0.135 A 
ATOM     96  C   UNL A   1      40.318  35.539  37.039  1.00  0.00     0.135 A 
ATOM     97  F   UNL A   1      38.456  32.747  38.449  1.00  0.00    -0.206 F 
ATOM     98  C   UNL A   1      38.864  34.885  39.324  1.00  0.00     0.059 A 
ATOM     99  C   UNL A   1      40.191  36.478  38.057  1.00  0.00     0.059 A 
ATOM    100  F   UNL A   1      41.030  35.876  35.952  1.00  0.00    -0.206 F 
ATOM    101  C   UNL A   1      39.457  36.144  39.194  1.00  0.00     0.060 A 
BRANCH 101 102
ATOM    102  S   UNL A   1      39.283  37.324  40.549  1.00  0.00     0.124 S 
ATOM    103  O   UNL A   1      40.650  37.812  40.691  1.00  0.00    -0.237 OA
ATOM    104  O   UNL A   1      38.321  38.281  40.008  1.00  0.00    -0.237 OA
ATOM    105  O   UNL A   1      38.789  36.506  41.653  1.00  0.00    -0.744 OA
ENDBRANCH 101 102
ENDBRANCH  69  94
ENDBRANCH  43  44
ENDBRANCH  36  38
ENDBRANCH  35  36
ENDBRANCH  34  35
ENDBRANCH   1  34
TORSDOF 20
ENDMDL
