MODEL 1
REMARK VINA RESULT:     -10.9      0.000      0.000
REMARK SMILES COc1cc(C(=O)N[C@H]2CCCC[C@H]2C(=O)OCCOCCOC(=O)c2ccc(-c3c4nc(c(-c5c(F)cc(S(=O)(=O)[O-])cc5F)c5ccc([nH]5)c(-c5c(F)cc(S(=O)(=O)[O-])cc5F)c5nc(c(-c6c(F)cc(S(=O)(=O)[O-])cc6F)c6ccc3[nH]6)C=C5)C=C4)cc2)cc(Cl)c1OC
REMARK SMILES IDX 20 1 19 2 18 3 17 4 15 5 16 6 14 7 9 8 10 9 11 10 13 11
REMARK SMILES IDX 12 12 8 13 6 14 7 15 5 17 3 18 4 19 95 20 93 21 92 22 94 23
REMARK SMILES IDX 2 24 1 25 96 26 97 27 21 28 22 29 23 30 24 31 25 32 26 33
REMARK SMILES IDX 27 34 91 35 28 36 90 37 29 38 30 39 31 40 84 41 32 42 89 43
REMARK SMILES IDX 83 44 85 45 33 46 88 47 82 48 81 49 34 51 68 52 47 53 67 54
REMARK SMILES IDX 48 55 51 56 66 57 86 58 49 59 50 60 65 62 87 63 52 64 35 65
REMARK SMILES IDX 36 66 45 67 37 68 38 69 44 70 46 71 39 72 40 73 41 74 42 75
REMARK SMILES IDX 43 76 69 77 70 78 79 79 71 80 72 81 78 82 80 83 73 84 74 85
REMARK SMILES IDX 75 86 76 87 77 88 53 89 54 90 63 91 55 92 56 93 62 94 64 95
REMARK SMILES IDX 57 96 58 97 59 98 60 99 61 100
REMARK H PARENT 8 16 85 50 51 61
REMARK Flexibility Score: inf
ROOT
ATOM      1  O   UNL A   1      40.023  20.163  26.180  1.00  0.00    -0.374 OA
ENDROOT
BRANCH   1   2
ATOM      2  C   UNL A   1      38.804  20.143  25.438  1.00  0.00     0.202 C 
BRANCH   2   3
ATOM      3  C   UNL A   1      38.107  21.489  25.259  1.00  0.00     0.261 C 
BRANCH   3   4
ATOM      4  O   UNL A   1      36.778  21.321  24.715  1.00  0.00    -0.463 OA
BRANCH   4   5
ATOM      5  C   UNL A   1      35.782  22.097  25.221  1.00  0.00     0.311 C 
ATOM      6  O   UNL A   1      35.806  22.632  26.322  1.00  0.00    -0.252 OA
BRANCH   5   7
ATOM      7  C   UNL A   1      34.573  22.165  24.299  1.00  0.00     0.121 C 
ATOM      8  C   UNL A   1      33.257  21.685  24.909  1.00  0.00     0.096 C 
ATOM      9  C   UNL A   1      32.246  21.491  23.752  1.00  0.00     0.026 C 
ATOM     10  C   UNL A   1      32.022  22.773  22.953  1.00  0.00     0.002 C 
ATOM     11  C   UNL A   1      34.377  23.491  23.544  1.00  0.00     0.017 C 
ATOM     12  C   UNL A   1      33.332  23.367  22.437  1.00  0.00     0.001 C 
BRANCH   8  13
ATOM     13  N   UNL A   1      32.579  22.373  26.037  1.00  0.00    -0.348 N 
ATOM     14  C   UNL A   1      31.974  23.490  26.539  1.00  0.00     0.251 C 
ATOM     15  O   UNL A   1      31.650  23.366  27.728  1.00  0.00    -0.269 OA
ATOM     16  H   UNL A   1      32.554  21.713  26.768  1.00  0.00     0.164 HD
BRANCH  14  17
ATOM     17  C   UNL A   1      31.649  24.806  25.912  1.00  0.00     0.045 A 
ATOM     18  C   UNL A   1      32.462  27.005  25.213  1.00  0.00     0.163 A 
ATOM     19  C   UNL A   1      32.668  25.766  25.846  1.00  0.00     0.064 A 
ATOM     20  C   UNL A   1      31.215  27.367  24.695  1.00  0.00     0.179 A 
ATOM     21  C   UNL A   1      30.224  26.395  24.692  1.00  0.00     0.087 A 
ATOM     22  C   UNL A   1      30.462  25.151  25.293  1.00  0.00     0.038 A 
ATOM     23  Cl  UNL A   1      28.704  26.575  23.885  1.00  0.00    -0.080 Cl
BRANCH  18  24
ATOM     24  O   UNL A   1      33.513  27.881  25.106  1.00  0.00    -0.493 OA
ATOM     25  C   UNL A   1      33.910  28.308  26.414  1.00  0.00     0.278 C 
ENDBRANCH  18  24
BRANCH  20  26
ATOM     26  O   UNL A   1      31.093  28.609  24.132  1.00  0.00    -0.491 OA
ATOM     27  C   UNL A   1      31.188  28.623  22.707  1.00  0.00     0.278 C 
ENDBRANCH  20  26
ENDBRANCH  14  17
ENDBRANCH   8  13
ENDBRANCH   5   7
ENDBRANCH   4   5
ENDBRANCH   3   4
ENDBRANCH   2   3
ENDBRANCH   1   2
BRANCH   1  28
ATOM     28  C   UNL A   1      40.346  21.357  26.877  1.00  0.00     0.202 C 
BRANCH  28  29
ATOM     29  C   UNL A   1      41.568  22.158  26.403  1.00  0.00     0.261 C 
BRANCH  29  30
ATOM     30  O   UNL A   1      41.349  23.558  26.179  1.00  0.00    -0.460 OA
BRANCH  30  31
ATOM     31  C   UNL A   1      42.344  24.344  26.664  1.00  0.00     0.338 C 
ATOM     32  O   UNL A   1      43.546  24.208  26.461  1.00  0.00    -0.246 OA
BRANCH  31  33
ATOM     33  C   UNL A   1      41.809  25.475  27.444  1.00  0.00     0.060 A 
ATOM     34  C   UNL A   1      42.564  26.653  27.485  1.00  0.00     0.016 A 
ATOM     35  C   UNL A   1      40.674  25.335  28.249  1.00  0.00     0.016 A 
ATOM     36  C   UNL A   1      42.224  27.670  28.378  1.00  0.00     0.010 A 
ATOM     37  C   UNL A   1      40.339  26.356  29.147  1.00  0.00     0.010 A 
ATOM     38  C   UNL A   1      41.138  27.509  29.249  1.00  0.00    -0.014 A 
BRANCH  38  39
ATOM     39  C   UNL A   1      40.941  28.477  30.360  1.00  0.00     0.031 A 
ATOM     40  C   UNL A   1      41.815  28.380  31.584  1.00  0.00     0.074 A 
ATOM     41  C   UNL A   1      40.017  29.453  30.270  1.00  0.00     0.049 A 
ATOM     42  N   UNL A   1      41.807  29.111  32.670  1.00  0.00    -0.248 NA
ATOM     43  C   UNL A   1      42.830  27.313  31.588  1.00  0.00     0.031 C 
ATOM     44  C   UNL A   1      39.122  29.668  29.134  1.00  0.00     0.029 A 
ATOM     45  N   UNL A   1      39.676  30.443  31.158  1.00  0.00    -0.354 N 
ATOM     46  C   UNL A   1      42.801  28.586  33.489  1.00  0.00     0.074 A 
ATOM     47  C   UNL A   1      43.382  27.465  32.784  1.00  0.00     0.031 C 
ATOM     48  C   UNL A   1      38.325  30.716  29.399  1.00  0.00     0.029 A 
ATOM     49  C   UNL A   1      38.634  31.232  30.732  1.00  0.00     0.049 A 
ATOM     50  H   UNL A   1      40.135  30.576  32.019  1.00  0.00     0.167 HD
ATOM     51  C   UNL A   1      43.196  29.006  34.715  1.00  0.00     0.037 A 
ATOM     52  C   UNL A   1      37.989  32.239  31.355  1.00  0.00     0.037 A 
ATOM     53  C   UNL A   1      42.637  30.138  35.406  1.00  0.00     0.049 A 
ATOM     54  C   UNL A   1      38.429  32.666  32.732  1.00  0.00     0.074 A 
ATOM     55  C   UNL A   1      43.014  30.673  36.626  1.00  0.00     0.029 A 
ATOM     56  N   UNL A   1      41.579  30.905  34.945  1.00  0.00    -0.354 N 
ATOM     57  N   UNL A   1      39.406  32.194  33.470  1.00  0.00    -0.248 NA
ATOM     58  C   UNL A   1      37.682  33.765  33.361  1.00  0.00     0.031 C 
ATOM     59  C   UNL A   1      42.155  31.734  36.924  1.00  0.00     0.029 A 
ATOM     60  C   UNL A   1      41.271  31.889  35.869  1.00  0.00     0.049 A 
ATOM     61  H   UNL A   1      41.114  30.770  34.087  1.00  0.00     0.167 HD
ATOM     62  C   UNL A   1      39.405  32.954  34.636  1.00  0.00     0.074 A 
ATOM     63  C   UNL A   1      38.338  33.924  34.502  1.00  0.00     0.031 C 
ATOM     64  C   UNL A   1      40.214  32.858  35.720  1.00  0.00     0.037 A 
BRANCH  51  65
ATOM     65  C   UNL A   1      44.278  28.228  35.410  1.00  0.00     0.058 A 
ATOM     66  C   UNL A   1      45.634  28.562  35.276  1.00  0.00     0.135 A 
ATOM     67  C   UNL A   1      43.944  27.178  36.281  1.00  0.00     0.135 A 
ATOM     68  F   UNL A   1      46.007  29.548  34.446  1.00  0.00    -0.206 F 
ATOM     69  C   UNL A   1      46.624  27.875  35.974  1.00  0.00     0.059 A 
ATOM     70  C   UNL A   1      44.914  26.491  37.004  1.00  0.00     0.059 A 
ATOM     71  F   UNL A   1      42.661  26.816  36.442  1.00  0.00    -0.206 F 
ATOM     72  C   UNL A   1      46.253  26.842  36.837  1.00  0.00     0.060 A 
BRANCH  72  73
ATOM     73  S   UNL A   1      47.544  25.980  37.758  1.00  0.00     0.124 S 
ATOM     74  O   UNL A   1      48.172  27.081  38.481  1.00  0.00    -0.237 OA
ATOM     75  O   UNL A   1      46.777  25.043  38.572  1.00  0.00    -0.237 OA
ATOM     76  O   UNL A   1      48.360  25.371  36.712  1.00  0.00    -0.744 OA
ENDBRANCH  72  73
ENDBRANCH  51  65
BRANCH  52  77
ATOM     77  C   UNL A   1      36.835  32.907  30.696  1.00  0.00     0.058 A 
ATOM     78  C   UNL A   1      37.025  33.883  29.707  1.00  0.00     0.135 A 
ATOM     79  C   UNL A   1      35.517  32.603  31.070  1.00  0.00     0.135 A 
ATOM     80  F   UNL A   1      38.266  34.217  29.325  1.00  0.00    -0.206 F 
ATOM     81  C   UNL A   1      35.951  34.551  29.127  1.00  0.00     0.059 A 
ATOM     82  C   UNL A   1      34.426  33.239  30.487  1.00  0.00     0.059 A 
ATOM     83  F   UNL A   1      35.280  31.672  32.008  1.00  0.00    -0.206 F 
ATOM     84  C   UNL A   1      34.654  34.223  29.527  1.00  0.00     0.060 A 
BRANCH  84  85
ATOM     85  S   UNL A   1      33.263  35.078  28.753  1.00  0.00     0.124 S 
ATOM     86  O   UNL A   1      32.493  35.498  29.919  1.00  0.00    -0.237 OA
ATOM     87  O   UNL A   1      33.929  36.143  28.010  1.00  0.00    -0.237 OA
ATOM     88  O   UNL A   1      32.649  34.039  27.931  1.00  0.00    -0.744 OA
ENDBRANCH  84  85
ENDBRANCH  52  77
BRANCH  64  89
ATOM     89  C   UNL A   1      40.007  33.846  36.834  1.00  0.00     0.058 A 
ATOM     90  C   UNL A   1      40.594  35.121  36.807  1.00  0.00     0.135 A 
ATOM     91  C   UNL A   1      39.168  33.533  37.915  1.00  0.00     0.135 A 
ATOM     92  F   UNL A   1      41.408  35.469  35.798  1.00  0.00    -0.206 F 
ATOM     93  C   UNL A   1      40.371  36.044  37.824  1.00  0.00     0.059 A 
ATOM     94  C   UNL A   1      38.912  34.449  38.930  1.00  0.00     0.059 A 
ATOM     95  F   UNL A   1      38.573  32.331  37.983  1.00  0.00    -0.206 F 
ATOM     96  C   UNL A   1      39.528  35.699  38.883  1.00  0.00     0.060 A 
BRANCH  96  97
ATOM     97  S   UNL A   1      39.218  36.916  40.181  1.00  0.00     0.124 S 
ATOM     98  O   UNL A   1      40.564  37.145  40.694  1.00  0.00    -0.237 OA
ATOM     99  O   UNL A   1      38.625  38.024  39.438  1.00  0.00    -0.237 OA
ATOM    100  O   UNL A   1      38.310  36.221  41.087  1.00  0.00    -0.744 OA
ENDBRANCH  96  97
ENDBRANCH  64  89
ENDBRANCH  38  39
ENDBRANCH  31  33
ENDBRANCH  30  31
ENDBRANCH  29  30
ENDBRANCH  28  29
ENDBRANCH   1  28
TORSDOF 21
ENDMDL
MODEL 2
REMARK VINA RESULT:     -10.7      0.877      8.080
REMARK SMILES COc1cc(C(=O)N[C@H]2CCCC[C@H]2C(=O)OCCOCCOC(=O)c2ccc(-c3c4nc(c(-c5c(F)cc(S(=O)(=O)[O-])cc5F)c5ccc([nH]5)c(-c5c(F)cc(S(=O)(=O)[O-])cc5F)c5nc(c(-c6c(F)cc(S(=O)(=O)[O-])cc6F)c6ccc3[nH]6)C=C5)C=C4)cc2)cc(Cl)c1OC
REMARK SMILES IDX 20 1 19 2 18 3 17 4 15 5 16 6 14 7 9 8 10 9 11 10 13 11
REMARK SMILES IDX 12 12 8 13 6 14 7 15 5 17 3 18 4 19 95 20 93 21 92 22 94 23
REMARK SMILES IDX 2 24 1 25 96 26 97 27 21 28 22 29 23 30 24 31 25 32 26 33
REMARK SMILES IDX 27 34 91 35 28 36 90 37 29 38 30 39 31 40 84 41 32 42 89 43
REMARK SMILES IDX 83 44 85 45 33 46 88 47 82 48 81 49 34 51 68 52 47 53 67 54
REMARK SMILES IDX 48 55 51 56 66 57 86 58 49 59 50 60 65 62 87 63 52 64 35 65
REMARK SMILES IDX 36 66 45 67 37 68 38 69 44 70 46 71 39 72 40 73 41 74 42 75
REMARK SMILES IDX 43 76 69 77 70 78 79 79 71 80 72 81 78 82 80 83 73 84 74 85
REMARK SMILES IDX 75 86 76 87 77 88 53 89 54 90 63 91 55 92 56 93 62 94 64 95
REMARK SMILES IDX 57 96 58 97 59 98 60 99 61 100
REMARK H PARENT 8 16 85 50 51 61
REMARK Flexibility Score: inf
ROOT
ATOM      1  O   UNL A   1      39.926  21.977  27.019  1.00  0.00    -0.374 OA
ENDROOT
BRANCH   1   2
ATOM      2  C   UNL A   1      39.067  21.562  25.957  1.00  0.00     0.202 C 
BRANCH   2   3
ATOM      3  C   UNL A   1      37.822  22.414  25.730  1.00  0.00     0.261 C 
BRANCH   3   4
ATOM      4  O   UNL A   1      36.760  21.638  25.130  1.00  0.00    -0.463 OA
BRANCH   4   5
ATOM      5  C   UNL A   1      35.517  21.735  25.673  1.00  0.00     0.311 C 
ATOM      6  O   UNL A   1      35.277  21.711  26.874  1.00  0.00    -0.252 OA
BRANCH   5   7
ATOM      7  C   UNL A   1      34.423  21.789  24.617  1.00  0.00     0.121 C 
ATOM      8  C   UNL A   1      33.045  21.317  25.075  1.00  0.00     0.096 C 
ATOM      9  C   UNL A   1      32.175  21.107  23.812  1.00  0.00     0.026 C 
ATOM     10  C   UNL A   1      32.047  22.378  22.975  1.00  0.00     0.002 C 
ATOM     11  C   UNL A   1      34.317  23.105  23.826  1.00  0.00     0.017 C 
ATOM     12  C   UNL A   1      33.408  22.966  22.607  1.00  0.00     0.001 C 
BRANCH   8  13
ATOM     13  N   UNL A   1      32.241  22.019  26.109  1.00  0.00    -0.348 N 
ATOM     14  C   UNL A   1      31.665  23.170  26.567  1.00  0.00     0.251 C 
ATOM     15  O   UNL A   1      31.117  23.025  27.668  1.00  0.00    -0.269 OA
ATOM     16  H   UNL A   1      32.018  21.332  26.778  1.00  0.00     0.164 HD
BRANCH  14  17
ATOM     17  C   UNL A   1      31.590  24.541  25.980  1.00  0.00     0.045 A 
ATOM     18  C   UNL A   1      32.751  26.643  25.514  1.00  0.00     0.163 A 
ATOM     19  C   UNL A   1      32.719  25.363  26.097  1.00  0.00     0.064 A 
ATOM     20  C   UNL A   1      31.637  27.184  24.866  1.00  0.00     0.179 A 
ATOM     21  C   UNL A   1      30.543  26.349  24.684  1.00  0.00     0.087 A 
ATOM     22  C   UNL A   1      30.546  25.062  25.239  1.00  0.00     0.038 A 
ATOM     23  Cl  UNL A   1      29.176  26.757  23.704  1.00  0.00    -0.080 Cl
BRANCH  18  24
ATOM     24  O   UNL A   1      33.907  27.379  25.590  1.00  0.00    -0.493 OA
ATOM     25  C   UNL A   1      33.873  28.198  26.765  1.00  0.00     0.278 C 
ENDBRANCH  18  24
BRANCH  20  26
ATOM     26  O   UNL A   1      31.744  28.453  24.364  1.00  0.00    -0.491 OA
ATOM     27  C   UNL A   1      32.107  28.513  22.984  1.00  0.00     0.278 C 
ENDBRANCH  20  26
ENDBRANCH  14  17
ENDBRANCH   8  13
ENDBRANCH   5   7
ENDBRANCH   4   5
ENDBRANCH   3   4
ENDBRANCH   2   3
ENDBRANCH   1   2
BRANCH   1  28
ATOM     28  C   UNL A   1      41.312  22.090  26.733  1.00  0.00     0.202 C 
BRANCH  28  29
ATOM     29  C   UNL A   1      41.844  23.460  26.284  1.00  0.00     0.261 C 
BRANCH  29  30
ATOM     30  O   UNL A   1      40.869  24.508  26.188  1.00  0.00    -0.460 OA
BRANCH  30  31
ATOM     31  C   UNL A   1      41.412  25.752  26.190  1.00  0.00     0.338 C 
ATOM     32  O   UNL A   1      41.757  26.399  25.206  1.00  0.00    -0.246 OA
BRANCH  31  33
ATOM     33  C   UNL A   1      41.490  26.307  27.554  1.00  0.00     0.060 A 
ATOM     34  C   UNL A   1      40.368  26.170  28.378  1.00  0.00     0.016 A 
ATOM     35  C   UNL A   1      42.577  27.085  27.963  1.00  0.00     0.016 A 
ATOM     36  C   UNL A   1      40.300  26.863  29.587  1.00  0.00     0.010 A 
ATOM     37  C   UNL A   1      42.504  27.783  29.176  1.00  0.00     0.010 A 
ATOM     38  C   UNL A   1      41.347  27.712  29.973  1.00  0.00    -0.014 A 
BRANCH  38  39
ATOM     39  C   UNL A   1      41.157  28.632  31.124  1.00  0.00     0.031 A 
ATOM     40  C   UNL A   1      40.045  29.649  31.077  1.00  0.00     0.074 A 
ATOM     41  C   UNL A   1      41.942  28.546  32.214  1.00  0.00     0.049 A 
ATOM     42  N   UNL A   1      39.708  30.553  31.962  1.00  0.00    -0.248 NA
ATOM     43  C   UNL A   1      39.202  29.652  29.870  1.00  0.00     0.031 C 
ATOM     44  C   UNL A   1      43.039  27.595  32.393  1.00  0.00     0.029 A 
ATOM     45  N   UNL A   1      41.939  29.278  33.377  1.00  0.00    -0.354 N 
ATOM     46  C   UNL A   1      38.629  31.238  31.416  1.00  0.00     0.074 A 
ATOM     47  C   UNL A   1      38.375  30.658  30.115  1.00  0.00     0.031 C 
ATOM     48  C   UNL A   1      43.611  27.811  33.589  1.00  0.00     0.029 A 
ATOM     49  C   UNL A   1      42.941  28.929  34.251  1.00  0.00     0.049 A 
ATOM     50  H   UNL A   1      41.282  29.986  33.565  1.00  0.00     0.167 HD
ATOM     51  C   UNL A   1      37.911  32.254  31.952  1.00  0.00     0.037 A 
ATOM     52  C   UNL A   1      43.289  29.464  35.439  1.00  0.00     0.037 A 
ATOM     53  C   UNL A   1      38.146  32.813  33.258  1.00  0.00     0.049 A 
ATOM     54  C   UNL A   1      42.493  30.615  35.999  1.00  0.00     0.074 A 
ATOM     55  C   UNL A   1      37.432  33.805  33.909  1.00  0.00     0.029 A 
ATOM     56  N   UNL A   1      39.174  32.438  34.109  1.00  0.00    -0.354 N 
ATOM     57  N   UNL A   1      41.442  31.216  35.493  1.00  0.00    -0.248 NA
ATOM     58  C   UNL A   1      42.927  31.160  37.294  1.00  0.00     0.031 C 
ATOM     59  C   UNL A   1      38.056  34.062  35.134  1.00  0.00     0.029 A 
ATOM     60  C   UNL A   1      39.131  33.199  35.265  1.00  0.00     0.049 A 
ATOM     61  H   UNL A   1      39.836  31.735  33.919  1.00  0.00     0.167 HD
ATOM     62  C   UNL A   1      41.077  32.190  36.418  1.00  0.00     0.074 A 
ATOM     63  C   UNL A   1      42.012  32.091  37.520  1.00  0.00     0.031 C 
ATOM     64  C   UNL A   1      40.060  33.084  36.361  1.00  0.00     0.037 A 
BRANCH  51  65
ATOM     65  C   UNL A   1      36.809  32.852  31.125  1.00  0.00     0.058 A 
ATOM     66  C   UNL A   1      35.456  32.609  31.406  1.00  0.00     0.135 A 
ATOM     67  C   UNL A   1      37.113  33.738  30.078  1.00  0.00     0.135 A 
ATOM     68  F   UNL A   1      35.112  31.759  32.386  1.00  0.00    -0.206 F 
ATOM     69  C   UNL A   1      34.441  33.217  30.672  1.00  0.00     0.059 A 
ATOM     70  C   UNL A   1      36.115  34.373  29.345  1.00  0.00     0.059 A 
ATOM     71  F   UNL A   1      38.391  34.001  29.766  1.00  0.00    -0.206 F 
ATOM     72  C   UNL A   1      34.781  34.099  29.645  1.00  0.00     0.060 A 
BRANCH  72  73
ATOM     73  S   UNL A   1      33.454  34.904  28.722  1.00  0.00     0.124 S 
ATOM     74  O   UNL A   1      32.445  35.087  29.760  1.00  0.00    -0.237 OA
ATOM     75  O   UNL A   1      34.100  36.122  28.243  1.00  0.00    -0.237 OA
ATOM     76  O   UNL A   1      33.119  33.929  27.688  1.00  0.00    -0.744 OA
ENDBRANCH  72  73
ENDBRANCH  51  65
BRANCH  52  77
ATOM     77  C   UNL A   1      44.468  28.938  36.178  1.00  0.00     0.058 A 
ATOM     78  C   UNL A   1      45.742  29.500  36.012  1.00  0.00     0.135 A 
ATOM     79  C   UNL A   1      44.346  27.838  37.041  1.00  0.00     0.135 A 
ATOM     80  F   UNL A   1      45.912  30.545  35.188  1.00  0.00    -0.206 F 
ATOM     81  C   UNL A   1      46.858  28.977  36.658  1.00  0.00     0.059 A 
ATOM     82  C   UNL A   1      45.442  27.313  37.717  1.00  0.00     0.059 A 
ATOM     83  F   UNL A   1      43.147  27.267  37.239  1.00  0.00    -0.206 F 
ATOM     84  C   UNL A   1      46.698  27.880  37.506  1.00  0.00     0.060 A 
BRANCH  84  85
ATOM     85  S   UNL A   1      48.147  27.220  38.359  1.00  0.00     0.124 S 
ATOM     86  O   UNL A   1      49.204  28.091  37.855  1.00  0.00    -0.237 OA
ATOM     87  O   UNL A   1      47.788  27.398  39.762  1.00  0.00    -0.237 OA
ATOM     88  O   UNL A   1      48.200  25.834  37.903  1.00  0.00    -0.744 OA
ENDBRANCH  84  85
ENDBRANCH  52  77
BRANCH  64  89
ATOM     89  C   UNL A   1      39.875  34.006  37.535  1.00  0.00     0.058 A 
ATOM     90  C   UNL A   1      39.103  33.638  38.647  1.00  0.00     0.135 A 
ATOM     91  C   UNL A   1      40.525  35.251  37.570  1.00  0.00     0.135 A 
ATOM     92  F   UNL A   1      38.458  32.461  38.662  1.00  0.00    -0.206 F 
ATOM     93  C   UNL A   1      38.964  34.481  39.745  1.00  0.00     0.059 A 
ATOM     94  C   UNL A   1      40.420  36.099  38.667  1.00  0.00     0.059 A 
ATOM     95  F   UNL A   1      41.285  35.646  36.536  1.00  0.00    -0.206 F 
ATOM     96  C   UNL A   1      39.626  35.710  39.747  1.00  0.00     0.060 A 
BRANCH  96  97
ATOM     97  S   UNL A   1      39.467  36.783  41.191  1.00  0.00     0.124 S 
ATOM     98  O   UNL A   1      40.858  36.918  41.610  1.00  0.00    -0.237 OA
ATOM     99  O   UNL A   1      38.856  37.982  40.626  1.00  0.00    -0.237 OA
ATOM    100  O   UNL A   1      38.611  36.016  42.091  1.00  0.00    -0.744 OA
ENDBRANCH  96  97
ENDBRANCH  64  89
ENDBRANCH  38  39
ENDBRANCH  31  33
ENDBRANCH  30  31
ENDBRANCH  29  30
ENDBRANCH  28  29
ENDBRANCH   1  28
TORSDOF 21
ENDMDL
MODEL 3
REMARK VINA RESULT:     -10.6      1.250      1.976
REMARK SMILES COc1cc(C(=O)N[C@H]2CCCC[C@H]2C(=O)OCCOCCOC(=O)c2ccc(-c3c4nc(c(-c5c(F)cc(S(=O)(=O)[O-])cc5F)c5ccc([nH]5)c(-c5c(F)cc(S(=O)(=O)[O-])cc5F)c5nc(c(-c6c(F)cc(S(=O)(=O)[O-])cc6F)c6ccc3[nH]6)C=C5)C=C4)cc2)cc(Cl)c1OC
REMARK SMILES IDX 20 1 19 2 18 3 17 4 15 5 16 6 14 7 9 8 10 9 11 10 13 11
REMARK SMILES IDX 12 12 8 13 6 14 7 15 5 17 3 18 4 19 95 20 93 21 92 22 94 23
REMARK SMILES IDX 2 24 1 25 96 26 97 27 21 28 22 29 23 30 24 31 25 32 26 33
REMARK SMILES IDX 27 34 91 35 28 36 90 37 29 38 30 39 31 40 84 41 32 42 89 43
REMARK SMILES IDX 83 44 85 45 33 46 88 47 82 48 81 49 34 51 68 52 47 53 67 54
REMARK SMILES IDX 48 55 51 56 66 57 86 58 49 59 50 60 65 62 87 63 52 64 35 65
REMARK SMILES IDX 36 66 45 67 37 68 38 69 44 70 46 71 39 72 40 73 41 74 42 75
REMARK SMILES IDX 43 76 69 77 70 78 79 79 71 80 72 81 78 82 80 83 73 84 74 85
REMARK SMILES IDX 75 86 76 87 77 88 53 89 54 90 63 91 55 92 56 93 62 94 64 95
REMARK SMILES IDX 57 96 58 97 59 98 60 99 61 100
REMARK H PARENT 8 16 85 50 51 61
REMARK Flexibility Score: inf
ROOT
ATOM      1  O   UNL A   1      40.058  22.216  26.609  1.00  0.00    -0.374 OA
ENDROOT
BRANCH   1   2
ATOM      2  C   UNL A   1      38.926  21.653  25.947  1.00  0.00     0.202 C 
BRANCH   2   3
ATOM      3  C   UNL A   1      37.700  22.555  25.833  1.00  0.00     0.261 C 
BRANCH   3   4
ATOM      4  O   UNL A   1      36.483  21.776  25.775  1.00  0.00    -0.463 OA
BRANCH   4   5
ATOM      5  C   UNL A   1      35.302  22.431  25.946  1.00  0.00     0.311 C 
ATOM      6  O   UNL A   1      34.988  23.050  26.955  1.00  0.00    -0.252 OA
BRANCH   5   7
ATOM      7  C   UNL A   1      34.356  22.240  24.770  1.00  0.00     0.121 C 
ATOM      8  C   UNL A   1      32.977  21.685  25.121  1.00  0.00     0.096 C 
ATOM      9  C   UNL A   1      32.303  21.231  23.804  1.00  0.00     0.026 C 
ATOM     10  C   UNL A   1      32.173  22.369  22.793  1.00  0.00     0.002 C 
ATOM     11  C   UNL A   1      34.239  23.430  23.802  1.00  0.00     0.017 C 
ATOM     12  C   UNL A   1      33.514  23.047  22.513  1.00  0.00     0.001 C 
BRANCH   8  13
ATOM     13  N   UNL A   1      31.986  22.421  25.947  1.00  0.00    -0.348 N 
ATOM     14  C   UNL A   1      31.419  23.605  26.324  1.00  0.00     0.251 C 
ATOM     15  O   UNL A   1      30.569  23.468  27.214  1.00  0.00    -0.269 OA
ATOM     16  H   UNL A   1      31.515  21.731  26.469  1.00  0.00     0.164 HD
BRANCH  14  17
ATOM     17  C   UNL A   1      31.648  25.006  25.858  1.00  0.00     0.045 A 
ATOM     18  C   UNL A   1      30.793  26.914  24.589  1.00  0.00     0.163 A 
ATOM     19  C   UNL A   1      30.684  25.579  25.018  1.00  0.00     0.064 A 
ATOM     20  C   UNL A   1      31.903  27.701  24.911  1.00  0.00     0.179 A 
ATOM     21  C   UNL A   1      32.824  27.164  25.799  1.00  0.00     0.087 A 
ATOM     22  C   UNL A   1      32.676  25.844  26.247  1.00  0.00     0.038 A 
ATOM     23  Cl  UNL A   1      34.126  28.067  26.497  1.00  0.00    -0.080 Cl
BRANCH  18  24
ATOM     24  O   UNL A   1      29.785  27.454  23.831  1.00  0.00    -0.493 OA
ATOM     25  C   UNL A   1      28.651  26.579  23.855  1.00  0.00     0.278 C 
ENDBRANCH  18  24
BRANCH  20  26
ATOM     26  O   UNL A   1      31.947  28.977  24.416  1.00  0.00    -0.491 OA
ATOM     27  C   UNL A   1      31.501  29.980  25.330  1.00  0.00     0.278 C 
ENDBRANCH  20  26
ENDBRANCH  14  17
ENDBRANCH   8  13
ENDBRANCH   5   7
ENDBRANCH   4   5
ENDBRANCH   3   4
ENDBRANCH   2   3
ENDBRANCH   1   2
BRANCH   1  28
ATOM     28  C   UNL A   1      41.341  21.928  26.070  1.00  0.00     0.202 C 
BRANCH  28  29
ATOM     29  C   UNL A   1      42.319  23.098  25.880  1.00  0.00     0.261 C 
BRANCH  29  30
ATOM     30  O   UNL A   1      41.830  24.390  26.266  1.00  0.00    -0.460 OA
BRANCH  30  31
ATOM     31  C   UNL A   1      42.751  25.377  26.132  1.00  0.00     0.338 C 
ATOM     32  O   UNL A   1      43.417  25.623  25.132  1.00  0.00    -0.246 OA
BRANCH  31  33
ATOM     33  C   UNL A   1      42.831  26.213  27.345  1.00  0.00     0.060 A 
ATOM     34  C   UNL A   1      42.184  25.751  28.498  1.00  0.00     0.016 A 
ATOM     35  C   UNL A   1      43.388  27.494  27.313  1.00  0.00     0.016 A 
ATOM     36  C   UNL A   1      42.036  26.593  29.600  1.00  0.00     0.010 A 
ATOM     37  C   UNL A   1      43.234  28.338  28.421  1.00  0.00     0.010 A 
ATOM     38  C   UNL A   1      42.518  27.909  29.553  1.00  0.00    -0.014 A 
BRANCH  38  39
ATOM     39  C   UNL A   1      42.134  28.868  30.621  1.00  0.00     0.031 A 
ATOM     40  C   UNL A   1      42.964  28.938  31.878  1.00  0.00     0.074 A 
ATOM     41  C   UNL A   1      41.080  29.690  30.466  1.00  0.00     0.049 A 
ATOM     42  N   UNL A   1      42.804  29.691  32.937  1.00  0.00    -0.248 NA
ATOM     43  C   UNL A   1      44.126  28.037  31.955  1.00  0.00     0.031 C 
ATOM     44  C   UNL A   1      40.209  29.735  29.292  1.00  0.00     0.029 A 
ATOM     45  N   UNL A   1      40.560  30.643  31.307  1.00  0.00    -0.354 N 
ATOM     46  C   UNL A   1      43.832  29.346  33.808  1.00  0.00     0.074 A 
ATOM     47  C   UNL A   1      44.602  28.305  33.163  1.00  0.00     0.031 C 
ATOM     48  C   UNL A   1      39.254  30.659  29.493  1.00  0.00     0.029 A 
ATOM     49  C   UNL A   1      39.429  31.253  30.817  1.00  0.00     0.049 A 
ATOM     50  H   UNL A   1      40.959  30.868  32.178  1.00  0.00     0.167 HD
ATOM     51  C   UNL A   1      44.111  29.856  35.032  1.00  0.00     0.037 A 
ATOM     52  C   UNL A   1      38.617  32.170  31.382  1.00  0.00     0.037 A 
ATOM     53  C   UNL A   1      43.362  30.910  35.663  1.00  0.00     0.049 A 
ATOM     54  C   UNL A   1      38.934  32.698  32.758  1.00  0.00     0.074 A 
ATOM     55  C   UNL A   1      43.607  31.531  36.876  1.00  0.00     0.029 A 
ATOM     56  N   UNL A   1      42.220  31.496  35.139  1.00  0.00    -0.354 N 
ATOM     57  N   UNL A   1      39.940  32.400  33.546  1.00  0.00    -0.248 NA
ATOM     58  C   UNL A   1      38.006  33.690  33.322  1.00  0.00     0.031 C 
ATOM     59  C   UNL A   1      42.587  32.460  37.107  1.00  0.00     0.029 A 
ATOM     60  C   UNL A   1      41.733  32.449  36.018  1.00  0.00     0.049 A 
ATOM     61  H   UNL A   1      41.816  31.268  34.271  1.00  0.00     0.167 HD
ATOM     62  C   UNL A   1      39.779  33.184  34.684  1.00  0.00     0.074 A 
ATOM     63  C   UNL A   1      38.585  33.979  34.479  1.00  0.00     0.031 C 
ATOM     64  C   UNL A   1      40.550  33.243  35.798  1.00  0.00     0.037 A 
BRANCH  51  65
ATOM     65  C   UNL A   1      45.269  29.270  35.791  1.00  0.00     0.058 A 
ATOM     66  C   UNL A   1      46.573  29.769  35.655  1.00  0.00     0.135 A 
ATOM     67  C   UNL A   1      45.053  28.241  36.722  1.00  0.00     0.135 A 
ATOM     68  F   UNL A   1      46.834  30.743  34.769  1.00  0.00    -0.206 F 
ATOM     69  C   UNL A   1      47.627  29.261  36.409  1.00  0.00     0.059 A 
ATOM     70  C   UNL A   1      46.088  27.733  37.502  1.00  0.00     0.059 A 
ATOM     71  F   UNL A   1      43.825  27.726  36.888  1.00  0.00    -0.206 F 
ATOM     72  C   UNL A   1      47.374  28.244  37.332  1.00  0.00     0.060 A 
BRANCH  72  73
ATOM     73  S   UNL A   1      48.744  27.616  38.325  1.00  0.00     0.124 S 
ATOM     74  O   UNL A   1      48.036  26.978  39.430  1.00  0.00    -0.237 OA
ATOM     75  O   UNL A   1      49.416  26.713  37.397  1.00  0.00    -0.237 OA
ATOM     76  O   UNL A   1      49.492  28.821  38.673  1.00  0.00    -0.744 OA
ENDBRANCH  72  73
ENDBRANCH  51  65
BRANCH  52  77
ATOM     77  C   UNL A   1      37.403  32.637  30.661  1.00  0.00     0.058 A 
ATOM     78  C   UNL A   1      37.469  33.673  29.718  1.00  0.00     0.135 A 
ATOM     79  C   UNL A   1      36.145  32.075  30.927  1.00  0.00     0.135 A 
ATOM     80  F   UNL A   1      38.647  34.251  29.438  1.00  0.00    -0.206 F 
ATOM     81  C   UNL A   1      36.328  34.152  29.081  1.00  0.00     0.059 A 
ATOM     82  C   UNL A   1      34.994  32.519  30.285  1.00  0.00     0.059 A 
ATOM     83  F   UNL A   1      36.028  31.076  31.817  1.00  0.00    -0.206 F 
ATOM     84  C   UNL A   1      35.094  33.570  29.375  1.00  0.00     0.060 A 
BRANCH  84  85
ATOM     85  S   UNL A   1      33.621  34.181  28.527  1.00  0.00     0.124 S 
ATOM     86  O   UNL A   1      34.178  35.249  27.705  1.00  0.00    -0.237 OA
ATOM     87  O   UNL A   1      33.162  32.995  27.809  1.00  0.00    -0.237 OA
ATOM     88  O   UNL A   1      32.759  34.612  29.625  1.00  0.00    -0.744 OA
ENDBRANCH  84  85
ENDBRANCH  52  77
BRANCH  64  89
ATOM     89  C   UNL A   1      40.154  34.221  36.869  1.00  0.00     0.058 A 
ATOM     90  C   UNL A   1      39.329  33.845  37.941  1.00  0.00     0.135 A 
ATOM     91  C   UNL A   1      40.651  35.534  36.853  1.00  0.00     0.135 A 
ATOM     92  F   UNL A   1      38.824  32.603  38.002  1.00  0.00    -0.206 F 
ATOM     93  C   UNL A   1      38.994  34.744  38.949  1.00  0.00     0.059 A 
ATOM     94  C   UNL A   1      40.349  36.442  37.862  1.00  0.00     0.059 A 
ATOM     95  F   UNL A   1      41.454  35.940  35.856  1.00  0.00    -0.206 F 
ATOM     96  C   UNL A   1      39.509  36.042  38.901  1.00  0.00     0.060 A 
BRANCH  96  97
ATOM     97  S   UNL A   1      39.095  37.191  40.231  1.00  0.00     0.124 S 
ATOM     98  O   UNL A   1      38.360  38.223  39.508  1.00  0.00    -0.237 OA
ATOM     99  O   UNL A   1      38.302  36.360  41.130  1.00  0.00    -0.237 OA
ATOM    100  O   UNL A   1      40.399  37.594  40.748  1.00  0.00    -0.744 OA
ENDBRANCH  96  97
ENDBRANCH  64  89
ENDBRANCH  38  39
ENDBRANCH  31  33
ENDBRANCH  30  31
ENDBRANCH  29  30
ENDBRANCH  28  29
ENDBRANCH   1  28
TORSDOF 21
ENDMDL
