MODEL 1
REMARK VINA RESULT:      -9.7      0.000      0.000
REMARK SMILES O=C(OCCOCCOC(=O)[C@H]1CC[C@H](CNC(=O)c2ccccc2O)O1)c1ccc(-c2c3nc(c(-c4c(F)cc(S(=O)(=O)[O-])cc4F)c4ccc([nH]4)c(-c4c(F)cc(S(=O)(=O)[O-])cc4F)c4nc(c(-c5c(F)cc(S(=O)(=O)[O-])cc5F)c5ccc2[nH]5)C=C4)C=C3)cc1
REMARK SMILES IDX 7 1 6 2 5 3 4 4 3 5 2 6 1 7 28 8 29 9 93 10 30 11 92 12
REMARK SMILES IDX 31 13 32 14 33 15 86 16 34 17 91 18 85 19 87 20 35 21 90 22
REMARK SMILES IDX 84 23 83 24 36 26 70 27 49 28 69 29 50 30 53 31 68 32 88 33
REMARK SMILES IDX 51 34 52 35 67 37 89 38 54 39 37 40 38 41 47 42 39 43 40 44
REMARK SMILES IDX 46 45 48 46 41 47 42 48 43 49 44 50 45 51 71 52 72 53 81 54
REMARK SMILES IDX 73 55 74 56 80 57 82 58 75 59 76 60 77 61 78 62 79 63 55 64
REMARK SMILES IDX 56 65 65 66 57 67 58 68 64 69 66 70 59 71 60 72 61 73 62 74
REMARK SMILES IDX 63 75 8 76 9 77 10 78 11 79 12 80 13 81 27 82 14 83 15 84
REMARK SMILES IDX 16 85 17 86 18 87 19 89 20 90 21 91 25 92 22 93 24 94 23 95
REMARK SMILES IDX 26 96
REMARK H PARENT 87 25 53 36 17 88 26 97
REMARK Flexibility Score: inf
ROOT
ATOM      1  C   UNL A   1      32.983  36.035  29.420  1.00  0.00     0.202 C 
ENDROOT
BRANCH   1   2
ATOM      2  O   UNL A   1      32.716  34.630  29.307  1.00  0.00    -0.374 OA
BRANCH   2   3
ATOM      3  C   UNL A   1      33.076  34.006  28.072  1.00  0.00     0.202 C 
BRANCH   3   4
ATOM      4  C   UNL A   1      34.313  33.104  28.121  1.00  0.00     0.261 C 
BRANCH   4   5
ATOM      5  O   UNL A   1      33.951  31.791  28.575  1.00  0.00    -0.460 OA
BRANCH   5   6
ATOM      6  C   UNL A   1      34.422  30.605  28.128  1.00  0.00     0.338 C 
ATOM      7  O   UNL A   1      33.670  29.876  27.483  1.00  0.00    -0.246 OA
BRANCH   6   8
ATOM      8  C   UNL A   1      35.827  30.152  28.345  1.00  0.00     0.060 A 
ATOM      9  C   UNL A   1      36.327  29.644  29.545  1.00  0.00     0.016 A 
ATOM     10  C   UNL A   1      36.679  30.173  27.230  1.00  0.00     0.016 A 
ATOM     11  C   UNL A   1      37.636  29.235  29.672  1.00  0.00     0.010 A 
ATOM     12  C   UNL A   1      37.998  29.726  27.334  1.00  0.00     0.010 A 
ATOM     13  C   UNL A   1      38.476  29.276  28.568  1.00  0.00    -0.014 A 
BRANCH  13  14
ATOM     14  C   UNL A   1      39.887  28.964  28.816  1.00  0.00     0.031 A 
ATOM     15  C   UNL A   1      40.700  29.974  29.559  1.00  0.00     0.074 A 
ATOM     16  C   UNL A   1      40.332  27.723  28.553  1.00  0.00     0.049 A 
ATOM     17  N   UNL A   1      41.955  29.931  29.901  1.00  0.00    -0.248 NA
ATOM     18  C   UNL A   1      39.994  31.195  29.995  1.00  0.00     0.031 C 
ATOM     19  C   UNL A   1      39.521  26.642  27.982  1.00  0.00     0.029 A 
ATOM     20  N   UNL A   1      41.549  27.145  28.772  1.00  0.00    -0.354 N 
ATOM     21  C   UNL A   1      42.200  31.127  30.562  1.00  0.00     0.074 A 
ATOM     22  C   UNL A   1      40.967  31.878  30.576  1.00  0.00     0.031 C 
ATOM     23  C   UNL A   1      40.261  25.523  27.919  1.00  0.00     0.029 A 
ATOM     24  C   UNL A   1      41.613  25.833  28.369  1.00  0.00     0.049 A 
ATOM     25  H   UNL A   1      42.308  27.621  29.181  1.00  0.00     0.167 HD
ATOM     26  C   UNL A   1      43.367  31.550  31.096  1.00  0.00     0.037 A 
ATOM     27  C   UNL A   1      42.667  24.999  28.334  1.00  0.00     0.037 A 
ATOM     28  C   UNL A   1      44.567  30.760  31.052  1.00  0.00     0.049 A 
ATOM     29  C   UNL A   1      43.983  25.538  28.828  1.00  0.00     0.074 A 
ATOM     30  C   UNL A   1      45.838  31.090  31.477  1.00  0.00     0.029 A 
ATOM     31  N   UNL A   1      44.632  29.466  30.543  1.00  0.00    -0.354 N 
ATOM     32  N   UNL A   1      44.241  26.708  29.367  1.00  0.00    -0.248 NA
ATOM     33  C   UNL A   1      45.151  24.662  28.696  1.00  0.00     0.031 C 
ATOM     34  C   UNL A   1      46.683  30.014  31.177  1.00  0.00     0.029 A 
ATOM     35  C   UNL A   1      45.926  28.990  30.623  1.00  0.00     0.049 A 
ATOM     36  H   UNL A   1      43.867  28.965  30.179  1.00  0.00     0.167 HD
ATOM     37  C   UNL A   1      45.598  26.705  29.658  1.00  0.00     0.074 A 
ATOM     38  C   UNL A   1      46.100  25.405  29.248  1.00  0.00     0.031 C 
ATOM     39  C   UNL A   1      46.366  27.679  30.207  1.00  0.00     0.037 A 
BRANCH  26  40
ATOM     40  C   UNL A   1      43.398  32.939  31.667  1.00  0.00     0.058 A 
ATOM     41  C   UNL A   1      43.599  34.076  30.868  1.00  0.00     0.135 A 
ATOM     42  C   UNL A   1      43.275  33.129  33.053  1.00  0.00     0.135 A 
ATOM     43  F   UNL A   1      43.764  33.951  29.540  1.00  0.00    -0.206 F 
ATOM     44  C   UNL A   1      43.707  35.348  31.425  1.00  0.00     0.059 A 
ATOM     45  C   UNL A   1      43.352  34.394  33.629  1.00  0.00     0.059 A 
ATOM     46  F   UNL A   1      43.101  32.076  33.866  1.00  0.00    -0.206 F 
ATOM     47  C   UNL A   1      43.585  35.495  32.807  1.00  0.00     0.060 A 
BRANCH  47  48
ATOM     48  S   UNL A   1      43.747  37.146  33.519  1.00  0.00     0.124 S 
ATOM     49  O   UNL A   1      44.868  36.961  34.437  1.00  0.00    -0.237 OA
ATOM     50  O   UNL A   1      44.021  37.966  32.343  1.00  0.00    -0.237 OA
ATOM     51  O   UNL A   1      42.451  37.375  34.150  1.00  0.00    -0.744 OA
ENDBRANCH  47  48
ENDBRANCH  26  40
BRANCH  27  52
ATOM     52  C   UNL A   1      42.534  23.630  27.766  1.00  0.00     0.058 A 
ATOM     53  C   UNL A   1      42.453  22.497  28.588  1.00  0.00     0.135 A 
ATOM     54  C   UNL A   1      42.485  23.426  26.375  1.00  0.00     0.135 A 
ATOM     55  F   UNL A   1      42.499  22.632  29.922  1.00  0.00    -0.206 F 
ATOM     56  C   UNL A   1      42.350  21.214  28.056  1.00  0.00     0.059 A 
ATOM     57  C   UNL A   1      42.352  22.157  25.821  1.00  0.00     0.059 A 
ATOM     58  F   UNL A   1      42.548  24.473  25.538  1.00  0.00    -0.206 F 
ATOM     59  C   UNL A   1      42.301  21.054  26.670  1.00  0.00     0.060 A 
BRANCH  59  60
ATOM     60  S   UNL A   1      42.152  19.388  25.989  1.00  0.00     0.124 S 
ATOM     61  O   UNL A   1      43.043  19.462  24.837  1.00  0.00    -0.237 OA
ATOM     62  O   UNL A   1      42.610  18.560  27.100  1.00  0.00    -0.237 OA
ATOM     63  O   UNL A   1      40.730  19.276  25.679  1.00  0.00    -0.744 OA
ENDBRANCH  59  60
ENDBRANCH  27  52
BRANCH  39  64
ATOM     64  C   UNL A   1      47.812  27.348  30.433  1.00  0.00     0.058 A 
ATOM     65  C   UNL A   1      48.794  27.645  29.477  1.00  0.00     0.135 A 
ATOM     66  C   UNL A   1      48.220  26.782  31.651  1.00  0.00     0.135 A 
ATOM     67  F   UNL A   1      48.448  28.181  28.295  1.00  0.00    -0.206 F 
ATOM     68  C   UNL A   1      50.134  27.367  29.711  1.00  0.00     0.059 A 
ATOM     69  C   UNL A   1      49.558  26.527  31.919  1.00  0.00     0.059 A 
ATOM     70  F   UNL A   1      47.316  26.493  32.601  1.00  0.00    -0.206 F 
ATOM     71  C   UNL A   1      50.507  26.812  30.938  1.00  0.00     0.060 A 
BRANCH  71  72
ATOM     72  S   UNL A   1      52.254  26.495  31.246  1.00  0.00     0.124 S 
ATOM     73  O   UNL A   1      52.784  26.428  29.888  1.00  0.00    -0.237 OA
ATOM     74  O   UNL A   1      52.651  27.665  32.026  1.00  0.00    -0.237 OA
ATOM     75  O   UNL A   1      52.246  25.233  31.981  1.00  0.00    -0.744 OA
ENDBRANCH  71  72
ENDBRANCH  39  64
ENDBRANCH  13  14
ENDBRANCH   6   8
ENDBRANCH   5   6
ENDBRANCH   4   5
ENDBRANCH   3   4
ENDBRANCH   2   3
ENDBRANCH   1   2
BRANCH   1  76
ATOM     76  C   UNL A   1      32.743  36.499  30.856  1.00  0.00     0.261 C 
BRANCH  76  77
ATOM     77  O   UNL A   1      33.250  35.475  31.719  1.00  0.00    -0.461 OA
BRANCH  77  78
ATOM     78  C   UNL A   1      34.230  35.924  32.557  1.00  0.00     0.335 C 
ATOM     79  O   UNL A   1      34.424  37.095  32.859  1.00  0.00    -0.249 OA
BRANCH  78  80
ATOM     80  C   UNL A   1      34.989  34.730  33.129  1.00  0.00     0.228 C 
ATOM     81  C   UNL A   1      34.863  33.498  32.267  1.00  0.00     0.047 C 
ATOM     82  O   UNL A   1      36.389  35.004  33.202  1.00  0.00    -0.361 OA
ATOM     83  C   UNL A   1      35.899  33.786  31.213  1.00  0.00     0.037 C 
ATOM     84  C   UNL A   1      36.996  34.504  31.995  1.00  0.00     0.138 C 
BRANCH  84  85
ATOM     85  C   UNL A   1      38.143  33.604  32.440  1.00  0.00     0.148 C 
BRANCH  85  86
ATOM     86  N   UNL A   1      37.772  32.206  32.515  1.00  0.00    -0.349 N 
ATOM     87  C   UNL A   1      38.011  31.307  33.519  1.00  0.00     0.255 C 
ATOM     88  H   UNL A   1      37.280  31.854  31.738  1.00  0.00     0.163 HD
ATOM     89  O   UNL A   1      37.718  30.125  33.349  1.00  0.00    -0.269 OA
BRANCH  87  90
ATOM     90  C   UNL A   1      38.678  31.723  34.770  1.00  0.00     0.081 A 
ATOM     91  C   UNL A   1      39.979  31.248  34.978  1.00  0.00     0.018 A 
ATOM     92  C   UNL A   1      38.067  32.520  35.747  1.00  0.00     0.128 A 
ATOM     93  C   UNL A   1      40.674  31.590  36.138  1.00  0.00     0.001 A 
ATOM     94  C   UNL A   1      38.767  32.869  36.904  1.00  0.00     0.047 A 
ATOM     95  C   UNL A   1      40.069  32.404  37.097  1.00  0.00     0.004 A 
BRANCH  92  96
ATOM     96  O   UNL A   1      36.782  32.962  35.591  1.00  0.00    -0.507 OA
ATOM     97  H   UNL A   1      36.071  32.475  35.957  1.00  0.00     0.293 HD
ENDBRANCH  92  96
ENDBRANCH  87  90
ENDBRANCH  85  86
ENDBRANCH  84  85
ENDBRANCH  78  80
ENDBRANCH  77  78
ENDBRANCH  76  77
ENDBRANCH   1  76
TORSDOF 21
ENDMDL
MODEL 2
REMARK VINA RESULT:      -9.4      3.860      6.522
REMARK SMILES O=C(OCCOCCOC(=O)[C@H]1CC[C@H](CNC(=O)c2ccccc2O)O1)c1ccc(-c2c3nc(c(-c4c(F)cc(S(=O)(=O)[O-])cc4F)c4ccc([nH]4)c(-c4c(F)cc(S(=O)(=O)[O-])cc4F)c4nc(c(-c5c(F)cc(S(=O)(=O)[O-])cc5F)c5ccc2[nH]5)C=C4)C=C3)cc1
REMARK SMILES IDX 7 1 6 2 5 3 4 4 3 5 2 6 1 7 28 8 29 9 93 10 30 11 92 12
REMARK SMILES IDX 31 13 32 14 33 15 86 16 34 17 91 18 85 19 87 20 35 21 90 22
REMARK SMILES IDX 84 23 83 24 36 26 70 27 49 28 69 29 50 30 53 31 68 32 88 33
REMARK SMILES IDX 51 34 52 35 67 37 89 38 54 39 37 40 38 41 47 42 39 43 40 44
REMARK SMILES IDX 46 45 48 46 41 47 42 48 43 49 44 50 45 51 71 52 72 53 81 54
REMARK SMILES IDX 73 55 74 56 80 57 82 58 75 59 76 60 77 61 78 62 79 63 55 64
REMARK SMILES IDX 56 65 65 66 57 67 58 68 64 69 66 70 59 71 60 72 61 73 62 74
REMARK SMILES IDX 63 75 8 76 9 77 10 78 11 79 12 80 13 81 27 82 14 83 15 84
REMARK SMILES IDX 16 85 17 86 18 87 19 89 20 90 21 91 25 92 22 93 24 94 23 95
REMARK SMILES IDX 26 96
REMARK H PARENT 87 25 53 36 17 88 26 97
REMARK Flexibility Score: inf
ROOT
ATOM      1  C   UNL A   1      34.000  33.771  28.321  1.00  0.00     0.202 C 
ENDROOT
BRANCH   1   2
ATOM      2  O   UNL A   1      33.827  33.885  29.740  1.00  0.00    -0.374 OA
BRANCH   2   3
ATOM      3  C   UNL A   1      34.799  33.229  30.559  1.00  0.00     0.202 C 
BRANCH   3   4
ATOM      4  C   UNL A   1      35.979  32.599  29.814  1.00  0.00     0.261 C 
BRANCH   4   5
ATOM      5  O   UNL A   1      35.842  31.170  29.791  1.00  0.00    -0.460 OA
BRANCH   5   6
ATOM      6  C   UNL A   1      36.654  30.255  30.370  1.00  0.00     0.338 C 
ATOM      7  O   UNL A   1      36.225  29.606  31.322  1.00  0.00    -0.246 OA
BRANCH   6   8
ATOM      8  C   UNL A   1      38.033  29.966  29.883  1.00  0.00     0.060 A 
ATOM      9  C   UNL A   1      38.423  29.955  28.542  1.00  0.00     0.016 A 
ATOM     10  C   UNL A   1      39.022  29.768  30.860  1.00  0.00     0.016 A 
ATOM     11  C   UNL A   1      39.720  29.688  28.164  1.00  0.00     0.010 A 
ATOM     12  C   UNL A   1      40.349  29.535  30.493  1.00  0.00     0.010 A 
ATOM     13  C   UNL A   1      40.687  29.476  29.137  1.00  0.00    -0.014 A 
BRANCH  13  14
ATOM     14  C   UNL A   1      42.007  29.057  28.658  1.00  0.00     0.031 A 
ATOM     15  C   UNL A   1      43.128  30.039  28.766  1.00  0.00     0.074 A 
ATOM     16  C   UNL A   1      42.200  27.765  28.338  1.00  0.00     0.049 A 
ATOM     17  N   UNL A   1      44.375  29.907  28.418  1.00  0.00    -0.248 NA
ATOM     18  C   UNL A   1      42.802  31.346  29.368  1.00  0.00     0.031 C 
ATOM     19  C   UNL A   1      41.167  26.723  28.383  1.00  0.00     0.029 A 
ATOM     20  N   UNL A   1      43.329  27.096  27.963  1.00  0.00    -0.354 N 
ATOM     21  C   UNL A   1      44.977  31.120  28.727  1.00  0.00     0.074 A 
ATOM     22  C   UNL A   1      43.962  31.978  29.291  1.00  0.00     0.031 C 
ATOM     23  C   UNL A   1      41.721  25.541  28.070  1.00  0.00     0.029 A 
ATOM     24  C   UNL A   1      43.121  25.758  27.727  1.00  0.00     0.049 A 
ATOM     25  H   UNL A   1      44.209  27.529  27.871  1.00  0.00     0.167 HD
ATOM     26  C   UNL A   1      46.267  31.472  28.538  1.00  0.00     0.037 A 
ATOM     27  C   UNL A   1      43.969  24.833  27.245  1.00  0.00     0.037 A 
ATOM     28  C   UNL A   1      47.237  30.576  27.969  1.00  0.00     0.049 A 
ATOM     29  C   UNL A   1      45.371  25.284  26.933  1.00  0.00     0.074 A 
ATOM     30  C   UNL A   1      48.555  30.819  27.643  1.00  0.00     0.029 A 
ATOM     31  N   UNL A   1      46.975  29.249  27.640  1.00  0.00    -0.354 N 
ATOM     32  N   UNL A   1      45.918  26.462  27.134  1.00  0.00    -0.248 NA
ATOM     33  C   UNL A   1      46.263  24.300  26.315  1.00  0.00     0.031 C 
ATOM     34  C   UNL A   1      49.077  29.653  27.070  1.00  0.00     0.029 A 
ATOM     35  C   UNL A   1      48.102  28.665  27.096  1.00  0.00     0.049 A 
ATOM     36  H   UNL A   1      46.113  28.794  27.776  1.00  0.00     0.167 HD
ATOM     37  C   UNL A   1      47.228  26.356  26.687  1.00  0.00     0.074 A 
ATOM     38  C   UNL A   1      47.390  24.991  26.219  1.00  0.00     0.031 C 
ATOM     39  C   UNL A   1      48.208  27.294  26.656  1.00  0.00     0.037 A 
BRANCH  26  40
ATOM     40  C   UNL A   1      46.646  32.890  28.859  1.00  0.00     0.058 A 
ATOM     41  C   UNL A   1      46.560  33.924  27.914  1.00  0.00     0.135 A 
ATOM     42  C   UNL A   1      47.157  33.207  30.128  1.00  0.00     0.135 A 
ATOM     43  F   UNL A   1      46.117  33.671  26.671  1.00  0.00    -0.206 F 
ATOM     44  C   UNL A   1      46.993  35.215  28.205  1.00  0.00     0.059 A 
ATOM     45  C   UNL A   1      47.571  34.496  30.452  1.00  0.00     0.059 A 
ATOM     46  F   UNL A   1      47.280  32.253  31.064  1.00  0.00    -0.206 F 
ATOM     47  C   UNL A   1      47.500  35.490  29.477  1.00  0.00     0.060 A 
BRANCH  47  48
ATOM     48  S   UNL A   1      48.078  37.162  29.836  1.00  0.00     0.124 S 
ATOM     49  O   UNL A   1      49.028  36.918  30.918  1.00  0.00    -0.237 OA
ATOM     50  O   UNL A   1      48.662  37.568  28.561  1.00  0.00    -0.237 OA
ATOM     51  O   UNL A   1      46.860  37.869  30.218  1.00  0.00    -0.744 OA
ENDBRANCH  47  48
ENDBRANCH  26  40
BRANCH  27  52
ATOM     52  C   UNL A   1      43.505  23.445  26.976  1.00  0.00     0.058 A 
ATOM     53  C   UNL A   1      43.223  23.003  25.676  1.00  0.00     0.135 A 
ATOM     54  C   UNL A   1      43.332  22.524  28.024  1.00  0.00     0.135 A 
ATOM     55  F   UNL A   1      43.366  23.841  24.637  1.00  0.00    -0.206 F 
ATOM     56  C   UNL A   1      42.768  21.711  25.425  1.00  0.00     0.059 A 
ATOM     57  C   UNL A   1      42.908  21.218  27.796  1.00  0.00     0.059 A 
ATOM     58  F   UNL A   1      43.595  22.885  29.290  1.00  0.00    -0.206 F 
ATOM     59  C   UNL A   1      42.613  20.825  26.493  1.00  0.00     0.060 A 
BRANCH  59  60
ATOM     60  S   UNL A   1      42.037  19.146  26.158  1.00  0.00     0.124 S 
ATOM     61  O   UNL A   1      40.626  19.374  25.867  1.00  0.00    -0.237 OA
ATOM     62  O   UNL A   1      42.869  18.757  25.023  1.00  0.00    -0.237 OA
ATOM     63  O   UNL A   1      42.318  18.438  27.403  1.00  0.00    -0.744 OA
ENDBRANCH  59  60
ENDBRANCH  27  52
BRANCH  39  64
ATOM     64  C   UNL A   1      49.546  26.851  26.142  1.00  0.00     0.058 A 
ATOM     65  C   UNL A   1      49.882  26.944  24.783  1.00  0.00     0.135 A 
ATOM     66  C   UNL A   1      50.522  26.383  27.036  1.00  0.00     0.135 A 
ATOM     67  F   UNL A   1      48.978  27.380  23.891  1.00  0.00    -0.206 F 
ATOM     68  C   UNL A   1      51.136  26.566  24.323  1.00  0.00     0.059 A 
ATOM     69  C   UNL A   1      51.793  26.031  26.604  1.00  0.00     0.059 A 
ATOM     70  F   UNL A   1      50.249  26.289  28.348  1.00  0.00    -0.206 F 
ATOM     71  C   UNL A   1      52.086  26.114  25.243  1.00  0.00     0.060 A 
BRANCH  71  72
ATOM     72  S   UNL A   1      53.724  25.664  24.640  1.00  0.00     0.124 S 
ATOM     73  O   UNL A   1      54.584  26.257  25.658  1.00  0.00    -0.237 OA
ATOM     74  O   UNL A   1      53.663  24.204  24.631  1.00  0.00    -0.237 OA
ATOM     75  O   UNL A   1      53.786  26.290  23.323  1.00  0.00    -0.744 OA
ENDBRANCH  71  72
ENDBRANCH  39  64
ENDBRANCH  13  14
ENDBRANCH   6   8
ENDBRANCH   5   6
ENDBRANCH   4   5
ENDBRANCH   3   4
ENDBRANCH   2   3
ENDBRANCH   1   2
BRANCH   1  76
ATOM     76  C   UNL A   1      32.823  33.010  27.710  1.00  0.00     0.261 C 
BRANCH  76  77
ATOM     77  O   UNL A   1      33.287  31.689  27.410  1.00  0.00    -0.461 OA
BRANCH  77  78
ATOM     78  C   UNL A   1      32.403  30.974  26.655  1.00  0.00     0.335 C 
ATOM     79  O   UNL A   1      31.326  31.388  26.241  1.00  0.00    -0.249 OA
BRANCH  78  80
ATOM     80  C   UNL A   1      33.004  29.609  26.332  1.00  0.00     0.228 C 
ATOM     81  C   UNL A   1      33.067  28.705  27.539  1.00  0.00     0.047 C 
ATOM     82  O   UNL A   1      32.204  28.913  25.375  1.00  0.00    -0.361 OA
ATOM     83  C   UNL A   1      31.653  28.191  27.578  1.00  0.00     0.037 C 
ATOM     84  C   UNL A   1      31.289  28.070  26.100  1.00  0.00     0.138 C 
BRANCH  84  85
ATOM     85  C   UNL A   1      31.458  26.668  25.523  1.00  0.00     0.148 C 
BRANCH  85  86
ATOM     86  N   UNL A   1      31.230  25.621  26.497  1.00  0.00    -0.349 N 
ATOM     87  C   UNL A   1      31.810  24.384  26.580  1.00  0.00     0.255 C 
ATOM     88  H   UNL A   1      30.568  25.828  27.196  1.00  0.00     0.163 HD
ATOM     89  O   UNL A   1      31.398  23.583  27.416  1.00  0.00    -0.269 OA
BRANCH  87  90
ATOM     90  C   UNL A   1      32.869  23.976  25.634  1.00  0.00     0.081 A 
ATOM     91  C   UNL A   1      34.187  24.289  25.990  1.00  0.00     0.018 A 
ATOM     92  C   UNL A   1      32.615  23.341  24.411  1.00  0.00     0.128 A 
ATOM     93  C   UNL A   1      35.243  23.945  25.147  1.00  0.00     0.001 A 
ATOM     94  C   UNL A   1      33.674  22.988  23.572  1.00  0.00     0.047 A 
ATOM     95  C   UNL A   1      34.985  23.291  23.942  1.00  0.00     0.004 A 
BRANCH  92  96
ATOM     96  O   UNL A   1      31.335  23.062  24.017  1.00  0.00    -0.507 OA
ATOM     97  H   UNL A   1      31.172  22.365  23.413  1.00  0.00     0.293 HD
ENDBRANCH  92  96
ENDBRANCH  87  90
ENDBRANCH  85  86
ENDBRANCH  84  85
ENDBRANCH  78  80
ENDBRANCH  77  78
ENDBRANCH  76  77
ENDBRANCH   1  76
TORSDOF 21
ENDMDL
MODEL 3
REMARK VINA RESULT:      -9.4      0.924      8.371
REMARK SMILES O=C(OCCOCCOC(=O)[C@H]1CC[C@H](CNC(=O)c2ccccc2O)O1)c1ccc(-c2c3nc(c(-c4c(F)cc(S(=O)(=O)[O-])cc4F)c4ccc([nH]4)c(-c4c(F)cc(S(=O)(=O)[O-])cc4F)c4nc(c(-c5c(F)cc(S(=O)(=O)[O-])cc5F)c5ccc2[nH]5)C=C4)C=C3)cc1
REMARK SMILES IDX 7 1 6 2 5 3 4 4 3 5 2 6 1 7 28 8 29 9 93 10 30 11 92 12
REMARK SMILES IDX 31 13 32 14 33 15 86 16 34 17 91 18 85 19 87 20 35 21 90 22
REMARK SMILES IDX 84 23 83 24 36 26 70 27 49 28 69 29 50 30 53 31 68 32 88 33
REMARK SMILES IDX 51 34 52 35 67 37 89 38 54 39 37 40 38 41 47 42 39 43 40 44
REMARK SMILES IDX 46 45 48 46 41 47 42 48 43 49 44 50 45 51 71 52 72 53 81 54
REMARK SMILES IDX 73 55 74 56 80 57 82 58 75 59 76 60 77 61 78 62 79 63 55 64
REMARK SMILES IDX 56 65 65 66 57 67 58 68 64 69 66 70 59 71 60 72 61 73 62 74
REMARK SMILES IDX 63 75 8 76 9 77 10 78 11 79 12 80 13 81 27 82 14 83 15 84
REMARK SMILES IDX 16 85 17 86 18 87 19 89 20 90 21 91 25 92 22 93 24 94 23 95
REMARK SMILES IDX 26 96
REMARK H PARENT 87 25 53 36 17 88 26 97
REMARK Flexibility Score: inf
ROOT
ATOM      1  C   UNL A   1      33.140  35.867  29.231  1.00  0.00     0.202 C 
ENDROOT
BRANCH   1   2
ATOM      2  O   UNL A   1      32.861  34.467  29.098  1.00  0.00    -0.374 OA
BRANCH   2   3
ATOM      3  C   UNL A   1      33.352  33.823  27.920  1.00  0.00     0.202 C 
BRANCH   3   4
ATOM      4  C   UNL A   1      34.546  32.886  28.125  1.00  0.00     0.261 C 
BRANCH   4   5
ATOM      5  O   UNL A   1      34.088  31.555  28.408  1.00  0.00    -0.460 OA
BRANCH   5   6
ATOM      6  C   UNL A   1      34.643  30.389  28.006  1.00  0.00     0.338 C 
ATOM      7  O   UNL A   1      33.978  29.630  27.303  1.00  0.00    -0.246 OA
BRANCH   6   8
ATOM      8  C   UNL A   1      36.042  29.995  28.342  1.00  0.00     0.060 A 
ATOM      9  C   UNL A   1      36.459  29.505  29.581  1.00  0.00     0.016 A 
ATOM     10  C   UNL A   1      36.984  30.053  27.303  1.00  0.00     0.016 A 
ATOM     11  C   UNL A   1      37.769  29.151  29.819  1.00  0.00     0.010 A 
ATOM     12  C   UNL A   1      38.307  29.661  27.518  1.00  0.00     0.010 A 
ATOM     13  C   UNL A   1      38.697  29.229  28.790  1.00  0.00    -0.014 A 
BRANCH  13  14
ATOM     14  C   UNL A   1      40.094  28.975  29.156  1.00  0.00     0.031 A 
ATOM     15  C   UNL A   1      40.689  27.666  28.752  1.00  0.00     0.074 A 
ATOM     16  C   UNL A   1      40.829  29.988  29.648  1.00  0.00     0.049 A 
ATOM     17  N   UNL A   1      41.892  27.211  28.953  1.00  0.00    -0.248 NA
ATOM     18  C   UNL A   1      39.814  26.750  27.997  1.00  0.00     0.031 C 
ATOM     19  C   UNL A   1      40.329  31.345  29.901  1.00  0.00     0.029 A 
ATOM     20  N   UNL A   1      42.152  30.054  29.977  1.00  0.00    -0.354 N 
ATOM     21  C   UNL A   1      41.910  25.946  28.382  1.00  0.00     0.074 A 
ATOM     22  C   UNL A   1      40.601  25.701  27.824  1.00  0.00     0.031 C 
ATOM     23  C   UNL A   1      41.345  32.115  30.324  1.00  0.00     0.029 A 
ATOM     24  C   UNL A   1      42.538  31.287  30.447  1.00  0.00     0.049 A 
ATOM     25  H   UNL A   1      42.770  29.294  29.886  1.00  0.00     0.167 HD
ATOM     26  C   UNL A   1      42.940  25.072  28.346  1.00  0.00     0.037 A 
ATOM     27  C   UNL A   1      43.720  31.676  30.956  1.00  0.00     0.037 A 
ATOM     28  C   UNL A   1      44.224  25.367  28.920  1.00  0.00     0.049 A 
ATOM     29  C   UNL A   1      44.816  30.644  31.011  1.00  0.00     0.074 A 
ATOM     30  C   UNL A   1      45.333  24.553  29.032  1.00  0.00     0.029 A 
ATOM     31  N   UNL A   1      44.563  26.594  29.486  1.00  0.00    -0.354 N 
ATOM     32  N   UNL A   1      44.805  29.411  30.557  1.00  0.00    -0.248 NA
ATOM     33  C   UNL A   1      46.069  31.041  31.657  1.00  0.00     0.031 C 
ATOM     34  C   UNL A   1      46.325  25.271  29.711  1.00  0.00     0.029 A 
ATOM     35  C   UNL A   1      45.857  26.553  29.967  1.00  0.00     0.049 A 
ATOM     36  H   UNL A   1      43.967  27.376  29.535  1.00  0.00     0.167 HD
ATOM     37  C   UNL A   1      46.058  28.887  30.844  1.00  0.00     0.074 A 
ATOM     38  C   UNL A   1      46.804  29.949  31.497  1.00  0.00     0.031 C 
ATOM     39  C   UNL A   1      46.553  27.648  30.601  1.00  0.00     0.037 A 
BRANCH  26  40
ATOM     40  C   UNL A   1      42.670  23.716  27.758  1.00  0.00     0.058 A 
ATOM     41  C   UNL A   1      42.362  22.600  28.553  1.00  0.00     0.135 A 
ATOM     42  C   UNL A   1      42.774  23.521  26.372  1.00  0.00     0.135 A 
ATOM     43  F   UNL A   1      42.290  22.718  29.889  1.00  0.00    -0.206 F 
ATOM     44  C   UNL A   1      42.196  21.334  27.997  1.00  0.00     0.059 A 
ATOM     45  C   UNL A   1      42.585  22.271  25.790  1.00  0.00     0.059 A 
ATOM     46  F   UNL A   1      43.086  24.549  25.567  1.00  0.00    -0.206 F 
ATOM     47  C   UNL A   1      42.313  21.179  26.614  1.00  0.00     0.060 A 
BRANCH  47  48
ATOM     48  S   UNL A   1      42.117  19.530  25.908  1.00  0.00     0.124 S 
ATOM     49  O   UNL A   1      40.683  19.498  25.632  1.00  0.00    -0.237 OA
ATOM     50  O   UNL A   1      42.986  19.588  24.736  1.00  0.00    -0.237 OA
ATOM     51  O   UNL A   1      42.570  18.645  26.977  1.00  0.00    -0.744 OA
ENDBRANCH  47  48
ENDBRANCH  26  40
BRANCH  27  52
ATOM     52  C   UNL A   1      43.898  33.050  31.499  1.00  0.00     0.058 A 
ATOM     53  C   UNL A   1      44.419  34.089  30.714  1.00  0.00     0.135 A 
ATOM     54  C   UNL A   1      43.547  33.354  32.826  1.00  0.00     0.135 A 
ATOM     55  F   UNL A   1      44.775  33.855  29.442  1.00  0.00    -0.206 F 
ATOM     56  C   UNL A   1      44.605  35.370  31.228  1.00  0.00     0.059 A 
ATOM     57  C   UNL A   1      43.695  34.633  33.353  1.00  0.00     0.059 A 
ATOM     58  F   UNL A   1      43.034  32.404  33.622  1.00  0.00    -0.206 F 
ATOM     59  C   UNL A   1      44.240  35.633  32.550  1.00  0.00     0.060 A 
BRANCH  59  60
ATOM     60  S   UNL A   1      44.471  37.300  33.204  1.00  0.00     0.124 S 
ATOM     61  O   UNL A   1      43.422  38.035  32.507  1.00  0.00    -0.237 OA
ATOM     62  O   UNL A   1      44.269  37.100  34.635  1.00  0.00    -0.237 OA
ATOM     63  O   UNL A   1      45.839  37.630  32.811  1.00  0.00    -0.744 OA
ENDBRANCH  59  60
ENDBRANCH  27  52
BRANCH  39  64
ATOM     64  C   UNL A   1      47.977  27.401  31.003  1.00  0.00     0.058 A 
ATOM     65  C   UNL A   1      49.044  27.644  30.125  1.00  0.00     0.135 A 
ATOM     66  C   UNL A   1      48.274  26.973  32.306  1.00  0.00     0.135 A 
ATOM     67  F   UNL A   1      48.806  28.048  28.867  1.00  0.00    -0.206 F 
ATOM     68  C   UNL A   1      50.360  27.447  30.519  1.00  0.00     0.059 A 
ATOM     69  C   UNL A   1      49.584  26.802  32.732  1.00  0.00     0.059 A 
ATOM     70  F   UNL A   1      47.285  26.741  33.185  1.00  0.00    -0.206 F 
ATOM     71  C   UNL A   1      50.620  27.029  31.827  1.00  0.00     0.060 A 
BRANCH  71  72
ATOM     72  S   UNL A   1      52.335  26.817  32.340  1.00  0.00     0.124 S 
ATOM     73  O   UNL A   1      52.896  26.104  31.197  1.00  0.00    -0.237 OA
ATOM     74  O   UNL A   1      52.783  28.197  32.510  1.00  0.00    -0.237 OA
ATOM     75  O   UNL A   1      52.227  26.042  33.573  1.00  0.00    -0.744 OA
ENDBRANCH  71  72
ENDBRANCH  39  64
ENDBRANCH  13  14
ENDBRANCH   6   8
ENDBRANCH   5   6
ENDBRANCH   4   5
ENDBRANCH   3   4
ENDBRANCH   2   3
ENDBRANCH   1   2
BRANCH   1  76
ATOM     76  C   UNL A   1      32.889  36.317  30.669  1.00  0.00     0.261 C 
BRANCH  76  77
ATOM     77  O   UNL A   1      33.123  35.184  31.512  1.00  0.00    -0.461 OA
BRANCH  77  78
ATOM     78  C   UNL A   1      33.913  35.475  32.586  1.00  0.00     0.335 C 
ATOM     79  O   UNL A   1      34.089  36.594  33.056  1.00  0.00    -0.249 OA
BRANCH  78  80
ATOM     80  C   UNL A   1      34.473  34.179  33.166  1.00  0.00     0.228 C 
ATOM     81  C   UNL A   1      34.470  33.050  32.165  1.00  0.00     0.047 C 
ATOM     82  O   UNL A   1      35.837  34.342  33.554  1.00  0.00    -0.361 OA
ATOM     83  C   UNL A   1      35.719  33.364  31.384  1.00  0.00     0.037 C 
ATOM     84  C   UNL A   1      36.661  33.920  32.450  1.00  0.00     0.138 C 
BRANCH  84  85
ATOM     85  C   UNL A   1      37.640  32.900  33.018  1.00  0.00     0.148 C 
BRANCH  85  86
ATOM     86  N   UNL A   1      37.383  32.576  34.406  1.00  0.00    -0.349 N 
ATOM     87  C   UNL A   1      37.960  31.609  35.184  1.00  0.00     0.255 C 
ATOM     88  H   UNL A   1      36.699  33.128  34.852  1.00  0.00     0.163 HD
ATOM     89  O   UNL A   1      37.523  31.409  36.315  1.00  0.00    -0.269 OA
BRANCH  87  90
ATOM     90  C   UNL A   1      39.047  30.759  34.657  1.00  0.00     0.081 A 
ATOM     91  C   UNL A   1      38.773  30.036  33.489  1.00  0.00     0.018 A 
ATOM     92  C   UNL A   1      40.294  30.618  35.282  1.00  0.00     0.128 A 
ATOM     93  C   UNL A   1      39.745  29.205  32.934  1.00  0.00     0.001 A 
ATOM     94  C   UNL A   1      41.269  29.793  34.720  1.00  0.00     0.047 A 
ATOM     95  C   UNL A   1      40.993  29.088  33.547  1.00  0.00     0.004 A 
BRANCH  92  96
ATOM     96  O   UNL A   1      40.574  31.278  36.447  1.00  0.00    -0.507 OA
ATOM     97  H   UNL A   1      40.778  30.793  37.222  1.00  0.00     0.293 HD
ENDBRANCH  92  96
ENDBRANCH  87  90
ENDBRANCH  85  86
ENDBRANCH  84  85
ENDBRANCH  78  80
ENDBRANCH  77  78
ENDBRANCH  76  77
ENDBRANCH   1  76
TORSDOF 21
ENDMDL
