MODEL 1
REMARK VINA RESULT:     -10.4      0.000      0.000
REMARK SMILES O=C(OCCOCCOC(=O)c1ccc(-c2c3nc(c(-c4c(F)cc(S(=O)(=O)[O-])cc4F)c4ccc([nH]4)c(-c4c(F)cc(S(=O)(=O)[O-])cc4F)c4nc(c(-c5c(F)cc(S(=O)(=O)[O-])cc5F)c5ccc2[nH]5)C=C4)C=C3)cc1)c1ccc(C#CC#C[C@H]2C[C@@H](O)C2)cc1
REMARK SMILES IDX 5 1 4 2 3 3 2 4 1 5 78 6 79 7 92 8 80 9 91 10 81 11 82 12
REMARK SMILES IDX 83 13 84 14 85 15 86 16 90 17 87 18 88 19 89 20 6 22 7 23
REMARK SMILES IDX 8 24 9 25 10 26 11 27 12 28 13 29 77 30 14 31 76 32 15 33
REMARK SMILES IDX 16 34 17 35 70 36 18 37 75 38 69 39 71 40 19 41 74 42 68 43
REMARK SMILES IDX 67 44 20 46 54 47 33 48 53 49 34 50 37 51 52 52 72 53 35 54
REMARK SMILES IDX 36 55 51 57 73 58 38 59 21 60 22 61 31 62 23 63 24 64 30 65
REMARK SMILES IDX 32 66 25 67 26 68 27 69 28 70 29 71 55 72 56 73 65 74 57 75
REMARK SMILES IDX 58 76 64 77 66 78 59 79 60 80 61 81 62 82 63 83 39 84 40 85
REMARK SMILES IDX 49 86 41 87 42 88 48 89 50 90 43 91 44 92 45 93 46 94 47 95
REMARK H PARENT 89 21 71 45 37 56
REMARK Flexibility Score: inf
ROOT
ATOM      1  C   UNL A   1      34.300  34.450  30.994  1.00  0.00     0.202 C 
ENDROOT
BRANCH   1   2
ATOM      2  C   UNL A   1      33.864  34.803  29.572  1.00  0.00     0.261 C 
BRANCH   2   3
ATOM      3  O   UNL A   1      33.518  33.615  28.846  1.00  0.00    -0.460 OA
BRANCH   3   4
ATOM      4  C   UNL A   1      34.358  32.913  28.052  1.00  0.00     0.338 C 
ATOM      5  O   UNL A   1      35.399  33.424  27.645  1.00  0.00    -0.246 OA
BRANCH   4   6
ATOM      6  C   UNL A   1      34.103  31.490  27.713  1.00  0.00     0.060 A 
ATOM      7  C   UNL A   1      32.881  30.998  27.243  1.00  0.00     0.017 A 
ATOM      8  C   UNL A   1      35.208  30.632  27.734  1.00  0.00     0.017 A 
ATOM      9  C   UNL A   1      32.744  29.677  26.838  1.00  0.00     0.018 A 
ATOM     10  C   UNL A   1      35.081  29.305  27.312  1.00  0.00     0.018 A 
ATOM     11  C   UNL A   1      33.847  28.837  26.864  1.00  0.00     0.026 A 
BRANCH  11  12
ATOM     12  C   UNL A   1      33.679  27.509  26.385  1.00  0.00    -0.053 C 
ATOM     13  C   UNL A   1      33.583  26.440  25.857  1.00  0.00    -0.010 C 
BRANCH  13  14
ATOM     14  C   UNL A   1      33.467  25.132  25.092  1.00  0.00    -0.015 C 
ATOM     15  C   UNL A   1      33.412  24.078  24.531  1.00  0.00    -0.085 C 
BRANCH  15  16
ATOM     16  C   UNL A   1      33.414  22.800  23.873  1.00  0.00     0.070 C 
ATOM     17  C   UNL A   1      32.122  21.954  23.988  1.00  0.00     0.048 C 
ATOM     18  C   UNL A   1      33.151  22.828  22.349  1.00  0.00     0.048 C 
ATOM     19  C   UNL A   1      32.410  21.483  22.541  1.00  0.00     0.116 C 
BRANCH  19  20
ATOM     20  O   UNL A   1      31.274  21.243  21.696  1.00  0.00    -0.393 OA
ATOM     21  H   UNL A   1      31.331  20.350  21.322  1.00  0.00     0.210 HD
ENDBRANCH  19  20
ENDBRANCH  15  16
ENDBRANCH  13  14
ENDBRANCH  11  12
ENDBRANCH   4   6
ENDBRANCH   3   4
ENDBRANCH   2   3
ENDBRANCH   1   2
BRANCH   1  22
ATOM     22  O   UNL A   1      35.712  34.340  31.168  1.00  0.00    -0.374 OA
BRANCH  22  23
ATOM     23  C   UNL A   1      36.177  33.252  31.973  1.00  0.00     0.202 C 
BRANCH  23  24
ATOM     24  C   UNL A   1      35.497  31.957  31.534  1.00  0.00     0.261 C 
BRANCH  24  25
ATOM     25  O   UNL A   1      36.465  31.145  30.864  1.00  0.00    -0.460 OA
BRANCH  25  26
ATOM     26  C   UNL A   1      37.049  30.202  31.646  1.00  0.00     0.338 C 
ATOM     27  O   UNL A   1      36.612  29.709  32.671  1.00  0.00    -0.246 OA
BRANCH  26  28
ATOM     28  C   UNL A   1      38.229  29.701  30.915  1.00  0.00     0.060 A 
ATOM     29  C   UNL A   1      39.194  28.967  31.618  1.00  0.00     0.016 A 
ATOM     30  C   UNL A   1      38.355  29.915  29.539  1.00  0.00     0.016 A 
ATOM     31  C   UNL A   1      40.325  28.500  30.956  1.00  0.00     0.010 A 
ATOM     32  C   UNL A   1      39.483  29.448  28.877  1.00  0.00     0.010 A 
ATOM     33  C   UNL A   1      40.493  28.793  29.598  1.00  0.00    -0.014 A 
BRANCH  33  34
ATOM     34  C   UNL A   1      41.815  28.641  28.965  1.00  0.00     0.031 A 
ATOM     35  C   UNL A   1      42.177  27.284  28.429  1.00  0.00     0.074 A 
ATOM     36  C   UNL A   1      42.669  29.673  28.900  1.00  0.00     0.049 A 
ATOM     37  N   UNL A   1      43.304  26.867  27.923  1.00  0.00    -0.248 NA
ATOM     38  C   UNL A   1      41.126  26.253  28.498  1.00  0.00     0.031 C 
ATOM     39  C   UNL A   1      42.392  31.029  29.371  1.00  0.00     0.029 A 
ATOM     40  N   UNL A   1      43.951  29.731  28.425  1.00  0.00    -0.354 N 
ATOM     41  C   UNL A   1      43.104  25.522  27.628  1.00  0.00     0.074 A 
ATOM     42  C   UNL A   1      41.767  25.183  28.058  1.00  0.00     0.031 C 
ATOM     43  C   UNL A   1      43.482  31.789  29.166  1.00  0.00     0.029 A 
ATOM     44  C   UNL A   1      44.539  30.960  28.590  1.00  0.00     0.049 A 
ATOM     45  H   UNL A   1      44.407  28.966  28.006  1.00  0.00     0.167 HD
ATOM     46  C   UNL A   1      43.961  24.655  27.041  1.00  0.00     0.037 A 
ATOM     47  C   UNL A   1      45.799  31.354  28.324  1.00  0.00     0.037 A 
ATOM     48  C   UNL A   1      45.292  25.020  26.634  1.00  0.00     0.049 A 
ATOM     49  C   UNL A   1      46.760  30.357  27.731  1.00  0.00     0.074 A 
ATOM     50  C   UNL A   1      46.245  24.238  26.008  1.00  0.00     0.029 A 
ATOM     51  N   UNL A   1      45.863  26.271  26.829  1.00  0.00    -0.354 N 
ATOM     52  N   UNL A   1      46.556  29.096  27.423  1.00  0.00    -0.248 NA
ATOM     53  C   UNL A   1      48.117  30.835  27.444  1.00  0.00     0.031 C 
ATOM     54  C   UNL A   1      47.415  24.993  25.893  1.00  0.00     0.029 A 
ATOM     55  C   UNL A   1      47.168  26.274  26.367  1.00  0.00     0.049 A 
ATOM     56  H   UNL A   1      45.406  27.043  27.236  1.00  0.00     0.167 HD
ATOM     57  C   UNL A   1      47.749  28.641  26.869  1.00  0.00     0.074 A 
ATOM     58  C   UNL A   1      48.663  29.766  26.881  1.00  0.00     0.031 C 
ATOM     59  C   UNL A   1      48.059  27.411  26.388  1.00  0.00     0.037 A 
BRANCH  46  60
ATOM     60  C   UNL A   1      43.494  23.237  26.851  1.00  0.00     0.058 A 
ATOM     61  C   UNL A   1      43.365  22.341  27.925  1.00  0.00     0.135 A 
ATOM     62  C   UNL A   1      43.173  22.763  25.567  1.00  0.00     0.135 A 
ATOM     63  F   UNL A   1      43.676  22.728  29.172  1.00  0.00    -0.206 F 
ATOM     64  C   UNL A   1      42.978  21.018  27.730  1.00  0.00     0.059 A 
ATOM     65  C   UNL A   1      42.746  21.456  25.354  1.00  0.00     0.059 A 
ATOM     66  F   UNL A   1      43.283  23.571  24.501  1.00  0.00    -0.206 F 
ATOM     67  C   UNL A   1      42.670  20.586  26.438  1.00  0.00     0.060 A 
BRANCH  67  68
ATOM     68  S   UNL A   1      42.177  18.866  26.202  1.00  0.00     0.124 S 
ATOM     69  O   UNL A   1      42.307  18.336  27.556  1.00  0.00    -0.237 OA
ATOM     70  O   UNL A   1      40.814  19.000  25.702  1.00  0.00    -0.237 OA
ATOM     71  O   UNL A   1      43.151  18.363  25.237  1.00  0.00    -0.744 OA
ENDBRANCH  67  68
ENDBRANCH  46  60
BRANCH  47  72
ATOM     72  C   UNL A   1      46.207  32.756  28.603  1.00  0.00     0.058 A 
ATOM     73  C   UNL A   1      46.794  33.104  29.828  1.00  0.00     0.135 A 
ATOM     74  C   UNL A   1      46.055  33.767  27.641  1.00  0.00     0.135 A 
ATOM     75  F   UNL A   1      46.955  32.176  30.784  1.00  0.00    -0.206 F 
ATOM     76  C   UNL A   1      47.210  34.405  30.093  1.00  0.00     0.059 A 
ATOM     77  C   UNL A   1      46.491  35.067  27.870  1.00  0.00     0.059 A 
ATOM     78  F   UNL A   1      45.512  33.482  26.446  1.00  0.00    -0.206 F 
ATOM     79  C   UNL A   1      47.064  35.377  29.102  1.00  0.00     0.060 A 
BRANCH  79  80
ATOM     80  S   UNL A   1      47.677  37.042  29.433  1.00  0.00     0.124 S 
ATOM     81  O   UNL A   1      46.461  37.725  29.859  1.00  0.00    -0.237 OA
ATOM     82  O   UNL A   1      48.670  36.796  30.475  1.00  0.00    -0.237 OA
ATOM     83  O   UNL A   1      48.220  37.463  28.146  1.00  0.00    -0.744 OA
ENDBRANCH  79  80
ENDBRANCH  47  72
BRANCH  59  84
ATOM     84  C   UNL A   1      49.426  27.225  25.785  1.00  0.00     0.058 A 
ATOM     85  C   UNL A   1      50.552  26.916  26.565  1.00  0.00     0.135 A 
ATOM     86  C   UNL A   1      49.597  27.304  24.392  1.00  0.00     0.135 A 
ATOM     87  F   UNL A   1      50.448  26.833  27.901  1.00  0.00    -0.206 F 
ATOM     88  C   UNL A   1      51.803  26.723  25.989  1.00  0.00     0.059 A 
ATOM     89  C   UNL A   1      50.830  27.075  23.791  1.00  0.00     0.059 A 
ATOM     90  F   UNL A   1      48.552  27.583  23.596  1.00  0.00    -0.206 F 
ATOM     91  C   UNL A   1      51.931  26.799  24.599  1.00  0.00     0.060 A 
BRANCH  91  92
ATOM     92  S   UNL A   1      53.554  26.514  23.866  1.00  0.00     0.124 S 
ATOM     93  O   UNL A   1      54.318  27.638  24.396  1.00  0.00    -0.237 OA
ATOM     94  O   UNL A   1      53.906  25.200  24.394  1.00  0.00    -0.237 OA
ATOM     95  O   UNL A   1      53.291  26.556  22.429  1.00  0.00    -0.744 OA
ENDBRANCH  91  92
ENDBRANCH  59  84
ENDBRANCH  33  34
ENDBRANCH  26  28
ENDBRANCH  25  26
ENDBRANCH  24  25
ENDBRANCH  23  24
ENDBRANCH  22  23
ENDBRANCH   1  22
TORSDOF 21
ENDMDL
MODEL 2
REMARK VINA RESULT:     -10.4      4.011      6.416
REMARK SMILES O=C(OCCOCCOC(=O)c1ccc(-c2c3nc(c(-c4c(F)cc(S(=O)(=O)[O-])cc4F)c4ccc([nH]4)c(-c4c(F)cc(S(=O)(=O)[O-])cc4F)c4nc(c(-c5c(F)cc(S(=O)(=O)[O-])cc5F)c5ccc2[nH]5)C=C4)C=C3)cc1)c1ccc(C#CC#C[C@H]2C[C@@H](O)C2)cc1
REMARK SMILES IDX 5 1 4 2 3 3 2 4 1 5 78 6 79 7 92 8 80 9 91 10 81 11 82 12
REMARK SMILES IDX 83 13 84 14 85 15 86 16 90 17 87 18 88 19 89 20 6 22 7 23
REMARK SMILES IDX 8 24 9 25 10 26 11 27 12 28 13 29 77 30 14 31 76 32 15 33
REMARK SMILES IDX 16 34 17 35 70 36 18 37 75 38 69 39 71 40 19 41 74 42 68 43
REMARK SMILES IDX 67 44 20 46 54 47 33 48 53 49 34 50 37 51 52 52 72 53 35 54
REMARK SMILES IDX 36 55 51 57 73 58 38 59 21 60 22 61 31 62 23 63 24 64 30 65
REMARK SMILES IDX 32 66 25 67 26 68 27 69 28 70 29 71 55 72 56 73 65 74 57 75
REMARK SMILES IDX 58 76 64 77 66 78 59 79 60 80 61 81 62 82 63 83 39 84 40 85
REMARK SMILES IDX 49 86 41 87 42 88 48 89 50 90 43 91 44 92 45 93 46 94 47 95
REMARK H PARENT 89 21 71 45 37 56
REMARK Flexibility Score: inf
ROOT
ATOM      1  C   UNL A   1      34.405  32.954  32.126  1.00  0.00     0.202 C 
ENDROOT
BRANCH   1   2
ATOM      2  C   UNL A   1      34.225  33.416  33.572  1.00  0.00     0.261 C 
BRANCH   2   3
ATOM      3  O   UNL A   1      35.462  33.301  34.290  1.00  0.00    -0.460 OA
BRANCH   3   4
ATOM      4  C   UNL A   1      36.668  33.712  33.838  1.00  0.00     0.338 C 
ATOM      5  O   UNL A   1      36.869  34.900  33.599  1.00  0.00    -0.246 OA
BRANCH   4   6
ATOM      6  C   UNL A   1      37.808  32.771  33.693  1.00  0.00     0.060 A 
ATOM      7  C   UNL A   1      39.131  33.078  34.029  1.00  0.00     0.017 A 
ATOM      8  C   UNL A   1      37.495  31.455  33.335  1.00  0.00     0.017 A 
ATOM      9  C   UNL A   1      40.129  32.114  33.975  1.00  0.00     0.018 A 
ATOM     10  C   UNL A   1      38.492  30.477  33.295  1.00  0.00     0.018 A 
ATOM     11  C   UNL A   1      39.805  30.814  33.618  1.00  0.00     0.026 A 
BRANCH  11  12
ATOM     12  C   UNL A   1      40.845  29.845  33.633  1.00  0.00    -0.053 C 
ATOM     13  C   UNL A   1      41.707  29.026  33.504  1.00  0.00    -0.010 C 
BRANCH  13  14
ATOM     14  C   UNL A   1      42.765  27.967  33.243  1.00  0.00    -0.015 C 
ATOM     15  C   UNL A   1      43.570  27.098  33.077  1.00  0.00    -0.085 C 
BRANCH  15  16
ATOM     16  C   UNL A   1      44.533  26.038  32.947  1.00  0.00     0.070 C 
ATOM     17  C   UNL A   1      44.920  25.286  34.244  1.00  0.00     0.048 C 
ATOM     18  C   UNL A   1      43.980  24.687  32.437  1.00  0.00     0.048 C 
ATOM     19  C   UNL A   1      45.016  24.012  33.368  1.00  0.00     0.116 C 
BRANCH  19  20
ATOM     20  O   UNL A   1      44.627  22.771  33.978  1.00  0.00    -0.393 OA
ATOM     21  H   UNL A   1      43.784  22.476  33.601  1.00  0.00     0.210 HD
ENDBRANCH  19  20
ENDBRANCH  15  16
ENDBRANCH  13  14
ENDBRANCH  11  12
ENDBRANCH   4   6
ENDBRANCH   3   4
ENDBRANCH   2   3
ENDBRANCH   1   2
BRANCH   1  22
ATOM     22  O   UNL A   1      34.005  33.912  31.147  1.00  0.00    -0.374 OA
BRANCH  22  23
ATOM     23  C   UNL A   1      34.401  33.652  29.796  1.00  0.00     0.202 C 
BRANCH  23  24
ATOM     24  C   UNL A   1      35.050  32.273  29.704  1.00  0.00     0.261 C 
BRANCH  24  25
ATOM     25  O   UNL A   1      35.051  31.867  28.333  1.00  0.00    -0.460 OA
BRANCH  25  26
ATOM     26  C   UNL A   1      34.982  30.525  28.142  1.00  0.00     0.338 C 
ATOM     27  O   UNL A   1      34.035  29.879  27.730  1.00  0.00    -0.246 OA
BRANCH  26  28
ATOM     28  C   UNL A   1      36.347  29.990  28.311  1.00  0.00     0.060 A 
ATOM     29  C   UNL A   1      36.700  29.425  29.544  1.00  0.00     0.016 A 
ATOM     30  C   UNL A   1      37.253  30.007  27.247  1.00  0.00     0.016 A 
ATOM     31  C   UNL A   1      37.986  28.931  29.736  1.00  0.00     0.010 A 
ATOM     32  C   UNL A   1      38.537  29.514  27.436  1.00  0.00     0.010 A 
ATOM     33  C   UNL A   1      38.919  29.030  28.697  1.00  0.00    -0.014 A 
BRANCH  33  34
ATOM     34  C   UNL A   1      40.357  28.863  28.974  1.00  0.00     0.031 A 
ATOM     35  C   UNL A   1      40.989  27.553  28.597  1.00  0.00     0.074 A 
ATOM     36  C   UNL A   1      41.061  29.839  29.567  1.00  0.00     0.049 A 
ATOM     37  N   UNL A   1      42.199  27.121  28.822  1.00  0.00    -0.248 NA
ATOM     38  C   UNL A   1      40.126  26.591  27.888  1.00  0.00     0.031 C 
ATOM     39  C   UNL A   1      40.535  31.149  29.944  1.00  0.00     0.029 A 
ATOM     40  N   UNL A   1      42.369  29.865  29.970  1.00  0.00    -0.354 N 
ATOM     41  C   UNL A   1      42.238  25.833  28.299  1.00  0.00     0.074 A 
ATOM     42  C   UNL A   1      40.919  25.536  27.791  1.00  0.00     0.031 C 
ATOM     43  C   UNL A   1      41.516  31.855  30.533  1.00  0.00     0.029 A 
ATOM     44  C   UNL A   1      42.719  31.028  30.610  1.00  0.00     0.049 A 
ATOM     45  H   UNL A   1      42.996  29.123  29.817  1.00  0.00     0.167 HD
ATOM     46  C   UNL A   1      43.289  24.983  28.242  1.00  0.00     0.037 A 
ATOM     47  C   UNL A   1      43.876  31.366  31.208  1.00  0.00     0.037 A 
ATOM     48  C   UNL A   1      44.589  25.302  28.767  1.00  0.00     0.049 A 
ATOM     49  C   UNL A   1      45.015  30.380  31.192  1.00  0.00     0.074 A 
ATOM     50  C   UNL A   1      45.738  24.534  28.748  1.00  0.00     0.029 A 
ATOM     51  N   UNL A   1      44.907  26.485  29.423  1.00  0.00    -0.354 N 
ATOM     52  N   UNL A   1      45.058  29.177  30.666  1.00  0.00    -0.248 NA
ATOM     53  C   UNL A   1      46.262  30.798  31.842  1.00  0.00     0.031 C 
ATOM     54  C   UNL A   1      46.728  25.220  29.457  1.00  0.00     0.029 A 
ATOM     55  C   UNL A   1      46.226  26.454  29.844  1.00  0.00     0.049 A 
ATOM     56  H   UNL A   1      44.286  27.235  29.567  1.00  0.00     0.167 HD
ATOM     57  C   UNL A   1      46.349  28.709  30.889  1.00  0.00     0.074 A 
ATOM     58  C   UNL A   1      47.054  29.764  31.591  1.00  0.00     0.031 C 
ATOM     59  C   UNL A   1      46.906  27.521  30.540  1.00  0.00     0.037 A 
BRANCH  46  60
ATOM     60  C   UNL A   1      43.053  23.627  27.631  1.00  0.00     0.058 A 
ATOM     61  C   UNL A   1      43.320  23.359  26.278  1.00  0.00     0.135 A 
ATOM     62  C   UNL A   1      42.547  22.576  28.414  1.00  0.00     0.135 A 
ATOM     63  F   UNL A   1      43.785  24.328  25.474  1.00  0.00    -0.206 F 
ATOM     64  C   UNL A   1      43.053  22.114  25.714  1.00  0.00     0.059 A 
ATOM     65  C   UNL A   1      42.311  21.312  27.881  1.00  0.00     0.059 A 
ATOM     66  F   UNL A   1      42.268  22.773  29.712  1.00  0.00    -0.206 F 
ATOM     67  C   UNL A   1      42.548  21.097  26.526  1.00  0.00     0.060 A 
BRANCH  67  68
ATOM     68  S   UNL A   1      42.201  19.492  25.777  1.00  0.00     0.124 S 
ATOM     69  O   UNL A   1      40.783  19.622  25.453  1.00  0.00    -0.237 OA
ATOM     70  O   UNL A   1      43.113  19.478  24.638  1.00  0.00    -0.237 OA
ATOM     71  O   UNL A   1      42.516  18.544  26.842  1.00  0.00    -0.744 OA
ENDBRANCH  67  68
ENDBRANCH  46  60
BRANCH  47  72
ATOM     72  C   UNL A   1      44.012  32.699  31.851  1.00  0.00     0.058 A 
ATOM     73  C   UNL A   1      44.368  33.828  31.100  1.00  0.00     0.135 A 
ATOM     74  C   UNL A   1      43.752  32.881  33.220  1.00  0.00     0.135 A 
ATOM     75  F   UNL A   1      44.633  33.706  29.790  1.00  0.00    -0.206 F 
ATOM     76  C   UNL A   1      44.467  35.088  31.681  1.00  0.00     0.059 A 
ATOM     77  C   UNL A   1      43.815  34.135  33.817  1.00  0.00     0.059 A 
ATOM     78  F   UNL A   1      43.394  31.834  33.981  1.00  0.00    -0.206 F 
ATOM     79  C   UNL A   1      44.178  35.233  33.038  1.00  0.00     0.060 A 
BRANCH  79  80
ATOM     80  S   UNL A   1      44.240  36.886  33.760  1.00  0.00     0.124 S 
ATOM     81  O   UNL A   1      43.429  37.650  32.820  1.00  0.00    -0.237 OA
ATOM     82  O   UNL A   1      43.651  36.662  35.077  1.00  0.00    -0.237 OA
ATOM     83  O   UNL A   1      45.666  37.199  33.764  1.00  0.00    -0.744 OA
ENDBRANCH  79  80
ENDBRANCH  47  72
BRANCH  59  84
ATOM     84  C   UNL A   1      48.362  27.315  30.864  1.00  0.00     0.058 A 
ATOM     85  C   UNL A   1      48.783  26.688  32.046  1.00  0.00     0.135 A 
ATOM     86  C   UNL A   1      49.349  27.703  29.941  1.00  0.00     0.135 A 
ATOM     87  F   UNL A   1      47.884  26.301  32.965  1.00  0.00    -0.206 F 
ATOM     88  C   UNL A   1      50.133  26.483  32.318  1.00  0.00     0.059 A 
ATOM     89  C   UNL A   1      50.700  27.472  30.174  1.00  0.00     0.059 A 
ATOM     90  F   UNL A   1      49.002  28.295  28.787  1.00  0.00    -0.206 F 
ATOM     91  C   UNL A   1      51.083  26.873  31.372  1.00  0.00     0.060 A 
BRANCH  91  92
ATOM     92  S   UNL A   1      52.826  26.569  31.724  1.00  0.00     0.124 S 
ATOM     93  O   UNL A   1      53.388  26.487  30.380  1.00  0.00    -0.237 OA
ATOM     94  O   UNL A   1      53.196  27.751  32.496  1.00  0.00    -0.237 OA
ATOM     95  O   UNL A   1      52.809  25.316  32.475  1.00  0.00    -0.744 OA
ENDBRANCH  91  92
ENDBRANCH  59  84
ENDBRANCH  33  34
ENDBRANCH  26  28
ENDBRANCH  25  26
ENDBRANCH  24  25
ENDBRANCH  23  24
ENDBRANCH  22  23
ENDBRANCH   1  22
TORSDOF 21
ENDMDL
MODEL 3
REMARK VINA RESULT:     -10.3      3.613     10.183
REMARK SMILES O=C(OCCOCCOC(=O)c1ccc(-c2c3nc(c(-c4c(F)cc(S(=O)(=O)[O-])cc4F)c4ccc([nH]4)c(-c4c(F)cc(S(=O)(=O)[O-])cc4F)c4nc(c(-c5c(F)cc(S(=O)(=O)[O-])cc5F)c5ccc2[nH]5)C=C4)C=C3)cc1)c1ccc(C#CC#C[C@H]2C[C@@H](O)C2)cc1
REMARK SMILES IDX 5 1 4 2 3 3 2 4 1 5 78 6 79 7 92 8 80 9 91 10 81 11 82 12
REMARK SMILES IDX 83 13 84 14 85 15 86 16 90 17 87 18 88 19 89 20 6 22 7 23
REMARK SMILES IDX 8 24 9 25 10 26 11 27 12 28 13 29 77 30 14 31 76 32 15 33
REMARK SMILES IDX 16 34 17 35 70 36 18 37 75 38 69 39 71 40 19 41 74 42 68 43
REMARK SMILES IDX 67 44 20 46 54 47 33 48 53 49 34 50 37 51 52 52 72 53 35 54
REMARK SMILES IDX 36 55 51 57 73 58 38 59 21 60 22 61 31 62 23 63 24 64 30 65
REMARK SMILES IDX 32 66 25 67 26 68 27 69 28 70 29 71 55 72 56 73 65 74 57 75
REMARK SMILES IDX 58 76 64 77 66 78 59 79 60 80 61 81 62 82 63 83 39 84 40 85
REMARK SMILES IDX 49 86 41 87 42 88 48 89 50 90 43 91 44 92 45 93 46 94 47 95
REMARK H PARENT 89 21 71 45 37 56
REMARK Flexibility Score: inf
ROOT
ATOM      1  C   UNL A   1      33.023  35.604  29.714  1.00  0.00     0.202 C 
ENDROOT
BRANCH   1   2
ATOM      2  C   UNL A   1      33.257  36.454  30.962  1.00  0.00     0.261 C 
BRANCH   2   3
ATOM      3  O   UNL A   1      33.393  35.617  32.119  1.00  0.00    -0.460 OA
BRANCH   3   4
ATOM      4  C   UNL A   1      34.339  35.754  33.076  1.00  0.00     0.338 C 
ATOM      5  O   UNL A   1      34.213  36.603  33.955  1.00  0.00    -0.246 OA
BRANCH   4   6
ATOM      6  C   UNL A   1      35.511  34.844  33.150  1.00  0.00     0.060 A 
ATOM      7  C   UNL A   1      36.520  34.779  32.185  1.00  0.00     0.017 A 
ATOM      8  C   UNL A   1      35.670  34.121  34.337  1.00  0.00     0.017 A 
ATOM      9  C   UNL A   1      37.645  33.987  32.372  1.00  0.00     0.018 A 
ATOM     10  C   UNL A   1      36.807  33.335  34.539  1.00  0.00     0.018 A 
ATOM     11  C   UNL A   1      37.791  33.275  33.554  1.00  0.00     0.026 A 
BRANCH  11  12
ATOM     12  C   UNL A   1      38.984  32.523  33.731  1.00  0.00    -0.053 C 
ATOM     13  C   UNL A   1      40.031  31.945  33.756  1.00  0.00    -0.010 C 
BRANCH  13  14
ATOM     14  C   UNL A   1      41.369  31.228  33.682  1.00  0.00    -0.015 C 
ATOM     15  C   UNL A   1      42.396  30.617  33.652  1.00  0.00    -0.085 C 
BRANCH  15  16
ATOM     16  C   UNL A   1      43.615  29.856  33.680  1.00  0.00     0.070 C 
ATOM     17  C   UNL A   1      43.700  28.714  34.722  1.00  0.00     0.048 C 
ATOM     18  C   UNL A   1      43.747  28.757  32.599  1.00  0.00     0.048 C 
ATOM     19  C   UNL A   1      44.511  27.928  33.661  1.00  0.00     0.116 C 
BRANCH  19  20
ATOM     20  O   UNL A   1      44.328  26.504  33.624  1.00  0.00    -0.393 OA
ATOM     21  H   UNL A   1      45.168  26.066  33.829  1.00  0.00     0.210 HD
ENDBRANCH  19  20
ENDBRANCH  15  16
ENDBRANCH  13  14
ENDBRANCH  11  12
ENDBRANCH   4   6
ENDBRANCH   3   4
ENDBRANCH   2   3
ENDBRANCH   1   2
BRANCH   1  22
ATOM     22  O   UNL A   1      34.006  35.771  28.693  1.00  0.00    -0.374 OA
BRANCH  22  23
ATOM     23  C   UNL A   1      34.536  34.575  28.110  1.00  0.00     0.202 C 
BRANCH  23  24
ATOM     24  C   UNL A   1      33.516  33.445  28.232  1.00  0.00     0.261 C 
BRANCH  24  25
ATOM     25  O   UNL A   1      34.215  32.242  28.562  1.00  0.00    -0.460 OA
BRANCH  25  26
ATOM     26  C   UNL A   1      34.746  32.222  29.811  1.00  0.00     0.338 C 
ATOM     27  O   UNL A   1      34.206  32.542  30.855  1.00  0.00    -0.246 OA
BRANCH  26  28
ATOM     28  C   UNL A   1      36.042  31.524  29.721  1.00  0.00     0.060 A 
ATOM     29  C   UNL A   1      36.576  30.943  30.880  1.00  0.00     0.016 A 
ATOM     30  C   UNL A   1      36.701  31.405  28.493  1.00  0.00     0.016 A 
ATOM     31  C   UNL A   1      37.805  30.296  30.826  1.00  0.00     0.010 A 
ATOM     32  C   UNL A   1      37.928  30.757  28.439  1.00  0.00     0.010 A 
ATOM     33  C   UNL A   1      38.505  30.256  29.615  1.00  0.00    -0.014 A 
BRANCH  33  34
ATOM     34  C   UNL A   1      39.939  29.915  29.598  1.00  0.00     0.031 A 
ATOM     35  C   UNL A   1      40.916  31.004  29.943  1.00  0.00     0.074 A 
ATOM     36  C   UNL A   1      40.349  28.684  29.258  1.00  0.00     0.049 A 
ATOM     37  N   UNL A   1      42.219  30.991  29.905  1.00  0.00    -0.248 NA
ATOM     38  C   UNL A   1      40.336  32.291  30.368  1.00  0.00     0.031 C 
ATOM     39  C   UNL A   1      39.472  27.562  28.933  1.00  0.00     0.029 A 
ATOM     40  N   UNL A   1      41.615  28.183  29.114  1.00  0.00    -0.354 N 
ATOM     41  C   UNL A   1      42.615  32.269  30.283  1.00  0.00     0.074 A 
ATOM     42  C   UNL A   1      41.415  33.045  30.498  1.00  0.00     0.031 C 
ATOM     43  C   UNL A   1      40.230  26.497  28.619  1.00  0.00     0.029 A 
ATOM     44  C   UNL A   1      41.640  26.881  28.682  1.00  0.00     0.049 A 
ATOM     45  H   UNL A   1      42.427  28.705  29.302  1.00  0.00     0.167 HD
ATOM     46  C   UNL A   1      43.872  32.745  30.446  1.00  0.00     0.037 A 
ATOM     47  C   UNL A   1      42.689  26.103  28.354  1.00  0.00     0.037 A 
ATOM     48  C   UNL A   1      45.049  31.951  30.213  1.00  0.00     0.049 A 
ATOM     49  C   UNL A   1      44.078  26.670  28.478  1.00  0.00     0.074 A 
ATOM     50  C   UNL A   1      46.374  32.313  30.366  1.00  0.00     0.029 A 
ATOM     51  N   UNL A   1      45.039  30.638  29.762  1.00  0.00    -0.354 N 
ATOM     52  N   UNL A   1      44.449  27.868  28.868  1.00  0.00    -0.248 NA
ATOM     53  C   UNL A   1      45.190  25.781  28.124  1.00  0.00     0.031 C 
ATOM     54  C   UNL A   1      47.166  31.244  29.935  1.00  0.00     0.029 A 
ATOM     55  C   UNL A   1      46.337  30.184  29.597  1.00  0.00     0.049 A 
ATOM     56  H   UNL A   1      44.229  30.107  29.585  1.00  0.00     0.167 HD
ATOM     57  C   UNL A   1      45.840  27.864  28.844  1.00  0.00     0.074 A 
ATOM     58  C   UNL A   1      46.240  26.541  28.407  1.00  0.00     0.031 C 
ATOM     59  C   UNL A   1      46.709  28.857  29.161  1.00  0.00     0.037 A 
BRANCH  46  60
ATOM     60  C   UNL A   1      44.023  34.187  30.850  1.00  0.00     0.058 A 
ATOM     61  C   UNL A   1      44.090  35.226  29.907  1.00  0.00     0.135 A 
ATOM     62  C   UNL A   1      44.106  34.536  32.208  1.00  0.00     0.135 A 
ATOM     63  F   UNL A   1      44.037  34.954  28.593  1.00  0.00    -0.206 F 
ATOM     64  C   UNL A   1      44.277  36.551  30.292  1.00  0.00     0.059 A 
ATOM     65  C   UNL A   1      44.253  35.858  32.618  1.00  0.00     0.059 A 
ATOM     66  F   UNL A   1      44.054  33.587  33.155  1.00  0.00    -0.206 F 
ATOM     67  C   UNL A   1      44.357  36.856  31.652  1.00  0.00     0.060 A 
BRANCH  67  68
ATOM     68  S   UNL A   1      44.608  38.577  32.133  1.00  0.00     0.124 S 
ATOM     69  O   UNL A   1      44.662  39.239  30.833  1.00  0.00    -0.237 OA
ATOM     70  O   UNL A   1      43.421  38.851  32.935  1.00  0.00    -0.237 OA
ATOM     71  O   UNL A   1      45.868  38.544  32.871  1.00  0.00    -0.744 OA
ENDBRANCH  67  68
ENDBRANCH  46  60
BRANCH  47  72
ATOM     72  C   UNL A   1      42.456  24.708  27.896  1.00  0.00     0.058 A 
ATOM     73  C   UNL A   1      42.612  23.626  28.775  1.00  0.00     0.135 A 
ATOM     74  C   UNL A   1      42.039  24.428  26.584  1.00  0.00     0.135 A 
ATOM     75  F   UNL A   1      43.016  23.840  30.037  1.00  0.00    -0.206 F 
ATOM     76  C   UNL A   1      42.368  22.318  28.371  1.00  0.00     0.059 A 
ATOM     77  C   UNL A   1      41.759  23.132  26.166  1.00  0.00     0.059 A 
ATOM     78  F   UNL A   1      41.861  25.430  25.707  1.00  0.00    -0.206 F 
ATOM     79  C   UNL A   1      41.931  22.083  27.067  1.00  0.00     0.060 A 
BRANCH  79  80
ATOM     80  S   UNL A   1      41.547  20.387  26.580  1.00  0.00     0.124 S 
ATOM     81  O   UNL A   1      41.836  19.655  27.807  1.00  0.00    -0.237 OA
ATOM     82  O   UNL A   1      40.137  20.490  26.215  1.00  0.00    -0.237 OA
ATOM     83  O   UNL A   1      42.459  20.141  25.467  1.00  0.00    -0.744 OA
ENDBRANCH  79  80
ENDBRANCH  47  72
BRANCH  59  84
ATOM     84  C   UNL A   1      48.180  28.541  29.098  1.00  0.00     0.058 A 
ATOM     85  C   UNL A   1      48.890  28.066  30.212  1.00  0.00     0.135 A 
ATOM     86  C   UNL A   1      48.874  28.663  27.882  1.00  0.00     0.135 A 
ATOM     87  F   UNL A   1      48.279  27.934  31.400  1.00  0.00    -0.206 F 
ATOM     88  C   UNL A   1      50.244  27.754  30.130  1.00  0.00     0.059 A 
ATOM     89  C   UNL A   1      50.217  28.320  27.768  1.00  0.00     0.059 A 
ATOM     90  F   UNL A   1      48.241  29.100  26.781  1.00  0.00    -0.206 F 
ATOM     91  C   UNL A   1      50.897  27.879  28.901  1.00  0.00     0.060 A 
BRANCH  91  92
ATOM     92  S   UNL A   1      52.644  27.439  28.804  1.00  0.00     0.124 S 
ATOM     93  O   UNL A   1      52.663  26.157  29.500  1.00  0.00    -0.237 OA
ATOM     94  O   UNL A   1      52.870  27.384  27.364  1.00  0.00    -0.237 OA
ATOM     95  O   UNL A   1      53.311  28.538  29.498  1.00  0.00    -0.744 OA
ENDBRANCH  91  92
ENDBRANCH  59  84
ENDBRANCH  33  34
ENDBRANCH  26  28
ENDBRANCH  25  26
ENDBRANCH  24  25
ENDBRANCH  23  24
ENDBRANCH  22  23
ENDBRANCH   1  22
TORSDOF 21
ENDMDL
