MODEL 1
REMARK VINA RESULT:     -12.1      0.000      0.000
REMARK SMILES Cc1cccc(C(=O)OCCOCCOC(=O)c2ccc(-c3c4nc(c(-c5c(F)cc(S(=O)(=O)[O-])cc5F)c5ccc([nH]5)c(-c5c(F)cc(S(=O)(=O)[O-])cc5F)c5nc(c(-c6c(F)cc(S(=O)(=O)[O-])cc6F)c6ccc3[nH]6)C=C5)C=C4)cc2)c1OC[C@@H]1C[C@H]2CC[C@@H]1C2
REMARK SMILES IDX 12 1 11 2 10 3 9 4 7 5 8 6 6 7 1 8 2 9 3 10 84 11 4 12 5 13
REMARK SMILES IDX 85 14 86 15 87 16 88 17 92 18 89 19 91 20 93 21 90 22 13 23
REMARK SMILES IDX 14 24 15 25 16 26 17 27 18 28 19 29 83 30 20 31 82 32 21 33
REMARK SMILES IDX 22 34 23 35 76 36 24 37 81 38 75 39 77 40 25 41 80 42 74 43
REMARK SMILES IDX 73 44 26 46 60 47 39 48 59 49 40 50 43 51 58 52 78 53 41 54
REMARK SMILES IDX 42 55 57 57 79 58 44 59 27 60 28 61 37 62 29 63 30 64 36 65
REMARK SMILES IDX 38 66 31 67 32 68 33 69 34 70 35 71 61 72 62 73 71 74 63 75
REMARK SMILES IDX 64 76 70 77 72 78 65 79 66 80 67 81 68 82 69 83 45 84 46 85
REMARK SMILES IDX 55 86 47 87 48 88 54 89 56 90 49 91 50 92 51 93 52 94 53 95
REMARK H PARENT 77 45 43 56
REMARK Flexibility Score: inf
ROOT
ATOM      1  O   UNL A   1      33.565  27.589  24.299  1.00  0.00    -0.374 OA
ENDROOT
BRANCH   1   2
ATOM      2  C   UNL A   1      33.432  27.101  22.967  1.00  0.00     0.202 C 
BRANCH   2   3
ATOM      3  C   UNL A   1      33.028  25.657  23.084  1.00  0.00     0.261 C 
BRANCH   3   4
ATOM      4  O   UNL A   1      33.898  24.766  22.360  1.00  0.00    -0.460 OA
BRANCH   4   5
ATOM      5  C   UNL A   1      33.735  23.436  22.527  1.00  0.00     0.342 C 
ATOM      6  O   UNL A   1      33.090  22.683  21.828  1.00  0.00    -0.246 OA
BRANCH   5   7
ATOM      7  C   UNL A   1      34.552  22.976  23.672  1.00  0.00     0.102 A 
ATOM      8  C   UNL A   1      34.300  21.633  27.228  1.00  0.00     0.048 C 
ATOM      9  C   UNL A   1      34.846  22.160  25.930  1.00  0.00    -0.008 A 
ATOM     10  C   UNL A   1      36.149  22.690  25.939  1.00  0.00     0.007 A 
ATOM     11  C   UNL A   1      34.050  22.249  24.773  1.00  0.00     0.136 A 
ATOM     12  C   UNL A   1      36.654  23.367  24.835  1.00  0.00     0.001 A 
ATOM     13  C   UNL A   1      35.856  23.516  23.709  1.00  0.00     0.019 A 
BRANCH  11  14
ATOM     14  O   UNL A   1      32.727  21.932  24.917  1.00  0.00    -0.492 OA
BRANCH  14  15
ATOM     15  C   UNL A   1      32.177  20.662  24.514  1.00  0.00     0.233 C 
BRANCH  15  16
ATOM     16  C   UNL A   1      33.063  19.557  23.923  1.00  0.00     0.030 C 
ATOM     17  C   UNL A   1      32.268  18.600  22.984  1.00  0.00     0.011 C 
ATOM     18  C   UNL A   1      33.612  18.549  24.962  1.00  0.00    -0.004 C 
ATOM     19  C   UNL A   1      32.636  17.195  23.497  1.00  0.00    -0.010 C 
ATOM     20  C   UNL A   1      34.808  17.830  24.325  1.00  0.00     0.004 C 
ATOM     21  C   UNL A   1      32.570  17.426  25.000  1.00  0.00     0.007 C 
ATOM     22  C   UNL A   1      34.138  16.935  23.274  1.00  0.00     0.004 C 
ENDBRANCH  15  16
ENDBRANCH  14  15
ENDBRANCH  11  14
ENDBRANCH   5   7
ENDBRANCH   4   5
ENDBRANCH   3   4
ENDBRANCH   2   3
ENDBRANCH   1   2
BRANCH   1  23
ATOM     23  C   UNL A   1      32.658  27.077  25.249  1.00  0.00     0.202 C 
BRANCH  23  24
ATOM     24  C   UNL A   1      32.891  27.627  26.660  1.00  0.00     0.261 C 
BRANCH  24  25
ATOM     25  O   UNL A   1      34.164  28.305  26.747  1.00  0.00    -0.460 OA
BRANCH  25  26
ATOM     26  C   UNL A   1      34.164  29.488  27.433  1.00  0.00     0.338 C 
ATOM     27  O   UNL A   1      33.179  30.191  27.570  1.00  0.00    -0.246 OA
BRANCH  26  28
ATOM     28  C   UNL A   1      35.527  29.780  27.969  1.00  0.00     0.060 A 
ATOM     29  C   UNL A   1      36.634  29.949  27.118  1.00  0.00     0.016 A 
ATOM     30  C   UNL A   1      35.728  29.673  29.340  1.00  0.00     0.016 A 
ATOM     31  C   UNL A   1      37.945  29.852  27.624  1.00  0.00     0.010 A 
ATOM     32  C   UNL A   1      37.006  29.466  29.811  1.00  0.00     0.010 A 
ATOM     33  C   UNL A   1      38.128  29.528  28.963  1.00  0.00    -0.014 A 
BRANCH  33  34
ATOM     34  C   UNL A   1      39.384  29.202  29.657  1.00  0.00     0.031 A 
ATOM     35  C   UNL A   1      39.995  27.890  29.311  1.00  0.00     0.074 A 
ATOM     36  C   UNL A   1      40.165  30.186  30.179  1.00  0.00     0.049 A 
ATOM     37  N   UNL A   1      41.171  27.520  29.667  1.00  0.00    -0.248 NA
ATOM     38  C   UNL A   1      39.313  26.862  28.515  1.00  0.00     0.031 C 
ATOM     39  C   UNL A   1      41.631  30.274  30.157  1.00  0.00     0.029 A 
ATOM     40  N   UNL A   1      39.810  31.366  30.841  1.00  0.00    -0.354 N 
ATOM     41  C   UNL A   1      41.533  26.458  28.874  1.00  0.00     0.074 A 
ATOM     42  C   UNL A   1      40.308  26.002  28.277  1.00  0.00     0.031 C 
ATOM     43  C   UNL A   1      42.044  31.253  30.980  1.00  0.00     0.029 A 
ATOM     44  C   UNL A   1      40.870  31.726  31.690  1.00  0.00     0.049 A 
ATOM     45  H   UNL A   1      38.964  31.860  30.731  1.00  0.00     0.167 HD
ATOM     46  C   UNL A   1      42.861  26.198  28.731  1.00  0.00     0.037 A 
ATOM     47  C   UNL A   1      40.685  31.780  33.037  1.00  0.00     0.037 A 
ATOM     48  C   UNL A   1      43.631  26.967  29.717  1.00  0.00     0.049 A 
ATOM     49  C   UNL A   1      41.552  30.729  33.669  1.00  0.00     0.074 A 
ATOM     50  C   UNL A   1      44.473  28.061  29.643  1.00  0.00     0.029 A 
ATOM     51  N   UNL A   1      43.313  26.809  31.068  1.00  0.00    -0.354 N 
ATOM     52  N   UNL A   1      41.955  29.672  33.015  1.00  0.00    -0.248 NA
ATOM     53  C   UNL A   1      42.152  30.830  34.994  1.00  0.00     0.031 C 
ATOM     54  C   UNL A   1      44.547  28.634  30.950  1.00  0.00     0.029 A 
ATOM     55  C   UNL A   1      43.792  27.862  31.824  1.00  0.00     0.049 A 
ATOM     56  H   UNL A   1      42.811  26.046  31.435  1.00  0.00     0.167 HD
ATOM     57  C   UNL A   1      42.892  29.011  33.743  1.00  0.00     0.074 A 
ATOM     58  C   UNL A   1      42.956  29.750  34.994  1.00  0.00     0.031 C 
ATOM     59  C   UNL A   1      43.549  27.916  33.266  1.00  0.00     0.037 A 
BRANCH  46  60
ATOM     60  C   UNL A   1      43.487  25.366  27.630  1.00  0.00     0.058 A 
ATOM     61  C   UNL A   1      44.335  24.285  27.959  1.00  0.00     0.135 A 
ATOM     62  C   UNL A   1      43.384  25.628  26.243  1.00  0.00     0.135 A 
ATOM     63  F   UNL A   1      44.557  23.947  29.238  1.00  0.00    -0.206 F 
ATOM     64  C   UNL A   1      45.005  23.520  26.998  1.00  0.00     0.059 A 
ATOM     65  C   UNL A   1      44.008  24.847  25.263  1.00  0.00     0.059 A 
ATOM     66  F   UNL A   1      42.727  26.692  25.766  1.00  0.00    -0.206 F 
ATOM     67  C   UNL A   1      44.829  23.800  25.649  1.00  0.00     0.060 A 
BRANCH  67  68
ATOM     68  S   UNL A   1      45.691  22.802  24.418  1.00  0.00     0.124 S 
ATOM     69  O   UNL A   1      46.232  21.720  25.233  1.00  0.00    -0.237 OA
ATOM     70  O   UNL A   1      44.614  22.434  23.506  1.00  0.00    -0.237 OA
ATOM     71  O   UNL A   1      46.682  23.721  23.866  1.00  0.00    -0.744 OA
ENDBRANCH  67  68
ENDBRANCH  46  60
BRANCH  47  72
ATOM     72  C   UNL A   1      39.300  32.246  33.378  1.00  0.00     0.058 A 
ATOM     73  C   UNL A   1      38.991  33.579  33.021  1.00  0.00     0.135 A 
ATOM     74  C   UNL A   1      38.223  31.342  33.409  1.00  0.00     0.135 A 
ATOM     75  F   UNL A   1      39.963  34.504  33.010  1.00  0.00    -0.206 F 
ATOM     76  C   UNL A   1      37.742  33.950  32.518  1.00  0.00     0.059 A 
ATOM     77  C   UNL A   1      36.961  31.694  32.906  1.00  0.00     0.059 A 
ATOM     78  F   UNL A   1      38.431  30.062  33.749  1.00  0.00    -0.206 F 
ATOM     79  C   UNL A   1      36.750  32.981  32.401  1.00  0.00     0.060 A 
BRANCH  79  80
ATOM     80  S   UNL A   1      35.272  33.363  31.411  1.00  0.00     0.124 S 
ATOM     81  O   UNL A   1      35.763  33.174  30.051  1.00  0.00    -0.237 OA
ATOM     82  O   UNL A   1      34.306  32.367  31.867  1.00  0.00    -0.237 OA
ATOM     83  O   UNL A   1      34.963  34.736  31.792  1.00  0.00    -0.744 OA
ENDBRANCH  79  80
ENDBRANCH  47  72
BRANCH  59  84
ATOM     84  C   UNL A   1      44.073  26.837  34.173  1.00  0.00     0.058 A 
ATOM     85  C   UNL A   1      43.231  25.921  34.835  1.00  0.00     0.135 A 
ATOM     86  C   UNL A   1      45.457  26.576  34.276  1.00  0.00     0.135 A 
ATOM     87  F   UNL A   1      41.899  25.948  34.687  1.00  0.00    -0.206 F 
ATOM     88  C   UNL A   1      43.724  24.910  35.647  1.00  0.00     0.059 A 
ATOM     89  C   UNL A   1      45.970  25.520  35.020  1.00  0.00     0.059 A 
ATOM     90  F   UNL A   1      46.367  27.327  33.637  1.00  0.00    -0.206 F 
ATOM     91  C   UNL A   1      45.096  24.724  35.743  1.00  0.00     0.060 A 
BRANCH  91  92
ATOM     92  S   UNL A   1      45.716  23.420  36.809  1.00  0.00     0.124 S 
ATOM     93  O   UNL A   1      47.157  23.564  36.623  1.00  0.00    -0.237 OA
ATOM     94  O   UNL A   1      45.208  23.814  38.121  1.00  0.00    -0.237 OA
ATOM     95  O   UNL A   1      45.122  22.212  36.250  1.00  0.00    -0.744 OA
ENDBRANCH  91  92
ENDBRANCH  59  84
ENDBRANCH  33  34
ENDBRANCH  26  28
ENDBRANCH  25  26
ENDBRANCH  24  25
ENDBRANCH  23  24
ENDBRANCH   1  23
TORSDOF 20
ENDMDL
MODEL 2
REMARK VINA RESULT:     -11.7      1.468      1.992
REMARK SMILES Cc1cccc(C(=O)OCCOCCOC(=O)c2ccc(-c3c4nc(c(-c5c(F)cc(S(=O)(=O)[O-])cc5F)c5ccc([nH]5)c(-c5c(F)cc(S(=O)(=O)[O-])cc5F)c5nc(c(-c6c(F)cc(S(=O)(=O)[O-])cc6F)c6ccc3[nH]6)C=C5)C=C4)cc2)c1OC[C@@H]1C[C@H]2CC[C@@H]1C2
REMARK SMILES IDX 12 1 11 2 10 3 9 4 7 5 8 6 6 7 1 8 2 9 3 10 84 11 4 12 5 13
REMARK SMILES IDX 85 14 86 15 87 16 88 17 92 18 89 19 91 20 93 21 90 22 13 23
REMARK SMILES IDX 14 24 15 25 16 26 17 27 18 28 19 29 83 30 20 31 82 32 21 33
REMARK SMILES IDX 22 34 23 35 76 36 24 37 81 38 75 39 77 40 25 41 80 42 74 43
REMARK SMILES IDX 73 44 26 46 60 47 39 48 59 49 40 50 43 51 58 52 78 53 41 54
REMARK SMILES IDX 42 55 57 57 79 58 44 59 27 60 28 61 37 62 29 63 30 64 36 65
REMARK SMILES IDX 38 66 31 67 32 68 33 69 34 70 35 71 61 72 62 73 71 74 63 75
REMARK SMILES IDX 64 76 70 77 72 78 65 79 66 80 67 81 68 82 69 83 45 84 46 85
REMARK SMILES IDX 55 86 47 87 48 88 54 89 56 90 49 91 50 92 51 93 52 94 53 95
REMARK H PARENT 77 45 43 56
REMARK Flexibility Score: inf
ROOT
ATOM      1  O   UNL A   1      33.435  27.892  24.005  1.00  0.00    -0.374 OA
ENDROOT
BRANCH   1   2
ATOM      2  C   UNL A   1      33.211  27.245  22.756  1.00  0.00     0.202 C 
BRANCH   2   3
ATOM      3  C   UNL A   1      32.913  25.805  23.073  1.00  0.00     0.261 C 
BRANCH   3   4
ATOM      4  O   UNL A   1      33.802  24.885  22.412  1.00  0.00    -0.460 OA
BRANCH   4   5
ATOM      5  C   UNL A   1      33.659  23.566  22.660  1.00  0.00     0.342 C 
ATOM      6  O   UNL A   1      33.093  22.747  21.968  1.00  0.00    -0.246 OA
BRANCH   5   7
ATOM      7  C   UNL A   1      34.391  23.212  23.898  1.00  0.00     0.102 A 
ATOM      8  C   UNL A   1      33.981  21.495  27.274  1.00  0.00     0.048 C 
ATOM      9  C   UNL A   1      34.553  22.271  26.121  1.00  0.00    -0.008 A 
ATOM     10  C   UNL A   1      35.653  23.109  26.381  1.00  0.00     0.007 A 
ATOM     11  C   UNL A   1      33.942  22.275  24.853  1.00  0.00     0.136 A 
ATOM     12  C   UNL A   1      36.118  24.000  25.420  1.00  0.00     0.001 A 
ATOM     13  C   UNL A   1      35.485  24.056  24.186  1.00  0.00     0.019 A 
BRANCH  11  14
ATOM     14  O   UNL A   1      32.744  21.622  24.752  1.00  0.00    -0.492 OA
BRANCH  14  15
ATOM     15  C   UNL A   1      32.608  20.322  24.144  1.00  0.00     0.233 C 
BRANCH  15  16
ATOM     16  C   UNL A   1      33.082  19.049  24.860  1.00  0.00     0.030 C 
ATOM     17  C   UNL A   1      34.552  18.681  24.500  1.00  0.00     0.011 C 
ATOM     18  C   UNL A   1      32.348  17.757  24.425  1.00  0.00    -0.004 C 
ATOM     19  C   UNL A   1      34.472  17.193  24.109  1.00  0.00    -0.010 C 
ATOM     20  C   UNL A   1      32.578  16.703  25.516  1.00  0.00     0.004 C 
ATOM     21  C   UNL A   1      33.196  17.196  23.279  1.00  0.00     0.007 C 
ATOM     22  C   UNL A   1      34.061  16.354  25.334  1.00  0.00     0.004 C 
ENDBRANCH  15  16
ENDBRANCH  14  15
ENDBRANCH  11  14
ENDBRANCH   5   7
ENDBRANCH   4   5
ENDBRANCH   3   4
ENDBRANCH   2   3
ENDBRANCH   1   2
BRANCH   1  23
ATOM     23  C   UNL A   1      33.331  27.088  25.158  1.00  0.00     0.202 C 
BRANCH  23  24
ATOM     24  C   UNL A   1      33.252  27.901  26.454  1.00  0.00     0.261 C 
BRANCH  24  25
ATOM     25  O   UNL A   1      34.564  28.345  26.866  1.00  0.00    -0.460 OA
BRANCH  25  26
ATOM     26  C   UNL A   1      34.607  29.535  27.539  1.00  0.00     0.338 C 
ATOM     27  O   UNL A   1      33.653  30.283  27.651  1.00  0.00    -0.246 OA
BRANCH  26  28
ATOM     28  C   UNL A   1      35.972  29.770  28.095  1.00  0.00     0.060 A 
ATOM     29  C   UNL A   1      37.084  29.981  27.258  1.00  0.00     0.016 A 
ATOM     30  C   UNL A   1      36.169  29.567  29.455  1.00  0.00     0.016 A 
ATOM     31  C   UNL A   1      38.392  29.831  27.758  1.00  0.00     0.010 A 
ATOM     32  C   UNL A   1      37.444  29.312  29.913  1.00  0.00     0.010 A 
ATOM     33  C   UNL A   1      38.568  29.415  29.072  1.00  0.00    -0.014 A 
BRANCH  33  34
ATOM     34  C   UNL A   1      39.818  29.024  29.744  1.00  0.00     0.031 A 
ATOM     35  C   UNL A   1      40.364  27.690  29.374  1.00  0.00     0.074 A 
ATOM     36  C   UNL A   1      40.649  29.966  30.265  1.00  0.00     0.049 A 
ATOM     37  N   UNL A   1      41.527  27.264  29.708  1.00  0.00    -0.248 NA
ATOM     38  C   UNL A   1      39.625  26.704  28.577  1.00  0.00     0.031 C 
ATOM     39  C   UNL A   1      42.117  29.988  30.222  1.00  0.00     0.029 A 
ATOM     40  N   UNL A   1      40.357  31.153  30.945  1.00  0.00    -0.354 N 
ATOM     41  C   UNL A   1      41.830  26.197  28.899  1.00  0.00     0.074 A 
ATOM     42  C   UNL A   1      40.577  25.803  28.314  1.00  0.00     0.031 C 
ATOM     43  C   UNL A   1      42.586  30.938  31.050  1.00  0.00     0.029 A 
ATOM     44  C   UNL A   1      41.445  31.455  31.783  1.00  0.00     0.049 A 
ATOM     45  H   UNL A   1      39.533  31.685  30.854  1.00  0.00     0.167 HD
ATOM     46  C   UNL A   1      43.143  25.878  28.733  1.00  0.00     0.037 A 
ATOM     47  C   UNL A   1      41.282  31.502  33.133  1.00  0.00     0.037 A 
ATOM     48  C   UNL A   1      43.961  26.601  29.716  1.00  0.00     0.049 A 
ATOM     49  C   UNL A   1      42.109  30.406  33.740  1.00  0.00     0.074 A 
ATOM     50  C   UNL A   1      44.849  27.657  29.641  1.00  0.00     0.029 A 
ATOM     51  N   UNL A   1      43.656  26.442  31.070  1.00  0.00    -0.354 N 
ATOM     52  N   UNL A   1      42.455  29.339  33.069  1.00  0.00    -0.248 NA
ATOM     53  C   UNL A   1      42.733  30.463  35.057  1.00  0.00     0.031 C 
ATOM     54  C   UNL A   1      44.968  28.211  30.954  1.00  0.00     0.029 A 
ATOM     55  C   UNL A   1      44.192  27.463  31.830  1.00  0.00     0.049 A 
ATOM     56  H   UNL A   1      43.125  25.698  31.436  1.00  0.00     0.167 HD
ATOM     57  C   UNL A   1      43.372  28.629  33.775  1.00  0.00     0.074 A 
ATOM     58  C   UNL A   1      43.487  29.349  35.033  1.00  0.00     0.031 C 
ATOM     59  C   UNL A   1      43.972  27.511  33.276  1.00  0.00     0.037 A 
BRANCH  46  60
ATOM     60  C   UNL A   1      43.715  25.033  27.614  1.00  0.00     0.058 A 
ATOM     61  C   UNL A   1      44.444  23.862  27.917  1.00  0.00     0.135 A 
ATOM     62  C   UNL A   1      43.676  25.357  26.237  1.00  0.00     0.135 A 
ATOM     63  F   UNL A   1      44.598  23.455  29.186  1.00  0.00    -0.206 F 
ATOM     64  C   UNL A   1      45.063  23.073  26.942  1.00  0.00     0.059 A 
ATOM     65  C   UNL A   1      44.247  24.557  25.240  1.00  0.00     0.059 A 
ATOM     66  F   UNL A   1      43.139  26.498  25.789  1.00  0.00    -0.206 F 
ATOM     67  C   UNL A   1      44.952  23.421  25.601  1.00  0.00     0.060 A 
BRANCH  67  68
ATOM     68  S   UNL A   1      45.746  22.391  24.351  1.00  0.00     0.124 S 
ATOM     69  O   UNL A   1      46.655  23.338  23.714  1.00  0.00    -0.237 OA
ATOM     70  O   UNL A   1      46.375  21.351  25.158  1.00  0.00    -0.237 OA
ATOM     71  O   UNL A   1      44.633  21.942  23.521  1.00  0.00    -0.744 OA
ENDBRANCH  67  68
ENDBRANCH  46  60
BRANCH  47  72
ATOM     72  C   UNL A   1      39.924  32.025  33.500  1.00  0.00     0.058 A 
ATOM     73  C   UNL A   1      39.040  31.090  34.085  1.00  0.00     0.135 A 
ATOM     74  C   UNL A   1      39.746  33.370  33.870  1.00  0.00     0.135 A 
ATOM     75  F   UNL A   1      39.126  29.794  33.746  1.00  0.00    -0.206 F 
ATOM     76  C   UNL A   1      38.177  31.427  35.131  1.00  0.00     0.059 A 
ATOM     77  C   UNL A   1      38.887  33.729  34.920  1.00  0.00     0.059 A 
ATOM     78  F   UNL A   1      40.538  34.319  33.351  1.00  0.00    -0.206 F 
ATOM     79  C   UNL A   1      38.157  32.741  35.588  1.00  0.00     0.060 A 
BRANCH  79  80
ATOM     80  S   UNL A   1      37.333  33.100  37.170  1.00  0.00     0.124 S 
ATOM     81  O   UNL A   1      38.223  34.096  37.754  1.00  0.00    -0.237 OA
ATOM     82  O   UNL A   1      36.026  33.603  36.752  1.00  0.00    -0.237 OA
ATOM     83  O   UNL A   1      37.306  31.802  37.833  1.00  0.00    -0.744 OA
ENDBRANCH  79  80
ENDBRANCH  47  72
BRANCH  59  84
ATOM     84  C   UNL A   1      44.460  26.398  34.163  1.00  0.00     0.058 A 
ATOM     85  C   UNL A   1      43.587  25.551  34.874  1.00  0.00     0.135 A 
ATOM     86  C   UNL A   1      45.824  26.035  34.197  1.00  0.00     0.135 A 
ATOM     87  F   UNL A   1      42.255  25.677  34.795  1.00  0.00    -0.206 F 
ATOM     88  C   UNL A   1      44.044  24.508  35.668  1.00  0.00     0.059 A 
ATOM     89  C   UNL A   1      46.294  24.946  34.921  1.00  0.00     0.059 A 
ATOM     90  F   UNL A   1      46.753  26.712  33.506  1.00  0.00    -0.206 F 
ATOM     91  C   UNL A   1      45.402  24.220  35.694  1.00  0.00     0.060 A 
BRANCH  91  92
ATOM     92  S   UNL A   1      45.977  22.878  36.737  1.00  0.00     0.124 S 
ATOM     93  O   UNL A   1      45.436  23.276  38.034  1.00  0.00    -0.237 OA
ATOM     94  O   UNL A   1      45.351  21.709  36.125  1.00  0.00    -0.237 OA
ATOM     95  O   UNL A   1      47.427  22.945  36.609  1.00  0.00    -0.744 OA
ENDBRANCH  91  92
ENDBRANCH  59  84
ENDBRANCH  33  34
ENDBRANCH  26  28
ENDBRANCH  25  26
ENDBRANCH  24  25
ENDBRANCH  23  24
ENDBRANCH   1  23
TORSDOF 20
ENDMDL
MODEL 3
REMARK VINA RESULT:     -11.6      3.833     10.132
REMARK SMILES Cc1cccc(C(=O)OCCOCCOC(=O)c2ccc(-c3c4nc(c(-c5c(F)cc(S(=O)(=O)[O-])cc5F)c5ccc([nH]5)c(-c5c(F)cc(S(=O)(=O)[O-])cc5F)c5nc(c(-c6c(F)cc(S(=O)(=O)[O-])cc6F)c6ccc3[nH]6)C=C5)C=C4)cc2)c1OC[C@@H]1C[C@H]2CC[C@@H]1C2
REMARK SMILES IDX 12 1 11 2 10 3 9 4 7 5 8 6 6 7 1 8 2 9 3 10 84 11 4 12 5 13
REMARK SMILES IDX 85 14 86 15 87 16 88 17 92 18 89 19 91 20 93 21 90 22 13 23
REMARK SMILES IDX 14 24 15 25 16 26 17 27 18 28 19 29 83 30 20 31 82 32 21 33
REMARK SMILES IDX 22 34 23 35 76 36 24 37 81 38 75 39 77 40 25 41 80 42 74 43
REMARK SMILES IDX 73 44 26 46 60 47 39 48 59 49 40 50 43 51 58 52 78 53 41 54
REMARK SMILES IDX 42 55 57 57 79 58 44 59 27 60 28 61 37 62 29 63 30 64 36 65
REMARK SMILES IDX 38 66 31 67 32 68 33 69 34 70 35 71 61 72 62 73 71 74 63 75
REMARK SMILES IDX 64 76 70 77 72 78 65 79 66 80 67 81 68 82 69 83 45 84 46 85
REMARK SMILES IDX 55 86 47 87 48 88 54 89 56 90 49 91 50 92 51 93 52 94 53 95
REMARK H PARENT 77 45 43 56
REMARK Flexibility Score: inf
ROOT
ATOM      1  O   UNL A   1      33.060  22.831  26.667  1.00  0.00    -0.374 OA
ENDROOT
BRANCH   1   2
ATOM      2  C   UNL A   1      31.792  22.986  26.036  1.00  0.00     0.202 C 
BRANCH   2   3
ATOM      3  C   UNL A   1      31.998  23.953  24.903  1.00  0.00     0.261 C 
BRANCH   3   4
ATOM      4  O   UNL A   1      30.870  24.824  24.692  1.00  0.00    -0.460 OA
BRANCH   4   5
ATOM      5  C   UNL A   1      30.574  25.732  25.646  1.00  0.00     0.342 C 
ATOM      6  O   UNL A   1      29.746  25.628  26.526  1.00  0.00    -0.246 OA
BRANCH   5   7
ATOM      7  C   UNL A   1      31.493  26.888  25.532  1.00  0.00     0.102 A 
ATOM      8  C   UNL A   1      33.447  28.966  23.007  1.00  0.00     0.048 C 
ATOM      9  C   UNL A   1      32.906  28.413  24.296  1.00  0.00    -0.008 A 
ATOM     10  C   UNL A   1      33.636  28.668  25.471  1.00  0.00     0.007 A 
ATOM     11  C   UNL A   1      31.789  27.559  24.326  1.00  0.00     0.136 A 
ATOM     12  C   UNL A   1      33.313  28.037  26.667  1.00  0.00     0.001 A 
ATOM     13  C   UNL A   1      32.249  27.145  26.695  1.00  0.00     0.019 A 
BRANCH  11  14
ATOM     14  O   UNL A   1      31.284  27.173  23.114  1.00  0.00    -0.492 OA
BRANCH  14  15
ATOM     15  C   UNL A   1      30.032  27.664  22.593  1.00  0.00     0.233 C 
BRANCH  15  16
ATOM     16  C   UNL A   1      29.289  28.829  23.261  1.00  0.00     0.030 C 
ATOM     17  C   UNL A   1      27.774  28.850  22.898  1.00  0.00     0.011 C 
ATOM     18  C   UNL A   1      29.722  30.232  22.770  1.00  0.00    -0.004 C 
ATOM     19  C   UNL A   1      27.526  30.302  22.448  1.00  0.00    -0.010 C 
ATOM     20  C   UNL A   1      29.263  31.253  23.819  1.00  0.00     0.004 C 
ATOM     21  C   UNL A   1      28.773  30.546  21.609  1.00  0.00     0.007 C 
ATOM     22  C   UNL A   1      27.740  31.260  23.635  1.00  0.00     0.004 C 
ENDBRANCH  15  16
ENDBRANCH  14  15
ENDBRANCH  11  14
ENDBRANCH   5   7
ENDBRANCH   4   5
ENDBRANCH   3   4
ENDBRANCH   2   3
ENDBRANCH   1   2
BRANCH   1  23
ATOM     23  C   UNL A   1      34.091  23.685  26.224  1.00  0.00     0.202 C 
BRANCH  23  24
ATOM     24  C   UNL A   1      35.436  22.971  26.062  1.00  0.00     0.261 C 
BRANCH  24  25
ATOM     25  O   UNL A   1      36.509  23.923  25.885  1.00  0.00    -0.460 OA
BRANCH  25  26
ATOM     26  C   UNL A   1      37.754  23.391  25.694  1.00  0.00     0.338 C 
ATOM     27  O   UNL A   1      37.983  22.457  24.947  1.00  0.00    -0.246 OA
BRANCH  26  28
ATOM     28  C   UNL A   1      38.762  24.111  26.527  1.00  0.00     0.060 A 
ATOM     29  C   UNL A   1      38.580  24.296  27.910  1.00  0.00     0.016 A 
ATOM     30  C   UNL A   1      39.790  24.783  25.877  1.00  0.00     0.016 A 
ATOM     31  C   UNL A   1      39.322  25.270  28.604  1.00  0.00     0.010 A 
ATOM     32  C   UNL A   1      40.433  25.810  26.533  1.00  0.00     0.010 A 
ATOM     33  C   UNL A   1      40.195  26.086  27.893  1.00  0.00    -0.014 A 
BRANCH  33  34
ATOM     34  C   UNL A   1      40.928  27.270  28.369  1.00  0.00     0.031 A 
ATOM     35  C   UNL A   1      40.126  28.514  28.517  1.00  0.00     0.074 A 
ATOM     36  C   UNL A   1      42.086  27.133  29.070  1.00  0.00     0.049 A 
ATOM     37  N   UNL A   1      40.542  29.583  29.092  1.00  0.00    -0.248 NA
ATOM     38  C   UNL A   1      38.752  28.658  28.019  1.00  0.00     0.031 C 
ATOM     39  C   UNL A   1      42.525  27.910  30.236  1.00  0.00     0.029 A 
ATOM     40  N   UNL A   1      43.143  26.232  28.903  1.00  0.00    -0.354 N 
ATOM     41  C   UNL A   1      39.446  30.359  29.377  1.00  0.00     0.074 A 
ATOM     42  C   UNL A   1      38.384  29.815  28.577  1.00  0.00     0.031 C 
ATOM     43  C   UNL A   1      43.818  27.655  30.497  1.00  0.00     0.029 A 
ATOM     44  C   UNL A   1      44.310  26.829  29.410  1.00  0.00     0.049 A 
ATOM     45  H   UNL A   1      43.081  25.335  28.500  1.00  0.00     0.167 HD
ATOM     46  C   UNL A   1      39.564  31.284  30.369  1.00  0.00     0.037 A 
ATOM     47  C   UNL A   1      45.365  27.084  28.589  1.00  0.00     0.037 A 
ATOM     48  C   UNL A   1      40.977  31.443  30.739  1.00  0.00     0.049 A 
ATOM     49  C   UNL A   1      45.555  28.573  28.525  1.00  0.00     0.074 A 
ATOM     50  C   UNL A   1      41.733  31.080  31.837  1.00  0.00     0.029 A 
ATOM     51  N   UNL A   1      41.885  31.783  29.734  1.00  0.00    -0.354 N 
ATOM     52  N   UNL A   1      44.583  29.412  28.771  1.00  0.00    -0.248 NA
ATOM     53  C   UNL A   1      46.836  29.243  28.334  1.00  0.00     0.031 C 
ATOM     54  C   UNL A   1      43.104  31.081  31.432  1.00  0.00     0.029 A 
ATOM     55  C   UNL A   1      43.182  31.491  30.107  1.00  0.00     0.049 A 
ATOM     56  H   UNL A   1      41.634  32.181  28.868  1.00  0.00     0.167 HD
ATOM     57  C   UNL A   1      45.077  30.674  28.859  1.00  0.00     0.074 A 
ATOM     58  C   UNL A   1      46.488  30.526  28.539  1.00  0.00     0.031 C 
ATOM     59  C   UNL A   1      44.298  31.741  29.193  1.00  0.00     0.037 A 
BRANCH  46  60
ATOM     60  C   UNL A   1      38.417  31.947  31.104  1.00  0.00     0.058 A 
ATOM     61  C   UNL A   1      37.741  33.038  30.516  1.00  0.00     0.135 A 
ATOM     62  C   UNL A   1      37.994  31.635  32.418  1.00  0.00     0.135 A 
ATOM     63  F   UNL A   1      38.064  33.469  29.288  1.00  0.00    -0.206 F 
ATOM     64  C   UNL A   1      36.722  33.745  31.165  1.00  0.00     0.059 A 
ATOM     65  C   UNL A   1      36.946  32.298  33.067  1.00  0.00     0.059 A 
ATOM     66  F   UNL A   1      38.614  30.716  33.166  1.00  0.00    -0.206 F 
ATOM     67  C   UNL A   1      36.322  33.362  32.439  1.00  0.00     0.060 A 
BRANCH  67  68
ATOM     68  S   UNL A   1      35.002  34.275  33.263  1.00  0.00     0.124 S 
ATOM     69  O   UNL A   1      34.896  33.570  34.536  1.00  0.00    -0.237 OA
ATOM     70  O   UNL A   1      35.551  35.625  33.327  1.00  0.00    -0.237 OA
ATOM     71  O   UNL A   1      33.862  34.113  32.365  1.00  0.00    -0.744 OA
ENDBRANCH  67  68
ENDBRANCH  46  60
BRANCH  47  72
ATOM     72  C   UNL A   1      45.498  26.031  27.529  1.00  0.00     0.058 A 
ATOM     73  C   UNL A   1      45.934  24.761  27.972  1.00  0.00     0.135 A 
ATOM     74  C   UNL A   1      44.672  26.046  26.391  1.00  0.00     0.135 A 
ATOM     75  F   UNL A   1      46.758  24.675  29.028  1.00  0.00    -0.206 F 
ATOM     76  C   UNL A   1      45.417  23.570  27.458  1.00  0.00     0.059 A 
ATOM     77  C   UNL A   1      44.140  24.860  25.861  1.00  0.00     0.059 A 
ATOM     78  F   UNL A   1      44.225  27.211  25.902  1.00  0.00    -0.206 F 
ATOM     79  C   UNL A   1      44.466  23.632  26.444  1.00  0.00     0.060 A 
BRANCH  79  80
ATOM     80  S   UNL A   1      43.525  22.128  26.040  1.00  0.00     0.124 S 
ATOM     81  O   UNL A   1      42.674  22.589  24.949  1.00  0.00    -0.237 OA
ATOM     82  O   UNL A   1      44.569  21.181  25.657  1.00  0.00    -0.237 OA
ATOM     83  O   UNL A   1      42.844  21.817  27.291  1.00  0.00    -0.744 OA
ENDBRANCH  79  80
ENDBRANCH  47  72
BRANCH  59  84
ATOM     84  C   UNL A   1      44.597  33.135  28.712  1.00  0.00     0.058 A 
ATOM     85  C   UNL A   1      45.069  34.151  29.565  1.00  0.00     0.135 A 
ATOM     86  C   UNL A   1      44.580  33.452  27.336  1.00  0.00     0.135 A 
ATOM     87  F   UNL A   1      45.295  33.935  30.868  1.00  0.00    -0.206 F 
ATOM     88  C   UNL A   1      45.370  35.426  29.108  1.00  0.00     0.059 A 
ATOM     89  C   UNL A   1      44.954  34.699  26.848  1.00  0.00     0.059 A 
ATOM     90  F   UNL A   1      44.220  32.554  26.407  1.00  0.00    -0.206 F 
ATOM     91  C   UNL A   1      45.298  35.695  27.748  1.00  0.00     0.060 A 
BRANCH  91  92
ATOM     92  S   UNL A   1      45.677  37.353  27.177  1.00  0.00     0.124 S 
ATOM     93  O   UNL A   1      46.427  37.068  25.957  1.00  0.00    -0.237 OA
ATOM     94  O   UNL A   1      44.351  37.932  26.980  1.00  0.00    -0.237 OA
ATOM     95  O   UNL A   1      46.447  37.924  28.275  1.00  0.00    -0.744 OA
ENDBRANCH  91  92
ENDBRANCH  59  84
ENDBRANCH  33  34
ENDBRANCH  26  28
ENDBRANCH  25  26
ENDBRANCH  24  25
ENDBRANCH  23  24
ENDBRANCH   1  23
TORSDOF 20
ENDMDL
