MODEL 1
REMARK VINA RESULT:     -10.9      0.000      0.000
REMARK SMILES COc1ccc([C@H](C(=O)OCCOCCOC(=O)c2ccc(-c3c4nc(c(-c5c(F)cc(S(=O)(=O)[O-])cc5F)c5ccc([nH]5)c(-c5c(F)cc(S(=O)(=O)[O-])cc5F)c5nc(c(-c6c(F)cc(S(=O)(=O)[O-])cc6F)c6ccc3[nH]6)C=C5)C=C4)cc2)c2ccc(O)nn2)cc1
REMARK SMILES IDX 14 1 13 2 12 3 11 4 10 5 8 6 9 7 7 8 6 9 3 10 4 11 93 12
REMARK SMILES IDX 5 13 92 14 2 15 1 16 85 17 86 18 91 19 87 20 90 21 88 22
REMARK SMILES IDX 89 23 15 25 16 26 17 27 18 28 19 29 20 30 84 31 21 32 83 33
REMARK SMILES IDX 22 34 23 35 24 36 77 37 25 38 82 39 76 40 78 41 26 42 81 43
REMARK SMILES IDX 75 44 74 45 27 47 61 48 40 49 60 50 41 51 44 52 59 53 79 54
REMARK SMILES IDX 42 55 43 56 58 58 80 59 45 60 28 61 29 62 38 63 30 64 31 65
REMARK SMILES IDX 37 66 39 67 32 68 33 69 34 70 35 71 36 72 62 73 63 74 72 75
REMARK SMILES IDX 64 76 65 77 71 78 73 79 66 80 67 81 68 82 69 83 70 84 46 85
REMARK SMILES IDX 47 86 56 87 48 88 49 89 55 90 57 91 50 92 51 93 52 94 53 95
REMARK SMILES IDX 54 96
REMARK H PARENT 89 24 78 46 44 57
REMARK Flexibility Score: inf
ROOT
ATOM      1  C   UNL A   1      38.601  22.033  25.864  1.00  0.00     0.202 C 
ENDROOT
BRANCH   1   2
ATOM      2  O   UNL A   1      37.351  22.664  25.587  1.00  0.00    -0.374 OA
BRANCH   2   3
ATOM      3  C   UNL A   1      36.704  22.352  24.349  1.00  0.00     0.202 C 
BRANCH   3   4
ATOM      4  C   UNL A   1      35.858  23.479  23.760  1.00  0.00     0.261 C 
BRANCH   4   5
ATOM      5  O   UNL A   1      35.311  24.242  24.843  1.00  0.00    -0.462 OA
BRANCH   5   6
ATOM      6  C   UNL A   1      34.298  25.089  24.516  1.00  0.00     0.319 C 
ATOM      7  O   UNL A   1      34.036  25.415  23.364  1.00  0.00    -0.251 OA
BRANCH   6   8
ATOM      8  C   UNL A   1      33.524  25.515  25.775  1.00  0.00     0.180 C 
BRANCH   8   9
ATOM      9  C   UNL A   1      33.276  27.020  25.917  1.00  0.00    -0.027 A 
ATOM     10  C   UNL A   1      32.789  29.779  26.296  1.00  0.00     0.118 A 
ATOM     11  C   UNL A   1      33.906  29.178  26.871  1.00  0.00     0.047 A 
ATOM     12  C   UNL A   1      31.976  29.035  25.450  1.00  0.00     0.047 A 
ATOM     13  C   UNL A   1      34.157  27.815  26.674  1.00  0.00     0.009 A 
ATOM     14  C   UNL A   1      32.214  27.671  25.266  1.00  0.00     0.009 A 
BRANCH  10  15
ATOM     15  O   UNL A   1      32.586  31.096  26.604  1.00  0.00    -0.497 OA
ATOM     16  C   UNL A   1      31.255  31.555  26.359  1.00  0.00     0.278 C 
ENDBRANCH  10  15
ENDBRANCH   8   9
BRANCH   8  17
ATOM     17  C   UNL A   1      32.286  24.632  25.837  1.00  0.00     0.082 A 
ATOM     18  C   UNL A   1      32.167  23.470  25.077  1.00  0.00     0.032 A 
ATOM     19  N   UNL A   1      31.384  24.932  26.811  1.00  0.00    -0.151 NA
ATOM     20  C   UNL A   1      31.139  22.586  25.365  1.00  0.00     0.072 A 
ATOM     21  N   UNL A   1      30.385  24.056  27.104  1.00  0.00    -0.112 NA
ATOM     22  C   UNL A   1      30.301  22.913  26.402  1.00  0.00     0.230 A 
BRANCH  22  23
ATOM     23  O   UNL A   1      29.350  22.037  26.822  1.00  0.00    -0.492 OA
ATOM     24  H   UNL A   1      28.454  22.306  26.870  1.00  0.00     0.295 HD
ENDBRANCH  22  23
ENDBRANCH   8  17
ENDBRANCH   6   8
ENDBRANCH   5   6
ENDBRANCH   4   5
ENDBRANCH   3   4
ENDBRANCH   2   3
ENDBRANCH   1   2
BRANCH   1  25
ATOM     25  C   UNL A   1      39.719  22.927  26.414  1.00  0.00     0.261 C 
BRANCH  25  26
ATOM     26  O   UNL A   1      39.350  24.314  26.512  1.00  0.00    -0.460 OA
BRANCH  26  27
ATOM     27  C   UNL A   1      40.386  25.178  26.394  1.00  0.00     0.338 C 
ATOM     28  O   UNL A   1      41.054  25.396  25.388  1.00  0.00    -0.246 OA
BRANCH  27  29
ATOM     29  C   UNL A   1      40.533  25.980  27.620  1.00  0.00     0.060 A 
ATOM     30  C   UNL A   1      39.530  25.873  28.591  1.00  0.00     0.016 A 
ATOM     31  C   UNL A   1      41.576  26.896  27.774  1.00  0.00     0.016 A 
ATOM     32  C   UNL A   1      39.542  26.712  29.703  1.00  0.00     0.010 A 
ATOM     33  C   UNL A   1      41.580  27.746  28.886  1.00  0.00     0.010 A 
ATOM     34  C   UNL A   1      40.545  27.680  29.838  1.00  0.00    -0.014 A 
BRANCH  34  35
ATOM     35  C   UNL A   1      40.430  28.708  30.900  1.00  0.00     0.031 A 
ATOM     36  C   UNL A   1      41.323  28.617  32.108  1.00  0.00     0.074 A 
ATOM     37  C   UNL A   1      39.563  29.729  30.774  1.00  0.00     0.049 A 
ATOM     38  N   UNL A   1      41.372  29.389  33.163  1.00  0.00    -0.248 NA
ATOM     39  C   UNL A   1      42.290  27.507  32.129  1.00  0.00     0.031 C 
ATOM     40  C   UNL A   1      38.675  29.946  29.634  1.00  0.00     0.029 A 
ATOM     41  N   UNL A   1      39.285  30.772  31.622  1.00  0.00    -0.354 N 
ATOM     42  C   UNL A   1      42.368  28.857  33.974  1.00  0.00     0.074 A 
ATOM     43  C   UNL A   1      42.879  27.682  33.303  1.00  0.00     0.031 C 
ATOM     44  C   UNL A   1      37.940  31.049  29.858  1.00  0.00     0.029 A 
ATOM     45  C   UNL A   1      38.285  31.598  31.168  1.00  0.00     0.049 A 
ATOM     46  H   UNL A   1      39.757  30.916  32.473  1.00  0.00     0.167 HD
ATOM     47  C   UNL A   1      42.821  29.314  35.166  1.00  0.00     0.037 A 
ATOM     48  C   UNL A   1      37.701  32.663  31.753  1.00  0.00     0.037 A 
ATOM     49  C   UNL A   1      42.312  30.486  35.829  1.00  0.00     0.049 A 
ATOM     50  C   UNL A   1      38.180  33.117  33.108  1.00  0.00     0.074 A 
ATOM     51  C   UNL A   1      42.717  31.040  37.031  1.00  0.00     0.029 A 
ATOM     52  N   UNL A   1      41.280  31.281  35.352  1.00  0.00    -0.354 N 
ATOM     53  N   UNL A   1      39.136  32.618  33.855  1.00  0.00    -0.248 NA
ATOM     54  C   UNL A   1      37.502  34.280  33.699  1.00  0.00     0.031 C 
ATOM     55  C   UNL A   1      41.901  32.144  37.302  1.00  0.00     0.029 A 
ATOM     56  C   UNL A   1      41.020  32.307  36.245  1.00  0.00     0.049 A 
ATOM     57  H   UNL A   1      40.804  31.137  34.502  1.00  0.00     0.167 HD
ATOM     58  C   UNL A   1      39.192  33.421  34.990  1.00  0.00     0.074 A 
ATOM     59  C   UNL A   1      38.179  34.443  34.828  1.00  0.00     0.031 C 
ATOM     60  C   UNL A   1      40.010  33.322  36.067  1.00  0.00     0.037 A 
BRANCH  47  61
ATOM     61  C   UNL A   1      43.910  28.529  35.844  1.00  0.00     0.058 A 
ATOM     62  C   UNL A   1      45.267  28.824  35.646  1.00  0.00     0.135 A 
ATOM     63  C   UNL A   1      43.589  27.486  36.729  1.00  0.00     0.135 A 
ATOM     64  F   UNL A   1      45.629  29.801  34.798  1.00  0.00    -0.206 F 
ATOM     65  C   UNL A   1      46.270  28.098  36.281  1.00  0.00     0.059 A 
ATOM     66  C   UNL A   1      44.575  26.763  37.394  1.00  0.00     0.059 A 
ATOM     67  F   UNL A   1      42.306  27.161  36.952  1.00  0.00    -0.206 F 
ATOM     68  C   UNL A   1      45.913  27.068  37.152  1.00  0.00     0.060 A 
BRANCH  68  69
ATOM     69  S   UNL A   1      47.225  26.135  37.972  1.00  0.00     0.124 S 
ATOM     70  O   UNL A   1      48.359  27.042  37.826  1.00  0.00    -0.237 OA
ATOM     71  O   UNL A   1      46.702  25.987  39.326  1.00  0.00    -0.237 OA
ATOM     72  O   UNL A   1      47.303  24.904  37.195  1.00  0.00    -0.744 OA
ENDBRANCH  68  69
ENDBRANCH  47  61
BRANCH  48  73
ATOM     73  C   UNL A   1      36.587  33.368  31.066  1.00  0.00     0.058 A 
ATOM     74  C   UNL A   1      36.824  34.199  29.962  1.00  0.00     0.135 A 
ATOM     75  C   UNL A   1      35.260  33.215  31.499  1.00  0.00     0.135 A 
ATOM     76  F   UNL A   1      38.076  34.383  29.517  1.00  0.00    -0.206 F 
ATOM     77  C   UNL A   1      35.787  34.865  29.316  1.00  0.00     0.059 A 
ATOM     78  C   UNL A   1      34.204  33.852  30.856  1.00  0.00     0.059 A 
ATOM     79  F   UNL A   1      34.979  32.420  32.543  1.00  0.00    -0.206 F 
ATOM     80  C   UNL A   1      34.479  34.682  29.770  1.00  0.00     0.060 A 
BRANCH  80  81
ATOM     81  S   UNL A   1      33.132  35.504  28.892  1.00  0.00     0.124 S 
ATOM     82  O   UNL A   1      33.862  36.451  28.057  1.00  0.00    -0.237 OA
ATOM     83  O   UNL A   1      32.497  34.392  28.192  1.00  0.00    -0.237 OA
ATOM     84  O   UNL A   1      32.341  36.090  29.970  1.00  0.00    -0.744 OA
ENDBRANCH  80  81
ENDBRANCH  48  73
BRANCH  60  85
ATOM     85  C   UNL A   1      39.871  34.363  37.143  1.00  0.00     0.058 A 
ATOM     86  C   UNL A   1      40.473  35.625  37.031  1.00  0.00     0.135 A 
ATOM     87  C   UNL A   1      39.076  34.113  38.275  1.00  0.00     0.135 A 
ATOM     88  F   UNL A   1      41.247  35.914  35.974  1.00  0.00    -0.206 F 
ATOM     89  C   UNL A   1      40.308  36.597  38.014  1.00  0.00     0.059 A 
ATOM     90  C   UNL A   1      38.878  35.078  39.256  1.00  0.00     0.059 A 
ATOM     91  F   UNL A   1      38.470  32.924  38.425  1.00  0.00    -0.206 F 
ATOM     92  C   UNL A   1      39.508  36.315  39.122  1.00  0.00     0.060 A 
BRANCH  92  93
ATOM     93  S   UNL A   1      39.273  37.596  40.372  1.00  0.00     0.124 S 
ATOM     94  O   UNL A   1      38.799  36.814  41.509  1.00  0.00    -0.237 OA
ATOM     95  O   UNL A   1      40.616  38.156  40.503  1.00  0.00    -0.237 OA
ATOM     96  O   UNL A   1      38.288  38.486  39.766  1.00  0.00    -0.744 OA
ENDBRANCH  92  93
ENDBRANCH  60  85
ENDBRANCH  34  35
ENDBRANCH  27  29
ENDBRANCH  26  27
ENDBRANCH  25  26
ENDBRANCH   1  25
TORSDOF 21
ENDMDL
MODEL 2
REMARK VINA RESULT:     -10.6      1.776      3.833
REMARK SMILES COc1ccc([C@H](C(=O)OCCOCCOC(=O)c2ccc(-c3c4nc(c(-c5c(F)cc(S(=O)(=O)[O-])cc5F)c5ccc([nH]5)c(-c5c(F)cc(S(=O)(=O)[O-])cc5F)c5nc(c(-c6c(F)cc(S(=O)(=O)[O-])cc6F)c6ccc3[nH]6)C=C5)C=C4)cc2)c2ccc(O)nn2)cc1
REMARK SMILES IDX 14 1 13 2 12 3 11 4 10 5 8 6 9 7 7 8 6 9 3 10 4 11 93 12
REMARK SMILES IDX 5 13 92 14 2 15 1 16 85 17 86 18 91 19 87 20 90 21 88 22
REMARK SMILES IDX 89 23 15 25 16 26 17 27 18 28 19 29 20 30 84 31 21 32 83 33
REMARK SMILES IDX 22 34 23 35 24 36 77 37 25 38 82 39 76 40 78 41 26 42 81 43
REMARK SMILES IDX 75 44 74 45 27 47 61 48 40 49 60 50 41 51 44 52 59 53 79 54
REMARK SMILES IDX 42 55 43 56 58 58 80 59 45 60 28 61 29 62 38 63 30 64 31 65
REMARK SMILES IDX 37 66 39 67 32 68 33 69 34 70 35 71 36 72 62 73 63 74 72 75
REMARK SMILES IDX 64 76 65 77 71 78 73 79 66 80 67 81 68 82 69 83 70 84 46 85
REMARK SMILES IDX 47 86 56 87 48 88 49 89 55 90 57 91 50 92 51 93 52 94 53 95
REMARK SMILES IDX 54 96
REMARK H PARENT 89 24 78 46 44 57
REMARK Flexibility Score: inf
ROOT
ATOM      1  C   UNL A   1      39.339  21.588  26.126  1.00  0.00     0.202 C 
ENDROOT
BRANCH   1   2
ATOM      2  O   UNL A   1      38.090  22.278  26.164  1.00  0.00    -0.374 OA
BRANCH   2   3
ATOM      3  C   UNL A   1      37.578  22.803  24.935  1.00  0.00     0.202 C 
BRANCH   3   4
ATOM      4  C   UNL A   1      36.559  21.915  24.226  1.00  0.00     0.261 C 
BRANCH   4   5
ATOM      5  O   UNL A   1      35.388  22.698  23.964  1.00  0.00    -0.462 OA
BRANCH   5   6
ATOM      6  C   UNL A   1      34.360  22.533  24.840  1.00  0.00     0.319 C 
ATOM      7  O   UNL A   1      34.428  22.836  26.026  1.00  0.00    -0.251 OA
BRANCH   6   8
ATOM      8  C   UNL A   1      33.121  21.978  24.118  1.00  0.00     0.180 C 
BRANCH   8   9
ATOM      9  C   UNL A   1      33.042  20.451  24.026  1.00  0.00    -0.027 A 
ATOM     10  C   UNL A   1      33.017  17.631  23.832  1.00  0.00     0.118 A 
ATOM     11  C   UNL A   1      33.645  18.254  24.907  1.00  0.00     0.047 A 
ATOM     12  C   UNL A   1      32.314  18.401  22.914  1.00  0.00     0.047 A 
ATOM     13  C   UNL A   1      33.647  19.650  25.013  1.00  0.00     0.009 A 
ATOM     14  C   UNL A   1      32.331  19.795  23.007  1.00  0.00     0.009 A 
BRANCH  10  15
ATOM     15  O   UNL A   1      33.129  16.268  23.774  1.00  0.00    -0.497 OA
ATOM     16  C   UNL A   1      33.040  15.619  25.043  1.00  0.00     0.278 C 
ENDBRANCH  10  15
ENDBRANCH   8   9
BRANCH   8  17
ATOM     17  C   UNL A   1      31.915  22.665  24.742  1.00  0.00     0.082 A 
ATOM     18  C   UNL A   1      31.207  22.099  25.801  1.00  0.00     0.032 A 
ATOM     19  N   UNL A   1      31.678  23.944  24.341  1.00  0.00    -0.151 NA
ATOM     20  C   UNL A   1      30.289  22.881  26.484  1.00  0.00     0.072 A 
ATOM     21  N   UNL A   1      30.788  24.715  25.022  1.00  0.00    -0.112 NA
ATOM     22  C   UNL A   1      30.142  24.182  26.074  1.00  0.00     0.230 A 
BRANCH  22  23
ATOM     23  O   UNL A   1      29.355  25.042  26.774  1.00  0.00    -0.492 OA
ATOM     24  H   UNL A   1      28.436  25.084  26.597  1.00  0.00     0.295 HD
ENDBRANCH  22  23
ENDBRANCH   8  17
ENDBRANCH   6   8
ENDBRANCH   5   6
ENDBRANCH   4   5
ENDBRANCH   3   4
ENDBRANCH   2   3
ENDBRANCH   1   2
BRANCH   1  25
ATOM     25  C   UNL A   1      40.567  22.354  26.635  1.00  0.00     0.261 C 
BRANCH  25  26
ATOM     26  O   UNL A   1      40.500  23.771  26.396  1.00  0.00    -0.460 OA
BRANCH  26  27
ATOM     27  C   UNL A   1      41.599  24.457  26.788  1.00  0.00     0.338 C 
ATOM     28  O   UNL A   1      42.755  24.270  26.422  1.00  0.00    -0.246 OA
BRANCH  27  29
ATOM     29  C   UNL A   1      41.220  25.607  27.626  1.00  0.00     0.060 A 
ATOM     30  C   UNL A   1      42.129  26.668  27.724  1.00  0.00     0.016 A 
ATOM     31  C   UNL A   1      40.047  25.604  28.384  1.00  0.00     0.016 A 
ATOM     32  C   UNL A   1      41.889  27.713  28.613  1.00  0.00     0.010 A 
ATOM     33  C   UNL A   1      39.813  26.650  29.285  1.00  0.00     0.010 A 
ATOM     34  C   UNL A   1      40.749  27.691  29.427  1.00  0.00    -0.014 A 
BRANCH  34  35
ATOM     35  C   UNL A   1      40.613  28.686  30.518  1.00  0.00     0.031 A 
ATOM     36  C   UNL A   1      41.514  28.584  31.720  1.00  0.00     0.074 A 
ATOM     37  C   UNL A   1      39.719  29.687  30.425  1.00  0.00     0.049 A 
ATOM     38  N   UNL A   1      41.548  29.328  32.795  1.00  0.00    -0.248 NA
ATOM     39  C   UNL A   1      42.509  27.500  31.705  1.00  0.00     0.031 C 
ATOM     40  C   UNL A   1      38.820  29.913  29.294  1.00  0.00     0.029 A 
ATOM     41  N   UNL A   1      39.418  30.698  31.302  1.00  0.00    -0.354 N 
ATOM     42  C   UNL A   1      42.562  28.800  33.588  1.00  0.00     0.074 A 
ATOM     43  C   UNL A   1      43.099  27.657  32.881  1.00  0.00     0.031 C 
ATOM     44  C   UNL A   1      38.058  30.989  29.553  1.00  0.00     0.029 A 
ATOM     45  C   UNL A   1      38.395  31.510  30.876  1.00  0.00     0.049 A 
ATOM     46  H   UNL A   1      39.891  30.831  32.155  1.00  0.00     0.167 HD
ATOM     47  C   UNL A   1      43.008  29.235  34.790  1.00  0.00     0.037 A 
ATOM     48  C   UNL A   1      37.787  32.543  31.493  1.00  0.00     0.037 A 
ATOM     49  C   UNL A   1      42.472  30.375  35.488  1.00  0.00     0.049 A 
ATOM     50  C   UNL A   1      38.260  32.972  32.857  1.00  0.00     0.074 A 
ATOM     51  C   UNL A   1      42.869  30.906  36.702  1.00  0.00     0.029 A 
ATOM     52  N   UNL A   1      41.418  31.155  35.037  1.00  0.00    -0.354 N 
ATOM     53  N   UNL A   1      39.232  32.477  33.586  1.00  0.00    -0.248 NA
ATOM     54  C   UNL A   1      37.556  34.100  33.483  1.00  0.00     0.031 C 
ATOM     55  C   UNL A   1      42.025  31.980  37.007  1.00  0.00     0.029 A 
ATOM     56  C   UNL A   1      41.135  32.149  35.959  1.00  0.00     0.049 A 
ATOM     57  H   UNL A   1      40.941  31.023  34.185  1.00  0.00     0.167 HD
ATOM     58  C   UNL A   1      39.273  33.249  34.743  1.00  0.00     0.074 A 
ATOM     59  C   UNL A   1      38.234  34.249  34.614  1.00  0.00     0.031 C 
ATOM     60  C   UNL A   1      40.099  33.142  35.813  1.00  0.00     0.037 A 
BRANCH  47  61
ATOM     61  C   UNL A   1      44.120  28.460  35.442  1.00  0.00     0.058 A 
ATOM     62  C   UNL A   1      43.862  27.406  36.331  1.00  0.00     0.135 A 
ATOM     63  C   UNL A   1      45.461  28.756  35.147  1.00  0.00     0.135 A 
ATOM     64  F   UNL A   1      42.598  27.092  36.660  1.00  0.00    -0.206 F 
ATOM     65  C   UNL A   1      44.895  26.688  36.927  1.00  0.00     0.059 A 
ATOM     66  C   UNL A   1      46.509  28.035  35.711  1.00  0.00     0.059 A 
ATOM     67  F   UNL A   1      45.762  29.756  34.304  1.00  0.00    -0.206 F 
ATOM     68  C   UNL A   1      46.215  27.012  36.611  1.00  0.00     0.060 A 
BRANCH  68  69
ATOM     69  S   UNL A   1      47.546  26.070  37.388  1.00  0.00     0.124 S 
ATOM     70  O   UNL A   1      48.714  26.872  37.035  1.00  0.00    -0.237 OA
ATOM     71  O   UNL A   1      47.165  26.093  38.796  1.00  0.00    -0.237 OA
ATOM     72  O   UNL A   1      47.463  24.765  36.740  1.00  0.00    -0.744 OA
ENDBRANCH  68  69
ENDBRANCH  47  61
BRANCH  48  73
ATOM     73  C   UNL A   1      36.652  33.237  30.829  1.00  0.00     0.058 A 
ATOM     74  C   UNL A   1      35.325  32.991  31.211  1.00  0.00     0.135 A 
ATOM     75  C   UNL A   1      36.876  34.169  29.803  1.00  0.00     0.135 A 
ATOM     76  F   UNL A   1      35.061  32.102  32.181  1.00  0.00    -0.206 F 
ATOM     77  C   UNL A   1      34.258  33.633  30.593  1.00  0.00     0.059 A 
ATOM     78  C   UNL A   1      35.827  34.842  29.185  1.00  0.00     0.059 A 
ATOM     79  F   UNL A   1      38.128  34.450  29.410  1.00  0.00    -0.206 F 
ATOM     80  C   UNL A   1      34.520  34.561  29.581  1.00  0.00     0.060 A 
BRANCH  80  81
ATOM     81  S   UNL A   1      33.133  35.434  28.822  1.00  0.00     0.124 S 
ATOM     82  O   UNL A   1      32.460  34.353  28.113  1.00  0.00    -0.237 OA
ATOM     83  O   UNL A   1      32.434  35.969  29.986  1.00  0.00    -0.237 OA
ATOM     84  O   UNL A   1      33.789  36.431  27.981  1.00  0.00    -0.744 OA
ENDBRANCH  80  81
ENDBRANCH  48  73
BRANCH  60  85
ATOM     85  C   UNL A   1      39.938  34.149  36.919  1.00  0.00     0.058 A 
ATOM     86  C   UNL A   1      40.601  35.384  36.894  1.00  0.00     0.135 A 
ATOM     87  C   UNL A   1      39.063  33.895  37.989  1.00  0.00     0.135 A 
ATOM     88  F   UNL A   1      41.453  35.675  35.898  1.00  0.00    -0.206 F 
ATOM     89  C   UNL A   1      40.418  36.327  37.901  1.00  0.00     0.059 A 
ATOM     90  C   UNL A   1      38.845  34.833  38.992  1.00  0.00     0.059 A 
ATOM     91  F   UNL A   1      38.395  32.732  38.054  1.00  0.00    -0.206 F 
ATOM     92  C   UNL A   1      39.537  36.043  38.946  1.00  0.00     0.060 A 
BRANCH  92  93
ATOM     93  S   UNL A   1      39.281  37.288  40.228  1.00  0.00     0.124 S 
ATOM     94  O   UNL A   1      38.423  38.246  39.539  1.00  0.00    -0.237 OA
ATOM     95  O   UNL A   1      38.644  36.517  41.292  1.00  0.00    -0.237 OA
ATOM     96  O   UNL A   1      40.632  37.754  40.524  1.00  0.00    -0.744 OA
ENDBRANCH  92  93
ENDBRANCH  60  85
ENDBRANCH  34  35
ENDBRANCH  27  29
ENDBRANCH  26  27
ENDBRANCH  25  26
ENDBRANCH   1  25
TORSDOF 21
ENDMDL
MODEL 3
REMARK VINA RESULT:     -10.6      6.628     11.376
REMARK SMILES COc1ccc([C@H](C(=O)OCCOCCOC(=O)c2ccc(-c3c4nc(c(-c5c(F)cc(S(=O)(=O)[O-])cc5F)c5ccc([nH]5)c(-c5c(F)cc(S(=O)(=O)[O-])cc5F)c5nc(c(-c6c(F)cc(S(=O)(=O)[O-])cc6F)c6ccc3[nH]6)C=C5)C=C4)cc2)c2ccc(O)nn2)cc1
REMARK SMILES IDX 14 1 13 2 12 3 11 4 10 5 8 6 9 7 7 8 6 9 3 10 4 11 93 12
REMARK SMILES IDX 5 13 92 14 2 15 1 16 85 17 86 18 91 19 87 20 90 21 88 22
REMARK SMILES IDX 89 23 15 25 16 26 17 27 18 28 19 29 20 30 84 31 21 32 83 33
REMARK SMILES IDX 22 34 23 35 24 36 77 37 25 38 82 39 76 40 78 41 26 42 81 43
REMARK SMILES IDX 75 44 74 45 27 47 61 48 40 49 60 50 41 51 44 52 59 53 79 54
REMARK SMILES IDX 42 55 43 56 58 58 80 59 45 60 28 61 29 62 38 63 30 64 31 65
REMARK SMILES IDX 37 66 39 67 32 68 33 69 34 70 35 71 36 72 62 73 63 74 72 75
REMARK SMILES IDX 64 76 65 77 71 78 73 79 66 80 67 81 68 82 69 83 70 84 46 85
REMARK SMILES IDX 47 86 56 87 48 88 49 89 55 90 57 91 50 92 51 93 52 94 53 95
REMARK SMILES IDX 54 96
REMARK H PARENT 89 24 78 46 44 57
REMARK Flexibility Score: inf
ROOT
ATOM      1  C   UNL A   1      37.812  20.248  25.319  1.00  0.00     0.202 C 
ENDROOT
BRANCH   1   2
ATOM      2  O   UNL A   1      37.808  21.589  24.832  1.00  0.00    -0.374 OA
BRANCH   2   3
ATOM      3  C   UNL A   1      37.974  22.647  25.782  1.00  0.00     0.202 C 
BRANCH   3   4
ATOM      4  C   UNL A   1      37.003  23.815  25.626  1.00  0.00     0.261 C 
BRANCH   4   5
ATOM      5  O   UNL A   1      36.338  23.679  24.363  1.00  0.00    -0.462 OA
BRANCH   5   6
ATOM      6  C   UNL A   1      35.057  24.138  24.318  1.00  0.00     0.319 C 
ATOM      7  O   UNL A   1      34.669  25.118  24.942  1.00  0.00    -0.251 OA
BRANCH   6   8
ATOM      8  C   UNL A   1      34.217  23.292  23.348  1.00  0.00     0.180 C 
BRANCH   8   9
ATOM      9  C   UNL A   1      33.705  21.961  23.909  1.00  0.00    -0.027 A 
ATOM     10  C   UNL A   1      32.648  19.557  24.955  1.00  0.00     0.118 A 
ATOM     11  C   UNL A   1      32.310  19.971  23.669  1.00  0.00     0.047 A 
ATOM     12  C   UNL A   1      33.590  20.279  25.678  1.00  0.00     0.047 A 
ATOM     13  C   UNL A   1      32.842  21.154  23.144  1.00  0.00     0.009 A 
ATOM     14  C   UNL A   1      34.107  21.470  25.163  1.00  0.00     0.009 A 
BRANCH  10  15
ATOM     15  O   UNL A   1      32.024  18.428  25.411  1.00  0.00    -0.497 OA
ATOM     16  C   UNL A   1      32.862  17.272  25.453  1.00  0.00     0.278 C 
ENDBRANCH  10  15
ENDBRANCH   8   9
BRANCH   8  17
ATOM     17  C   UNL A   1      33.154  24.220  22.777  1.00  0.00     0.082 A 
ATOM     18  C   UNL A   1      31.970  24.496  23.458  1.00  0.00     0.032 A 
ATOM     19  N   UNL A   1      33.501  24.914  21.659  1.00  0.00    -0.151 NA
ATOM     20  C   UNL A   1      31.168  25.534  23.011  1.00  0.00     0.072 A 
ATOM     21  N   UNL A   1      32.722  25.943  21.230  1.00  0.00    -0.112 NA
ATOM     22  C   UNL A   1      31.605  26.239  21.917  1.00  0.00     0.230 A 
BRANCH  22  23
ATOM     23  O   UNL A   1      30.937  27.347  21.499  1.00  0.00    -0.492 OA
ATOM     24  H   UNL A   1      30.485  27.883  22.120  1.00  0.00     0.295 HD
ENDBRANCH  22  23
ENDBRANCH   8  17
ENDBRANCH   6   8
ENDBRANCH   5   6
ENDBRANCH   4   5
ENDBRANCH   3   4
ENDBRANCH   2   3
ENDBRANCH   1   2
BRANCH   1  25
ATOM     25  C   UNL A   1      39.166  19.527  25.346  1.00  0.00     0.261 C 
BRANCH  25  26
ATOM     26  O   UNL A   1      40.052  20.007  26.373  1.00  0.00    -0.460 OA
BRANCH  26  27
ATOM     27  C   UNL A   1      41.351  19.672  26.192  1.00  0.00     0.338 C 
ATOM     28  O   UNL A   1      41.788  18.594  25.802  1.00  0.00    -0.246 OA
BRANCH  27  29
ATOM     29  C   UNL A   1      42.219  20.848  26.375  1.00  0.00     0.060 A 
ATOM     30  C   UNL A   1      42.435  21.298  27.683  1.00  0.00     0.016 A 
ATOM     31  C   UNL A   1      42.727  21.559  25.286  1.00  0.00     0.016 A 
ATOM     32  C   UNL A   1      43.127  22.486  27.907  1.00  0.00     0.010 A 
ATOM     33  C   UNL A   1      43.411  22.758  25.512  1.00  0.00     0.010 A 
ATOM     34  C   UNL A   1      43.585  23.244  26.822  1.00  0.00    -0.014 A 
BRANCH  34  35
ATOM     35  C   UNL A   1      44.122  24.606  27.057  1.00  0.00     0.031 A 
ATOM     36  C   UNL A   1      43.186  25.695  27.510  1.00  0.00     0.074 A 
ATOM     37  C   UNL A   1      45.434  24.862  26.902  1.00  0.00     0.049 A 
ATOM     38  N   UNL A   1      43.436  26.956  27.748  1.00  0.00    -0.248 NA
ATOM     39  C   UNL A   1      41.781  25.308  27.722  1.00  0.00     0.031 C 
ATOM     40  C   UNL A   1      46.443  23.881  26.507  1.00  0.00     0.029 A 
ATOM     41  N   UNL A   1      46.138  26.030  27.053  1.00  0.00    -0.354 N 
ATOM     42  C   UNL A   1      42.222  27.516  28.133  1.00  0.00     0.074 A 
ATOM     43  C   UNL A   1      41.232  26.463  28.069  1.00  0.00     0.031 C 
ATOM     44  C   UNL A   1      47.638  24.493  26.434  1.00  0.00     0.029 A 
ATOM     45  C   UNL A   1      47.473  25.910  26.750  1.00  0.00     0.049 A 
ATOM     46  H   UNL A   1      45.727  26.872  27.352  1.00  0.00     0.167 HD
ATOM     47  C   UNL A   1      41.961  28.789  28.512  1.00  0.00     0.037 A 
ATOM     48  C   UNL A   1      48.445  26.843  26.712  1.00  0.00     0.037 A 
ATOM     49  C   UNL A   1      42.950  29.833  28.576  1.00  0.00     0.049 A 
ATOM     50  C   UNL A   1      48.118  28.267  27.079  1.00  0.00     0.074 A 
ATOM     51  C   UNL A   1      42.788  31.151  28.966  1.00  0.00     0.029 A 
ATOM     52  N   UNL A   1      44.286  29.680  28.235  1.00  0.00    -0.354 N 
ATOM     53  N   UNL A   1      46.972  28.778  27.460  1.00  0.00    -0.248 NA
ATOM     54  C   UNL A   1      49.217  29.241  27.014  1.00  0.00     0.031 C 
ATOM     55  C   UNL A   1      44.016  31.806  28.817  1.00  0.00     0.029 A 
ATOM     56  C   UNL A   1      44.954  30.885  28.383  1.00  0.00     0.049 A 
ATOM     57  H   UNL A   1      44.699  28.839  27.933  1.00  0.00     0.167 HD
ATOM     58  C   UNL A   1      47.217  30.125  27.705  1.00  0.00     0.074 A 
ATOM     59  C   UNL A   1      48.622  30.349  27.436  1.00  0.00     0.031 C 
ATOM     60  C   UNL A   1      46.357  31.090  28.117  1.00  0.00     0.037 A 
BRANCH  47  61
ATOM     61  C   UNL A   1      40.540  29.133  28.866  1.00  0.00     0.058 A 
ATOM     62  C   UNL A   1      40.110  29.214  30.199  1.00  0.00     0.135 A 
ATOM     63  C   UNL A   1      39.604  29.414  27.857  1.00  0.00     0.135 A 
ATOM     64  F   UNL A   1      40.959  28.938  31.202  1.00  0.00    -0.206 F 
ATOM     65  C   UNL A   1      38.795  29.538  30.520  1.00  0.00     0.059 A 
ATOM     66  C   UNL A   1      38.291  29.764  28.156  1.00  0.00     0.059 A 
ATOM     67  F   UNL A   1      39.963  29.348  26.565  1.00  0.00    -0.206 F 
ATOM     68  C   UNL A   1      37.893  29.810  29.491  1.00  0.00     0.060 A 
BRANCH  68  69
ATOM     69  S   UNL A   1      36.190  30.232  29.922  1.00  0.00     0.124 S 
ATOM     70  O   UNL A   1      36.020  29.503  31.175  1.00  0.00    -0.237 OA
ATOM     71  O   UNL A   1      36.249  31.685  30.036  1.00  0.00    -0.237 OA
ATOM     72  O   UNL A   1      35.418  29.726  28.793  1.00  0.00    -0.744 OA
ENDBRANCH  68  69
ENDBRANCH  47  61
BRANCH  48  73
ATOM     73  C   UNL A   1      49.821  26.462  26.296  1.00  0.00     0.058 A 
ATOM     74  C   UNL A   1      50.275  26.688  24.989  1.00  0.00     0.135 A 
ATOM     75  C   UNL A   1      50.711  25.869  27.206  1.00  0.00     0.135 A 
ATOM     76  F   UNL A   1      49.457  27.243  24.082  1.00  0.00    -0.206 F 
ATOM     77  C   UNL A   1      51.559  26.330  24.593  1.00  0.00     0.059 A 
ATOM     78  C   UNL A   1      52.008  25.524  26.840  1.00  0.00     0.059 A 
ATOM     79  F   UNL A   1      50.329  25.644  28.473  1.00  0.00    -0.206 F 
ATOM     80  C   UNL A   1      52.420  25.751  25.528  1.00  0.00     0.060 A 
BRANCH  80  81
ATOM     81  S   UNL A   1      54.105  25.342  25.022  1.00  0.00     0.124 S 
ATOM     82  O   UNL A   1      54.189  26.001  23.724  1.00  0.00    -0.237 OA
ATOM     83  O   UNL A   1      54.900  25.935  26.093  1.00  0.00    -0.237 OA
ATOM     84  O   UNL A   1      54.098  23.883  24.991  1.00  0.00    -0.744 OA
ENDBRANCH  80  81
ENDBRANCH  48  73
BRANCH  60  85
ATOM     85  C   UNL A   1      46.913  32.470  28.336  1.00  0.00     0.058 A 
ATOM     86  C   UNL A   1      46.865  33.452  27.336  1.00  0.00     0.135 A 
ATOM     87  C   UNL A   1      47.449  32.830  29.584  1.00  0.00     0.135 A 
ATOM     88  F   UNL A   1      46.369  33.159  26.124  1.00  0.00    -0.206 F 
ATOM     89  C   UNL A   1      47.348  34.738  27.559  1.00  0.00     0.059 A 
ATOM     90  C   UNL A   1      47.914  34.116  29.836  1.00  0.00     0.059 A 
ATOM     91  F   UNL A   1      47.508  31.929  30.579  1.00  0.00    -0.206 F 
ATOM     92  C   UNL A   1      47.869  35.062  28.813  1.00  0.00     0.060 A 
BRANCH  92  93
ATOM     93  S   UNL A   1      48.459  36.743  29.100  1.00  0.00     0.124 S 
ATOM     94  O   UNL A   1      48.426  36.821  30.557  1.00  0.00    -0.237 OA
ATOM     95  O   UNL A   1      49.789  36.717  28.496  1.00  0.00    -0.237 OA
ATOM     96  O   UNL A   1      47.479  37.571  28.404  1.00  0.00    -0.744 OA
ENDBRANCH  92  93
ENDBRANCH  60  85
ENDBRANCH  34  35
ENDBRANCH  27  29
ENDBRANCH  26  27
ENDBRANCH  25  26
ENDBRANCH   1  25
TORSDOF 21
ENDMDL
