MODEL 1
REMARK VINA RESULT:     -11.2      0.000      0.000
REMARK SMILES Cc1ccc(NC(=O)C[C@@H](C(=O)OCCOCCOC(=O)c2ccc(-c3c4nc(c(-c5c(F)cc(S(=O)(=O)[O-])cc5F)c5ccc([nH]5)c(-c5c(F)cc(S(=O)(=O)[O-])cc5F)c5nc(c(-c6c(F)cc(S(=O)(=O)[O-])cc6F)c6ccc3[nH]6)C=C5)C=C4)cc2)[NH+](C)C)cc1Cl
REMARK SMILES IDX 16 1 15 2 14 3 13 4 11 5 12 6 10 7 9 8 7 9 6 10 8 12 5 13
REMARK SMILES IDX 1 14 2 15 3 16 92 17 4 18 91 19 93 20 88 21 89 22 90 23
REMARK SMILES IDX 17 25 18 26 19 27 20 28 21 29 22 30 23 31 87 32 24 33 86 34
REMARK SMILES IDX 25 35 26 36 27 37 80 38 28 39 85 40 79 41 81 42 29 43 84 44
REMARK SMILES IDX 78 45 77 46 30 48 64 49 43 50 63 51 44 52 47 53 62 54 82 55
REMARK SMILES IDX 45 56 46 57 61 59 83 60 48 61 31 62 32 63 41 64 33 65 34 66
REMARK SMILES IDX 40 67 42 68 35 69 36 70 37 71 38 72 39 73 65 74 66 75 75 76
REMARK SMILES IDX 67 77 68 78 74 79 76 80 69 81 70 82 71 83 72 84 73 85 49 86
REMARK SMILES IDX 50 87 59 88 51 89 52 90 58 91 60 92 53 93 54 94 55 95 56 96
REMARK SMILES IDX 57 97
REMARK H PARENT 6 11 88 24 81 47 47 58
REMARK Flexibility Score: inf
ROOT
ATOM      1  O   UNL A   1      38.976  21.445  25.601  1.00  0.00    -0.374 OA
ENDROOT
BRANCH   1   2
ATOM      2  C   UNL A   1      37.252  21.530  24.600  1.00  0.00     0.202 C 
BRANCH   2   3
ATOM      3  C   UNL A   1      35.697  21.108  25.080  1.00  0.00     0.261 C 
BRANCH   3   4
ATOM      4  O   UNL A   1      34.637  22.077  24.904  1.00  0.00    -0.459 OA
BRANCH   4   5
ATOM      5  C   UNL A   1      33.413  21.612  24.559  1.00  0.00     0.365 C 
ATOM      6  O   UNL A   1      33.239  20.440  24.251  1.00  0.00    -0.245 OA
BRANCH   5   7
ATOM      7  C   UNL A   1      32.324  22.746  24.644  1.00  0.00     0.304 C 
BRANCH   7   8
ATOM      8  C   UNL A   1      32.097  23.607  23.366  1.00  0.00     0.177 C 
BRANCH   8   9
ATOM      9  C   UNL A   1      33.274  24.117  22.567  1.00  0.00     0.231 C 
ATOM     10  N   UNL A   1      33.618  25.438  22.566  1.00  0.00    -0.326 N 
ATOM     11  H   UNL A   1      34.246  25.692  21.852  1.00  0.00     0.169 HD
ATOM     12  O   UNL A   1      33.914  23.341  21.851  1.00  0.00    -0.274 OA
BRANCH  10  13
ATOM     13  C   UNL A   1      33.233  26.500  23.406  1.00  0.00     0.042 A 
ATOM     14  C   UNL A   1      31.591  30.518  26.103  1.00  0.00     0.046 C 
ATOM     15  C   UNL A   1      32.130  29.411  25.259  1.00  0.00    -0.032 A 
ATOM     16  C   UNL A   1      31.294  28.943  23.729  1.00  0.00     0.007 A 
ATOM     17  C   UNL A   1      33.520  28.449  25.867  1.00  0.00     0.046 A 
ATOM     18  C   UNL A   1      31.872  27.521  22.785  1.00  0.00     0.026 A 
ATOM     19  C   UNL A   1      34.081  26.992  24.935  1.00  0.00     0.047 A 
ATOM     20  Cl  UNL A   1      34.340  28.883  27.317  1.00  0.00    -0.084 Cl
ENDBRANCH  10  13
ENDBRANCH   8   9
ENDBRANCH   7   8
BRANCH   7  21
ATOM     21  N   UNL A   1      32.408  23.627  25.884  1.00  0.00    -0.328 N 
ATOM     22  C   UNL A   1      31.305  24.572  26.057  1.00  0.00     0.333 C 
ATOM     23  C   UNL A   1      32.709  23.015  27.177  1.00  0.00     0.333 C 
ATOM     24  H   UNL A   1      33.260  24.121  25.617  1.00  0.00     0.348 HD
ENDBRANCH   7  21
ENDBRANCH   5   7
ENDBRANCH   4   5
ENDBRANCH   3   4
ENDBRANCH   2   3
ENDBRANCH   1   2
BRANCH   1  25
ATOM     25  C   UNL A   1      39.871  21.873  26.784  1.00  0.00     0.202 C 
BRANCH  25  26
ATOM     26  C   UNL A   1      40.810  23.066  26.497  1.00  0.00     0.261 C 
BRANCH  26  27
ATOM     27  O   UNL A   1      40.159  24.325  26.384  1.00  0.00    -0.460 OA
BRANCH  27  28
ATOM     28  C   UNL A   1      40.948  25.391  26.125  1.00  0.00     0.338 C 
ATOM     29  O   UNL A   1      41.463  25.691  25.062  1.00  0.00    -0.246 OA
BRANCH  28  30
ATOM     30  C   UNL A   1      40.926  26.231  27.338  1.00  0.00     0.060 A 
ATOM     31  C   UNL A   1      39.923  25.998  28.285  1.00  0.00     0.016 A 
ATOM     32  C   UNL A   1      41.945  27.162  27.590  1.00  0.00     0.016 A 
ATOM     33  C   UNL A   1      39.931  26.703  29.487  1.00  0.00     0.010 A 
ATOM     34  C   UNL A   1      41.942  27.882  28.781  1.00  0.00     0.010 A 
ATOM     35  C   UNL A   1      40.916  27.676  29.713  1.00  0.00    -0.014 A 
BRANCH  35  36
ATOM     36  C   UNL A   1      40.691  28.688  30.764  1.00  0.00     0.031 A 
ATOM     37  C   UNL A   1      41.549  28.581  31.993  1.00  0.00     0.074 A 
ATOM     38  C   UNL A   1      39.770  29.657  30.635  1.00  0.00     0.049 A 
ATOM     39  N   UNL A   1      41.579  29.339  33.053  1.00  0.00    -0.248 NA
ATOM     40  C   UNL A   1      42.509  27.460  32.024  1.00  0.00     0.031 C 
ATOM     41  C   UNL A   1      38.901  29.856  29.476  1.00  0.00     0.029 A 
ATOM     42  N   UNL A   1      39.413  30.658  31.500  1.00  0.00    -0.354 N 
ATOM     43  C   UNL A   1      42.568  28.800  33.866  1.00  0.00     0.074 A 
ATOM     44  C   UNL A   1      43.088  27.629  33.200  1.00  0.00     0.031 C 
ATOM     45  C   UNL A   1      38.100  30.913  29.710  1.00  0.00     0.029 A 
ATOM     46  C   UNL A   1      38.388  31.450  31.039  1.00  0.00     0.049 A 
ATOM     47  H   UNL A   1      39.850  30.797  32.372  1.00  0.00     0.167 HD
ATOM     48  C   UNL A   1      43.010  29.246  35.063  1.00  0.00     0.037 A 
ATOM     49  C   UNL A   1      37.757  32.480  31.639  1.00  0.00     0.037 A 
ATOM     50  C   UNL A   1      42.452  30.384  35.736  1.00  0.00     0.049 A 
ATOM     51  C   UNL A   1      38.211  32.909  33.013  1.00  0.00     0.074 A 
ATOM     52  C   UNL A   1      42.812  30.924  36.956  1.00  0.00     0.029 A 
ATOM     53  N   UNL A   1      41.395  31.144  35.253  1.00  0.00    -0.354 N 
ATOM     54  N   UNL A   1      39.184  32.426  33.752  1.00  0.00    -0.248 NA
ATOM     55  C   UNL A   1      37.486  34.026  33.636  1.00  0.00     0.031 C 
ATOM     56  C   UNL A   1      41.936  31.977  37.237  1.00  0.00     0.029 A 
ATOM     57  C   UNL A   1      41.070  32.132  36.164  1.00  0.00     0.049 A 
ATOM     58  H   UNL A   1      40.944  30.999  34.390  1.00  0.00     0.167 HD
ATOM     59  C   UNL A   1      39.209  33.201  34.909  1.00  0.00     0.074 A 
ATOM     60  C   UNL A   1      38.157  34.189  34.768  1.00  0.00     0.031 C 
ATOM     61  C   UNL A   1      40.025  33.109  35.989  1.00  0.00     0.037 A 
BRANCH  48  62
ATOM     62  C   UNL A   1      44.115  28.472  35.718  1.00  0.00     0.058 A 
ATOM     63  C   UNL A   1      45.467  28.770  35.478  1.00  0.00     0.135 A 
ATOM     64  C   UNL A   1      43.822  27.411  36.588  1.00  0.00     0.135 A 
ATOM     65  F   UNL A   1      45.802  29.753  34.628  1.00  0.00    -0.206 F 
ATOM     66  C   UNL A   1      46.489  28.027  36.059  1.00  0.00     0.059 A 
ATOM     67  C   UNL A   1      44.828  26.672  37.202  1.00  0.00     0.059 A 
ATOM     68  F   UNL A   1      42.547  27.074  36.837  1.00  0.00    -0.206 F 
ATOM     69  C   UNL A   1      46.159  26.980  36.920  1.00  0.00     0.060 A 
BRANCH  69  70
ATOM     70  S   UNL A   1      47.495  26.027  37.669  1.00  0.00     0.124 S 
ATOM     71  O   UNL A   1      48.129  27.032  38.519  1.00  0.00    -0.237 OA
ATOM     72  O   UNL A   1      46.769  24.972  38.370  1.00  0.00    -0.237 OA
ATOM     73  O   UNL A   1      48.284  25.588  36.523  1.00  0.00    -0.744 OA
ENDBRANCH  69  70
ENDBRANCH  48  62
BRANCH  49  74
ATOM     74  C   UNL A   1      36.635  33.178  30.953  1.00  0.00     0.058 A 
ATOM     75  C   UNL A   1      36.870  34.057  29.884  1.00  0.00     0.135 A 
ATOM     76  C   UNL A   1      35.305  32.996  31.363  1.00  0.00     0.135 A 
ATOM     77  F   UNL A   1      38.124  34.277  29.461  1.00  0.00    -0.206 F 
ATOM     78  C   UNL A   1      35.833  34.743  29.260  1.00  0.00     0.059 A 
ATOM     79  C   UNL A   1      34.248  33.651  30.737  1.00  0.00     0.059 A 
ATOM     80  F   UNL A   1      35.022  32.162  32.375  1.00  0.00    -0.206 F 
ATOM     81  C   UNL A   1      34.523  34.532  29.693  1.00  0.00     0.060 A 
BRANCH  81  82
ATOM     82  S   UNL A   1      33.181  35.396  28.846  1.00  0.00     0.124 S 
ATOM     83  O   UNL A   1      32.432  35.950  29.968  1.00  0.00    -0.237 OA
ATOM     84  O   UNL A   1      33.909  36.359  28.026  1.00  0.00    -0.237 OA
ATOM     85  O   UNL A   1      32.512  34.332  28.104  1.00  0.00    -0.744 OA
ENDBRANCH  81  82
ENDBRANCH  49  74
BRANCH  61  86
ATOM     86  C   UNL A   1      39.849  34.125  37.084  1.00  0.00     0.058 A 
ATOM     87  C   UNL A   1      40.302  35.447  36.948  1.00  0.00     0.135 A 
ATOM     88  C   UNL A   1      39.146  33.789  38.253  1.00  0.00     0.135 A 
ATOM     89  F   UNL A   1      40.982  35.818  35.852  1.00  0.00    -0.206 F 
ATOM     90  C   UNL A   1      40.082  36.394  37.942  1.00  0.00     0.059 A 
ATOM     91  C   UNL A   1      38.887  34.728  39.245  1.00  0.00     0.059 A 
ATOM     92  F   UNL A   1      38.678  32.542  38.426  1.00  0.00    -0.206 F 
ATOM     93  C   UNL A   1      39.369  36.026  39.085  1.00  0.00     0.060 A 
BRANCH  93  94
ATOM     94  S   UNL A   1      39.053  37.277  40.348  1.00  0.00     0.124 S 
ATOM     95  O   UNL A   1      40.401  37.546  40.838  1.00  0.00    -0.237 OA
ATOM     96  O   UNL A   1      38.432  38.349  39.577  1.00  0.00    -0.237 OA
ATOM     97  O   UNL A   1      38.168  36.594  41.288  1.00  0.00    -0.744 OA
ENDBRANCH  93  94
ENDBRANCH  61  86
ENDBRANCH  35  36
ENDBRANCH  28  30
ENDBRANCH  27  28
ENDBRANCH  26  27
ENDBRANCH  25  26
ENDBRANCH   1  25
TORSDOF 21
ENDMDL
MODEL 2
REMARK VINA RESULT:     -11.1      6.766     12.192
REMARK SMILES Cc1ccc(NC(=O)C[C@@H](C(=O)OCCOCCOC(=O)c2ccc(-c3c4nc(c(-c5c(F)cc(S(=O)(=O)[O-])cc5F)c5ccc([nH]5)c(-c5c(F)cc(S(=O)(=O)[O-])cc5F)c5nc(c(-c6c(F)cc(S(=O)(=O)[O-])cc6F)c6ccc3[nH]6)C=C5)C=C4)cc2)[NH+](C)C)cc1Cl
REMARK SMILES IDX 16 1 15 2 14 3 13 4 11 5 12 6 10 7 9 8 7 9 6 10 8 12 5 13
REMARK SMILES IDX 1 14 2 15 3 16 92 17 4 18 91 19 93 20 88 21 89 22 90 23
REMARK SMILES IDX 17 25 18 26 19 27 20 28 21 29 22 30 23 31 87 32 24 33 86 34
REMARK SMILES IDX 25 35 26 36 27 37 80 38 28 39 85 40 79 41 81 42 29 43 84 44
REMARK SMILES IDX 78 45 77 46 30 48 64 49 43 50 63 51 44 52 47 53 62 54 82 55
REMARK SMILES IDX 45 56 46 57 61 59 83 60 48 61 31 62 32 63 41 64 33 65 34 66
REMARK SMILES IDX 40 67 42 68 35 69 36 70 37 71 38 72 39 73 65 74 66 75 75 76
REMARK SMILES IDX 67 77 68 78 74 79 76 80 69 81 70 82 71 83 72 84 73 85 49 86
REMARK SMILES IDX 50 87 59 88 51 89 52 90 58 91 60 92 53 93 54 94 55 95 56 96
REMARK SMILES IDX 57 97
REMARK H PARENT 6 11 88 24 81 47 47 58
REMARK Flexibility Score: inf
ROOT
ATOM      1  O   UNL A   1      33.502  30.701  27.182  1.00  0.00    -0.374 OA
ENDROOT
BRANCH   1   2
ATOM      2  C   UNL A   1      32.907  29.764  25.525  1.00  0.00     0.202 C 
BRANCH   2   3
ATOM      3  C   UNL A   1      31.423  29.072  25.143  1.00  0.00     0.261 C 
BRANCH   3   4
ATOM      4  O   UNL A   1      30.665  29.632  24.045  1.00  0.00    -0.459 OA
BRANCH   4   5
ATOM      5  C   UNL A   1      30.373  28.817  23.005  1.00  0.00     0.365 C 
ATOM      6  O   UNL A   1      29.809  29.236  22.003  1.00  0.00    -0.245 OA
BRANCH   5   7
ATOM      7  C   UNL A   1      30.872  27.347  23.270  1.00  0.00     0.304 C 
BRANCH   7   8
ATOM      8  C   UNL A   1      31.861  26.737  22.232  1.00  0.00     0.177 C 
BRANCH   8   9
ATOM      9  C   UNL A   1      33.351  26.929  22.390  1.00  0.00     0.231 C 
ATOM     10  N   UNL A   1      34.112  26.053  23.109  1.00  0.00    -0.326 N 
ATOM     11  H   UNL A   1      35.011  26.385  23.332  1.00  0.00     0.169 HD
ATOM     12  O   UNL A   1      33.898  27.925  21.909  1.00  0.00    -0.274 OA
BRANCH  10  13
ATOM     13  C   UNL A   1      33.837  24.757  23.587  1.00  0.00     0.042 A 
ATOM     14  C   UNL A   1      33.152  20.133  25.653  1.00  0.00     0.046 C 
ATOM     15  C   UNL A   1      33.447  21.452  25.017  1.00  0.00    -0.032 A 
ATOM     16  C   UNL A   1      34.281  22.748  25.954  1.00  0.00     0.007 A 
ATOM     17  C   UNL A   1      32.816  21.783  23.368  1.00  0.00     0.046 A 
ATOM     18  C   UNL A   1      34.514  24.380  25.225  1.00  0.00     0.026 A 
ATOM     19  C   UNL A   1      33.017  23.439  22.645  1.00  0.00     0.047 A 
ATOM     20  Cl  UNL A   1      32.027  20.558  22.451  1.00  0.00    -0.084 Cl
ENDBRANCH  10  13
ENDBRANCH   8   9
ENDBRANCH   7   8
BRANCH   7  21
ATOM     21  N   UNL A   1      29.777  26.349  23.626  1.00  0.00    -0.328 N 
ATOM     22  C   UNL A   1      30.110  25.405  24.692  1.00  0.00     0.333 C 
ATOM     23  C   UNL A   1      28.412  26.830  23.835  1.00  0.00     0.333 C 
ATOM     24  H   UNL A   1      29.757  25.873  22.724  1.00  0.00     0.348 HD
ENDBRANCH   7  21
ENDBRANCH   5   7
ENDBRANCH   4   5
ENDBRANCH   3   4
ENDBRANCH   2   3
ENDBRANCH   1   2
BRANCH   1  25
ATOM     25  C   UNL A   1      34.157  31.908  27.888  1.00  0.00     0.202 C 
BRANCH  25  26
ATOM     26  C   UNL A   1      35.108  31.548  29.052  1.00  0.00     0.261 C 
BRANCH  26  27
ATOM     27  O   UNL A   1      35.808  30.320  28.895  1.00  0.00    -0.460 OA
BRANCH  27  28
ATOM     28  C   UNL A   1      36.425  29.832  29.993  1.00  0.00     0.338 C 
ATOM     29  O   UNL A   1      35.908  29.484  31.040  1.00  0.00    -0.246 OA
BRANCH  28  30
ATOM     30  C   UNL A   1      37.838  29.628  29.622  1.00  0.00     0.060 A 
ATOM     31  C   UNL A   1      38.166  29.592  28.263  1.00  0.00     0.016 A 
ATOM     32  C   UNL A   1      38.842  29.582  30.601  1.00  0.00     0.016 A 
ATOM     33  C   UNL A   1      39.502  29.503  27.877  1.00  0.00     0.010 A 
ATOM     34  C   UNL A   1      40.175  29.471  30.218  1.00  0.00     0.010 A 
ATOM     35  C   UNL A   1      40.501  29.398  28.856  1.00  0.00    -0.014 A 
BRANCH  35  36
ATOM     36  C   UNL A   1      41.833  28.894  28.466  1.00  0.00     0.031 A 
ATOM     37  C   UNL A   1      42.940  29.908  28.399  1.00  0.00     0.074 A 
ATOM     38  C   UNL A   1      42.051  27.599  28.186  1.00  0.00     0.049 A 
ATOM     39  N   UNL A   1      44.199  29.743  28.106  1.00  0.00    -0.248 NA
ATOM     40  C   UNL A   1      42.569  31.302  28.710  1.00  0.00     0.031 C 
ATOM     41  C   UNL A   1      41.048  26.536  28.237  1.00  0.00     0.029 A 
ATOM     42  N   UNL A   1      43.198  26.960  27.793  1.00  0.00    -0.354 N 
ATOM     43  C   UNL A   1      44.772  31.004  28.214  1.00  0.00     0.074 A 
ATOM     44  C   UNL A   1      43.721  31.932  28.559  1.00  0.00     0.031 C 
ATOM     45  C   UNL A   1      41.626  25.374  27.879  1.00  0.00     0.029 A 
ATOM     46  C   UNL A   1      43.031  25.617  27.554  1.00  0.00     0.049 A 
ATOM     47  H   UNL A   1      44.063  27.421  27.692  1.00  0.00     0.167 HD
ATOM     48  C   UNL A   1      46.066  31.358  28.047  1.00  0.00     0.037 A 
ATOM     49  C   UNL A   1      43.919  24.703  27.112  1.00  0.00     0.037 A 
ATOM     50  C   UNL A   1      47.093  30.434  27.658  1.00  0.00     0.049 A 
ATOM     51  C   UNL A   1      45.340  25.137  26.850  1.00  0.00     0.074 A 
ATOM     52  C   UNL A   1      48.437  30.680  27.449  1.00  0.00     0.029 A 
ATOM     53  N   UNL A   1      46.882  29.087  27.395  1.00  0.00    -0.354 N 
ATOM     54  N   UNL A   1      45.886  26.323  27.006  1.00  0.00    -0.248 NA
ATOM     55  C   UNL A   1      46.270  24.112  26.355  1.00  0.00     0.031 C 
ATOM     56  C   UNL A   1      49.028  29.492  27.006  1.00  0.00     0.029 A 
ATOM     57  C   UNL A   1      48.065  28.493  26.998  1.00  0.00     0.049 A 
ATOM     58  H   UNL A   1      46.016  28.625  27.478  1.00  0.00     0.167 HD
ATOM     59  C   UNL A   1      47.227  26.176  26.663  1.00  0.00     0.074 A 
ATOM     60  C   UNL A   1      47.411  24.786  26.296  1.00  0.00     0.031 C 
ATOM     61  C   UNL A   1      48.219  27.102  26.651  1.00  0.00     0.037 A 
BRANCH  48  62
ATOM     62  C   UNL A   1      46.413  32.803  28.247  1.00  0.00     0.058 A 
ATOM     63  C   UNL A   1      46.308  33.739  27.204  1.00  0.00     0.135 A 
ATOM     64  C   UNL A   1      46.870  33.259  29.493  1.00  0.00     0.135 A 
ATOM     65  F   UNL A   1      45.908  33.348  25.983  1.00  0.00    -0.206 F 
ATOM     66  C   UNL A   1      46.665  35.070  27.384  1.00  0.00     0.059 A 
ATOM     67  C   UNL A   1      47.207  34.592  29.703  1.00  0.00     0.059 A 
ATOM     68  F   UNL A   1      47.006  32.403  30.518  1.00  0.00    -0.206 F 
ATOM     69  C   UNL A   1      47.114  35.487  28.638  1.00  0.00     0.060 A 
BRANCH  69  70
ATOM     70  S   UNL A   1      47.571  37.219  28.857  1.00  0.00     0.124 S 
ATOM     71  O   UNL A   1      46.306  37.802  29.294  1.00  0.00    -0.237 OA
ATOM     72  O   UNL A   1      48.616  37.138  29.873  1.00  0.00    -0.237 OA
ATOM     73  O   UNL A   1      48.021  37.622  27.528  1.00  0.00    -0.744 OA
ENDBRANCH  69  70
ENDBRANCH  48  62
BRANCH  49  74
ATOM     74  C   UNL A   1      43.499  23.292  26.890  1.00  0.00     0.058 A 
ATOM     75  C   UNL A   1      43.325  22.780  25.595  1.00  0.00     0.135 A 
ATOM     76  C   UNL A   1      43.244  22.430  27.968  1.00  0.00     0.135 A 
ATOM     77  F   UNL A   1      43.543  23.565  24.529  1.00  0.00    -0.206 F 
ATOM     78  C   UNL A   1      42.897  21.474  25.376  1.00  0.00     0.059 A 
ATOM     79  C   UNL A   1      42.840  21.111  27.774  1.00  0.00     0.059 A 
ATOM     80  F   UNL A   1      43.400  22.864  29.228  1.00  0.00    -0.206 F 
ATOM     81  C   UNL A   1      42.659  20.645  26.474  1.00  0.00     0.060 A 
BRANCH  81  82
ATOM     82  S   UNL A   1      42.145  18.939  26.175  1.00  0.00     0.124 S 
ATOM     83  O   UNL A   1      40.753  19.116  25.778  1.00  0.00    -0.237 OA
ATOM     84  O   UNL A   1      43.063  18.525  25.119  1.00  0.00    -0.237 OA
ATOM     85  O   UNL A   1      42.356  18.294  27.468  1.00  0.00    -0.744 OA
ENDBRANCH  81  82
ENDBRANCH  49  74
BRANCH  61  86
ATOM     86  C   UNL A   1      49.600  26.641  26.276  1.00  0.00     0.058 A 
ATOM     87  C   UNL A   1      50.128  26.851  24.992  1.00  0.00     0.135 A 
ATOM     88  C   UNL A   1      50.435  26.052  27.241  1.00  0.00     0.135 A 
ATOM     89  F   UNL A   1      49.371  27.407  24.033  1.00  0.00    -0.206 F 
ATOM     90  C   UNL A   1      51.427  26.474  24.672  1.00  0.00     0.059 A 
ATOM     91  C   UNL A   1      51.748  25.697  26.952  1.00  0.00     0.059 A 
ATOM     92  F   UNL A   1      49.984  25.844  28.488  1.00  0.00    -0.206 F 
ATOM     93  C   UNL A   1      52.231  25.901  25.661  1.00  0.00     0.060 A 
BRANCH  93  94
ATOM     94  S   UNL A   1      53.930  25.456  25.244  1.00  0.00     0.124 S 
ATOM     95  O   UNL A   1      54.682  26.184  26.259  1.00  0.00    -0.237 OA
ATOM     96  O   UNL A   1      53.916  24.003  25.384  1.00  0.00    -0.237 OA
ATOM     97  O   UNL A   1      54.084  25.945  23.877  1.00  0.00    -0.744 OA
ENDBRANCH  93  94
ENDBRANCH  61  86
ENDBRANCH  35  36
ENDBRANCH  28  30
ENDBRANCH  27  28
ENDBRANCH  26  27
ENDBRANCH  25  26
ENDBRANCH   1  25
TORSDOF 21
ENDMDL
MODEL 3
REMARK VINA RESULT:     -11.0      4.872     11.661
REMARK SMILES Cc1ccc(NC(=O)C[C@@H](C(=O)OCCOCCOC(=O)c2ccc(-c3c4nc(c(-c5c(F)cc(S(=O)(=O)[O-])cc5F)c5ccc([nH]5)c(-c5c(F)cc(S(=O)(=O)[O-])cc5F)c5nc(c(-c6c(F)cc(S(=O)(=O)[O-])cc6F)c6ccc3[nH]6)C=C5)C=C4)cc2)[NH+](C)C)cc1Cl
REMARK SMILES IDX 16 1 15 2 14 3 13 4 11 5 12 6 10 7 9 8 7 9 6 10 8 12 5 13
REMARK SMILES IDX 1 14 2 15 3 16 92 17 4 18 91 19 93 20 88 21 89 22 90 23
REMARK SMILES IDX 17 25 18 26 19 27 20 28 21 29 22 30 23 31 87 32 24 33 86 34
REMARK SMILES IDX 25 35 26 36 27 37 80 38 28 39 85 40 79 41 81 42 29 43 84 44
REMARK SMILES IDX 78 45 77 46 30 48 64 49 43 50 63 51 44 52 47 53 62 54 82 55
REMARK SMILES IDX 45 56 46 57 61 59 83 60 48 61 31 62 32 63 41 64 33 65 34 66
REMARK SMILES IDX 40 67 42 68 35 69 36 70 37 71 38 72 39 73 65 74 66 75 75 76
REMARK SMILES IDX 67 77 68 78 74 79 76 80 69 81 70 82 71 83 72 84 73 85 49 86
REMARK SMILES IDX 50 87 59 88 51 89 52 90 58 91 60 92 53 93 54 94 55 95 56 96
REMARK SMILES IDX 57 97
REMARK H PARENT 6 11 88 24 81 47 47 58
REMARK Flexibility Score: inf
ROOT
ATOM      1  O   UNL A   1      31.800  30.693  25.927  1.00  0.00    -0.374 OA
ENDROOT
BRANCH   1   2
ATOM      2  C   UNL A   1      31.411  32.418  26.850  1.00  0.00     0.202 C 
BRANCH   2   3
ATOM      3  C   UNL A   1      32.453  33.633  27.363  1.00  0.00     0.261 C 
BRANCH   3   4
ATOM      4  O   UNL A   1      32.576  33.880  28.784  1.00  0.00    -0.459 OA
BRANCH   4   5
ATOM      5  C   UNL A   1      32.923  35.128  29.176  1.00  0.00     0.365 C 
ATOM      6  O   UNL A   1      32.393  36.120  28.694  1.00  0.00    -0.245 OA
BRANCH   5   7
ATOM      7  C   UNL A   1      34.026  35.090  30.300  1.00  0.00     0.304 C 
BRANCH   7   8
ATOM      8  C   UNL A   1      34.916  33.814  30.375  1.00  0.00     0.177 C 
BRANCH   8   9
ATOM      9  C   UNL A   1      36.020  33.590  29.368  1.00  0.00     0.231 C 
ATOM     10  N   UNL A   1      37.330  33.533  29.746  1.00  0.00    -0.326 N 
ATOM     11  H   UNL A   1      37.970  33.607  29.002  1.00  0.00     0.169 HD
ATOM     12  O   UNL A   1      35.750  33.510  28.167  1.00  0.00    -0.274 OA
BRANCH  10  13
ATOM     13  C   UNL A   1      37.928  33.386  31.013  1.00  0.00     0.042 A 
ATOM     14  C   UNL A   1      40.420  33.149  35.468  1.00  0.00     0.046 C 
ATOM     15  C   UNL A   1      39.772  33.165  34.123  1.00  0.00    -0.032 A 
ATOM     16  C   UNL A   1      40.107  34.511  32.968  1.00  0.00     0.007 A 
ATOM     17  C   UNL A   1      38.535  31.921  33.737  1.00  0.00     0.046 A 
ATOM     18  C   UNL A   1      39.220  34.594  31.401  1.00  0.00     0.026 A 
ATOM     19  C   UNL A   1      37.614  32.025  32.173  1.00  0.00     0.047 A 
ATOM     20  Cl  UNL A   1      38.208  30.622  34.818  1.00  0.00    -0.084 Cl
ENDBRANCH  10  13
ENDBRANCH   8   9
ENDBRANCH   7   8
BRANCH   7  21
ATOM     21  N   UNL A   1      33.544  35.498  31.687  1.00  0.00    -0.328 N 
ATOM     22  C   UNL A   1      33.859  34.557  32.762  1.00  0.00     0.333 C 
ATOM     23  C   UNL A   1      33.802  36.856  32.163  1.00  0.00     0.333 C 
ATOM     24  H   UNL A   1      32.547  35.474  31.475  1.00  0.00     0.348 HD
ENDBRANCH   7  21
ENDBRANCH   5   7
ENDBRANCH   4   5
ENDBRANCH   3   4
ENDBRANCH   2   3
ENDBRANCH   1   2
BRANCH   1  25
ATOM     25  C   UNL A   1      32.277  29.225  25.957  1.00  0.00     0.202 C 
BRANCH  25  26
ATOM     26  C   UNL A   1      33.810  29.033  25.908  1.00  0.00     0.261 C 
BRANCH  26  27
ATOM     27  O   UNL A   1      34.423  28.784  27.167  1.00  0.00    -0.460 OA
BRANCH  27  28
ATOM     28  C   UNL A   1      34.774  29.868  27.892  1.00  0.00     0.338 C 
ATOM     29  O   UNL A   1      34.047  30.762  28.290  1.00  0.00    -0.246 OA
BRANCH  28  30
ATOM     30  C   UNL A   1      36.188  29.678  28.270  1.00  0.00     0.060 A 
ATOM     31  C   UNL A   1      37.168  29.907  27.298  1.00  0.00     0.016 A 
ATOM     32  C   UNL A   1      36.548  29.384  29.593  1.00  0.00     0.016 A 
ATOM     33  C   UNL A   1      38.514  29.835  27.646  1.00  0.00     0.010 A 
ATOM     34  C   UNL A   1      37.893  29.291  29.938  1.00  0.00     0.010 A 
ATOM     35  C   UNL A   1      38.875  29.484  28.955  1.00  0.00    -0.014 A 
BRANCH  35  36
ATOM     36  C   UNL A   1      40.248  29.008  29.215  1.00  0.00     0.031 A 
ATOM     37  C   UNL A   1      41.177  29.978  29.890  1.00  0.00     0.074 A 
ATOM     38  C   UNL A   1      40.652  27.775  28.869  1.00  0.00     0.049 A 
ATOM     39  N   UNL A   1      42.419  29.821  30.252  1.00  0.00    -0.248 NA
ATOM     40  C   UNL A   1      40.620  31.308  30.201  1.00  0.00     0.031 C 
ATOM     41  C   UNL A   1      39.824  26.756  28.226  1.00  0.00     0.029 A 
ATOM     42  N   UNL A   1      41.876  27.174  29.011  1.00  0.00    -0.354 N 
ATOM     43  C   UNL A   1      42.785  31.022  30.847  1.00  0.00     0.074 A 
ATOM     44  C   UNL A   1      41.652  31.912  30.764  1.00  0.00     0.031 C 
ATOM     45  C   UNL A   1      40.571  25.655  28.019  1.00  0.00     0.029 A 
ATOM     46  C   UNL A   1      41.931  25.900  28.497  1.00  0.00     0.049 A 
ATOM     47  H   UNL A   1      42.645  27.614  29.441  1.00  0.00     0.167 HD
ATOM     48  C   UNL A   1      43.964  31.352  31.420  1.00  0.00     0.037 A 
ATOM     49  C   UNL A   1      42.971  25.046  28.418  1.00  0.00     0.037 A 
ATOM     50  C   UNL A   1      45.099  30.475  31.456  1.00  0.00     0.049 A 
ATOM     51  C   UNL A   1      44.303  25.468  28.989  1.00  0.00     0.074 A 
ATOM     52  C   UNL A   1      46.348  30.704  32.001  1.00  0.00     0.029 A 
ATOM     53  N   UNL A   1      45.127  29.203  30.898  1.00  0.00    -0.354 N 
ATOM     54  N   UNL A   1      44.626  26.587  29.598  1.00  0.00    -0.248 NA
ATOM     55  C   UNL A   1      45.413  24.512  28.868  1.00  0.00     0.031 C 
ATOM     56  C   UNL A   1      47.149  29.592  31.725  1.00  0.00     0.029 A 
ATOM     57  C   UNL A   1      46.382  28.645  31.061  1.00  0.00     0.049 A 
ATOM     58  H   UNL A   1      44.367  28.765  30.452  1.00  0.00     0.167 HD
ATOM     59  C   UNL A   1      45.963  26.455  29.962  1.00  0.00     0.074 A 
ATOM     60  C   UNL A   1      46.387  25.144  29.510  1.00  0.00     0.031 C 
ATOM     61  C   UNL A   1      46.770  27.332  30.611  1.00  0.00     0.037 A 
BRANCH  48  62
ATOM     62  C   UNL A   1      44.078  32.727  32.009  1.00  0.00     0.058 A 
ATOM     63  C   UNL A   1      43.740  32.987  33.348  1.00  0.00     0.135 A 
ATOM     64  C   UNL A   1      44.521  33.803  31.224  1.00  0.00     0.135 A 
ATOM     65  F   UNL A   1      43.279  32.000  34.133  1.00  0.00    -0.206 F 
ATOM     66  C   UNL A   1      43.814  34.269  33.880  1.00  0.00     0.059 A 
ATOM     67  C   UNL A   1      44.628  35.089  31.743  1.00  0.00     0.059 A 
ATOM     68  F   UNL A   1      44.840  33.612  29.934  1.00  0.00    -0.206 F 
ATOM     69  C   UNL A   1      44.259  35.314  33.069  1.00  0.00     0.060 A 
BRANCH  69  70
ATOM     70  S   UNL A   1      44.352  36.972  33.775  1.00  0.00     0.124 S 
ATOM     71  O   UNL A   1      43.088  37.550  33.329  1.00  0.00    -0.237 OA
ATOM     72  O   UNL A   1      44.453  36.695  35.205  1.00  0.00    -0.237 OA
ATOM     73  O   UNL A   1      45.550  37.536  33.161  1.00  0.00    -0.744 OA
ENDBRANCH  69  70
ENDBRANCH  48  62
BRANCH  49  74
ATOM     74  C   UNL A   1      42.803  23.712  27.779  1.00  0.00     0.058 A 
ATOM     75  C   UNL A   1      42.484  22.576  28.540  1.00  0.00     0.135 A 
ATOM     76  C   UNL A   1      42.977  23.539  26.397  1.00  0.00     0.135 A 
ATOM     77  F   UNL A   1      42.319  22.683  29.867  1.00  0.00    -0.206 F 
ATOM     78  C   UNL A   1      42.361  21.318  27.959  1.00  0.00     0.059 A 
ATOM     79  C   UNL A   1      42.833  22.295  25.789  1.00  0.00     0.059 A 
ATOM     80  F   UNL A   1      43.277  24.592  25.620  1.00  0.00    -0.206 F 
ATOM     81  C   UNL A   1      42.535  21.187  26.580  1.00  0.00     0.060 A 
BRANCH  81  82
ATOM     82  S   UNL A   1      42.331  19.555  25.832  1.00  0.00     0.124 S 
ATOM     83  O   UNL A   1      43.280  19.617  24.726  1.00  0.00    -0.237 OA
ATOM     84  O   UNL A   1      42.691  18.668  26.934  1.00  0.00    -0.237 OA
ATOM     85  O   UNL A   1      40.921  19.533  25.454  1.00  0.00    -0.744 OA
ENDBRANCH  81  82
ENDBRANCH  49  74
BRANCH  61  86
ATOM     86  C   UNL A   1      48.176  26.893  30.915  1.00  0.00     0.058 A 
ATOM     87  C   UNL A   1      49.262  27.284  30.116  1.00  0.00     0.135 A 
ATOM     88  C   UNL A   1      48.446  26.138  32.069  1.00  0.00     0.135 A 
ATOM     89  F   UNL A   1      49.057  28.003  29.002  1.00  0.00    -0.206 F 
ATOM     90  C   UNL A   1      50.565  26.922  30.439  1.00  0.00     0.059 A 
ATOM     91  C   UNL A   1      49.745  25.794  32.428  1.00  0.00     0.059 A 
ATOM     92  F   UNL A   1      47.444  25.753  32.875  1.00  0.00    -0.206 F 
ATOM     93  C   UNL A   1      50.797  26.181  31.600  1.00  0.00     0.060 A 
BRANCH  93  94
ATOM     94  S   UNL A   1      52.498  25.755  32.030  1.00  0.00     0.124 S 
ATOM     95  O   UNL A   1      52.349  24.379  32.488  1.00  0.00    -0.237 OA
ATOM     96  O   UNL A   1      53.194  25.930  30.760  1.00  0.00    -0.237 OA
ATOM     97  O   UNL A   1      52.840  26.728  33.064  1.00  0.00    -0.744 OA
ENDBRANCH  93  94
ENDBRANCH  61  86
ENDBRANCH  35  36
ENDBRANCH  28  30
ENDBRANCH  27  28
ENDBRANCH  26  27
ENDBRANCH  25  26
ENDBRANCH   1  25
TORSDOF 21
ENDMDL
