MODEL 1
REMARK VINA RESULT:     -11.0      0.000      0.000
REMARK SMILES Cc1cc(C)c(C(N)=O)c(N[C@H]2C=C[C@H](C(=O)OCCOCCOC(=O)c3ccc(-c4c5nc(c(-c6c(F)cc(S(=O)(=O)[O-])cc6F)c6ccc([nH]6)c(-c6c(F)cc(S(=O)(=O)[O-])cc6F)c6nc(c(-c7c(F)cc(S(=O)(=O)[O-])cc7F)c7ccc4[nH]7)C=C6)C=C5)cc3)C2)n1
REMARK SMILES IDX 21 1 20 2 19 3 18 4 16 5 17 6 15 7 12 8 13 9 93 10 14 11
REMARK SMILES IDX 11 12 10 14 1 15 2 16 3 17 94 18 4 19 5 20 6 21 7 22 8 23
REMARK SMILES IDX 9 24 22 27 23 28 24 29 25 30 26 31 27 32 28 33 92 34 29 35
REMARK SMILES IDX 91 36 30 37 31 38 32 39 85 40 33 41 90 42 84 43 86 44 34 45
REMARK SMILES IDX 89 46 83 47 82 48 35 50 69 51 48 52 68 53 49 54 52 55 67 56
REMARK SMILES IDX 87 57 50 58 51 59 66 61 88 62 53 63 36 64 37 65 46 66 38 67
REMARK SMILES IDX 39 68 45 69 47 70 40 71 41 72 42 73 43 74 44 75 70 76 71 77
REMARK SMILES IDX 80 78 72 79 73 80 79 81 81 82 74 83 75 84 76 85 77 86 78 87
REMARK SMILES IDX 54 88 55 89 64 90 56 91 57 92 63 93 65 94 58 95 59 96 60 97
REMARK SMILES IDX 61 98 62 99
REMARK H PARENT 11 13 8 25 8 26 86 49 52 60
REMARK Flexibility Score: inf
ROOT
ATOM      1  O   UNL A   1      39.705  21.491  26.700  1.00  0.00    -0.374 OA
ENDROOT
BRANCH   1   2
ATOM      2  C   UNL A   1      38.749  21.139  25.699  1.00  0.00     0.202 C 
BRANCH   2   3
ATOM      3  C   UNL A   1      37.772  22.245  25.293  1.00  0.00     0.261 C 
BRANCH   3   4
ATOM      4  O   UNL A   1      36.734  21.702  24.465  1.00  0.00    -0.463 OA
BRANCH   4   5
ATOM      5  C   UNL A   1      36.118  22.587  23.635  1.00  0.00     0.312 C 
ATOM      6  O   UNL A   1      36.657  23.202  22.723  1.00  0.00    -0.252 OA
BRANCH   5   7
ATOM      7  C   UNL A   1      34.624  22.615  23.922  1.00  0.00     0.124 C 
ATOM      8  C   UNL A   1      34.247  24.078  25.817  1.00  0.00     0.104 C 
ATOM      9  C   UNL A   1      34.092  22.643  26.205  1.00  0.00    -0.006 C 
ATOM     10  C   UNL A   1      34.216  24.054  24.287  1.00  0.00     0.048 C 
ATOM     11  C   UNL A   1      34.299  21.835  25.157  1.00  0.00    -0.014 C 
BRANCH   8  12
ATOM     12  N   UNL A   1      33.253  24.949  26.414  1.00  0.00    -0.363 N 
ATOM     13  H   UNL A   1      33.100  24.869  27.383  1.00  0.00     0.162 HD
BRANCH  12  14
ATOM     14  C   UNL A   1      32.501  25.887  25.718  1.00  0.00     0.139 A 
ATOM     15  C   UNL A   1      33.096  29.334  24.563  1.00  0.00     0.067 C 
ATOM     16  C   UNL A   1      32.403  28.023  24.775  1.00  0.00     0.040 A 
ATOM     17  C   UNL A   1      31.118  27.814  24.306  1.00  0.00     0.028 A 
ATOM     18  N   UNL A   1      33.084  27.075  25.448  1.00  0.00    -0.236 NA
ATOM     19  C   UNL A   1      30.496  26.579  24.535  1.00  0.00    -0.033 A 
ATOM     20  C   UNL A   1      29.106  26.391  23.993  1.00  0.00     0.045 C 
ATOM     21  C   UNL A   1      31.193  25.602  25.277  1.00  0.00     0.084 A 
BRANCH  21  22
ATOM     22  C   UNL A   1      30.540  24.303  25.612  1.00  0.00     0.252 C 
ATOM     23  N   UNL A   1      29.670  24.292  26.669  1.00  0.00    -0.365 N 
ATOM     24  O   UNL A   1      30.752  23.277  24.979  1.00  0.00    -0.269 OA
ATOM     25  H   UNL A   1      29.501  25.119  27.176  1.00  0.00     0.159 HD
ATOM     26  H   UNL A   1      29.213  23.457  26.922  1.00  0.00     0.159 HD
ENDBRANCH  21  22
ENDBRANCH  12  14
ENDBRANCH   8  12
ENDBRANCH   5   7
ENDBRANCH   4   5
ENDBRANCH   3   4
ENDBRANCH   2   3
ENDBRANCH   1   2
BRANCH   1  27
ATOM     27  C   UNL A   1      41.063  21.661  26.290  1.00  0.00     0.202 C 
BRANCH  27  28
ATOM     28  C   UNL A   1      41.632  23.084  26.342  1.00  0.00     0.261 C 
BRANCH  28  29
ATOM     29  O   UNL A   1      40.594  24.080  26.367  1.00  0.00    -0.460 OA
BRANCH  29  30
ATOM     30  C   UNL A   1      41.021  25.348  26.162  1.00  0.00     0.338 C 
ATOM     31  O   UNL A   1      41.169  25.909  25.082  1.00  0.00    -0.246 OA
BRANCH  30  32
ATOM     32  C   UNL A   1      41.114  26.069  27.443  1.00  0.00     0.060 A 
ATOM     33  C   UNL A   1      40.041  25.939  28.335  1.00  0.00     0.016 A 
ATOM     34  C   UNL A   1      42.178  26.927  27.730  1.00  0.00     0.016 A 
ATOM     35  C   UNL A   1      39.998  26.713  29.491  1.00  0.00     0.010 A 
ATOM     36  C   UNL A   1      42.127  27.712  28.888  1.00  0.00     0.010 A 
ATOM     37  C   UNL A   1      41.017  27.639  29.748  1.00  0.00    -0.014 A 
BRANCH  37  38
ATOM     38  C   UNL A   1      40.822  28.650  30.815  1.00  0.00     0.031 A 
ATOM     39  C   UNL A   1      41.705  28.594  32.033  1.00  0.00     0.074 A 
ATOM     40  C   UNL A   1      39.906  29.626  30.685  1.00  0.00     0.049 A 
ATOM     41  N   UNL A   1      41.702  29.355  33.096  1.00  0.00    -0.248 NA
ATOM     42  C   UNL A   1      42.728  27.534  32.053  1.00  0.00     0.031 C 
ATOM     43  C   UNL A   1      39.022  29.807  29.535  1.00  0.00     0.029 A 
ATOM     44  N   UNL A   1      39.566  30.648  31.535  1.00  0.00    -0.354 N 
ATOM     45  C   UNL A   1      42.715  28.865  33.913  1.00  0.00     0.074 A 
ATOM     46  C   UNL A   1      43.291  27.724  33.237  1.00  0.00     0.031 C 
ATOM     47  C   UNL A   1      38.231  30.871  29.756  1.00  0.00     0.029 A 
ATOM     48  C   UNL A   1      38.534  31.429  31.073  1.00  0.00     0.049 A 
ATOM     49  H   UNL A   1      40.018  30.806  32.395  1.00  0.00     0.167 HD
ATOM     50  C   UNL A   1      43.132  29.331  35.114  1.00  0.00     0.037 A 
ATOM     51  C   UNL A   1      37.898  32.464  31.655  1.00  0.00     0.037 A 
ATOM     52  C   UNL A   1      42.558  30.470  35.780  1.00  0.00     0.049 A 
ATOM     53  C   UNL A   1      38.344  32.933  33.017  1.00  0.00     0.074 A 
ATOM     54  C   UNL A   1      42.916  31.029  36.995  1.00  0.00     0.029 A 
ATOM     55  N   UNL A   1      41.503  31.224  35.289  1.00  0.00    -0.354 N 
ATOM     56  N   UNL A   1      39.312  32.470  33.772  1.00  0.00    -0.248 NA
ATOM     57  C   UNL A   1      37.616  34.067  33.603  1.00  0.00     0.031 C 
ATOM     58  C   UNL A   1      42.049  32.096  37.257  1.00  0.00     0.029 A 
ATOM     59  C   UNL A   1      41.183  32.232  36.183  1.00  0.00     0.049 A 
ATOM     60  H   UNL A   1      41.047  31.066  34.431  1.00  0.00     0.167 HD
ATOM     61  C   UNL A   1      39.328  33.274  34.908  1.00  0.00     0.074 A 
ATOM     62  C   UNL A   1      38.277  34.256  34.736  1.00  0.00     0.031 C 
ATOM     63  C   UNL A   1      40.141  33.209  35.991  1.00  0.00     0.037 A 
BRANCH  50  64
ATOM     64  C   UNL A   1      44.248  28.590  35.796  1.00  0.00     0.058 A 
ATOM     65  C   UNL A   1      45.595  28.932  35.591  1.00  0.00     0.135 A 
ATOM     66  C   UNL A   1      43.967  27.540  36.683  1.00  0.00     0.135 A 
ATOM     67  F   UNL A   1      45.921  29.916  34.738  1.00  0.00    -0.206 F 
ATOM     68  C   UNL A   1      46.624  28.240  36.222  1.00  0.00     0.059 A 
ATOM     69  C   UNL A   1      44.979  26.850  37.344  1.00  0.00     0.059 A 
ATOM     70  F   UNL A   1      42.697  27.170  36.912  1.00  0.00    -0.206 F 
ATOM     71  C   UNL A   1      46.306  27.198  37.095  1.00  0.00     0.060 A 
BRANCH  71  72
ATOM     72  S   UNL A   1      47.651  26.308  37.906  1.00  0.00     0.124 S 
ATOM     73  O   UNL A   1      48.766  26.584  37.006  1.00  0.00    -0.237 OA
ATOM     74  O   UNL A   1      47.715  26.959  39.211  1.00  0.00    -0.237 OA
ATOM     75  O   UNL A   1      47.183  24.925  37.921  1.00  0.00    -0.744 OA
ENDBRANCH  71  72
ENDBRANCH  50  64
BRANCH  51  76
ATOM     76  C   UNL A   1      36.765  33.127  30.957  1.00  0.00     0.058 A 
ATOM     77  C   UNL A   1      35.435  32.840  31.295  1.00  0.00     0.135 A 
ATOM     78  C   UNL A   1      36.993  34.063  29.936  1.00  0.00     0.135 A 
ATOM     79  F   UNL A   1      35.166  31.944  32.257  1.00  0.00    -0.206 F 
ATOM     80  C   UNL A   1      34.369  33.448  30.638  1.00  0.00     0.059 A 
ATOM     81  C   UNL A   1      35.945  34.702  29.281  1.00  0.00     0.059 A 
ATOM     82  F   UNL A   1      38.249  34.381  29.582  1.00  0.00    -0.206 F 
ATOM     83  C   UNL A   1      34.635  34.380  29.634  1.00  0.00     0.060 A 
BRANCH  83  84
ATOM     84  S   UNL A   1      33.247  35.200  28.821  1.00  0.00     0.124 S 
ATOM     85  O   UNL A   1      32.477  35.678  29.965  1.00  0.00    -0.237 OA
ATOM     86  O   UNL A   1      33.917  36.226  28.028  1.00  0.00    -0.237 OA
ATOM     87  O   UNL A   1      32.630  34.126  28.049  1.00  0.00    -0.744 OA
ENDBRANCH  83  84
ENDBRANCH  51  76
BRANCH  63  88
ATOM     88  C   UNL A   1      39.959  34.251  37.061  1.00  0.00     0.058 A 
ATOM     89  C   UNL A   1      40.551  35.519  36.966  1.00  0.00     0.135 A 
ATOM     90  C   UNL A   1      39.134  33.992  38.168  1.00  0.00     0.135 A 
ATOM     91  F   UNL A   1      41.353  35.814  35.930  1.00  0.00    -0.206 F 
ATOM     92  C   UNL A   1      40.349  36.489  37.943  1.00  0.00     0.059 A 
ATOM     93  C   UNL A   1      38.897  34.955  39.143  1.00  0.00     0.059 A 
ATOM     94  F   UNL A   1      38.534  32.798  38.300  1.00  0.00    -0.206 F 
ATOM     95  C   UNL A   1      39.518  36.198  39.027  1.00  0.00     0.060 A 
BRANCH  95  96
ATOM     96  S   UNL A   1      39.235  37.476  40.271  1.00  0.00     0.124 S 
ATOM     97  O   UNL A   1      40.574  38.034  40.428  1.00  0.00    -0.237 OA
ATOM     98  O   UNL A   1      38.261  38.343  39.614  1.00  0.00    -0.237 OA
ATOM     99  O   UNL A   1      38.727  36.729  41.416  1.00  0.00    -0.744 OA
ENDBRANCH  95  96
ENDBRANCH  63  88
ENDBRANCH  37  38
ENDBRANCH  30  32
ENDBRANCH  29  30
ENDBRANCH  28  29
ENDBRANCH  27  28
ENDBRANCH   1  27
TORSDOF 20
ENDMDL
MODEL 2
REMARK VINA RESULT:     -10.7      6.454     12.160
REMARK SMILES Cc1cc(C)c(C(N)=O)c(N[C@H]2C=C[C@H](C(=O)OCCOCCOC(=O)c3ccc(-c4c5nc(c(-c6c(F)cc(S(=O)(=O)[O-])cc6F)c6ccc([nH]6)c(-c6c(F)cc(S(=O)(=O)[O-])cc6F)c6nc(c(-c7c(F)cc(S(=O)(=O)[O-])cc7F)c7ccc4[nH]7)C=C6)C=C5)cc3)C2)n1
REMARK SMILES IDX 21 1 20 2 19 3 18 4 16 5 17 6 15 7 12 8 13 9 93 10 14 11
REMARK SMILES IDX 11 12 10 14 1 15 2 16 3 17 94 18 4 19 5 20 6 21 7 22 8 23
REMARK SMILES IDX 9 24 22 27 23 28 24 29 25 30 26 31 27 32 28 33 92 34 29 35
REMARK SMILES IDX 91 36 30 37 31 38 32 39 85 40 33 41 90 42 84 43 86 44 34 45
REMARK SMILES IDX 89 46 83 47 82 48 35 50 69 51 48 52 68 53 49 54 52 55 67 56
REMARK SMILES IDX 87 57 50 58 51 59 66 61 88 62 53 63 36 64 37 65 46 66 38 67
REMARK SMILES IDX 39 68 45 69 47 70 40 71 41 72 42 73 43 74 44 75 70 76 71 77
REMARK SMILES IDX 80 78 72 79 73 80 79 81 81 82 74 83 75 84 76 85 77 86 78 87
REMARK SMILES IDX 54 88 55 89 64 90 56 91 57 92 63 93 65 94 58 95 59 96 60 97
REMARK SMILES IDX 61 98 62 99
REMARK H PARENT 11 13 8 25 8 26 86 49 52 60
REMARK Flexibility Score: inf
ROOT
ATOM      1  O   UNL A   1      33.327  31.245  27.243  1.00  0.00    -0.374 OA
ENDROOT
BRANCH   1   2
ATOM      2  C   UNL A   1      32.551  30.045  27.249  1.00  0.00     0.202 C 
BRANCH   2   3
ATOM      3  C   UNL A   1      32.028  29.584  25.887  1.00  0.00     0.261 C 
BRANCH   3   4
ATOM      4  O   UNL A   1      31.751  28.176  25.920  1.00  0.00    -0.463 OA
BRANCH   4   5
ATOM      5  C   UNL A   1      31.856  27.527  24.729  1.00  0.00     0.312 C 
ATOM      6  O   UNL A   1      30.973  27.438  23.885  1.00  0.00    -0.252 OA
BRANCH   5   7
ATOM      7  C   UNL A   1      33.280  27.025  24.535  1.00  0.00     0.124 C 
ATOM      8  C   UNL A   1      33.181  24.659  24.018  1.00  0.00     0.104 C 
ATOM      9  C   UNL A   1      33.665  24.886  25.414  1.00  0.00    -0.006 C 
ATOM     10  C   UNL A   1      33.300  26.035  23.356  1.00  0.00     0.048 C 
ATOM     11  C   UNL A   1      33.720  26.194  25.699  1.00  0.00    -0.014 C 
BRANCH   8  12
ATOM     12  N   UNL A   1      33.896  23.607  23.323  1.00  0.00    -0.363 N 
ATOM     13  H   UNL A   1      34.114  23.753  22.375  1.00  0.00     0.162 HD
BRANCH  12  14
ATOM     14  C   UNL A   1      34.294  22.406  23.898  1.00  0.00     0.139 A 
ATOM     15  C   UNL A   1      32.531  19.385  25.055  1.00  0.00     0.067 C 
ATOM     16  C   UNL A   1      33.659  20.316  24.729  1.00  0.00     0.040 A 
ATOM     17  C   UNL A   1      34.970  19.969  25.005  1.00  0.00     0.028 A 
ATOM     18  N   UNL A   1      33.332  21.498  24.173  1.00  0.00    -0.236 NA
ATOM     19  C   UNL A   1      35.997  20.871  24.698  1.00  0.00    -0.033 A 
ATOM     20  C   UNL A   1      37.408  20.444  24.999  1.00  0.00     0.045 C 
ATOM     21  C   UNL A   1      35.651  22.126  24.155  1.00  0.00     0.084 A 
BRANCH  21  22
ATOM     22  C   UNL A   1      36.706  23.148  23.887  1.00  0.00     0.252 C 
ATOM     23  N   UNL A   1      37.328  23.707  24.970  1.00  0.00    -0.365 N 
ATOM     24  O   UNL A   1      37.023  23.483  22.752  1.00  0.00    -0.269 OA
ATOM     25  H   UNL A   1      37.070  23.435  25.880  1.00  0.00     0.159 HD
ATOM     26  H   UNL A   1      38.032  24.382  24.839  1.00  0.00     0.159 HD
ENDBRANCH  21  22
ENDBRANCH  12  14
ENDBRANCH   8  12
ENDBRANCH   5   7
ENDBRANCH   4   5
ENDBRANCH   3   4
ENDBRANCH   2   3
ENDBRANCH   1   2
BRANCH   1  27
ATOM     27  C   UNL A   1      34.654  31.180  27.767  1.00  0.00     0.202 C 
BRANCH  27  28
ATOM     28  C   UNL A   1      34.915  31.904  29.093  1.00  0.00     0.261 C 
BRANCH  28  29
ATOM     29  O   UNL A   1      35.829  31.177  29.934  1.00  0.00    -0.460 OA
BRANCH  29  30
ATOM     30  C   UNL A   1      37.009  31.801  30.159  1.00  0.00     0.338 C 
ATOM     31  O   UNL A   1      37.179  32.868  30.740  1.00  0.00    -0.246 OA
BRANCH  30  32
ATOM     32  C   UNL A   1      38.131  30.927  29.775  1.00  0.00     0.060 A 
ATOM     33  C   UNL A   1      39.149  30.734  30.719  1.00  0.00     0.016 A 
ATOM     34  C   UNL A   1      38.235  30.384  28.493  1.00  0.00     0.016 A 
ATOM     35  C   UNL A   1      40.306  30.046  30.364  1.00  0.00     0.010 A 
ATOM     36  C   UNL A   1      39.405  29.701  28.136  1.00  0.00     0.010 A 
ATOM     37  C   UNL A   1      40.460  29.569  29.056  1.00  0.00    -0.014 A 
BRANCH  37  38
ATOM     38  C   UNL A   1      41.795  29.100  28.611  1.00  0.00     0.031 A 
ATOM     39  C   UNL A   1      42.924  30.092  28.546  1.00  0.00     0.074 A 
ATOM     40  C   UNL A   1      42.009  27.807  28.310  1.00  0.00     0.049 A 
ATOM     41  N   UNL A   1      44.163  29.917  28.169  1.00  0.00    -0.248 NA
ATOM     42  C   UNL A   1      42.612  31.471  28.965  1.00  0.00     0.031 C 
ATOM     43  C   UNL A   1      41.004  26.747  28.374  1.00  0.00     0.029 A 
ATOM     44  N   UNL A   1      43.146  27.168  27.886  1.00  0.00    -0.354 N 
ATOM     45  C   UNL A   1      44.777  31.158  28.297  1.00  0.00     0.074 A 
ATOM     46  C   UNL A   1      43.767  32.085  28.759  1.00  0.00     0.031 C 
ATOM     47  C   UNL A   1      41.567  25.589  27.992  1.00  0.00     0.029 A 
ATOM     48  C   UNL A   1      42.964  25.830  27.630  1.00  0.00     0.049 A 
ATOM     49  H   UNL A   1      44.011  27.624  27.775  1.00  0.00     0.167 HD
ATOM     50  C   UNL A   1      46.067  31.492  28.058  1.00  0.00     0.037 A 
ATOM     51  C   UNL A   1      43.822  24.912  27.144  1.00  0.00     0.037 A 
ATOM     52  C   UNL A   1      47.069  30.564  27.603  1.00  0.00     0.049 A 
ATOM     53  C   UNL A   1      45.240  25.318  26.835  1.00  0.00     0.074 A 
ATOM     54  C   UNL A   1      48.407  30.802  27.343  1.00  0.00     0.029 A 
ATOM     55  N   UNL A   1      46.841  29.223  27.337  1.00  0.00    -0.354 N 
ATOM     56  N   UNL A   1      45.811  26.491  26.974  1.00  0.00    -0.248 NA
ATOM     57  C   UNL A   1      46.133  24.276  26.309  1.00  0.00     0.031 C 
ATOM     58  C   UNL A   1      48.980  29.611  26.880  1.00  0.00     0.029 A 
ATOM     59  C   UNL A   1      48.009  28.621  26.898  1.00  0.00     0.049 A 
ATOM     60  H   UNL A   1      45.976  28.764  27.445  1.00  0.00     0.167 HD
ATOM     61  C   UNL A   1      47.135  26.321  26.581  1.00  0.00     0.074 A 
ATOM     62  C   UNL A   1      47.281  24.930  26.205  1.00  0.00     0.031 C 
ATOM     63  C   UNL A   1      48.139  27.231  26.540  1.00  0.00     0.037 A 
BRANCH  50  64
ATOM     64  C   UNL A   1      46.461  32.928  28.263  1.00  0.00     0.058 A 
ATOM     65  C   UNL A   1      47.121  33.354  29.427  1.00  0.00     0.135 A 
ATOM     66  C   UNL A   1      46.196  33.887  27.273  1.00  0.00     0.135 A 
ATOM     67  F   UNL A   1      47.382  32.483  30.414  1.00  0.00    -0.206 F 
ATOM     68  C   UNL A   1      47.480  34.686  29.612  1.00  0.00     0.059 A 
ATOM     69  C   UNL A   1      46.567  35.219  27.426  1.00  0.00     0.059 A 
ATOM     70  F   UNL A   1      45.563  33.533  26.142  1.00  0.00    -0.206 F 
ATOM     71  C   UNL A   1      47.196  35.612  28.606  1.00  0.00     0.060 A 
BRANCH  71  72
ATOM     72  S   UNL A   1      47.665  37.337  28.860  1.00  0.00     0.124 S 
ATOM     73  O   UNL A   1      47.045  37.979  27.706  1.00  0.00    -0.237 OA
ATOM     74  O   UNL A   1      47.060  37.639  30.153  1.00  0.00    -0.237 OA
ATOM     75  O   UNL A   1      49.124  37.297  28.848  1.00  0.00    -0.744 OA
ENDBRANCH  71  72
ENDBRANCH  50  64
BRANCH  51  76
ATOM     76  C   UNL A   1      43.363  23.517  26.911  1.00  0.00     0.058 A 
ATOM     77  C   UNL A   1      43.152  22.633  27.979  1.00  0.00     0.135 A 
ATOM     78  C   UNL A   1      43.126  23.041  25.612  1.00  0.00     0.135 A 
ATOM     79  F   UNL A   1      43.376  23.038  29.238  1.00  0.00    -0.206 F 
ATOM     80  C   UNL A   1      42.734  21.323  27.768  1.00  0.00     0.059 A 
ATOM     81  C   UNL A   1      42.684  21.743  25.377  1.00  0.00     0.059 A 
ATOM     82  F   UNL A   1      43.303  23.851  24.555  1.00  0.00    -0.206 F 
ATOM     83  C   UNL A   1      42.500  20.888  26.463  1.00  0.00     0.060 A 
BRANCH  83  84
ATOM     84  S   UNL A   1      41.910  19.201  26.202  1.00  0.00     0.124 S 
ATOM     85  O   UNL A   1      42.287  18.561  27.458  1.00  0.00    -0.237 OA
ATOM     86  O   UNL A   1      40.480  19.405  25.992  1.00  0.00    -0.237 OA
ATOM     87  O   UNL A   1      42.653  18.766  25.023  1.00  0.00    -0.744 OA
ENDBRANCH  83  84
ENDBRANCH  51  76
BRANCH  63  88
ATOM     88  C   UNL A   1      49.498  26.749  26.112  1.00  0.00     0.058 A 
ATOM     89  C   UNL A   1      49.951  26.888  24.792  1.00  0.00     0.135 A 
ATOM     90  C   UNL A   1      50.379  26.190  27.053  1.00  0.00     0.135 A 
ATOM     91  F   UNL A   1      49.145  27.411  23.853  1.00  0.00    -0.206 F 
ATOM     92  C   UNL A   1      51.223  26.471  24.413  1.00  0.00     0.059 A 
ATOM     93  C   UNL A   1      51.664  25.790  26.702  1.00  0.00     0.059 A 
ATOM     94  F   UNL A   1      49.999  26.046  28.333  1.00  0.00    -0.206 F 
ATOM     95  C   UNL A   1      52.073  25.924  25.377  1.00  0.00     0.060 A 
BRANCH  95  96
ATOM     96  S   UNL A   1      53.735  25.418  24.881  1.00  0.00     0.124 S 
ATOM     97  O   UNL A   1      53.644  23.966  24.990  1.00  0.00    -0.237 OA
ATOM     98  O   UNL A   1      53.832  25.947  23.524  1.00  0.00    -0.237 OA
ATOM     99  O   UNL A   1      54.595  26.070  25.864  1.00  0.00    -0.744 OA
ENDBRANCH  95  96
ENDBRANCH  63  88
ENDBRANCH  37  38
ENDBRANCH  30  32
ENDBRANCH  29  30
ENDBRANCH  28  29
ENDBRANCH  27  28
ENDBRANCH   1  27
TORSDOF 20
ENDMDL
MODEL 3
REMARK VINA RESULT:     -10.7      1.148      2.055
REMARK SMILES Cc1cc(C)c(C(N)=O)c(N[C@H]2C=C[C@H](C(=O)OCCOCCOC(=O)c3ccc(-c4c5nc(c(-c6c(F)cc(S(=O)(=O)[O-])cc6F)c6ccc([nH]6)c(-c6c(F)cc(S(=O)(=O)[O-])cc6F)c6nc(c(-c7c(F)cc(S(=O)(=O)[O-])cc7F)c7ccc4[nH]7)C=C6)C=C5)cc3)C2)n1
REMARK SMILES IDX 21 1 20 2 19 3 18 4 16 5 17 6 15 7 12 8 13 9 93 10 14 11
REMARK SMILES IDX 11 12 10 14 1 15 2 16 3 17 94 18 4 19 5 20 6 21 7 22 8 23
REMARK SMILES IDX 9 24 22 27 23 28 24 29 25 30 26 31 27 32 28 33 92 34 29 35
REMARK SMILES IDX 91 36 30 37 31 38 32 39 85 40 33 41 90 42 84 43 86 44 34 45
REMARK SMILES IDX 89 46 83 47 82 48 35 50 69 51 48 52 68 53 49 54 52 55 67 56
REMARK SMILES IDX 87 57 50 58 51 59 66 61 88 62 53 63 36 64 37 65 46 66 38 67
REMARK SMILES IDX 39 68 45 69 47 70 40 71 41 72 42 73 43 74 44 75 70 76 71 77
REMARK SMILES IDX 80 78 72 79 73 80 79 81 81 82 74 83 75 84 76 85 77 86 78 87
REMARK SMILES IDX 54 88 55 89 64 90 56 91 57 92 63 93 65 94 58 95 59 96 60 97
REMARK SMILES IDX 61 98 62 99
REMARK H PARENT 11 13 8 25 8 26 86 49 52 60
REMARK Flexibility Score: inf
ROOT
ATOM      1  O   UNL A   1      38.695  21.703  26.193  1.00  0.00    -0.374 OA
ENDROOT
BRANCH   1   2
ATOM      2  C   UNL A   1      37.922  21.458  25.017  1.00  0.00     0.202 C 
BRANCH   2   3
ATOM      3  C   UNL A   1      36.586  20.742  25.235  1.00  0.00     0.261 C 
BRANCH   3   4
ATOM      4  O   UNL A   1      35.594  21.274  24.345  1.00  0.00    -0.463 OA
BRANCH   4   5
ATOM      5  C   UNL A   1      34.305  20.967  24.650  1.00  0.00     0.312 C 
ATOM      6  O   UNL A   1      33.939  20.009  25.320  1.00  0.00    -0.252 OA
BRANCH   5   7
ATOM      7  C   UNL A   1      33.376  22.060  24.140  1.00  0.00     0.124 C 
ATOM      8  C   UNL A   1      34.257  24.197  24.867  1.00  0.00     0.104 C 
ATOM      9  C   UNL A   1      33.048  23.816  25.658  1.00  0.00    -0.006 C 
ATOM     10  C   UNL A   1      34.228  23.251  23.664  1.00  0.00     0.048 C 
ATOM     11  C   UNL A   1      32.561  22.635  25.255  1.00  0.00    -0.014 C 
BRANCH   8  12
ATOM     12  N   UNL A   1      34.296  25.603  24.512  1.00  0.00    -0.363 N 
ATOM     13  H   UNL A   1      35.148  25.965  24.179  1.00  0.00     0.162 HD
BRANCH  12  14
ATOM     14  C   UNL A   1      33.218  26.474  24.609  1.00  0.00     0.139 A 
ATOM     15  C   UNL A   1      31.733  28.454  27.338  1.00  0.00     0.067 C 
ATOM     16  C   UNL A   1      31.958  27.903  25.963  1.00  0.00     0.040 A 
ATOM     17  C   UNL A   1      31.130  28.255  24.911  1.00  0.00     0.028 A 
ATOM     18  N   UNL A   1      32.988  27.047  25.810  1.00  0.00    -0.236 NA
ATOM     19  C   UNL A   1      31.364  27.708  23.642  1.00  0.00    -0.033 A 
ATOM     20  C   UNL A   1      30.450  28.132  22.526  1.00  0.00     0.045 C 
ATOM     21  C   UNL A   1      32.416  26.780  23.492  1.00  0.00     0.084 A 
BRANCH  21  22
ATOM     22  C   UNL A   1      32.650  26.114  22.177  1.00  0.00     0.252 C 
ATOM     23  N   UNL A   1      31.737  25.177  21.776  1.00  0.00    -0.365 N 
ATOM     24  O   UNL A   1      33.610  26.383  21.466  1.00  0.00    -0.269 OA
ATOM     25  H   UNL A   1      30.966  24.964  22.351  1.00  0.00     0.159 HD
ATOM     26  H   UNL A   1      31.851  24.716  20.914  1.00  0.00     0.159 HD
ENDBRANCH  21  22
ENDBRANCH  12  14
ENDBRANCH   8  12
ENDBRANCH   5   7
ENDBRANCH   4   5
ENDBRANCH   3   4
ENDBRANCH   2   3
ENDBRANCH   1   2
BRANCH   1  27
ATOM     27  C   UNL A   1      40.085  21.374  26.154  1.00  0.00     0.202 C 
BRANCH  27  28
ATOM     28  C   UNL A   1      41.045  22.323  26.881  1.00  0.00     0.261 C 
BRANCH  28  29
ATOM     29  O   UNL A   1      40.925  23.677  26.410  1.00  0.00    -0.460 OA
BRANCH  29  30
ATOM     30  C   UNL A   1      41.956  24.487  26.746  1.00  0.00     0.338 C 
ATOM     31  O   UNL A   1      43.109  24.421  26.334  1.00  0.00    -0.246 OA
BRANCH  30  32
ATOM     32  C   UNL A   1      41.474  25.619  27.556  1.00  0.00     0.060 A 
ATOM     33  C   UNL A   1      42.285  26.760  27.617  1.00  0.00     0.016 A 
ATOM     34  C   UNL A   1      40.303  25.537  28.313  1.00  0.00     0.016 A 
ATOM     35  C   UNL A   1      41.962  27.800  28.483  1.00  0.00     0.010 A 
ATOM     36  C   UNL A   1      39.985  26.580  29.192  1.00  0.00     0.010 A 
ATOM     37  C   UNL A   1      40.837  27.694  29.311  1.00  0.00    -0.014 A 
BRANCH  37  38
ATOM     38  C   UNL A   1      40.662  28.661  30.421  1.00  0.00     0.031 A 
ATOM     39  C   UNL A   1      41.555  28.543  31.627  1.00  0.00     0.074 A 
ATOM     40  C   UNL A   1      39.757  29.651  30.341  1.00  0.00     0.049 A 
ATOM     41  N   UNL A   1      41.571  29.258  32.721  1.00  0.00    -0.248 NA
ATOM     42  C   UNL A   1      42.567  27.472  31.594  1.00  0.00     0.031 C 
ATOM     43  C   UNL A   1      38.865  29.890  29.207  1.00  0.00     0.029 A 
ATOM     44  N   UNL A   1      39.436  30.640  31.236  1.00  0.00    -0.354 N 
ATOM     45  C   UNL A   1      42.585  28.723  33.508  1.00  0.00     0.074 A 
ATOM     46  C   UNL A   1      43.142  27.605  32.779  1.00  0.00     0.031 C 
ATOM     47  C   UNL A   1      38.089  30.953  29.480  1.00  0.00     0.029 A 
ATOM     48  C   UNL A   1      38.409  31.452  30.817  1.00  0.00     0.049 A 
ATOM     49  H   UNL A   1      39.897  30.757  32.098  1.00  0.00     0.167 HD
ATOM     50  C   UNL A   1      43.017  29.132  34.724  1.00  0.00     0.037 A 
ATOM     51  C   UNL A   1      37.790  32.468  31.449  1.00  0.00     0.037 A 
ATOM     52  C   UNL A   1      42.462  30.249  35.443  1.00  0.00     0.049 A 
ATOM     53  C   UNL A   1      38.253  32.873  32.825  1.00  0.00     0.074 A 
ATOM     54  C   UNL A   1      42.837  30.751  36.677  1.00  0.00     0.029 A 
ATOM     55  N   UNL A   1      41.411  31.034  34.994  1.00  0.00    -0.354 N 
ATOM     56  N   UNL A   1      39.222  32.368  33.551  1.00  0.00    -0.248 NA
ATOM     57  C   UNL A   1      37.543  33.989  33.465  1.00  0.00     0.031 C 
ATOM     58  C   UNL A   1      41.985  31.816  36.992  1.00  0.00     0.029 A 
ATOM     59  C   UNL A   1      41.111  32.007  35.933  1.00  0.00     0.049 A 
ATOM     60  H   UNL A   1      40.946  30.918  34.134  1.00  0.00     0.167 HD
ATOM     61  C   UNL A   1      39.257  33.123  34.720  1.00  0.00     0.074 A 
ATOM     62  C   UNL A   1      38.216  34.123  34.599  1.00  0.00     0.031 C 
ATOM     63  C   UNL A   1      40.078  33.002  35.791  1.00  0.00     0.037 A 
BRANCH  50  64
ATOM     64  C   UNL A   1      44.130  28.351  35.364  1.00  0.00     0.058 A 
ATOM     65  C   UNL A   1      43.876  27.262  36.213  1.00  0.00     0.135 A 
ATOM     66  C   UNL A   1      45.470  28.680  35.105  1.00  0.00     0.135 A 
ATOM     67  F   UNL A   1      42.613  26.916  36.509  1.00  0.00    -0.206 F 
ATOM     68  C   UNL A   1      44.911  26.545  36.805  1.00  0.00     0.059 A 
ATOM     69  C   UNL A   1      46.521  27.962  35.667  1.00  0.00     0.059 A 
ATOM     70  F   UNL A   1      45.769  29.715  34.303  1.00  0.00    -0.206 F 
ATOM     71  C   UNL A   1      46.231  26.905  36.528  1.00  0.00     0.060 A 
BRANCH  71  72
ATOM     72  S   UNL A   1      47.565  25.966  37.303  1.00  0.00     0.124 S 
ATOM     73  O   UNL A   1      47.439  24.676  36.633  1.00  0.00    -0.237 OA
ATOM     74  O   UNL A   1      48.744  26.750  36.951  1.00  0.00    -0.237 OA
ATOM     75  O   UNL A   1      47.209  25.976  38.718  1.00  0.00    -0.744 OA
ENDBRANCH  71  72
ENDBRANCH  50  64
BRANCH  51  76
ATOM     76  C   UNL A   1      36.659  33.172  30.789  1.00  0.00     0.058 A 
ATOM     77  C   UNL A   1      36.878  34.092  29.754  1.00  0.00     0.135 A 
ATOM     78  C   UNL A   1      35.332  32.937  31.184  1.00  0.00     0.135 A 
ATOM     79  F   UNL A   1      38.130  34.358  29.349  1.00  0.00    -0.206 F 
ATOM     80  C   UNL A   1      35.826  34.763  29.140  1.00  0.00     0.059 A 
ATOM     81  C   UNL A   1      34.261  33.577  30.570  1.00  0.00     0.059 A 
ATOM     82  F   UNL A   1      35.067  32.057  32.164  1.00  0.00    -0.206 F 
ATOM     83  C   UNL A   1      34.519  34.496  29.554  1.00  0.00     0.060 A 
BRANCH  83  84
ATOM     84  S   UNL A   1      33.156  35.335  28.718  1.00  0.00     0.124 S 
ATOM     85  O   UNL A   1      32.504  34.225  28.032  1.00  0.00    -0.237 OA
ATOM     86  O   UNL A   1      32.421  35.917  29.837  1.00  0.00    -0.237 OA
ATOM     87  O   UNL A   1      33.835  36.299  27.857  1.00  0.00    -0.744 OA
ENDBRANCH  83  84
ENDBRANCH  51  76
BRANCH  63  88
ATOM     88  C   UNL A   1      39.918  34.000  36.906  1.00  0.00     0.058 A 
ATOM     89  C   UNL A   1      40.529  35.262  36.863  1.00  0.00     0.135 A 
ATOM     90  C   UNL A   1      39.094  33.706  38.005  1.00  0.00     0.135 A 
ATOM     91  F   UNL A   1      41.331  35.589  35.836  1.00  0.00    -0.206 F 
ATOM     92  C   UNL A   1      40.347  36.191  37.881  1.00  0.00     0.059 A 
ATOM     93  C   UNL A   1      38.877  34.630  39.022  1.00  0.00     0.059 A 
ATOM     94  F   UNL A   1      38.476  32.518  38.089  1.00  0.00    -0.206 F 
ATOM     95  C   UNL A   1      39.517  35.867  38.957  1.00  0.00     0.060 A 
BRANCH  95  96
ATOM     96  S   UNL A   1      39.259  37.095  40.256  1.00  0.00     0.124 S 
ATOM     97  O   UNL A   1      38.513  36.324  41.245  1.00  0.00    -0.237 OA
ATOM     98  O   UNL A   1      40.626  37.449  40.628  1.00  0.00    -0.237 OA
ATOM     99  O   UNL A   1      38.507  38.149  39.582  1.00  0.00    -0.744 OA
ENDBRANCH  95  96
ENDBRANCH  63  88
ENDBRANCH  37  38
ENDBRANCH  30  32
ENDBRANCH  29  30
ENDBRANCH  28  29
ENDBRANCH  27  28
ENDBRANCH   1  27
TORSDOF 20
ENDMDL
