MODEL 1
REMARK VINA RESULT:     -12.1      0.000      0.000
REMARK SMILES O=C(OCCOCCOC(=O)[C@H]1CCCN(c2cc(-c3ccccn3)nc(-c3ccccc3F)n2)C1)c1ccc(-c2c3nc(c(-c4c(F)cc(S(=O)(=O)[O-])cc4F)c4ccc([nH]4)c(-c4c(F)cc(S(=O)(=O)[O-])cc4F)c4nc(c(-c5c(F)cc(S(=O)(=O)[O-])cc5F)c5ccc2[nH]5)C=C4)C=C3)cc1
REMARK SMILES IDX 5 1 4 2 3 3 2 4 1 5 37 6 38 7 102 8 39 9 101 10 40 11 41 12
REMARK SMILES IDX 42 13 95 14 43 15 100 16 94 17 96 18 44 19 99 20 93 21 92 22
REMARK SMILES IDX 45 24 79 25 58 26 78 27 59 28 62 29 77 30 97 31 60 32 61 33
REMARK SMILES IDX 76 35 98 36 63 37 46 38 47 39 56 40 48 41 49 42 55 43 57 44
REMARK SMILES IDX 50 45 51 46 52 47 53 48 54 49 80 50 81 51 90 52 82 53 83 54
REMARK SMILES IDX 89 55 91 56 84 57 85 58 86 59 87 60 88 61 64 62 65 63 74 64
REMARK SMILES IDX 66 65 67 66 73 67 75 68 68 69 69 70 70 71 71 72 72 73 6 74
REMARK SMILES IDX 7 75 8 76 9 77 10 78 11 79 12 80 13 81 36 82 14 83 16 84
REMARK SMILES IDX 15 85 17 86 18 87 35 88 19 89 27 90 26 91 20 92 21 93 25 94
REMARK SMILES IDX 22 95 24 96 23 97 28 98 29 99 33 100 30 101 32 102 34 103
REMARK SMILES IDX 31 104
REMARK H PARENT 96 23 62 34
REMARK Flexibility Score: inf
ROOT
ATOM      1  C   UNL A   1      35.866  21.617  24.469  1.00  0.00     0.202 C 
ENDROOT
BRANCH   1   2
ATOM      2  C   UNL A   1      37.389  21.651  24.594  1.00  0.00     0.261 C 
BRANCH   2   3
ATOM      3  O   UNL A   1      37.805  22.249  25.834  1.00  0.00    -0.460 OA
BRANCH   3   4
ATOM      4  C   UNL A   1      39.080  22.230  26.301  1.00  0.00     0.338 C 
ATOM      5  O   UNL A   1      39.721  21.186  26.333  1.00  0.00    -0.246 OA
BRANCH   4   6
ATOM      6  C   UNL A   1      39.709  23.488  26.772  1.00  0.00     0.060 A 
ATOM      7  C   UNL A   1      39.452  24.707  26.146  1.00  0.00     0.016 A 
ATOM      8  C   UNL A   1      40.534  23.462  27.899  1.00  0.00     0.016 A 
ATOM      9  C   UNL A   1      40.115  25.859  26.526  1.00  0.00     0.010 A 
ATOM     10  C   UNL A   1      41.107  24.649  28.366  1.00  0.00     0.010 A 
ATOM     11  C   UNL A   1      40.908  25.853  27.670  1.00  0.00    -0.014 A 
BRANCH  11  12
ATOM     12  C   UNL A   1      41.509  27.125  28.125  1.00  0.00     0.031 A 
ATOM     13  C   UNL A   1      42.987  27.322  27.991  1.00  0.00     0.074 A 
ATOM     14  C   UNL A   1      40.708  28.104  28.593  1.00  0.00     0.049 A 
ATOM     15  N   UNL A   1      43.740  28.258  28.497  1.00  0.00    -0.248 NA
ATOM     16  C   UNL A   1      43.716  26.328  27.185  1.00  0.00     0.031 C 
ATOM     17  C   UNL A   1      39.243  28.041  28.652  1.00  0.00     0.029 A 
ATOM     18  N   UNL A   1      41.000  29.349  29.080  1.00  0.00    -0.354 N 
ATOM     19  C   UNL A   1      45.038  27.936  28.123  1.00  0.00     0.074 A 
ATOM     20  C   UNL A   1      44.971  26.726  27.335  1.00  0.00     0.031 C 
ATOM     21  C   UNL A   1      38.766  29.214  29.092  1.00  0.00     0.029 A 
ATOM     22  C   UNL A   1      39.886  30.065  29.459  1.00  0.00     0.049 A 
ATOM     23  H   UNL A   1      41.917  29.700  29.151  1.00  0.00     0.167 HD
ATOM     24  C   UNL A   1      46.177  28.597  28.435  1.00  0.00     0.037 A 
ATOM     25  C   UNL A   1      39.788  31.251  30.088  1.00  0.00     0.037 A 
ATOM     26  C   UNL A   1      46.188  29.812  29.206  1.00  0.00     0.049 A 
ATOM     27  C   UNL A   1      41.066  31.934  30.483  1.00  0.00     0.074 A 
ATOM     28  C   UNL A   1      47.269  30.542  29.659  1.00  0.00     0.029 A 
ATOM     29  N   UNL A   1      45.043  30.483  29.623  1.00  0.00    -0.354 N 
ATOM     30  N   UNL A   1      42.302  31.560  30.242  1.00  0.00    -0.248 NA
ATOM     31  C   UNL A   1      40.949  33.169  31.264  1.00  0.00     0.031 C 
ATOM     32  C   UNL A   1      46.778  31.640  30.376  1.00  0.00     0.029 A 
ATOM     33  C   UNL A   1      45.390  31.618  30.331  1.00  0.00     0.049 A 
ATOM     34  H   UNL A   1      44.121  30.193  29.441  1.00  0.00     0.167 HD
ATOM     35  C   UNL A   1      43.113  32.513  30.839  1.00  0.00     0.074 A 
ATOM     36  C   UNL A   1      42.225  33.493  31.438  1.00  0.00     0.031 C 
ATOM     37  C   UNL A   1      44.466  32.572  30.898  1.00  0.00     0.037 A 
BRANCH  24  38
ATOM     38  C   UNL A   1      47.477  27.978  28.007  1.00  0.00     0.058 A 
ATOM     39  C   UNL A   1      48.062  28.341  26.782  1.00  0.00     0.135 A 
ATOM     40  C   UNL A   1      48.163  27.049  28.806  1.00  0.00     0.135 A 
ATOM     41  F   UNL A   1      47.458  29.236  25.984  1.00  0.00    -0.206 F 
ATOM     42  C   UNL A   1      49.278  27.810  26.367  1.00  0.00     0.059 A 
ATOM     43  C   UNL A   1      49.394  26.521  28.421  1.00  0.00     0.059 A 
ATOM     44  F   UNL A   1      47.667  26.691  30.001  1.00  0.00    -0.206 F 
ATOM     45  C   UNL A   1      49.940  26.904  27.195  1.00  0.00     0.060 A 
BRANCH  45  46
ATOM     46  S   UNL A   1      51.557  26.285  26.678  1.00  0.00     0.124 S 
ATOM     47  O   UNL A   1      51.694  26.876  25.351  1.00  0.00    -0.237 OA
ATOM     48  O   UNL A   1      52.438  26.823  27.710  1.00  0.00    -0.237 OA
ATOM     49  O   UNL A   1      51.388  24.834  26.707  1.00  0.00    -0.744 OA
ENDBRANCH  45  46
ENDBRANCH  24  38
BRANCH  25  50
ATOM     50  C   UNL A   1      38.449  31.813  30.418  1.00  0.00     0.058 A 
ATOM     51  C   UNL A   1      37.908  32.887  29.693  1.00  0.00     0.135 A 
ATOM     52  C   UNL A   1      37.710  31.330  31.508  1.00  0.00     0.135 A 
ATOM     53  F   UNL A   1      38.572  33.395  28.643  1.00  0.00    -0.206 F 
ATOM     54  C   UNL A   1      36.708  33.489  30.059  1.00  0.00     0.059 A 
ATOM     55  C   UNL A   1      36.492  31.898  31.878  1.00  0.00     0.059 A 
ATOM     56  F   UNL A   1      38.175  30.296  32.227  1.00  0.00    -0.206 F 
ATOM     57  C   UNL A   1      36.010  32.991  31.159  1.00  0.00     0.060 A 
BRANCH  57  58
ATOM     58  S   UNL A   1      34.464  33.799  31.629  1.00  0.00     0.124 S 
ATOM     59  O   UNL A   1      33.879  32.812  32.529  1.00  0.00    -0.237 OA
ATOM     60  O   UNL A   1      34.939  35.028  32.256  1.00  0.00    -0.237 OA
ATOM     61  O   UNL A   1      33.774  33.974  30.354  1.00  0.00    -0.744 OA
ENDBRANCH  57  58
ENDBRANCH  25  50
BRANCH  37  62
ATOM     62  C   UNL A   1      45.067  33.744  31.612  1.00  0.00     0.058 A 
ATOM     63  C   UNL A   1      45.295  33.685  32.995  1.00  0.00     0.135 A 
ATOM     64  C   UNL A   1      45.309  34.955  30.948  1.00  0.00     0.135 A 
ATOM     65  F   UNL A   1      45.073  32.544  33.669  1.00  0.00    -0.206 F 
ATOM     66  C   UNL A   1      45.714  34.801  33.705  1.00  0.00     0.059 A 
ATOM     67  C   UNL A   1      45.751  36.080  31.636  1.00  0.00     0.059 A 
ATOM     68  F   UNL A   1      45.118  35.051  29.623  1.00  0.00    -0.206 F 
ATOM     69  C   UNL A   1      45.928  35.997  33.017  1.00  0.00     0.060 A 
BRANCH  69  70
ATOM     70  S   UNL A   1      46.444  37.445  33.961  1.00  0.00     0.124 S 
ATOM     71  O   UNL A   1      47.897  37.343  33.891  1.00  0.00    -0.237 OA
ATOM     72  O   UNL A   1      45.845  38.539  33.202  1.00  0.00    -0.237 OA
ATOM     73  O   UNL A   1      45.860  37.214  35.280  1.00  0.00    -0.744 OA
ENDBRANCH  69  70
ENDBRANCH  37  62
ENDBRANCH  11  12
ENDBRANCH   4   6
ENDBRANCH   3   4
ENDBRANCH   2   3
ENDBRANCH   1   2
BRANCH   1  74
ATOM     74  O   UNL A   1      35.210  20.464  24.999  1.00  0.00    -0.374 OA
BRANCH  74  75
ATOM     75  C   UNL A   1      33.833  20.652  25.358  1.00  0.00     0.202 C 
BRANCH  75  76
ATOM     76  C   UNL A   1      33.754  21.192  26.788  1.00  0.00     0.261 C 
BRANCH  76  77
ATOM     77  O   UNL A   1      33.576  22.617  26.704  1.00  0.00    -0.463 OA
BRANCH  77  78
ATOM     78  C   UNL A   1      32.285  23.037  26.826  1.00  0.00     0.310 C 
ATOM     79  O   UNL A   1      31.554  22.832  27.785  1.00  0.00    -0.252 OA
BRANCH  78  80
ATOM     80  C   UNL A   1      31.909  23.854  25.620  1.00  0.00     0.118 C 
ATOM     81  C   UNL A   1      31.185  23.026  24.559  1.00  0.00     0.019 C 
ATOM     82  C   UNL A   1      31.020  25.014  26.053  1.00  0.00     0.133 C 
ATOM     83  C   UNL A   1      30.766  23.911  23.374  1.00  0.00     0.022 C 
ATOM     84  N   UNL A   1      30.757  25.826  24.875  1.00  0.00    -0.356 N 
ATOM     85  C   UNL A   1      30.022  25.189  23.799  1.00  0.00     0.118 C 
BRANCH  84  86
ATOM     86  C   UNL A   1      31.016  27.176  24.909  1.00  0.00     0.133 A 
ATOM     87  C   UNL A   1      31.969  27.677  25.770  1.00  0.00     0.077 A 
ATOM     88  N   UNL A   1      30.331  27.980  24.071  1.00  0.00    -0.211 NA
ATOM     89  C   UNL A   1      32.209  29.035  25.728  1.00  0.00     0.095 A 
ATOM     90  C   UNL A   1      30.607  29.302  24.121  1.00  0.00     0.165 A 
ATOM     91  N   UNL A   1      31.530  29.862  24.912  1.00  0.00    -0.226 NA
BRANCH  89  92
ATOM     92  C   UNL A   1      33.246  29.655  26.558  1.00  0.00     0.089 A 
ATOM     93  C   UNL A   1      34.417  28.970  26.883  1.00  0.00     0.030 A 
ATOM     94  N   UNL A   1      32.994  30.917  26.997  1.00  0.00    -0.255 NA
ATOM     95  C   UNL A   1      35.372  29.604  27.673  1.00  0.00     0.004 A 
ATOM     96  C   UNL A   1      33.951  31.513  27.741  1.00  0.00     0.112 A 
ATOM     97  C   UNL A   1      35.139  30.902  28.107  1.00  0.00     0.020 A 
ENDBRANCH  89  92
BRANCH  90  98
ATOM     98  C   UNL A   1      29.785  30.222  23.333  1.00  0.00     0.055 A 
ATOM     99  C   UNL A   1      29.317  29.872  22.054  1.00  0.00     0.015 A 
ATOM    100  C   UNL A   1      29.373  31.456  23.854  1.00  0.00     0.134 A 
ATOM    101  C   UNL A   1      28.453  30.715  21.342  1.00  0.00     0.001 A 
ATOM    102  C   UNL A   1      28.518  32.305  23.148  1.00  0.00     0.040 A 
ATOM    103  F   UNL A   1      29.820  31.872  25.049  1.00  0.00    -0.206 F 
ATOM    104  C   UNL A   1      28.050  31.931  21.892  1.00  0.00     0.003 A 
ENDBRANCH  90  98
ENDBRANCH  84  86
ENDBRANCH  78  80
ENDBRANCH  77  78
ENDBRANCH  76  77
ENDBRANCH  75  76
ENDBRANCH  74  75
ENDBRANCH   1  74
TORSDOF 20
ENDMDL
MODEL 2
REMARK VINA RESULT:     -12.0      1.306      8.022
REMARK SMILES O=C(OCCOCCOC(=O)[C@H]1CCCN(c2cc(-c3ccccn3)nc(-c3ccccc3F)n2)C1)c1ccc(-c2c3nc(c(-c4c(F)cc(S(=O)(=O)[O-])cc4F)c4ccc([nH]4)c(-c4c(F)cc(S(=O)(=O)[O-])cc4F)c4nc(c(-c5c(F)cc(S(=O)(=O)[O-])cc5F)c5ccc2[nH]5)C=C4)C=C3)cc1
REMARK SMILES IDX 5 1 4 2 3 3 2 4 1 5 37 6 38 7 102 8 39 9 101 10 40 11 41 12
REMARK SMILES IDX 42 13 95 14 43 15 100 16 94 17 96 18 44 19 99 20 93 21 92 22
REMARK SMILES IDX 45 24 79 25 58 26 78 27 59 28 62 29 77 30 97 31 60 32 61 33
REMARK SMILES IDX 76 35 98 36 63 37 46 38 47 39 56 40 48 41 49 42 55 43 57 44
REMARK SMILES IDX 50 45 51 46 52 47 53 48 54 49 80 50 81 51 90 52 82 53 83 54
REMARK SMILES IDX 89 55 91 56 84 57 85 58 86 59 87 60 88 61 64 62 65 63 74 64
REMARK SMILES IDX 66 65 67 66 73 67 75 68 68 69 69 70 70 71 71 72 72 73 6 74
REMARK SMILES IDX 7 75 8 76 9 77 10 78 11 79 12 80 13 81 36 82 14 83 16 84
REMARK SMILES IDX 15 85 17 86 18 87 35 88 19 89 27 90 26 91 20 92 21 93 25 94
REMARK SMILES IDX 22 95 24 96 23 97 28 98 29 99 33 100 30 101 32 102 34 103
REMARK SMILES IDX 31 104
REMARK H PARENT 96 23 62 34
REMARK Flexibility Score: inf
ROOT
ATOM      1  C   UNL A   1      36.078  21.762  24.702  1.00  0.00     0.202 C 
ENDROOT
BRANCH   1   2
ATOM      2  C   UNL A   1      37.596  21.837  24.859  1.00  0.00     0.261 C 
BRANCH   2   3
ATOM      3  O   UNL A   1      37.972  22.563  26.043  1.00  0.00    -0.460 OA
BRANCH   3   4
ATOM      4  C   UNL A   1      39.199  22.499  26.621  1.00  0.00     0.338 C 
ATOM      5  O   UNL A   1      39.749  21.420  26.809  1.00  0.00    -0.246 OA
BRANCH   4   6
ATOM      6  C   UNL A   1      39.888  23.749  27.023  1.00  0.00     0.060 A 
ATOM      7  C   UNL A   1      40.787  23.773  28.088  1.00  0.00     0.016 A 
ATOM      8  C   UNL A   1      39.674  24.918  26.288  1.00  0.00     0.016 A 
ATOM      9  C   UNL A   1      41.352  24.957  28.521  1.00  0.00     0.010 A 
ATOM     10  C   UNL A   1      40.343  26.093  26.644  1.00  0.00     0.010 A 
ATOM     11  C   UNL A   1      41.177  26.119  27.774  1.00  0.00    -0.014 A 
BRANCH  11  12
ATOM     12  C   UNL A   1      41.890  27.345  28.190  1.00  0.00     0.031 A 
ATOM     13  C   UNL A   1      41.140  28.408  28.930  1.00  0.00     0.074 A 
ATOM     14  C   UNL A   1      43.212  27.455  27.948  1.00  0.00     0.049 A 
ATOM     15  N   UNL A   1      41.506  29.627  29.212  1.00  0.00    -0.248 NA
ATOM     16  C   UNL A   1      39.796  28.053  29.416  1.00  0.00     0.031 C 
ATOM     17  C   UNL A   1      44.048  26.418  27.331  1.00  0.00     0.029 A 
ATOM     18  N   UNL A   1      44.094  28.469  28.211  1.00  0.00    -0.354 N 
ATOM     19  C   UNL A   1      40.418  30.206  29.852  1.00  0.00     0.074 A 
ATOM     20  C   UNL A   1      39.382  29.200  29.932  1.00  0.00     0.031 C 
ATOM     21  C   UNL A   1      45.325  26.827  27.318  1.00  0.00     0.029 A 
ATOM     22  C   UNL A   1      45.382  28.194  27.810  1.00  0.00     0.049 A 
ATOM     23  H   UNL A   1      43.832  29.312  28.647  1.00  0.00     0.167 HD
ATOM     24  C   UNL A   1      40.306  31.474  30.310  1.00  0.00     0.037 A 
ATOM     25  C   UNL A   1      46.472  28.983  27.788  1.00  0.00     0.037 A 
ATOM     26  C   UNL A   1      41.376  32.432  30.225  1.00  0.00     0.049 A 
ATOM     27  C   UNL A   1      46.308  30.406  28.240  1.00  0.00     0.074 A 
ATOM     28  C   UNL A   1      41.375  33.767  30.578  1.00  0.00     0.029 A 
ATOM     29  N   UNL A   1      42.654  32.137  29.761  1.00  0.00    -0.354 N 
ATOM     30  N   UNL A   1      45.236  30.991  28.726  1.00  0.00    -0.248 NA
ATOM     31  C   UNL A   1      47.472  31.287  28.108  1.00  0.00     0.031 C 
ATOM     32  C   UNL A   1      42.645  34.287  30.300  1.00  0.00     0.029 A 
ATOM     33  C   UNL A   1      43.451  33.265  29.816  1.00  0.00     0.049 A 
ATOM     34  H   UNL A   1      42.948  31.254  29.441  1.00  0.00     0.167 HD
ATOM     35  C   UNL A   1      45.596  32.310  28.961  1.00  0.00     0.074 A 
ATOM     36  C   UNL A   1      46.991  32.431  28.580  1.00  0.00     0.031 C 
ATOM     37  C   UNL A   1      44.842  33.331  29.437  1.00  0.00     0.037 A 
BRANCH  24  38
ATOM     38  C   UNL A   1      38.974  31.895  30.864  1.00  0.00     0.058 A 
ATOM     39  C   UNL A   1      38.715  31.784  32.240  1.00  0.00     0.135 A 
ATOM     40  C   UNL A   1      37.963  32.432  30.051  1.00  0.00     0.135 A 
ATOM     41  F   UNL A   1      39.651  31.292  33.066  1.00  0.00    -0.206 F 
ATOM     42  C   UNL A   1      37.504  32.191  32.791  1.00  0.00     0.059 A 
ATOM     43  C   UNL A   1      36.751  32.868  30.585  1.00  0.00     0.059 A 
ATOM     44  F   UNL A   1      38.168  32.592  28.735  1.00  0.00    -0.206 F 
ATOM     45  C   UNL A   1      36.529  32.737  31.956  1.00  0.00     0.060 A 
BRANCH  45  46
ATOM     46  S   UNL A   1      34.995  33.334  32.699  1.00  0.00     0.124 S 
ATOM     47  O   UNL A   1      35.010  34.745  32.328  1.00  0.00    -0.237 OA
ATOM     48  O   UNL A   1      33.989  32.511  32.035  1.00  0.00    -0.237 OA
ATOM     49  O   UNL A   1      35.177  33.055  34.122  1.00  0.00    -0.744 OA
ENDBRANCH  45  46
ENDBRANCH  24  38
BRANCH  25  50
ATOM     50  C   UNL A   1      47.766  28.455  27.274  1.00  0.00     0.058 A 
ATOM     51  C   UNL A   1      47.975  28.239  25.902  1.00  0.00     0.135 A 
ATOM     52  C   UNL A   1      48.800  28.094  28.151  1.00  0.00     0.135 A 
ATOM     53  F   UNL A   1      47.020  28.560  25.016  1.00  0.00    -0.206 F 
ATOM     54  C   UNL A   1      49.139  27.647  25.421  1.00  0.00     0.059 A 
ATOM     55  C   UNL A   1      49.987  27.524  27.691  1.00  0.00     0.059 A 
ATOM     56  F   UNL A   1      48.659  28.291  29.470  1.00  0.00    -0.206 F 
ATOM     57  C   UNL A   1      50.137  27.286  26.326  1.00  0.00     0.060 A 
BRANCH  57  58
ATOM     58  S   UNL A   1      51.632  26.501  25.682  1.00  0.00     0.124 S 
ATOM     59  O   UNL A   1      51.583  26.888  24.276  1.00  0.00    -0.237 OA
ATOM     60  O   UNL A   1      52.677  27.132  26.479  1.00  0.00    -0.237 OA
ATOM     61  O   UNL A   1      51.411  25.083  25.951  1.00  0.00    -0.744 OA
ENDBRANCH  57  58
ENDBRANCH  25  50
BRANCH  37  62
ATOM     62  C   UNL A   1      45.518  34.659  29.597  1.00  0.00     0.058 A 
ATOM     63  C   UNL A   1      45.596  35.544  28.511  1.00  0.00     0.135 A 
ATOM     64  C   UNL A   1      46.179  35.001  30.785  1.00  0.00     0.135 A 
ATOM     65  F   UNL A   1      44.978  35.253  27.354  1.00  0.00    -0.206 F 
ATOM     66  C   UNL A   1      46.336  36.715  28.588  1.00  0.00     0.059 A 
ATOM     67  C   UNL A   1      46.909  36.180  30.891  1.00  0.00     0.059 A 
ATOM     68  F   UNL A   1      46.117  34.190  31.852  1.00  0.00    -0.206 F 
ATOM     69  C   UNL A   1      47.000  37.018  29.778  1.00  0.00     0.060 A 
BRANCH  69  70
ATOM     70  S   UNL A   1      47.983  38.528  29.849  1.00  0.00     0.124 S 
ATOM     71  O   UNL A   1      46.992  39.508  30.278  1.00  0.00    -0.237 OA
ATOM     72  O   UNL A   1      49.006  38.186  30.833  1.00  0.00    -0.237 OA
ATOM     73  O   UNL A   1      48.467  38.681  28.480  1.00  0.00    -0.744 OA
ENDBRANCH  69  70
ENDBRANCH  37  62
ENDBRANCH  11  12
ENDBRANCH   4   6
ENDBRANCH   3   4
ENDBRANCH   2   3
ENDBRANCH   1   2
BRANCH   1  74
ATOM     74  O   UNL A   1      35.427  20.662  25.341  1.00  0.00    -0.374 OA
BRANCH  74  75
ATOM     75  C   UNL A   1      33.995  20.749  25.401  1.00  0.00     0.202 C 
BRANCH  75  76
ATOM     76  C   UNL A   1      33.575  21.186  26.806  1.00  0.00     0.261 C 
BRANCH  76  77
ATOM     77  O   UNL A   1      33.412  22.615  26.784  1.00  0.00    -0.463 OA
BRANCH  77  78
ATOM     78  C   UNL A   1      32.118  23.041  26.831  1.00  0.00     0.310 C 
ATOM     79  O   UNL A   1      31.332  22.840  27.747  1.00  0.00    -0.252 OA
BRANCH  78  80
ATOM     80  C   UNL A   1      31.816  23.857  25.603  1.00  0.00     0.118 C 
ATOM     81  C   UNL A   1      31.160  23.027  24.500  1.00  0.00     0.019 C 
ATOM     82  C   UNL A   1      30.899  25.014  25.980  1.00  0.00     0.133 C 
ATOM     83  C   UNL A   1      30.814  23.910  23.291  1.00  0.00     0.022 C 
ATOM     84  N   UNL A   1      30.708  25.825  24.788  1.00  0.00    -0.356 N 
ATOM     85  C   UNL A   1      30.041  25.187  23.668  1.00  0.00     0.118 C 
BRANCH  84  86
ATOM     86  C   UNL A   1      30.960  27.176  24.837  1.00  0.00     0.133 A 
ATOM     87  C   UNL A   1      31.908  27.672  25.706  1.00  0.00     0.077 A 
ATOM     88  N   UNL A   1      30.275  27.986  24.005  1.00  0.00    -0.211 NA
ATOM     89  C   UNL A   1      32.143  29.031  25.680  1.00  0.00     0.095 A 
ATOM     90  C   UNL A   1      30.546  29.308  24.070  1.00  0.00     0.165 A 
ATOM     91  N   UNL A   1      31.463  29.864  24.871  1.00  0.00    -0.226 NA
BRANCH  89  92
ATOM     92  C   UNL A   1      33.175  29.646  26.520  1.00  0.00     0.089 A 
ATOM     93  C   UNL A   1      34.331  28.950  26.871  1.00  0.00     0.030 A 
ATOM     94  N   UNL A   1      32.932  30.916  26.941  1.00  0.00    -0.255 NA
ATOM     95  C   UNL A   1      35.281  29.580  27.670  1.00  0.00     0.004 A 
ATOM     96  C   UNL A   1      33.884  31.507  27.695  1.00  0.00     0.112 A 
ATOM     97  C   UNL A   1      35.058  30.886  28.087  1.00  0.00     0.020 A 
ENDBRANCH  89  92
BRANCH  90  98
ATOM     98  C   UNL A   1      29.722  30.233  23.290  1.00  0.00     0.055 A 
ATOM     99  C   UNL A   1      29.239  29.885  22.015  1.00  0.00     0.015 A 
ATOM    100  C   UNL A   1      29.324  31.471  23.813  1.00  0.00     0.134 A 
ATOM    101  C   UNL A   1      28.374  30.734  21.311  1.00  0.00     0.001 A 
ATOM    102  C   UNL A   1      28.468  32.325  23.114  1.00  0.00     0.040 A 
ATOM    103  F   UNL A   1      29.785  31.885  25.003  1.00  0.00    -0.206 F 
ATOM    104  C   UNL A   1      27.985  31.953  21.863  1.00  0.00     0.003 A 
ENDBRANCH  90  98
ENDBRANCH  84  86
ENDBRANCH  78  80
ENDBRANCH  77  78
ENDBRANCH  76  77
ENDBRANCH  75  76
ENDBRANCH  74  75
ENDBRANCH   1  74
TORSDOF 20
ENDMDL
MODEL 3
REMARK VINA RESULT:     -11.8      3.845      9.513
REMARK SMILES O=C(OCCOCCOC(=O)[C@H]1CCCN(c2cc(-c3ccccn3)nc(-c3ccccc3F)n2)C1)c1ccc(-c2c3nc(c(-c4c(F)cc(S(=O)(=O)[O-])cc4F)c4ccc([nH]4)c(-c4c(F)cc(S(=O)(=O)[O-])cc4F)c4nc(c(-c5c(F)cc(S(=O)(=O)[O-])cc5F)c5ccc2[nH]5)C=C4)C=C3)cc1
REMARK SMILES IDX 5 1 4 2 3 3 2 4 1 5 37 6 38 7 102 8 39 9 101 10 40 11 41 12
REMARK SMILES IDX 42 13 95 14 43 15 100 16 94 17 96 18 44 19 99 20 93 21 92 22
REMARK SMILES IDX 45 24 79 25 58 26 78 27 59 28 62 29 77 30 97 31 60 32 61 33
REMARK SMILES IDX 76 35 98 36 63 37 46 38 47 39 56 40 48 41 49 42 55 43 57 44
REMARK SMILES IDX 50 45 51 46 52 47 53 48 54 49 80 50 81 51 90 52 82 53 83 54
REMARK SMILES IDX 89 55 91 56 84 57 85 58 86 59 87 60 88 61 64 62 65 63 74 64
REMARK SMILES IDX 66 65 67 66 73 67 75 68 68 69 69 70 70 71 71 72 72 73 6 74
REMARK SMILES IDX 7 75 8 76 9 77 10 78 11 79 12 80 13 81 36 82 14 83 16 84
REMARK SMILES IDX 15 85 17 86 18 87 35 88 19 89 27 90 26 91 20 92 21 93 25 94
REMARK SMILES IDX 22 95 24 96 23 97 28 98 29 99 33 100 30 101 32 102 34 103
REMARK SMILES IDX 31 104
REMARK H PARENT 96 23 62 34
REMARK Flexibility Score: inf
ROOT
ATOM      1  C   UNL A   1      34.363  29.153  27.032  1.00  0.00     0.202 C 
ENDROOT
BRANCH   1   2
ATOM      2  C   UNL A   1      35.150  30.096  27.942  1.00  0.00     0.261 C 
BRANCH   2   3
ATOM      3  O   UNL A   1      35.612  29.427  29.129  1.00  0.00    -0.460 OA
BRANCH   3   4
ATOM      4  C   UNL A   1      36.647  29.856  29.894  1.00  0.00     0.338 C 
ATOM      5  O   UNL A   1      36.444  30.456  30.945  1.00  0.00    -0.246 OA
BRANCH   4   6
ATOM      6  C   UNL A   1      38.041  29.592  29.462  1.00  0.00     0.060 A 
ATOM      7  C   UNL A   1      38.419  29.698  28.124  1.00  0.00     0.016 A 
ATOM      8  C   UNL A   1      39.009  29.283  30.420  1.00  0.00     0.016 A 
ATOM      9  C   UNL A   1      39.694  29.357  27.712  1.00  0.00     0.010 A 
ATOM     10  C   UNL A   1      40.332  29.062  30.023  1.00  0.00     0.010 A 
ATOM     11  C   UNL A   1      40.675  29.086  28.661  1.00  0.00    -0.014 A 
BRANCH  11  12
ATOM     12  C   UNL A   1      42.060  28.843  28.202  1.00  0.00     0.031 A 
ATOM     13  C   UNL A   1      42.446  27.471  27.746  1.00  0.00     0.074 A 
ATOM     14  C   UNL A   1      42.927  29.874  28.144  1.00  0.00     0.049 A 
ATOM     15  N   UNL A   1      43.633  26.992  27.496  1.00  0.00    -0.248 NA
ATOM     16  C   UNL A   1      41.351  26.506  27.552  1.00  0.00     0.031 C 
ATOM     17  C   UNL A   1      42.603  31.270  28.461  1.00  0.00     0.029 A 
ATOM     18  N   UNL A   1      44.244  29.922  27.775  1.00  0.00    -0.354 N 
ATOM     19  C   UNL A   1      43.435  25.655  27.173  1.00  0.00     0.074 A 
ATOM     20  C   UNL A   1      42.014  25.401  27.245  1.00  0.00     0.031 C 
ATOM     21  C   UNL A   1      43.673  32.040  28.218  1.00  0.00     0.029 A 
ATOM     22  C   UNL A   1      44.789  31.185  27.847  1.00  0.00     0.049 A 
ATOM     23  H   UNL A   1      44.753  29.131  27.485  1.00  0.00     0.167 HD
ATOM     24  C   UNL A   1      44.375  24.732  26.865  1.00  0.00     0.037 A 
ATOM     25  C   UNL A   1      46.062  31.593  27.688  1.00  0.00     0.037 A 
ATOM     26  C   UNL A   1      45.778  25.042  26.786  1.00  0.00     0.049 A 
ATOM     27  C   UNL A   1      47.097  30.541  27.410  1.00  0.00     0.074 A 
ATOM     28  C   UNL A   1      46.842  24.192  26.559  1.00  0.00     0.029 A 
ATOM     29  N   UNL A   1      46.304  26.323  26.918  1.00  0.00    -0.354 N 
ATOM     30  N   UNL A   1      46.925  29.250  27.234  1.00  0.00    -0.248 NA
ATOM     31  C   UNL A   1      48.495  30.980  27.349  1.00  0.00     0.031 C 
ATOM     32  C   UNL A   1      48.016  24.955  26.584  1.00  0.00     0.029 A 
ATOM     33  C   UNL A   1      47.679  26.288  26.781  1.00  0.00     0.049 A 
ATOM     34  H   UNL A   1      45.775  27.136  27.085  1.00  0.00     0.167 HD
ATOM     35  C   UNL A   1      48.192  28.720  27.038  1.00  0.00     0.074 A 
ATOM     36  C   UNL A   1      49.119  29.835  27.099  1.00  0.00     0.031 C 
ATOM     37  C   UNL A   1      48.559  27.431  26.837  1.00  0.00     0.037 A 
BRANCH  24  38
ATOM     38  C   UNL A   1      43.915  23.315  26.668  1.00  0.00     0.058 A 
ATOM     39  C   UNL A   1      43.490  22.552  27.769  1.00  0.00     0.135 A 
ATOM     40  C   UNL A   1      43.866  22.714  25.400  1.00  0.00     0.135 A 
ATOM     41  F   UNL A   1      43.501  23.080  29.002  1.00  0.00    -0.206 F 
ATOM     42  C   UNL A   1      43.032  21.247  27.620  1.00  0.00     0.059 A 
ATOM     43  C   UNL A   1      43.388  21.416  25.225  1.00  0.00     0.059 A 
ATOM     44  F   UNL A   1      44.228  23.408  24.310  1.00  0.00    -0.206 F 
ATOM     45  C   UNL A   1      42.979  20.689  26.343  1.00  0.00     0.060 A 
BRANCH  45  46
ATOM     46  S   UNL A   1      42.306  19.022  26.158  1.00  0.00     0.124 S 
ATOM     47  O   UNL A   1      42.407  18.505  27.518  1.00  0.00    -0.237 OA
ATOM     48  O   UNL A   1      40.954  19.288  25.676  1.00  0.00    -0.237 OA
ATOM     49  O   UNL A   1      43.198  18.404  25.180  1.00  0.00    -0.744 OA
ENDBRANCH  45  46
ENDBRANCH  24  38
BRANCH  25  50
ATOM     50  C   UNL A   1      46.410  33.032  27.844  1.00  0.00     0.058 A 
ATOM     51  C   UNL A   1      46.292  33.934  26.773  1.00  0.00     0.135 A 
ATOM     52  C   UNL A   1      46.930  33.524  29.051  1.00  0.00     0.135 A 
ATOM     53  F   UNL A   1      45.806  33.519  25.594  1.00  0.00    -0.206 F 
ATOM     54  C   UNL A   1      46.714  35.255  26.877  1.00  0.00     0.059 A 
ATOM     55  C   UNL A   1      47.334  34.851  29.188  1.00  0.00     0.059 A 
ATOM     56  F   UNL A   1      47.051  32.709  30.110  1.00  0.00    -0.206 F 
ATOM     57  C   UNL A   1      47.242  35.703  28.088  1.00  0.00     0.060 A 
BRANCH  57  58
ATOM     58  S   UNL A   1      47.802  37.418  28.195  1.00  0.00     0.124 S 
ATOM     59  O   UNL A   1      47.553  37.892  26.838  1.00  0.00    -0.237 OA
ATOM     60  O   UNL A   1      46.929  37.961  29.229  1.00  0.00    -0.237 OA
ATOM     61  O   UNL A   1      49.208  37.290  28.568  1.00  0.00    -0.744 OA
ENDBRANCH  57  58
ENDBRANCH  25  50
BRANCH  37  62
ATOM     62  C   UNL A   1      50.020  27.161  26.643  1.00  0.00     0.058 A 
ATOM     63  C   UNL A   1      50.591  27.268  25.366  1.00  0.00     0.135 A 
ATOM     64  C   UNL A   1      50.821  26.692  27.694  1.00  0.00     0.135 A 
ATOM     65  F   UNL A   1      49.858  27.711  24.331  1.00  0.00    -0.206 F 
ATOM     66  C   UNL A   1      51.904  26.888  25.129  1.00  0.00     0.059 A 
ATOM     67  C   UNL A   1      52.146  26.326  27.484  1.00  0.00     0.059 A 
ATOM     68  F   UNL A   1      50.318  26.589  28.934  1.00  0.00    -0.206 F 
ATOM     69  C   UNL A   1      52.670  26.405  26.193  1.00  0.00     0.060 A 
BRANCH  69  70
ATOM     70  S   UNL A   1      54.365  25.886  25.861  1.00  0.00     0.124 S 
ATOM     71  O   UNL A   1      54.471  24.680  26.674  1.00  0.00    -0.237 OA
ATOM     72  O   UNL A   1      54.347  25.680  24.416  1.00  0.00    -0.237 OA
ATOM     73  O   UNL A   1      55.162  27.023  26.314  1.00  0.00    -0.744 OA
ENDBRANCH  69  70
ENDBRANCH  37  62
ENDBRANCH  11  12
ENDBRANCH   4   6
ENDBRANCH   3   4
ENDBRANCH   2   3
ENDBRANCH   1   2
BRANCH   1  74
ATOM     74  O   UNL A   1      33.902  29.700  25.796  1.00  0.00    -0.374 OA
BRANCH  74  75
ATOM     75  C   UNL A   1      33.061  28.835  25.019  1.00  0.00     0.202 C 
BRANCH  75  76
ATOM     76  C   UNL A   1      31.656  28.819  25.624  1.00  0.00     0.261 C 
BRANCH  76  77
ATOM     77  O   UNL A   1      31.027  27.588  25.228  1.00  0.00    -0.463 OA
BRANCH  77  78
ATOM     78  C   UNL A   1      31.274  26.532  26.055  1.00  0.00     0.310 C 
ATOM     79  O   UNL A   1      31.400  26.590  27.270  1.00  0.00    -0.252 OA
BRANCH  78  80
ATOM     80  C   UNL A   1      31.306  25.263  25.247  1.00  0.00     0.118 C 
ATOM     81  C   UNL A   1      30.369  25.317  24.041  1.00  0.00     0.019 C 
ATOM     82  C   UNL A   1      32.731  25.005  24.771  1.00  0.00     0.133 C 
ATOM     83  C   UNL A   1      30.479  24.028  23.211  1.00  0.00     0.022 C 
ATOM     84  N   UNL A   1      32.733  23.727  24.075  1.00  0.00    -0.356 N 
ATOM     85  C   UNL A   1      31.929  23.643  22.870  1.00  0.00     0.118 C 
BRANCH  84  86
ATOM     86  C   UNL A   1      33.628  22.752  24.447  1.00  0.00     0.133 A 
ATOM     87  C   UNL A   1      33.238  21.430  24.479  1.00  0.00     0.077 A 
ATOM     88  N   UNL A   1      34.887  23.122  24.757  1.00  0.00    -0.211 NA
ATOM     89  C   UNL A   1      34.192  20.495  24.822  1.00  0.00     0.095 A 
ATOM     90  C   UNL A   1      35.747  22.144  25.115  1.00  0.00     0.165 A 
ATOM     91  N   UNL A   1      35.452  20.839  25.151  1.00  0.00    -0.226 NA
BRANCH  89  92
ATOM     92  C   UNL A   1      33.894  19.060  24.823  1.00  0.00     0.089 A 
ATOM     93  C   UNL A   1      32.652  18.581  25.235  1.00  0.00     0.030 A 
ATOM     94  N   UNL A   1      34.895  18.235  24.415  1.00  0.00    -0.255 NA
ATOM     95  C   UNL A   1      32.418  17.209  25.216  1.00  0.00     0.004 A 
ATOM     96  C   UNL A   1      34.629  16.911  24.385  1.00  0.00     0.112 A 
ATOM     97  C   UNL A   1      33.422  16.356  24.778  1.00  0.00     0.020 A 
ENDBRANCH  89  92
BRANCH  90  98
ATOM     98  C   UNL A   1      37.077  22.520  25.598  1.00  0.00     0.055 A 
ATOM     99  C   UNL A   1      37.325  23.794  26.141  1.00  0.00     0.015 A 
ATOM    100  C   UNL A   1      38.135  21.601  25.604  1.00  0.00     0.134 A 
ATOM    101  C   UNL A   1      38.573  24.118  26.688  1.00  0.00     0.001 A 
ATOM    102  C   UNL A   1      39.384  21.919  26.141  1.00  0.00     0.040 A 
ATOM    103  F   UNL A   1      37.980  20.384  25.060  1.00  0.00    -0.206 F 
ATOM    104  C   UNL A   1      39.602  23.179  26.692  1.00  0.00     0.003 A 
ENDBRANCH  90  98
ENDBRANCH  84  86
ENDBRANCH  78  80
ENDBRANCH  77  78
ENDBRANCH  76  77
ENDBRANCH  75  76
ENDBRANCH  74  75
ENDBRANCH   1  74
TORSDOF 20
ENDMDL
