MODEL 1
REMARK VINA RESULT:      -9.9      0.000      0.000
REMARK SMILES C[NH2+][C@]1(C(=O)OCCOCCOC(=O)c2ccc(-c3c4nc(c(-c5c(F)cc(S(=O)(=O)[O-])cc5F)c5ccc([nH]5)c(-c5c(F)cc(S(=O)(=O)[O-])cc5F)c5nc(c(-c6c(F)cc(S(=O)(=O)[O-])cc6F)c6ccc3[nH]6)C=C5)C=C4)cc2)CCC[C@@H]1CC[N@H+]1CCC[C@H]([NH+](C)C)C1
REMARK SMILES IDX 8 1 7 2 6 3 4 4 5 5 3 6 81 7 84 8 82 9 83 10 2 11 1 12 85 15
REMARK SMILES IDX 86 16 87 17 88 18 95 19 89 21 91 22 90 23 92 24 93 25 94 26
REMARK SMILES IDX 9 28 10 29 11 30 12 31 13 32 14 33 15 34 16 35 80 36 17 37
REMARK SMILES IDX 79 38 18 39 19 40 20 41 73 42 21 43 78 44 72 45 74 46 22 47
REMARK SMILES IDX 77 48 71 49 70 50 23 52 57 53 36 54 56 55 37 56 40 57 55 58
REMARK SMILES IDX 75 59 38 60 39 61 54 63 76 64 41 65 24 66 25 67 34 68 26 69
REMARK SMILES IDX 27 70 33 71 35 72 28 73 29 74 30 75 31 76 32 77 58 78 59 79
REMARK SMILES IDX 68 80 60 81 61 82 67 83 69 84 62 85 63 86 64 87 65 88 66 89
REMARK SMILES IDX 42 90 43 91 52 92 44 93 45 94 51 95 53 96 46 97 47 98 48 99
REMARK SMILES IDX 49 100 50 101
REMARK H PARENT 2 13 2 14 87 20 92 27 74 51 40 62
REMARK Flexibility Score: inf
ROOT
ATOM      1  C   UNL A   1      38.183  21.911  26.088  1.00  0.00     0.202 C 
ENDROOT
BRANCH   1   2
ATOM      2  C   UNL A   1      37.442  22.931  25.210  1.00  0.00     0.261 C 
BRANCH   2   3
ATOM      3  O   UNL A   1      36.036  22.694  25.073  1.00  0.00    -0.459 OA
BRANCH   3   4
ATOM      4  C   UNL A   1      35.514  23.040  23.859  1.00  0.00     0.368 C 
ATOM      5  O   UNL A   1      36.200  23.198  22.853  1.00  0.00    -0.245 OA
BRANCH   4   6
ATOM      6  C   UNL A   1      33.980  23.311  23.929  1.00  0.00     0.197 C 
ATOM      7  C   UNL A   1      33.123  22.094  24.344  1.00  0.00     0.081 C 
ATOM      8  C   UNL A   1      33.701  24.244  25.146  1.00  0.00     0.068 C 
ATOM      9  C   UNL A   1      31.829  22.690  24.904  1.00  0.00     0.008 C 
ATOM     10  C   UNL A   1      32.194  24.089  25.410  1.00  0.00     0.011 C 
BRANCH   6  11
ATOM     11  N   UNL A   1      33.363  23.824  22.661  1.00  0.00    -0.334 N 
ATOM     12  C   UNL A   1      33.009  22.846  21.645  1.00  0.00     0.331 C 
ATOM     13  H   UNL A   1      32.510  24.323  22.916  1.00  0.00     0.347 HD
ATOM     14  H   UNL A   1      34.090  24.395  22.232  1.00  0.00     0.347 HD
ENDBRANCH   6  11
BRANCH   8  15
ATOM     15  C   UNL A   1      34.168  25.695  24.939  1.00  0.00     0.072 C 
BRANCH  15  16
ATOM     16  C   UNL A   1      34.019  26.624  26.157  1.00  0.00     0.262 C 
BRANCH  16  17
ATOM     17  N   UNL A   1      32.986  27.670  26.108  1.00  0.00    -0.330 N 
ATOM     18  C   UNL A   1      32.974  28.605  27.234  1.00  0.00     0.262 C 
ATOM     19  C   UNL A   1      33.116  28.447  24.856  1.00  0.00     0.327 C 
ATOM     20  H   UNL A   1      32.104  27.160  26.158  1.00  0.00     0.348 HD
ATOM     21  C   UNL A   1      31.759  29.530  27.172  1.00  0.00     0.068 C 
ATOM     22  C   UNL A   1      31.945  29.439  24.604  1.00  0.00     0.239 C 
ATOM     23  C   UNL A   1      31.685  30.299  25.859  1.00  0.00     0.077 C 
BRANCH  22  24
ATOM     24  N   UNL A   1      30.714  28.871  24.007  1.00  0.00    -0.333 N 
ATOM     25  C   UNL A   1      30.569  29.236  22.598  1.00  0.00     0.332 C 
ATOM     26  C   UNL A   1      30.527  27.436  24.176  1.00  0.00     0.332 C 
ATOM     27  H   UNL A   1      29.972  29.304  24.556  1.00  0.00     0.348 HD
ENDBRANCH  22  24
ENDBRANCH  16  17
ENDBRANCH  15  16
ENDBRANCH   8  15
ENDBRANCH   4   6
ENDBRANCH   3   4
ENDBRANCH   2   3
ENDBRANCH   1   2
BRANCH   1  28
ATOM     28  O   UNL A   1      39.342  21.273  25.569  1.00  0.00    -0.374 OA
BRANCH  28  29
ATOM     29  C   UNL A   1      40.431  21.004  26.451  1.00  0.00     0.202 C 
BRANCH  29  30
ATOM     30  C   UNL A   1      41.493  22.085  26.682  1.00  0.00     0.261 C 
BRANCH  30  31
ATOM     31  O   UNL A   1      40.974  23.427  26.621  1.00  0.00    -0.460 OA
BRANCH  31  32
ATOM     32  C   UNL A   1      41.920  24.393  26.701  1.00  0.00     0.338 C 
ATOM     33  O   UNL A   1      43.002  24.415  26.123  1.00  0.00    -0.246 OA
BRANCH  32  34
ATOM     34  C   UNL A   1      41.437  25.549  27.469  1.00  0.00     0.060 A 
ATOM     35  C   UNL A   1      42.252  26.688  27.514  1.00  0.00     0.016 A 
ATOM     36  C   UNL A   1      40.296  25.459  28.269  1.00  0.00     0.016 A 
ATOM     37  C   UNL A   1      41.959  27.719  28.404  1.00  0.00     0.010 A 
ATOM     38  C   UNL A   1      40.009  26.492  29.169  1.00  0.00     0.010 A 
ATOM     39  C   UNL A   1      40.863  27.605  29.270  1.00  0.00    -0.014 A 
BRANCH  39  40
ATOM     40  C   UNL A   1      40.712  28.575  30.382  1.00  0.00     0.031 A 
ATOM     41  C   UNL A   1      41.619  28.462  31.580  1.00  0.00     0.074 A 
ATOM     42  C   UNL A   1      39.803  29.564  30.310  1.00  0.00     0.049 A 
ATOM     43  N   UNL A   1      41.647  29.185  32.670  1.00  0.00    -0.248 NA
ATOM     44  C   UNL A   1      42.628  27.391  31.542  1.00  0.00     0.031 C 
ATOM     45  C   UNL A   1      38.897  29.795  29.186  1.00  0.00     0.029 A 
ATOM     46  N   UNL A   1      39.490  30.555  31.206  1.00  0.00    -0.354 N 
ATOM     47  C   UNL A   1      42.670  28.656  33.449  1.00  0.00     0.074 A 
ATOM     48  C   UNL A   1      43.221  27.535  32.719  1.00  0.00     0.031 C 
ATOM     49  C   UNL A   1      38.120  30.857  29.464  1.00  0.00     0.029 A 
ATOM     50  C   UNL A   1      38.456  31.361  30.795  1.00  0.00     0.049 A 
ATOM     51  H   UNL A   1      39.963  30.677  32.061  1.00  0.00     0.167 HD
ATOM     52  C   UNL A   1      43.113  29.071  34.660  1.00  0.00     0.037 A 
ATOM     53  C   UNL A   1      37.839  32.377  31.430  1.00  0.00     0.037 A 
ATOM     54  C   UNL A   1      42.561  30.189  35.382  1.00  0.00     0.049 A 
ATOM     55  C   UNL A   1      38.313  32.786  32.801  1.00  0.00     0.074 A 
ATOM     56  C   UNL A   1      42.949  30.697  36.609  1.00  0.00     0.029 A 
ATOM     57  N   UNL A   1      41.499  30.965  34.944  1.00  0.00    -0.354 N 
ATOM     58  N   UNL A   1      39.293  32.289  33.518  1.00  0.00    -0.248 NA
ATOM     59  C   UNL A   1      37.599  33.896  33.448  1.00  0.00     0.031 C 
ATOM     60  C   UNL A   1      42.094  31.758  36.931  1.00  0.00     0.029 A 
ATOM     61  C   UNL A   1      41.203  31.937  35.885  1.00  0.00     0.049 A 
ATOM     62  H   UNL A   1      41.025  30.844  34.090  1.00  0.00     0.167 HD
ATOM     63  C   UNL A   1      39.328  33.039  34.690  1.00  0.00     0.074 A 
ATOM     64  C   UNL A   1      38.278  34.030  34.581  1.00  0.00     0.031 C 
ATOM     65  C   UNL A   1      40.155  32.921  35.758  1.00  0.00     0.037 A 
BRANCH  52  66
ATOM     66  C   UNL A   1      44.237  28.298  35.291  1.00  0.00     0.058 A 
ATOM     67  C   UNL A   1      43.997  27.189  36.118  1.00  0.00     0.135 A 
ATOM     68  C   UNL A   1      45.573  28.654  35.044  1.00  0.00     0.135 A 
ATOM     69  F   UNL A   1      42.739  26.816  36.400  1.00  0.00    -0.206 F 
ATOM     70  C   UNL A   1      45.041  26.476  36.699  1.00  0.00     0.059 A 
ATOM     71  C   UNL A   1      46.633  27.940  35.595  1.00  0.00     0.059 A 
ATOM     72  F   UNL A   1      45.858  29.706  34.262  1.00  0.00    -0.206 F 
ATOM     73  C   UNL A   1      46.357  26.861  36.434  1.00  0.00     0.060 A 
BRANCH  73  74
ATOM     74  S   UNL A   1      47.702  25.929  37.196  1.00  0.00     0.124 S 
ATOM     75  O   UNL A   1      48.757  26.072  36.197  1.00  0.00    -0.237 OA
ATOM     76  O   UNL A   1      47.914  26.648  38.447  1.00  0.00    -0.237 OA
ATOM     77  O   UNL A   1      47.148  24.585  37.335  1.00  0.00    -0.744 OA
ENDBRANCH  73  74
ENDBRANCH  52  66
BRANCH  53  78
ATOM     78  C   UNL A   1      36.697  33.072  30.779  1.00  0.00     0.058 A 
ATOM     79  C   UNL A   1      35.374  32.808  31.159  1.00  0.00     0.135 A 
ATOM     80  C   UNL A   1      36.910  34.020  29.766  1.00  0.00     0.135 A 
ATOM     81  F   UNL A   1      35.120  31.901  32.116  1.00  0.00    -0.206 F 
ATOM     82  C   UNL A   1      34.299  33.449  30.551  1.00  0.00     0.059 A 
ATOM     83  C   UNL A   1      35.853  34.693  29.159  1.00  0.00     0.059 A 
ATOM     84  F   UNL A   1      38.159  34.313  29.369  1.00  0.00    -0.206 F 
ATOM     85  C   UNL A   1      34.551  34.391  29.551  1.00  0.00     0.060 A 
BRANCH  85  86
ATOM     86  S   UNL A   1      33.150  35.245  28.795  1.00  0.00     0.124 S 
ATOM     87  O   UNL A   1      32.367  35.622  29.968  1.00  0.00    -0.237 OA
ATOM     88  O   UNL A   1      33.803  36.343  28.087  1.00  0.00    -0.237 OA
ATOM     89  O   UNL A   1      32.552  34.225  27.939  1.00  0.00    -0.744 OA
ENDBRANCH  85  86
ENDBRANCH  53  78
BRANCH  65  90
ATOM     90  C   UNL A   1      39.982  33.903  36.883  1.00  0.00     0.058 A 
ATOM     91  C   UNL A   1      40.549  35.185  36.835  1.00  0.00     0.135 A 
ATOM     92  C   UNL A   1      39.193  33.575  37.998  1.00  0.00     0.135 A 
ATOM     93  F   UNL A   1      41.316  35.546  35.794  1.00  0.00    -0.206 F 
ATOM     94  C   UNL A   1      40.356  36.103  37.862  1.00  0.00     0.059 A 
ATOM     95  C   UNL A   1      38.967  34.485  39.025  1.00  0.00     0.059 A 
ATOM     96  F   UNL A   1      38.618  32.364  38.087  1.00  0.00    -0.206 F 
ATOM     97  C   UNL A   1      39.563  35.743  38.954  1.00  0.00     0.060 A 
BRANCH  97  98
ATOM     98  S   UNL A   1      39.290  36.954  40.266  1.00  0.00     0.124 S 
ATOM     99  O   UNL A   1      38.809  38.105  39.509  1.00  0.00    -0.237 OA
ATOM    100  O   UNL A   1      38.298  36.290  41.106  1.00  0.00    -0.237 OA
ATOM    101  O   UNL A   1      40.611  37.106  40.868  1.00  0.00    -0.744 OA
ENDBRANCH  97  98
ENDBRANCH  65  90
ENDBRANCH  39  40
ENDBRANCH  32  34
ENDBRANCH  31  32
ENDBRANCH  30  31
ENDBRANCH  29  30
ENDBRANCH  28  29
ENDBRANCH   1  28
TORSDOF 22
ENDMDL
MODEL 2
REMARK VINA RESULT:      -9.9      6.335     11.386
REMARK SMILES C[NH2+][C@]1(C(=O)OCCOCCOC(=O)c2ccc(-c3c4nc(c(-c5c(F)cc(S(=O)(=O)[O-])cc5F)c5ccc([nH]5)c(-c5c(F)cc(S(=O)(=O)[O-])cc5F)c5nc(c(-c6c(F)cc(S(=O)(=O)[O-])cc6F)c6ccc3[nH]6)C=C5)C=C4)cc2)CCC[C@@H]1CC[N@H+]1CCC[C@H]([NH+](C)C)C1
REMARK SMILES IDX 8 1 7 2 6 3 4 4 5 5 3 6 81 7 84 8 82 9 83 10 2 11 1 12 85 15
REMARK SMILES IDX 86 16 87 17 88 18 95 19 89 21 91 22 90 23 92 24 93 25 94 26
REMARK SMILES IDX 9 28 10 29 11 30 12 31 13 32 14 33 15 34 16 35 80 36 17 37
REMARK SMILES IDX 79 38 18 39 19 40 20 41 73 42 21 43 78 44 72 45 74 46 22 47
REMARK SMILES IDX 77 48 71 49 70 50 23 52 57 53 36 54 56 55 37 56 40 57 55 58
REMARK SMILES IDX 75 59 38 60 39 61 54 63 76 64 41 65 24 66 25 67 34 68 26 69
REMARK SMILES IDX 27 70 33 71 35 72 28 73 29 74 30 75 31 76 32 77 58 78 59 79
REMARK SMILES IDX 68 80 60 81 61 82 67 83 69 84 62 85 63 86 64 87 65 88 66 89
REMARK SMILES IDX 42 90 43 91 52 92 44 93 45 94 51 95 53 96 46 97 47 98 48 99
REMARK SMILES IDX 49 100 50 101
REMARK H PARENT 2 13 2 14 87 20 92 27 74 51 40 62
REMARK Flexibility Score: inf
ROOT
ATOM      1  C   UNL A   1      36.393  22.083  24.986  1.00  0.00     0.202 C 
ENDROOT
BRANCH   1   2
ATOM      2  C   UNL A   1      35.931  23.336  25.744  1.00  0.00     0.261 C 
BRANCH   2   3
ATOM      3  O   UNL A   1      35.521  24.424  24.908  1.00  0.00    -0.459 OA
BRANCH   3   4
ATOM      4  C   UNL A   1      34.768  24.062  23.827  1.00  0.00     0.368 C 
ATOM      5  O   UNL A   1      35.255  23.751  22.743  1.00  0.00    -0.245 OA
BRANCH   4   6
ATOM      6  C   UNL A   1      33.238  24.193  24.098  1.00  0.00     0.197 C 
ATOM      7  C   UNL A   1      32.463  25.029  23.055  1.00  0.00     0.081 C 
ATOM      8  C   UNL A   1      32.575  22.804  23.854  1.00  0.00     0.068 C 
ATOM      9  C   UNL A   1      31.012  24.552  23.161  1.00  0.00     0.008 C 
ATOM     10  C   UNL A   1      31.078  23.117  23.693  1.00  0.00     0.011 C 
BRANCH   6  11
ATOM     11  N   UNL A   1      32.872  24.775  25.432  1.00  0.00    -0.334 N 
ATOM     12  C   UNL A   1      33.269  26.149  25.695  1.00  0.00     0.331 C 
ATOM     13  H   UNL A   1      31.857  24.728  25.518  1.00  0.00     0.347 HD
ATOM     14  H   UNL A   1      33.394  24.219  26.109  1.00  0.00     0.347 HD
ENDBRANCH   6  11
BRANCH   8  15
ATOM     15  C   UNL A   1      32.897  21.760  24.937  1.00  0.00     0.072 C 
BRANCH  15  16
ATOM     16  C   UNL A   1      31.964  20.537  24.983  1.00  0.00     0.262 C 
BRANCH  16  17
ATOM     17  N   UNL A   1      32.457  19.268  24.424  1.00  0.00    -0.330 N 
ATOM     18  C   UNL A   1      32.157  19.037  23.011  1.00  0.00     0.262 C 
ATOM     19  C   UNL A   1      33.920  19.171  24.614  1.00  0.00     0.327 C 
ATOM     20  H   UNL A   1      31.950  18.549  24.940  1.00  0.00     0.348 HD
ATOM     21  C   UNL A   1      32.553  17.624  22.585  1.00  0.00     0.068 C 
ATOM     22  C   UNL A   1      34.513  17.779  24.251  1.00  0.00     0.239 C 
ATOM     23  C   UNL A   1      34.023  17.330  22.857  1.00  0.00     0.077 C 
BRANCH  22  24
ATOM     24  N   UNL A   1      34.407  16.725  25.286  1.00  0.00    -0.333 N 
ATOM     25  C   UNL A   1      33.166  15.961  25.165  1.00  0.00     0.332 C 
ATOM     26  C   UNL A   1      35.545  15.821  25.394  1.00  0.00     0.332 C 
ATOM     27  H   UNL A   1      34.404  17.257  26.156  1.00  0.00     0.348 HD
ENDBRANCH  22  24
ENDBRANCH  16  17
ENDBRANCH  15  16
ENDBRANCH   8  15
ENDBRANCH   4   6
ENDBRANCH   3   4
ENDBRANCH   2   3
ENDBRANCH   1   2
BRANCH   1  28
ATOM     28  O   UNL A   1      37.776  21.922  24.703  1.00  0.00    -0.374 OA
BRANCH  28  29
ATOM     29  C   UNL A   1      38.503  20.900  25.383  1.00  0.00     0.202 C 
BRANCH  29  30
ATOM     30  C   UNL A   1      39.805  21.259  26.106  1.00  0.00     0.261 C 
BRANCH  30  31
ATOM     31  O   UNL A   1      40.429  20.140  26.764  1.00  0.00    -0.460 OA
BRANCH  31  32
ATOM     32  C   UNL A   1      41.661  19.835  26.293  1.00  0.00     0.338 C 
ATOM     33  O   UNL A   1      41.986  18.823  25.680  1.00  0.00    -0.246 OA
BRANCH  32  34
ATOM     34  C   UNL A   1      42.591  20.961  26.463  1.00  0.00     0.060 A 
ATOM     35  C   UNL A   1      42.774  21.464  27.758  1.00  0.00     0.016 A 
ATOM     36  C   UNL A   1      43.138  21.619  25.359  1.00  0.00     0.016 A 
ATOM     37  C   UNL A   1      43.457  22.663  27.948  1.00  0.00     0.010 A 
ATOM     38  C   UNL A   1      43.816  22.828  25.553  1.00  0.00     0.010 A 
ATOM     39  C   UNL A   1      43.940  23.376  26.842  1.00  0.00    -0.014 A 
BRANCH  39  40
ATOM     40  C   UNL A   1      44.430  24.764  27.029  1.00  0.00     0.031 A 
ATOM     41  C   UNL A   1      43.454  25.834  27.441  1.00  0.00     0.074 A 
ATOM     42  C   UNL A   1      45.733  25.058  26.868  1.00  0.00     0.049 A 
ATOM     43  N   UNL A   1      43.658  27.112  27.639  1.00  0.00    -0.248 NA
ATOM     44  C   UNL A   1      42.062  25.407  27.660  1.00  0.00     0.031 C 
ATOM     45  C   UNL A   1      46.775  24.098  26.508  1.00  0.00     0.029 A 
ATOM     46  N   UNL A   1      46.398  26.252  26.984  1.00  0.00    -0.354 N 
ATOM     47  C   UNL A   1      42.425  27.641  28.000  1.00  0.00     0.074 A 
ATOM     48  C   UNL A   1      41.472  26.553  27.968  1.00  0.00     0.031 C 
ATOM     49  C   UNL A   1      47.951  24.745  26.421  1.00  0.00     0.029 A 
ATOM     50  C   UNL A   1      47.738  26.166  26.692  1.00  0.00     0.049 A 
ATOM     51  H   UNL A   1      45.957  27.091  27.252  1.00  0.00     0.167 HD
ATOM     52  C   UNL A   1      42.116  28.918  28.333  1.00  0.00     0.037 A 
ATOM     53  C   UNL A   1      48.679  27.128  26.632  1.00  0.00     0.037 A 
ATOM     54  C   UNL A   1      43.069  29.997  28.363  1.00  0.00     0.049 A 
ATOM     55  C   UNL A   1      48.301  28.551  26.953  1.00  0.00     0.074 A 
ATOM     56  C   UNL A   1      42.859  31.322  28.700  1.00  0.00     0.029 A 
ATOM     57  N   UNL A   1      44.412  29.875  28.038  1.00  0.00    -0.354 N 
ATOM     58  N   UNL A   1      47.135  29.035  27.309  1.00  0.00    -0.248 NA
ATOM     59  C   UNL A   1      49.368  29.559  26.865  1.00  0.00     0.031 C 
ATOM     60  C   UNL A   1      44.067  32.010  28.540  1.00  0.00     0.029 A 
ATOM     61  C   UNL A   1      45.039  31.105  28.146  1.00  0.00     0.049 A 
ATOM     62  H   UNL A   1      44.854  29.037  27.769  1.00  0.00     0.167 HD
ATOM     63  C   UNL A   1      47.332  30.398  27.511  1.00  0.00     0.074 A 
ATOM     64  C   UNL A   1      48.732  30.660  27.246  1.00  0.00     0.031 C 
ATOM     65  C   UNL A   1      46.437  31.347  27.883  1.00  0.00     0.037 A 
BRANCH  52  66
ATOM     66  C   UNL A   1      40.682  29.221  28.669  1.00  0.00     0.058 A 
ATOM     67  C   UNL A   1      39.707  29.378  27.671  1.00  0.00     0.135 A 
ATOM     68  C   UNL A   1      40.272  29.330  30.007  1.00  0.00     0.135 A 
ATOM     69  F   UNL A   1      40.048  29.300  26.374  1.00  0.00    -0.206 F 
ATOM     70  C   UNL A   1      38.382  29.657  27.986  1.00  0.00     0.059 A 
ATOM     71  C   UNL A   1      38.947  29.586  30.347  1.00  0.00     0.059 A 
ATOM     72  F   UNL A   1      41.164  29.190  31.000  1.00  0.00    -0.206 F 
ATOM     73  C   UNL A   1      38.011  29.763  29.329  1.00  0.00     0.060 A 
BRANCH  73  74
ATOM     74  S   UNL A   1      36.288  30.128  29.725  1.00  0.00     0.124 S 
ATOM     75  O   UNL A   1      36.312  31.585  29.811  1.00  0.00    -0.237 OA
ATOM     76  O   UNL A   1      35.577  29.573  28.578  1.00  0.00    -0.237 OA
ATOM     77  O   UNL A   1      36.075  29.428  30.989  1.00  0.00    -0.744 OA
ENDBRANCH  73  74
ENDBRANCH  52  66
BRANCH  53  78
ATOM     78  C   UNL A   1      50.071  26.778  26.242  1.00  0.00     0.058 A 
ATOM     79  C   UNL A   1      50.451  26.702  24.895  1.00  0.00     0.135 A 
ATOM     80  C   UNL A   1      51.051  26.518  27.214  1.00  0.00     0.135 A 
ATOM     81  F   UNL A   1      49.546  26.931  23.930  1.00  0.00    -0.206 F 
ATOM     82  C   UNL A   1      51.748  26.369  24.521  1.00  0.00     0.059 A 
ATOM     83  C   UNL A   1      52.362  26.207  26.866  1.00  0.00     0.059 A 
ATOM     84  F   UNL A   1      50.740  26.584  28.518  1.00  0.00    -0.206 F 
ATOM     85  C   UNL A   1      52.698  26.124  25.516  1.00  0.00     0.060 A 
BRANCH  85  86
ATOM     86  S   UNL A   1      54.390  25.730  25.020  1.00  0.00     0.124 S 
ATOM     87  O   UNL A   1      55.164  26.388  26.067  1.00  0.00    -0.237 OA
ATOM     88  O   UNL A   1      54.389  24.270  25.051  1.00  0.00    -0.237 OA
ATOM     89  O   UNL A   1      54.500  26.321  23.689  1.00  0.00    -0.744 OA
ENDBRANCH  85  86
ENDBRANCH  53  78
BRANCH  65  90
ATOM     90  C   UNL A   1      46.945  32.751  28.057  1.00  0.00     0.058 A 
ATOM     91  C   UNL A   1      47.586  33.162  29.235  1.00  0.00     0.135 A 
ATOM     92  C   UNL A   1      46.838  33.680  27.009  1.00  0.00     0.135 A 
ATOM     93  F   UNL A   1      47.710  32.313  30.268  1.00  0.00    -0.206 F 
ATOM     94  C   UNL A   1      48.087  34.452  29.377  1.00  0.00     0.059 A 
ATOM     95  C   UNL A   1      47.352  34.968  27.121  1.00  0.00     0.059 A 
ATOM     96  F   UNL A   1      46.243  33.335  25.856  1.00  0.00    -0.206 F 
ATOM     97  C   UNL A   1      47.965  35.348  28.314  1.00  0.00     0.060 A 
BRANCH  97  98
ATOM     98  S   UNL A   1      48.649  37.010  28.496  1.00  0.00     0.124 S 
ATOM     99  O   UNL A   1      47.448  37.834  28.408  1.00  0.00    -0.237 OA
ATOM    100  O   UNL A   1      49.280  36.949  29.811  1.00  0.00    -0.237 OA
ATOM    101  O   UNL A   1      49.572  37.122  27.370  1.00  0.00    -0.744 OA
ENDBRANCH  97  98
ENDBRANCH  65  90
ENDBRANCH  39  40
ENDBRANCH  32  34
ENDBRANCH  31  32
ENDBRANCH  30  31
ENDBRANCH  29  30
ENDBRANCH  28  29
ENDBRANCH   1  28
TORSDOF 22
ENDMDL
MODEL 3
REMARK VINA RESULT:      -9.8      2.338      8.633
REMARK SMILES C[NH2+][C@]1(C(=O)OCCOCCOC(=O)c2ccc(-c3c4nc(c(-c5c(F)cc(S(=O)(=O)[O-])cc5F)c5ccc([nH]5)c(-c5c(F)cc(S(=O)(=O)[O-])cc5F)c5nc(c(-c6c(F)cc(S(=O)(=O)[O-])cc6F)c6ccc3[nH]6)C=C5)C=C4)cc2)CCC[C@@H]1CC[N@H+]1CCC[C@H]([NH+](C)C)C1
REMARK SMILES IDX 8 1 7 2 6 3 4 4 5 5 3 6 81 7 84 8 82 9 83 10 2 11 1 12 85 15
REMARK SMILES IDX 86 16 87 17 88 18 95 19 89 21 91 22 90 23 92 24 93 25 94 26
REMARK SMILES IDX 9 28 10 29 11 30 12 31 13 32 14 33 15 34 16 35 80 36 17 37
REMARK SMILES IDX 79 38 18 39 19 40 20 41 73 42 21 43 78 44 72 45 74 46 22 47
REMARK SMILES IDX 77 48 71 49 70 50 23 52 57 53 36 54 56 55 37 56 40 57 55 58
REMARK SMILES IDX 75 59 38 60 39 61 54 63 76 64 41 65 24 66 25 67 34 68 26 69
REMARK SMILES IDX 27 70 33 71 35 72 28 73 29 74 30 75 31 76 32 77 58 78 59 79
REMARK SMILES IDX 68 80 60 81 61 82 67 83 69 84 62 85 63 86 64 87 65 88 66 89
REMARK SMILES IDX 42 90 43 91 52 92 44 93 45 94 51 95 53 96 46 97 47 98 48 99
REMARK SMILES IDX 49 100 50 101
REMARK H PARENT 2 13 2 14 87 20 92 27 74 51 40 62
REMARK Flexibility Score: inf
ROOT
ATOM      1  C   UNL A   1      33.359  29.209  26.701  1.00  0.00     0.202 C 
ENDROOT
BRANCH   1   2
ATOM      2  C   UNL A   1      32.162  28.394  27.212  1.00  0.00     0.261 C 
BRANCH   2   3
ATOM      3  O   UNL A   1      31.450  27.675  26.198  1.00  0.00    -0.459 OA
BRANCH   3   4
ATOM      4  C   UNL A   1      32.142  26.638  25.640  1.00  0.00     0.368 C 
ATOM      5  O   UNL A   1      32.760  25.808  26.303  1.00  0.00    -0.245 OA
BRANCH   4   6
ATOM      6  C   UNL A   1      32.143  26.696  24.082  1.00  0.00     0.197 C 
ATOM      7  C   UNL A   1      33.427  27.283  23.454  1.00  0.00     0.081 C 
ATOM      8  C   UNL A   1      32.238  25.239  23.537  1.00  0.00     0.068 C 
ATOM      9  C   UNL A   1      33.468  26.722  22.031  1.00  0.00     0.008 C 
ATOM     10  C   UNL A   1      32.686  25.405  22.074  1.00  0.00     0.011 C 
BRANCH   6  11
ATOM     11  N   UNL A   1      31.008  27.462  23.469  1.00  0.00    -0.334 N 
ATOM     12  C   UNL A   1      31.193  28.892  23.276  1.00  0.00     0.331 C 
ATOM     13  H   UNL A   1      30.820  27.052  22.555  1.00  0.00     0.347 HD
ATOM     14  H   UNL A   1      30.248  27.386  24.146  1.00  0.00     0.347 HD
ENDBRANCH   6  11
BRANCH   8  15
ATOM     15  C   UNL A   1      30.950  24.418  23.721  1.00  0.00     0.072 C 
BRANCH  15  16
ATOM     16  C   UNL A   1      31.129  23.030  24.362  1.00  0.00     0.262 C 
BRANCH  16  17
ATOM     17  N   UNL A   1      32.245  22.839  25.301  1.00  0.00    -0.330 N 
ATOM     18  C   UNL A   1      31.869  22.591  26.693  1.00  0.00     0.262 C 
ATOM     19  C   UNL A   1      33.103  21.725  24.842  1.00  0.00     0.327 C 
ATOM     20  H   UNL A   1      32.736  23.733  25.298  1.00  0.00     0.348 HD
ATOM     21  C   UNL A   1      33.095  22.588  27.605  1.00  0.00     0.068 C 
ATOM     22  C   UNL A   1      34.427  21.576  25.645  1.00  0.00     0.239 C 
ATOM     23  C   UNL A   1      34.142  21.572  27.162  1.00  0.00     0.077 C 
BRANCH  22  24
ATOM     24  N   UNL A   1      35.543  22.466  25.252  1.00  0.00    -0.333 N 
ATOM     25  C   UNL A   1      36.844  21.907  25.616  1.00  0.00     0.332 C 
ATOM     26  C   UNL A   1      35.554  22.900  23.861  1.00  0.00     0.332 C 
ATOM     27  H   UNL A   1      35.365  23.311  25.795  1.00  0.00     0.348 HD
ENDBRANCH  22  24
ENDBRANCH  16  17
ENDBRANCH  15  16
ENDBRANCH   8  15
ENDBRANCH   4   6
ENDBRANCH   3   4
ENDBRANCH   2   3
ENDBRANCH   1   2
BRANCH   1  28
ATOM     28  O   UNL A   1      34.226  29.822  27.646  1.00  0.00    -0.374 OA
BRANCH  28  29
ATOM     29  C   UNL A   1      34.467  31.225  27.549  1.00  0.00     0.202 C 
BRANCH  29  30
ATOM     30  C   UNL A   1      33.286  32.197  27.645  1.00  0.00     0.261 C 
BRANCH  30  31
ATOM     31  O   UNL A   1      33.643  33.567  27.384  1.00  0.00    -0.460 OA
BRANCH  31  32
ATOM     32  C   UNL A   1      33.488  34.394  28.445  1.00  0.00     0.338 C 
ATOM     33  O   UNL A   1      32.525  35.115  28.684  1.00  0.00    -0.246 OA
BRANCH  32  34
ATOM     34  C   UNL A   1      34.579  34.225  29.415  1.00  0.00     0.060 A 
ATOM     35  C   UNL A   1      35.894  34.354  28.947  1.00  0.00     0.016 A 
ATOM     36  C   UNL A   1      34.328  33.780  30.715  1.00  0.00     0.016 A 
ATOM     37  C   UNL A   1      36.962  33.982  29.760  1.00  0.00     0.010 A 
ATOM     38  C   UNL A   1      35.402  33.399  31.526  1.00  0.00     0.010 A 
ATOM     39  C   UNL A   1      36.720  33.457  31.037  1.00  0.00    -0.014 A 
BRANCH  39  40
ATOM     40  C   UNL A   1      37.833  32.826  31.787  1.00  0.00     0.031 A 
ATOM     41  C   UNL A   1      38.488  31.593  31.223  1.00  0.00     0.074 A 
ATOM     42  C   UNL A   1      38.277  33.366  32.936  1.00  0.00     0.049 A 
ATOM     43  N   UNL A   1      39.458  30.868  31.719  1.00  0.00    -0.248 NA
ATOM     44  C   UNL A   1      37.981  31.112  29.927  1.00  0.00     0.031 C 
ATOM     45  C   UNL A   1      37.747  34.577  33.559  1.00  0.00     0.029 A 
ATOM     46  N   UNL A   1      39.274  32.958  33.785  1.00  0.00    -0.354 N 
ATOM     47  C   UNL A   1      39.676  29.847  30.802  1.00  0.00     0.074 A 
ATOM     48  C   UNL A   1      38.719  30.028  29.732  1.00  0.00     0.031 C 
ATOM     49  C   UNL A   1      38.418  34.810  34.700  1.00  0.00     0.029 A 
ATOM     50  C   UNL A   1      39.404  33.749  34.901  1.00  0.00     0.049 A 
ATOM     51  H   UNL A   1      39.843  32.173  33.612  1.00  0.00     0.167 HD
ATOM     52  C   UNL A   1      40.593  28.851  30.844  1.00  0.00     0.037 A 
ATOM     53  C   UNL A   1      40.215  33.621  35.970  1.00  0.00     0.037 A 
ATOM     54  C   UNL A   1      41.544  28.675  31.912  1.00  0.00     0.049 A 
ATOM     55  C   UNL A   1      41.190  32.473  36.023  1.00  0.00     0.074 A 
ATOM     56  C   UNL A   1      42.524  27.707  32.042  1.00  0.00     0.029 A 
ATOM     57  N   UNL A   1      41.630  29.483  33.035  1.00  0.00    -0.354 N 
ATOM     58  N   UNL A   1      41.397  31.525  35.140  1.00  0.00    -0.248 NA
ATOM     59  C   UNL A   1      42.044  32.380  37.215  1.00  0.00     0.031 C 
ATOM     60  C   UNL A   1      43.175  27.906  33.264  1.00  0.00     0.029 A 
ATOM     61  C   UNL A   1      42.631  29.025  33.874  1.00  0.00     0.049 A 
ATOM     62  H   UNL A   1      41.061  30.268  33.211  1.00  0.00     0.167 HD
ATOM     63  C   UNL A   1      42.419  30.735  35.660  1.00  0.00     0.074 A 
ATOM     64  C   UNL A   1      42.795  31.324  36.928  1.00  0.00     0.031 C 
ATOM     65  C   UNL A   1      42.996  29.626  35.134  1.00  0.00     0.037 A 
BRANCH  52  66
ATOM     66  C   UNL A   1      40.598  27.860  29.714  1.00  0.00     0.058 A 
ATOM     67  C   UNL A   1      41.540  27.929  28.675  1.00  0.00     0.135 A 
ATOM     68  C   UNL A   1      39.664  26.811  29.682  1.00  0.00     0.135 A 
ATOM     69  F   UNL A   1      42.444  28.921  28.647  1.00  0.00    -0.206 F 
ATOM     70  C   UNL A   1      41.540  27.009  27.631  1.00  0.00     0.059 A 
ATOM     71  C   UNL A   1      39.661  25.866  28.661  1.00  0.00     0.059 A 
ATOM     72  F   UNL A   1      38.741  26.700  30.650  1.00  0.00    -0.206 F 
ATOM     73  C   UNL A   1      40.594  25.982  27.631  1.00  0.00     0.060 A 
BRANCH  73  74
ATOM     74  S   UNL A   1      40.604  24.796  26.270  1.00  0.00     0.124 S 
ATOM     75  O   UNL A   1      39.179  24.522  26.113  1.00  0.00    -0.237 OA
ATOM     76  O   UNL A   1      41.225  25.559  25.192  1.00  0.00    -0.237 OA
ATOM     77  O   UNL A   1      41.402  23.689  26.790  1.00  0.00    -0.744 OA
ENDBRANCH  73  74
ENDBRANCH  52  66
BRANCH  53  78
ATOM     78  C   UNL A   1      40.130  34.602  37.084  1.00  0.00     0.058 A 
ATOM     79  C   UNL A   1      39.238  34.416  38.149  1.00  0.00     0.135 A 
ATOM     80  C   UNL A   1      40.948  35.743  37.108  1.00  0.00     0.135 A 
ATOM     81  F   UNL A   1      38.427  33.346  38.166  1.00  0.00    -0.206 F 
ATOM     82  C   UNL A   1      39.147  35.332  39.192  1.00  0.00     0.059 A 
ATOM     83  C   UNL A   1      40.894  36.661  38.153  1.00  0.00     0.059 A 
ATOM     84  F   UNL A   1      41.824  35.964  36.115  1.00  0.00    -0.206 F 
ATOM     85  C   UNL A   1      39.981  36.452  39.185  1.00  0.00     0.060 A 
BRANCH  85  86
ATOM     86  S   UNL A   1      39.883  37.615  40.564  1.00  0.00     0.124 S 
ATOM     87  O   UNL A   1      38.443  37.830  40.663  1.00  0.00    -0.237 OA
ATOM     88  O   UNL A   1      40.489  36.855  41.653  1.00  0.00    -0.237 OA
ATOM     89  O   UNL A   1      40.661  38.759  40.099  1.00  0.00    -0.744 OA
ENDBRANCH  85  86
ENDBRANCH  53  78
BRANCH  65  90
ATOM     90  C   UNL A   1      44.115  28.991  35.911  1.00  0.00     0.058 A 
ATOM     91  C   UNL A   1      45.441  29.429  35.784  1.00  0.00     0.135 A 
ATOM     92  C   UNL A   1      43.846  27.967  36.835  1.00  0.00     0.135 A 
ATOM     93  F   UNL A   1      45.751  30.401  34.911  1.00  0.00    -0.206 F 
ATOM     94  C   UNL A   1      46.467  28.861  36.532  1.00  0.00     0.059 A 
ATOM     95  C   UNL A   1      44.853  27.401  37.610  1.00  0.00     0.059 A 
ATOM     96  F   UNL A   1      42.592  27.519  37.003  1.00  0.00    -0.206 F 
ATOM     97  C   UNL A   1      46.164  27.848  37.443  1.00  0.00     0.060 A 
BRANCH  97  98
ATOM     98  S   UNL A   1      47.498  27.142  38.435  1.00  0.00     0.124 S 
ATOM     99  O   UNL A   1      46.988  27.327  39.789  1.00  0.00    -0.237 OA
ATOM    100  O   UNL A   1      47.547  25.762  37.959  1.00  0.00    -0.237 OA
ATOM    101  O   UNL A   1      48.653  27.961  38.081  1.00  0.00    -0.744 OA
ENDBRANCH  97  98
ENDBRANCH  65  90
ENDBRANCH  39  40
ENDBRANCH  32  34
ENDBRANCH  31  32
ENDBRANCH  30  31
ENDBRANCH  29  30
ENDBRANCH  28  29
ENDBRANCH   1  28
TORSDOF 22
ENDMDL
