MODEL 1
REMARK VINA RESULT:     -11.8      0.000      0.000
REMARK SMILES NC(=O)c1c(-c2ccc(Cl)cc2)csc1NC(=O)[C@H]1[C@@H](C(=O)OCCOCCOC(=O)c2ccc(-c3c4nc(c(-c5c(F)cc(S(=O)(=O)[O-])cc5F)c5ccc([nH]5)c(-c5c(F)cc(S(=O)(=O)[O-])cc5F)c5nc(c(-c6c(F)cc(S(=O)(=O)[O-])cc6F)c6ccc3[nH]6)C=C5)C=C4)cc2)[C@@H]2CC[C@H]1O2
REMARK SMILES IDX 26 1 25 2 24 3 23 4 21 5 22 6 20 7 19 8 101 9 98 10 100 11
REMARK SMILES IDX 102 12 99 13 17 14 16 15 18 17 15 18 4 19 5 20 13 21 14 22
REMARK SMILES IDX 2 23 1 24 3 27 6 28 7 29 12 30 8 31 11 32 9 33 10 34 27 35
REMARK SMILES IDX 28 36 29 37 30 38 31 39 32 40 33 41 97 42 34 43 96 44 35 45
REMARK SMILES IDX 36 46 37 47 90 48 38 49 95 50 89 51 91 52 39 53 94 54 88 55
REMARK SMILES IDX 87 56 40 58 74 59 53 60 73 61 54 62 57 63 72 64 92 65 55 66
REMARK SMILES IDX 56 67 71 69 93 70 58 71 41 72 42 73 51 74 43 75 44 76 50 77
REMARK SMILES IDX 52 78 45 79 46 80 47 81 48 82 49 83 75 84 76 85 85 86 77 87
REMARK SMILES IDX 78 88 84 89 86 90 79 91 80 92 81 93 82 94 83 95 59 96 60 97
REMARK SMILES IDX 69 98 61 99 62 100 68 101 70 102 63 103 64 104 65 105 66 106
REMARK SMILES IDX 67 107
REMARK H PARENT 16 16 1 25 1 26 91 57 57 68
REMARK Flexibility Score: inf
ROOT
ATOM      1  O   UNL A   1      34.346  29.764  26.862  1.00  0.00    -0.374 OA
ENDROOT
BRANCH   1   2
ATOM      2  C   UNL A   1      33.585  29.141  25.827  1.00  0.00     0.202 C 
BRANCH   2   3
ATOM      3  C   UNL A   1      33.187  27.675  26.025  1.00  0.00     0.261 C 
BRANCH   3   4
ATOM      4  O   UNL A   1      33.976  26.766  25.236  1.00  0.00    -0.463 OA
BRANCH   4   5
ATOM      5  C   UNL A   1      33.873  25.459  25.580  1.00  0.00     0.312 C 
ATOM      6  O   UNL A   1      33.098  25.017  26.424  1.00  0.00    -0.252 OA
BRANCH   5   7
ATOM      7  C   UNL A   1      34.731  24.527  24.755  1.00  0.00     0.143 C 
ATOM      8  C   UNL A   1      34.093  23.472  23.824  1.00  0.00     0.124 C 
ATOM      9  C   UNL A   1      35.004  22.296  24.086  1.00  0.00     0.132 C 
ATOM     10  C   UNL A   1      35.681  23.684  25.618  1.00  0.00     0.133 C 
ATOM     11  C   UNL A   1      36.470  22.554  23.705  1.00  0.00     0.035 C 
ATOM     12  O   UNL A   1      35.103  22.371  25.530  1.00  0.00    -0.373 OA
ATOM     13  C   UNL A   1      36.981  23.370  24.893  1.00  0.00     0.036 C 
BRANCH   8  14
ATOM     14  C   UNL A   1      32.562  23.360  23.888  1.00  0.00     0.231 C 
ATOM     15  N   UNL A   1      31.572  24.267  23.690  1.00  0.00    -0.317 N 
ATOM     16  H   UNL A   1      30.709  23.898  23.986  1.00  0.00     0.170 HD
ATOM     17  O   UNL A   1      32.151  22.249  24.285  1.00  0.00    -0.274 OA
BRANCH  15  18
ATOM     18  C   UNL A   1      31.398  25.554  23.197  1.00  0.00     0.108 A 
ATOM     19  C   UNL A   1      30.423  26.485  23.587  1.00  0.00     0.082 A 
ATOM     20  C   UNL A   1      30.675  27.780  22.971  1.00  0.00     0.007 A 
ATOM     21  C   UNL A   1      31.769  27.728  22.134  1.00  0.00     0.076 A 
ATOM     22  S   UNL A   1      32.214  26.136  21.845  1.00  0.00    -0.125 S 
BRANCH  19  23
ATOM     23  C   UNL A   1      29.345  26.115  24.500  1.00  0.00     0.252 C 
ATOM     24  N   UNL A   1      28.075  26.269  24.037  1.00  0.00    -0.365 N 
ATOM     25  H   UNL A   1      27.310  26.035  24.611  1.00  0.00     0.159 HD
ATOM     26  H   UNL A   1      27.920  26.614  23.128  1.00  0.00     0.159 HD
ATOM     27  O   UNL A   1      29.559  25.610  25.600  1.00  0.00    -0.269 OA
ENDBRANCH  19  23
BRANCH  20  28
ATOM     28  C   UNL A   1      30.002  29.067  23.079  1.00  0.00    -0.017 A 
ATOM     29  C   UNL A   1      29.118  29.445  22.052  1.00  0.00     0.010 A 
ATOM     30  C   UNL A   1      30.289  29.967  24.108  1.00  0.00     0.010 A 
ATOM     31  C   UNL A   1      28.555  30.719  22.032  1.00  0.00     0.021 A 
ATOM     32  C   UNL A   1      29.715  31.244  24.090  1.00  0.00     0.021 A 
ATOM     33  C   UNL A   1      28.863  31.617  23.048  1.00  0.00     0.041 A 
ATOM     34  Cl  UNL A   1      28.209  33.206  22.997  1.00  0.00    -0.084 Cl
ENDBRANCH  20  28
ENDBRANCH  15  18
ENDBRANCH   8  14
ENDBRANCH   5   7
ENDBRANCH   4   5
ENDBRANCH   3   4
ENDBRANCH   2   3
ENDBRANCH   1   2
BRANCH   1  35
ATOM     35  C   UNL A   1      33.695  30.791  27.604  1.00  0.00     0.202 C 
BRANCH  35  36
ATOM     36  C   UNL A   1      34.554  31.950  28.120  1.00  0.00     0.261 C 
BRANCH  36  37
ATOM     37  O   UNL A   1      35.961  31.672  28.044  1.00  0.00    -0.460 OA
BRANCH  37  38
ATOM     38  C   UNL A   1      36.520  31.306  29.223  1.00  0.00     0.338 C 
ATOM     39  O   UNL A   1      36.062  31.477  30.340  1.00  0.00    -0.246 OA
BRANCH  38  40
ATOM     40  C   UNL A   1      37.723  30.491  28.981  1.00  0.00     0.060 A 
ATOM     41  C   UNL A   1      38.657  30.403  30.022  1.00  0.00     0.016 A 
ATOM     42  C   UNL A   1      37.983  29.904  27.740  1.00  0.00     0.016 A 
ATOM     43  C   UNL A   1      39.885  29.788  29.806  1.00  0.00     0.010 A 
ATOM     44  C   UNL A   1      39.221  29.292  27.523  1.00  0.00     0.010 A 
ATOM     45  C   UNL A   1      40.193  29.271  28.541  1.00  0.00    -0.014 A 
BRANCH  45  46
ATOM     46  C   UNL A   1      41.581  28.839  28.251  1.00  0.00     0.031 A 
ATOM     47  C   UNL A   1      42.684  29.864  28.258  1.00  0.00     0.074 A 
ATOM     48  C   UNL A   1      41.860  27.542  28.025  1.00  0.00     0.049 A 
ATOM     49  N   UNL A   1      43.955  29.716  27.992  1.00  0.00    -0.248 NA
ATOM     50  C   UNL A   1      42.300  31.242  28.609  1.00  0.00     0.031 C 
ATOM     51  C   UNL A   1      40.885  26.453  28.053  1.00  0.00     0.029 A 
ATOM     52  N   UNL A   1      43.047  26.925  27.724  1.00  0.00    -0.354 N 
ATOM     53  C   UNL A   1      44.523  30.977  28.138  1.00  0.00     0.074 A 
ATOM     54  C   UNL A   1      43.450  31.885  28.478  1.00  0.00     0.031 C 
ATOM     55  C   UNL A   1      41.513  25.300  27.767  1.00  0.00     0.029 A 
ATOM     56  C   UNL A   1      42.925  25.574  27.506  1.00  0.00     0.049 A 
ATOM     57  H   UNL A   1      43.905  27.404  27.669  1.00  0.00     0.167 HD
ATOM     58  C   UNL A   1      45.822  31.340  28.013  1.00  0.00     0.037 A 
ATOM     59  C   UNL A   1      43.843  24.668  27.117  1.00  0.00     0.037 A 
ATOM     60  C   UNL A   1      46.885  30.423  27.683  1.00  0.00     0.049 A 
ATOM     61  C   UNL A   1      45.269  25.108  26.910  1.00  0.00     0.074 A 
ATOM     62  C   UNL A   1      48.236  30.687  27.548  1.00  0.00     0.029 A 
ATOM     63  N   UNL A   1      46.716  29.069  27.433  1.00  0.00    -0.354 N 
ATOM     64  N   UNL A   1      45.795  26.301  27.061  1.00  0.00    -0.248 NA
ATOM     65  C   UNL A   1      46.230  24.079  26.486  1.00  0.00     0.031 C 
ATOM     66  C   UNL A   1      48.875  29.507  27.156  1.00  0.00     0.029 A 
ATOM     67  C   UNL A   1      47.933  28.492  27.111  1.00  0.00     0.049 A 
ATOM     68  H   UNL A   1      45.857  28.590  27.475  1.00  0.00     0.167 HD
ATOM     69  C   UNL A   1      47.151  26.159  26.785  1.00  0.00     0.074 A 
ATOM     70  C   UNL A   1      47.365  24.763  26.465  1.00  0.00     0.031 C 
ATOM     71  C   UNL A   1      48.132  27.097  26.799  1.00  0.00     0.037 A 
BRANCH  58  72
ATOM     72  C   UNL A   1      46.167  32.793  28.202  1.00  0.00     0.058 A 
ATOM     73  C   UNL A   1      46.564  33.310  29.446  1.00  0.00     0.135 A 
ATOM     74  C   UNL A   1      46.136  33.676  27.109  1.00  0.00     0.135 A 
ATOM     75  F   UNL A   1      46.595  32.516  30.528  1.00  0.00    -0.206 F 
ATOM     76  C   UNL A   1      46.891  34.653  29.606  1.00  0.00     0.059 A 
ATOM     77  C   UNL A   1      46.489  35.017  27.239  1.00  0.00     0.059 A 
ATOM     78  F   UNL A   1      45.762  33.240  25.897  1.00  0.00    -0.206 F 
ATOM     79  C   UNL A   1      46.851  35.498  28.496  1.00  0.00     0.060 A 
BRANCH  79  80
ATOM     80  S   UNL A   1      47.282  37.237  28.720  1.00  0.00     0.124 S 
ATOM     81  O   UNL A   1      47.251  37.358  30.175  1.00  0.00    -0.237 OA
ATOM     82  O   UNL A   1      48.603  37.312  28.106  1.00  0.00    -0.237 OA
ATOM     83  O   UNL A   1      46.222  37.946  28.011  1.00  0.00    -0.744 OA
ENDBRANCH  79  80
ENDBRANCH  58  72
BRANCH  59  84
ATOM     84  C   UNL A   1      43.436  23.256  26.885  1.00  0.00     0.058 A 
ATOM     85  C   UNL A   1      43.318  22.737  25.589  1.00  0.00     0.135 A 
ATOM     86  C   UNL A   1      43.159  22.398  27.962  1.00  0.00     0.135 A 
ATOM     87  F   UNL A   1      43.565  23.519  24.527  1.00  0.00    -0.206 F 
ATOM     88  C   UNL A   1      42.920  21.422  25.364  1.00  0.00     0.059 A 
ATOM     89  C   UNL A   1      42.787  21.072  27.765  1.00  0.00     0.059 A 
ATOM     90  F   UNL A   1      43.274  22.844  29.224  1.00  0.00    -0.206 F 
ATOM     91  C   UNL A   1      42.660  20.597  26.460  1.00  0.00     0.060 A 
BRANCH  91  92
ATOM     92  S   UNL A   1      42.177  18.884  26.154  1.00  0.00     0.124 S 
ATOM     93  O   UNL A   1      40.767  19.033  25.815  1.00  0.00    -0.237 OA
ATOM     94  O   UNL A   1      43.062  18.511  25.055  1.00  0.00    -0.237 OA
ATOM     95  O   UNL A   1      42.452  18.225  27.427  1.00  0.00    -0.744 OA
ENDBRANCH  91  92
ENDBRANCH  59  84
BRANCH  71  96
ATOM     96  C   UNL A   1      49.536  26.643  26.496  1.00  0.00     0.058 A 
ATOM     97  C   UNL A   1      50.352  26.056  27.474  1.00  0.00     0.135 A 
ATOM     98  C   UNL A   1      50.050  26.746  25.193  1.00  0.00     0.135 A 
ATOM     99  F   UNL A   1      49.914  25.936  28.738  1.00  0.00    -0.206 F 
ATOM    100  C   UNL A   1      51.638  25.612  27.178  1.00  0.00     0.059 A 
ATOM    101  C   UNL A   1      51.319  26.280  24.866  1.00  0.00     0.059 A 
ATOM    102  F   UNL A   1      49.307  27.288  24.214  1.00  0.00    -0.206 F 
ATOM    103  C   UNL A   1      52.112  25.726  25.870  1.00  0.00     0.060 A 
BRANCH 103 104
ATOM    104  S   UNL A   1      53.768  25.114  25.493  1.00  0.00     0.124 S 
ATOM    105  O   UNL A   1      53.540  23.674  25.422  1.00  0.00    -0.237 OA
ATOM    106  O   UNL A   1      54.062  25.774  24.226  1.00  0.00    -0.237 OA
ATOM    107  O   UNL A   1      54.565  25.567  26.630  1.00  0.00    -0.744 OA
ENDBRANCH 103 104
ENDBRANCH  71  96
ENDBRANCH  45  46
ENDBRANCH  38  40
ENDBRANCH  37  38
ENDBRANCH  36  37
ENDBRANCH  35  36
ENDBRANCH   1  35
TORSDOF 21
ENDMDL
MODEL 2
REMARK VINA RESULT:     -11.7      2.214      4.261
REMARK SMILES NC(=O)c1c(-c2ccc(Cl)cc2)csc1NC(=O)[C@H]1[C@@H](C(=O)OCCOCCOC(=O)c2ccc(-c3c4nc(c(-c5c(F)cc(S(=O)(=O)[O-])cc5F)c5ccc([nH]5)c(-c5c(F)cc(S(=O)(=O)[O-])cc5F)c5nc(c(-c6c(F)cc(S(=O)(=O)[O-])cc6F)c6ccc3[nH]6)C=C5)C=C4)cc2)[C@@H]2CC[C@H]1O2
REMARK SMILES IDX 26 1 25 2 24 3 23 4 21 5 22 6 20 7 19 8 101 9 98 10 100 11
REMARK SMILES IDX 102 12 99 13 17 14 16 15 18 17 15 18 4 19 5 20 13 21 14 22
REMARK SMILES IDX 2 23 1 24 3 27 6 28 7 29 12 30 8 31 11 32 9 33 10 34 27 35
REMARK SMILES IDX 28 36 29 37 30 38 31 39 32 40 33 41 97 42 34 43 96 44 35 45
REMARK SMILES IDX 36 46 37 47 90 48 38 49 95 50 89 51 91 52 39 53 94 54 88 55
REMARK SMILES IDX 87 56 40 58 74 59 53 60 73 61 54 62 57 63 72 64 92 65 55 66
REMARK SMILES IDX 56 67 71 69 93 70 58 71 41 72 42 73 51 74 43 75 44 76 50 77
REMARK SMILES IDX 52 78 45 79 46 80 47 81 48 82 49 83 75 84 76 85 85 86 77 87
REMARK SMILES IDX 78 88 84 89 86 90 79 91 80 92 81 93 82 94 83 95 59 96 60 97
REMARK SMILES IDX 69 98 61 99 62 100 68 101 70 102 63 103 64 104 65 105 66 106
REMARK SMILES IDX 67 107
REMARK H PARENT 16 16 1 25 1 26 91 57 57 68
REMARK Flexibility Score: inf
ROOT
ATOM      1  O   UNL A   1      32.827  32.732  27.320  1.00  0.00    -0.374 OA
ENDROOT
BRANCH   1   2
ATOM      2  C   UNL A   1      31.901  31.648  27.246  1.00  0.00     0.202 C 
BRANCH   2   3
ATOM      3  C   UNL A   1      31.894  30.809  25.965  1.00  0.00     0.261 C 
BRANCH   3   4
ATOM      4  O   UNL A   1      32.993  29.882  25.893  1.00  0.00    -0.463 OA
BRANCH   4   5
ATOM      5  C   UNL A   1      32.960  29.022  24.846  1.00  0.00     0.312 C 
ATOM      6  O   UNL A   1      33.952  28.567  24.283  1.00  0.00    -0.252 OA
BRANCH   5   7
ATOM      7  C   UNL A   1      31.573  28.558  24.463  1.00  0.00     0.143 C 
ATOM      8  C   UNL A   1      30.821  27.511  25.315  1.00  0.00     0.124 C 
ATOM      9  C   UNL A   1      30.206  26.667  24.223  1.00  0.00     0.132 C 
ATOM     10  C   UNL A   1      31.527  27.944  23.056  1.00  0.00     0.133 C 
ATOM     11  C   UNL A   1      29.238  27.442  23.316  1.00  0.00     0.035 C 
ATOM     12  O   UNL A   1      31.342  26.545  23.331  1.00  0.00    -0.373 OA
ATOM     13  C   UNL A   1      30.188  28.184  22.375  1.00  0.00     0.036 C 
BRANCH   8  14
ATOM     14  C   UNL A   1      31.613  26.902  26.481  1.00  0.00     0.231 C 
ATOM     15  N   UNL A   1      32.363  25.776  26.585  1.00  0.00    -0.317 N 
ATOM     16  H   UNL A   1      32.581  25.600  27.528  1.00  0.00     0.170 HD
ATOM     17  O   UNL A   1      31.468  27.509  27.564  1.00  0.00    -0.274 OA
BRANCH  15  18
ATOM     18  C   UNL A   1      32.918  24.795  25.773  1.00  0.00     0.108 A 
ATOM     19  C   UNL A   1      32.785  23.405  25.912  1.00  0.00     0.082 A 
ATOM     20  C   UNL A   1      33.365  22.717  24.768  1.00  0.00     0.007 A 
ATOM     21  C   UNL A   1      33.933  23.611  23.886  1.00  0.00     0.076 A 
ATOM     22  S   UNL A   1      34.069  25.128  24.591  1.00  0.00    -0.125 S 
BRANCH  19  23
ATOM     23  C   UNL A   1      32.127  22.820  27.078  1.00  0.00     0.252 C 
ATOM     24  N   UNL A   1      32.901  22.053  27.893  1.00  0.00    -0.365 N 
ATOM     25  H   UNL A   1      32.508  21.634  28.693  1.00  0.00     0.159 HD
ATOM     26  H   UNL A   1      33.853  21.917  27.683  1.00  0.00     0.159 HD
ATOM     27  O   UNL A   1      30.959  23.069  27.367  1.00  0.00    -0.269 OA
ENDBRANCH  19  23
BRANCH  20  28
ATOM     28  C   UNL A   1      33.448  21.309  24.407  1.00  0.00    -0.017 A 
ATOM     29  C   UNL A   1      32.423  20.763  23.614  1.00  0.00     0.010 A 
ATOM     30  C   UNL A   1      34.451  20.475  24.908  1.00  0.00     0.010 A 
ATOM     31  C   UNL A   1      32.377  19.395  23.354  1.00  0.00     0.021 A 
ATOM     32  C   UNL A   1      34.407  19.102  24.638  1.00  0.00     0.021 A 
ATOM     33  C   UNL A   1      33.367  18.568  23.875  1.00  0.00     0.041 A 
ATOM     34  Cl  UNL A   1      33.283  16.874  23.598  1.00  0.00    -0.084 Cl
ENDBRANCH  20  28
ENDBRANCH  15  18
ENDBRANCH   8  14
ENDBRANCH   5   7
ENDBRANCH   4   5
ENDBRANCH   3   4
ENDBRANCH   2   3
ENDBRANCH   1   2
BRANCH   1  35
ATOM     35  C   UNL A   1      33.800  32.672  28.360  1.00  0.00     0.202 C 
BRANCH  35  36
ATOM     36  C   UNL A   1      35.198  32.162  27.998  1.00  0.00     0.261 C 
BRANCH  36  37
ATOM     37  O   UNL A   1      35.555  30.970  28.716  1.00  0.00    -0.460 OA
BRANCH  37  38
ATOM     38  C   UNL A   1      36.514  31.153  29.655  1.00  0.00     0.338 C 
ATOM     39  O   UNL A   1      36.409  31.762  30.706  1.00  0.00    -0.246 OA
BRANCH  38  40
ATOM     40  C   UNL A   1      37.707  30.354  29.323  1.00  0.00     0.060 A 
ATOM     41  C   UNL A   1      38.620  30.107  30.355  1.00  0.00     0.016 A 
ATOM     42  C   UNL A   1      37.977  29.935  28.017  1.00  0.00     0.016 A 
ATOM     43  C   UNL A   1      39.840  29.502  30.076  1.00  0.00     0.010 A 
ATOM     44  C   UNL A   1      39.207  29.333  27.738  1.00  0.00     0.010 A 
ATOM     45  C   UNL A   1      40.161  29.154  28.758  1.00  0.00    -0.014 A 
BRANCH  45  46
ATOM     46  C   UNL A   1      41.546  28.737  28.433  1.00  0.00     0.031 A 
ATOM     47  C   UNL A   1      42.642  29.769  28.441  1.00  0.00     0.074 A 
ATOM     48  C   UNL A   1      41.828  27.447  28.174  1.00  0.00     0.049 A 
ATOM     49  N   UNL A   1      43.909  29.634  28.147  1.00  0.00    -0.248 NA
ATOM     50  C   UNL A   1      42.257  31.136  28.828  1.00  0.00     0.031 C 
ATOM     51  C   UNL A   1      40.860  26.351  28.197  1.00  0.00     0.029 A 
ATOM     52  N   UNL A   1      43.013  26.844  27.837  1.00  0.00    -0.354 N 
ATOM     53  C   UNL A   1      44.472  30.895  28.309  1.00  0.00     0.074 A 
ATOM     54  C   UNL A   1      43.401  31.790  28.689  1.00  0.00     0.031 C 
ATOM     55  C   UNL A   1      41.489  25.209  27.874  1.00  0.00     0.029 A 
ATOM     56  C   UNL A   1      42.894  25.497  27.592  1.00  0.00     0.049 A 
ATOM     57  H   UNL A   1      43.866  27.329  27.776  1.00  0.00     0.167 HD
ATOM     58  C   UNL A   1      45.767  31.269  28.168  1.00  0.00     0.037 A 
ATOM     59  C   UNL A   1      43.810  24.605  27.168  1.00  0.00     0.037 A 
ATOM     60  C   UNL A   1      46.828  30.366  27.798  1.00  0.00     0.049 A 
ATOM     61  C   UNL A   1      45.229  25.058  26.943  1.00  0.00     0.074 A 
ATOM     62  C   UNL A   1      48.176  30.641  27.643  1.00  0.00     0.029 A 
ATOM     63  N   UNL A   1      46.662  29.016  27.522  1.00  0.00    -0.354 N 
ATOM     64  N   UNL A   1      45.750  26.251  27.109  1.00  0.00    -0.248 NA
ATOM     65  C   UNL A   1      46.187  24.045  26.478  1.00  0.00     0.031 C 
ATOM     66  C   UNL A   1      48.813  29.473  27.214  1.00  0.00     0.029 A 
ATOM     67  C   UNL A   1      47.877  28.453  27.165  1.00  0.00     0.049 A 
ATOM     68  H   UNL A   1      45.808  28.531  27.571  1.00  0.00     0.167 HD
ATOM     69  C   UNL A   1      47.102  26.124  26.804  1.00  0.00     0.074 A 
ATOM     70  C   UNL A   1      47.318  24.736  26.451  1.00  0.00     0.031 C 
ATOM     71  C   UNL A   1      48.077  27.067  26.820  1.00  0.00     0.037 A 
BRANCH  58  72
ATOM     72  C   UNL A   1      46.106  32.720  28.381  1.00  0.00     0.058 A 
ATOM     73  C   UNL A   1      46.517  33.214  29.629  1.00  0.00     0.135 A 
ATOM     74  C   UNL A   1      46.057  33.625  27.307  1.00  0.00     0.135 A 
ATOM     75  F   UNL A   1      46.567  32.399  30.695  1.00  0.00    -0.206 F 
ATOM     76  C   UNL A   1      46.839  34.555  29.812  1.00  0.00     0.059 A 
ATOM     77  C   UNL A   1      46.405  34.964  27.459  1.00  0.00     0.059 A 
ATOM     78  F   UNL A   1      45.669  33.210  26.090  1.00  0.00    -0.206 F 
ATOM     79  C   UNL A   1      46.781  35.422  28.720  1.00  0.00     0.060 A 
BRANCH  79  80
ATOM     80  S   UNL A   1      47.206  37.159  28.973  1.00  0.00     0.124 S 
ATOM     81  O   UNL A   1      46.713  37.760  27.736  1.00  0.00    -0.237 OA
ATOM     82  O   UNL A   1      46.458  37.490  30.180  1.00  0.00    -0.237 OA
ATOM     83  O   UNL A   1      48.657  37.137  29.122  1.00  0.00    -0.744 OA
ENDBRANCH  79  80
ENDBRANCH  58  72
BRANCH  59  84
ATOM     84  C   UNL A   1      43.406  23.196  26.913  1.00  0.00     0.058 A 
ATOM     85  C   UNL A   1      43.317  22.689  25.610  1.00  0.00     0.135 A 
ATOM     86  C   UNL A   1      43.104  22.328  27.976  1.00  0.00     0.135 A 
ATOM     87  F   UNL A   1      43.590  23.481  24.561  1.00  0.00    -0.206 F 
ATOM     88  C   UNL A   1      42.923  21.377  25.364  1.00  0.00     0.059 A 
ATOM     89  C   UNL A   1      42.735  21.005  27.758  1.00  0.00     0.059 A 
ATOM     90  F   UNL A   1      43.191  22.762  29.244  1.00  0.00    -0.206 F 
ATOM     91  C   UNL A   1      42.637  20.542  26.446  1.00  0.00     0.060 A 
BRANCH  91  92
ATOM     92  S   UNL A   1      42.160  18.833  26.113  1.00  0.00     0.124 S 
ATOM     93  O   UNL A   1      40.748  18.982  25.779  1.00  0.00    -0.237 OA
ATOM     94  O   UNL A   1      43.045  18.480  25.007  1.00  0.00    -0.237 OA
ATOM     95  O   UNL A   1      42.440  18.154  27.375  1.00  0.00    -0.744 OA
ENDBRANCH  91  92
ENDBRANCH  59  84
BRANCH  71  96
ATOM     96  C   UNL A   1      49.478  26.628  26.481  1.00  0.00     0.058 A 
ATOM     97  C   UNL A   1      49.996  26.738  25.182  1.00  0.00     0.135 A 
ATOM     98  C   UNL A   1      50.332  26.143  27.485  1.00  0.00     0.135 A 
ATOM     99  F   UNL A   1      49.222  27.190  24.182  1.00  0.00    -0.206 F 
ATOM    100  C   UNL A   1      51.301  26.358  24.884  1.00  0.00     0.059 A 
ATOM    101  C   UNL A   1      51.650  25.788  27.218  1.00  0.00     0.059 A 
ATOM    102  F   UNL A   1      49.894  26.029  28.749  1.00  0.00    -0.206 F 
ATOM    103  C   UNL A   1      52.122  25.887  25.909  1.00  0.00     0.060 A 
BRANCH 103 104
ATOM    104  S   UNL A   1      53.824  25.430  25.515  1.00  0.00     0.124 S 
ATOM    105  O   UNL A   1      54.361  25.131  26.839  1.00  0.00    -0.237 OA
ATOM    106  O   UNL A   1      53.641  24.284  24.630  1.00  0.00    -0.237 OA
ATOM    107  O   UNL A   1      54.359  26.629  24.877  1.00  0.00    -0.744 OA
ENDBRANCH 103 104
ENDBRANCH  71  96
ENDBRANCH  45  46
ENDBRANCH  38  40
ENDBRANCH  37  38
ENDBRANCH  36  37
ENDBRANCH  35  36
ENDBRANCH   1  35
TORSDOF 21
ENDMDL
MODEL 3
REMARK VINA RESULT:     -11.6      2.946      8.825
REMARK SMILES NC(=O)c1c(-c2ccc(Cl)cc2)csc1NC(=O)[C@H]1[C@@H](C(=O)OCCOCCOC(=O)c2ccc(-c3c4nc(c(-c5c(F)cc(S(=O)(=O)[O-])cc5F)c5ccc([nH]5)c(-c5c(F)cc(S(=O)(=O)[O-])cc5F)c5nc(c(-c6c(F)cc(S(=O)(=O)[O-])cc6F)c6ccc3[nH]6)C=C5)C=C4)cc2)[C@@H]2CC[C@H]1O2
REMARK SMILES IDX 26 1 25 2 24 3 23 4 21 5 22 6 20 7 19 8 101 9 98 10 100 11
REMARK SMILES IDX 102 12 99 13 17 14 16 15 18 17 15 18 4 19 5 20 13 21 14 22
REMARK SMILES IDX 2 23 1 24 3 27 6 28 7 29 12 30 8 31 11 32 9 33 10 34 27 35
REMARK SMILES IDX 28 36 29 37 30 38 31 39 32 40 33 41 97 42 34 43 96 44 35 45
REMARK SMILES IDX 36 46 37 47 90 48 38 49 95 50 89 51 91 52 39 53 94 54 88 55
REMARK SMILES IDX 87 56 40 58 74 59 53 60 73 61 54 62 57 63 72 64 92 65 55 66
REMARK SMILES IDX 56 67 71 69 93 70 58 71 41 72 42 73 51 74 43 75 44 76 50 77
REMARK SMILES IDX 52 78 45 79 46 80 47 81 48 82 49 83 75 84 76 85 85 86 77 87
REMARK SMILES IDX 78 88 84 89 86 90 79 91 80 92 81 93 82 94 83 95 59 96 60 97
REMARK SMILES IDX 69 98 61 99 62 100 68 101 70 102 63 103 64 104 65 105 66 106
REMARK SMILES IDX 67 107
REMARK H PARENT 16 16 1 25 1 26 91 57 57 68
REMARK Flexibility Score: inf
ROOT
ATOM      1  O   UNL A   1      37.359  22.107  24.717  1.00  0.00    -0.374 OA
ENDROOT
BRANCH   1   2
ATOM      2  C   UNL A   1      36.321  22.767  25.442  1.00  0.00     0.202 C 
BRANCH   2   3
ATOM      3  C   UNL A   1      35.361  23.659  24.650  1.00  0.00     0.261 C 
BRANCH   3   4
ATOM      4  O   UNL A   1      34.778  24.706  25.448  1.00  0.00    -0.463 OA
BRANCH   4   5
ATOM      5  C   UNL A   1      34.045  25.617  24.763  1.00  0.00     0.312 C 
ATOM      6  O   UNL A   1      34.017  25.715  23.539  1.00  0.00    -0.252 OA
BRANCH   5   7
ATOM      7  C   UNL A   1      33.148  26.474  25.627  1.00  0.00     0.143 C 
ATOM      8  C   UNL A   1      31.620  26.508  25.401  1.00  0.00     0.124 C 
ATOM      9  C   UNL A   1      31.354  27.984  25.585  1.00  0.00     0.132 C 
ATOM     10  C   UNL A   1      33.530  27.961  25.578  1.00  0.00     0.133 C 
ATOM     11  C   UNL A   1      31.717  28.506  26.983  1.00  0.00     0.035 C 
ATOM     12  O   UNL A   1      32.452  28.535  24.818  1.00  0.00    -0.373 OA
ATOM     13  C   UNL A   1      33.235  28.668  26.892  1.00  0.00     0.036 C 
BRANCH   8  14
ATOM     14  C   UNL A   1      31.106  25.722  24.186  1.00  0.00     0.231 C 
ATOM     15  N   UNL A   1      31.149  24.403  23.867  1.00  0.00    -0.317 N 
ATOM     16  H   UNL A   1      30.880  24.272  22.929  1.00  0.00     0.170 HD
ATOM     17  O   UNL A   1      30.639  26.442  23.277  1.00  0.00    -0.274 OA
BRANCH  15  18
ATOM     18  C   UNL A   1      31.453  23.182  24.454  1.00  0.00     0.108 A 
ATOM     19  C   UNL A   1      32.081  22.084  23.847  1.00  0.00     0.082 A 
ATOM     20  C   UNL A   1      32.383  21.056  24.832  1.00  0.00     0.007 A 
ATOM     21  C   UNL A   1      31.925  21.415  26.082  1.00  0.00     0.076 A 
ATOM     22  S   UNL A   1      30.886  22.728  25.972  1.00  0.00    -0.125 S 
BRANCH  19  23
ATOM     23  C   UNL A   1      32.362  22.069  22.413  1.00  0.00     0.252 C 
ATOM     24  N   UNL A   1      31.745  21.103  21.681  1.00  0.00    -0.365 N 
ATOM     25  H   UNL A   1      31.900  21.047  20.710  1.00  0.00     0.159 HD
ATOM     26  H   UNL A   1      31.145  20.459  22.121  1.00  0.00     0.159 HD
ATOM     27  O   UNL A   1      33.050  22.931  21.870  1.00  0.00    -0.269 OA
ENDBRANCH  19  23
BRANCH  20  28
ATOM     28  C   UNL A   1      33.055  19.768  24.734  1.00  0.00    -0.017 A 
ATOM     29  C   UNL A   1      32.287  18.601  24.894  1.00  0.00     0.010 A 
ATOM     30  C   UNL A   1      34.442  19.667  24.593  1.00  0.00     0.010 A 
ATOM     31  C   UNL A   1      32.897  17.350  24.948  1.00  0.00     0.021 A 
ATOM     32  C   UNL A   1      35.051  18.407  24.640  1.00  0.00     0.021 A 
ATOM     33  C   UNL A   1      34.279  17.259  24.829  1.00  0.00     0.041 A 
ATOM     34  Cl  UNL A   1      35.038  15.721  24.948  1.00  0.00    -0.084 Cl
ENDBRANCH  20  28
ENDBRANCH  15  18
ENDBRANCH   8  14
ENDBRANCH   5   7
ENDBRANCH   4   5
ENDBRANCH   3   4
ENDBRANCH   2   3
ENDBRANCH   1   2
BRANCH   1  35
ATOM     35  C   UNL A   1      38.067  21.080  25.406  1.00  0.00     0.202 C 
BRANCH  35  36
ATOM     36  C   UNL A   1      39.376  21.462  26.104  1.00  0.00     0.261 C 
BRANCH  36  37
ATOM     37  O   UNL A   1      39.973  20.356  26.801  1.00  0.00    -0.460 OA
BRANCH  37  38
ATOM     38  C   UNL A   1      41.204  20.016  26.352  1.00  0.00     0.338 C 
ATOM     39  O   UNL A   1      41.517  18.997  25.760  1.00  0.00    -0.246 OA
BRANCH  38  40
ATOM     40  C   UNL A   1      42.135  21.145  26.523  1.00  0.00     0.060 A 
ATOM     41  C   UNL A   1      42.384  21.578  27.832  1.00  0.00     0.016 A 
ATOM     42  C   UNL A   1      42.679  21.827  25.432  1.00  0.00     0.016 A 
ATOM     43  C   UNL A   1      43.120  22.736  28.055  1.00  0.00     0.010 A 
ATOM     44  C   UNL A   1      43.414  22.996  25.658  1.00  0.00     0.010 A 
ATOM     45  C   UNL A   1      43.600  23.477  26.968  1.00  0.00    -0.014 A 
BRANCH  45  46
ATOM     46  C   UNL A   1      44.169  24.826  27.202  1.00  0.00     0.031 A 
ATOM     47  C   UNL A   1      43.257  25.938  27.651  1.00  0.00     0.074 A 
ATOM     48  C   UNL A   1      45.488  25.046  27.056  1.00  0.00     0.049 A 
ATOM     49  N   UNL A   1      43.533  27.196  27.873  1.00  0.00    -0.248 NA
ATOM     50  C   UNL A   1      41.847  25.581  27.877  1.00  0.00     0.031 C 
ATOM     51  C   UNL A   1      46.475  24.033  26.684  1.00  0.00     0.029 A 
ATOM     52  N   UNL A   1      46.222  26.196  27.199  1.00  0.00    -0.354 N 
ATOM     53  C   UNL A   1      42.333  27.784  28.260  1.00  0.00     0.074 A 
ATOM     54  C   UNL A   1      41.321  26.753  28.204  1.00  0.00     0.031 C 
ATOM     55  C   UNL A   1      47.687  24.612  26.617  1.00  0.00     0.029 A 
ATOM     56  C   UNL A   1      47.555  26.037  26.909  1.00  0.00     0.049 A 
ATOM     57  H   UNL A   1      45.830  27.053  27.483  1.00  0.00     0.167 HD
ATOM     58  C   UNL A   1      42.101  29.064  28.639  1.00  0.00     0.037 A 
ATOM     59  C   UNL A   1      48.550  26.945  26.863  1.00  0.00     0.037 A 
ATOM     60  C   UNL A   1      43.121  30.082  28.700  1.00  0.00     0.049 A 
ATOM     61  C   UNL A   1      48.255  28.379  27.216  1.00  0.00     0.074 A 
ATOM     62  C   UNL A   1      42.992  31.404  29.086  1.00  0.00     0.029 A 
ATOM     63  N   UNL A   1      44.453  29.892  28.363  1.00  0.00    -0.354 N 
ATOM     64  N   UNL A   1      47.119  28.920  27.589  1.00  0.00    -0.248 NA
ATOM     65  C   UNL A   1      49.376  29.327  27.147  1.00  0.00     0.031 C 
ATOM     66  C   UNL A   1      44.233  32.029  28.924  1.00  0.00     0.029 A 
ATOM     67  C   UNL A   1      45.150  31.081  28.500  1.00  0.00     0.049 A 
ATOM     68  H   UNL A   1      44.844  29.039  28.067  1.00  0.00     0.167 HD
ATOM     69  C   UNL A   1      47.396  30.262  27.833  1.00  0.00     0.074 A 
ATOM     70  C   UNL A   1      48.808  30.448  27.572  1.00  0.00     0.031 C 
ATOM     71  C   UNL A   1      46.560  31.250  28.240  1.00  0.00     0.037 A 
BRANCH  58  72
ATOM     72  C   UNL A   1      40.688  29.448  28.988  1.00  0.00     0.058 A 
ATOM     73  C   UNL A   1      39.689  29.582  28.010  1.00  0.00     0.135 A 
ATOM     74  C   UNL A   1      40.318  29.649  30.328  1.00  0.00     0.135 A 
ATOM     75  F   UNL A   1      39.989  29.419  26.711  1.00  0.00    -0.206 F 
ATOM     76  C   UNL A   1      38.383  29.927  28.345  1.00  0.00     0.059 A 
ATOM     77  C   UNL A   1      39.011  29.964  30.690  1.00  0.00     0.059 A 
ATOM     78  F   UNL A   1      41.231  29.537  31.306  1.00  0.00    -0.206 F 
ATOM     79  C   UNL A   1      38.054  30.115  29.688  1.00  0.00     0.060 A 
BRANCH  79  80
ATOM     80  S   UNL A   1      36.355  30.558  30.106  1.00  0.00     0.124 S 
ATOM     81  O   UNL A   1      36.009  29.509  31.062  1.00  0.00    -0.237 OA
ATOM     82  O   UNL A   1      36.510  31.897  30.663  1.00  0.00    -0.237 OA
ATOM     83  O   UNL A   1      35.659  30.491  28.825  1.00  0.00    -0.744 OA
ENDBRANCH  79  80
ENDBRANCH  58  72
BRANCH  59  84
ATOM     84  C   UNL A   1      49.916  26.523  26.452  1.00  0.00     0.058 A 
ATOM     85  C   UNL A   1      50.293  26.493  25.102  1.00  0.00     0.135 A 
ATOM     86  C   UNL A   1      50.873  26.142  27.407  1.00  0.00     0.135 A 
ATOM     87  F   UNL A   1      49.412  26.840  24.151  1.00  0.00    -0.206 F 
ATOM     88  C   UNL A   1      51.563  26.082  24.709  1.00  0.00     0.059 A 
ATOM     89  C   UNL A   1      52.158  25.755  27.043  1.00  0.00     0.059 A 
ATOM     90  F   UNL A   1      50.565  26.170  28.714  1.00  0.00    -0.206 F 
ATOM     91  C   UNL A   1      52.490  25.718  25.689  1.00  0.00     0.060 A 
BRANCH  91  92
ATOM     92  S   UNL A   1      54.145  25.219  25.167  1.00  0.00     0.124 S 
ATOM     93  O   UNL A   1      53.959  23.793  24.924  1.00  0.00    -0.237 OA
ATOM     94  O   UNL A   1      54.352  26.047  23.982  1.00  0.00    -0.237 OA
ATOM     95  O   UNL A   1      54.977  25.560  26.317  1.00  0.00    -0.744 OA
ENDBRANCH  91  92
ENDBRANCH  59  84
BRANCH  71  96
ATOM     96  C   UNL A   1      47.152  32.616  28.469  1.00  0.00     0.058 A 
ATOM     97  C   UNL A   1      47.198  33.583  27.453  1.00  0.00     0.135 A 
ATOM     98  C   UNL A   1      47.630  32.979  29.739  1.00  0.00     0.135 A 
ATOM     99  F   UNL A   1      46.760  33.289  26.219  1.00  0.00    -0.206 F 
ATOM    100  C   UNL A   1      47.720  34.853  27.682  1.00  0.00     0.059 A 
ATOM    101  C   UNL A   1      48.126  34.252  29.998  1.00  0.00     0.059 A 
ATOM    102  F   UNL A   1      47.599  32.097  30.751  1.00  0.00    -0.206 F 
ATOM    103  C   UNL A   1      48.179  35.179  28.959  1.00  0.00     0.060 A 
BRANCH 103 104
ATOM    104  S   UNL A   1      48.822  36.841  29.248  1.00  0.00     0.124 S 
ATOM    105  O   UNL A   1      50.212  36.696  28.826  1.00  0.00    -0.237 OA
ATOM    106  O   UNL A   1      47.977  37.657  28.382  1.00  0.00    -0.237 OA
ATOM    107  O   UNL A   1      48.619  37.040  30.680  1.00  0.00    -0.744 OA
ENDBRANCH 103 104
ENDBRANCH  71  96
ENDBRANCH  45  46
ENDBRANCH  38  40
ENDBRANCH  37  38
ENDBRANCH  36  37
ENDBRANCH  35  36
ENDBRANCH   1  35
TORSDOF 21
ENDMDL
