MODEL 1
REMARK VINA RESULT:     -10.9      0.000      0.000
REMARK SMILES COc1ccc(/C=C/c2ncc([N+](=O)[O-])cc2C(=O)OCCOCCOC(=O)c2ccc(-c3c4nc(c(-c5c(F)cc(S(=O)(=O)[O-])cc5F)c5ccc([nH]5)c(-c5c(F)cc(S(=O)(=O)[O-])cc5F)c5nc(c(-c6c(F)cc(S(=O)(=O)[O-])cc6F)c6ccc3[nH]6)C=C5)C=C4)cc2)cc1
REMARK SMILES IDX 23 1 22 2 21 3 20 4 18 5 19 6 17 7 9 8 10 9 11 10 16 11
REMARK SMILES IDX 12 12 8 13 7 14 6 15 3 16 4 17 96 18 5 19 95 20 2 21 1 22
REMARK SMILES IDX 13 23 14 24 15 25 24 26 25 27 26 28 27 29 28 30 29 31 30 32
REMARK SMILES IDX 94 33 31 34 93 35 32 36 33 37 34 38 87 39 35 40 92 41 86 42
REMARK SMILES IDX 88 43 36 44 91 45 85 46 84 47 37 49 71 50 50 51 70 52 51 53
REMARK SMILES IDX 54 54 69 55 89 56 52 57 53 58 68 60 90 61 55 62 38 63 39 64
REMARK SMILES IDX 48 65 40 66 41 67 47 68 49 69 42 70 43 71 44 72 45 73 46 74
REMARK SMILES IDX 72 75 73 76 82 77 74 78 75 79 81 80 83 81 76 82 77 83 78 84
REMARK SMILES IDX 79 85 80 86 56 87 57 88 66 89 58 90 59 91 65 92 67 93 60 94
REMARK SMILES IDX 61 95 62 96 63 97 64 98
REMARK H PARENT 88 48 54 59
REMARK Flexibility Score: inf
ROOT
ATOM      1  O   UNL A   1      37.632  22.634  25.874  1.00  0.00    -0.374 OA
ENDROOT
BRANCH   1   2
ATOM      2  C   UNL A   1      37.093  22.282  24.598  1.00  0.00     0.202 C 
BRANCH   2   3
ATOM      3  C   UNL A   1      36.720  23.442  23.671  1.00  0.00     0.261 C 
BRANCH   3   4
ATOM      4  O   UNL A   1      35.591  23.081  22.852  1.00  0.00    -0.460 OA
BRANCH   4   5
ATOM      5  C   UNL A   1      34.411  23.646  23.195  1.00  0.00     0.340 C 
ATOM      6  O   UNL A   1      33.959  24.708  22.804  1.00  0.00    -0.246 OA
BRANCH   5   7
ATOM      7  C   UNL A   1      33.667  22.709  24.061  1.00  0.00     0.092 A 
ATOM      8  C   UNL A   1      33.292  23.084  25.360  1.00  0.00     0.078 A 
ATOM      9  N   UNL A   1      32.655  22.229  26.206  1.00  0.00    -0.249 NA
ATOM     10  C   UNL A   1      32.387  20.976  25.754  1.00  0.00     0.197 A 
ATOM     11  C   UNL A   1      33.325  21.433  23.592  1.00  0.00     0.105 A 
ATOM     12  C   UNL A   1      32.682  20.555  24.466  1.00  0.00     0.288 A 
BRANCH   8  13
ATOM     13  C   UNL A   1      33.479  24.446  25.885  1.00  0.00     0.030 C 
ATOM     14  C   UNL A   1      32.502  25.370  25.871  1.00  0.00     0.010 C 
BRANCH  14  15
ATOM     15  C   UNL A   1      32.690  26.788  26.239  1.00  0.00    -0.025 A 
ATOM     16  C   UNL A   1      33.136  29.496  26.915  1.00  0.00     0.118 A 
ATOM     17  C   UNL A   1      31.970  28.844  27.319  1.00  0.00     0.047 A 
ATOM     18  C   UNL A   1      34.090  28.793  26.188  1.00  0.00     0.047 A 
ATOM     19  C   UNL A   1      31.744  27.505  26.979  1.00  0.00     0.012 A 
ATOM     20  C   UNL A   1      33.852  27.460  25.830  1.00  0.00     0.012 A 
BRANCH  16  21
ATOM     21  O   UNL A   1      33.255  30.802  27.305  1.00  0.00    -0.497 OA
ATOM     22  C   UNL A   1      34.528  31.156  27.838  1.00  0.00     0.278 C 
ENDBRANCH  16  21
ENDBRANCH  14  15
ENDBRANCH   8  13
BRANCH  12  23
ATOM     23  N   UNL A   1      32.326  19.208  24.049  1.00  0.00     0.064 N 
ATOM     24  O   UNL A   1      31.978  18.410  24.930  1.00  0.00    -0.258 OA
ATOM     25  O   UNL A   1      32.388  18.950  22.841  1.00  0.00    -0.258 OA
ENDBRANCH  12  23
ENDBRANCH   5   7
ENDBRANCH   4   5
ENDBRANCH   3   4
ENDBRANCH   2   3
ENDBRANCH   1   2
BRANCH   1  26
ATOM     26  C   UNL A   1      38.966  22.228  26.149  1.00  0.00     0.202 C 
BRANCH  26  27
ATOM     27  C   UNL A   1      39.977  23.287  26.593  1.00  0.00     0.261 C 
BRANCH  27  28
ATOM     28  O   UNL A   1      39.441  24.606  26.536  1.00  0.00    -0.460 OA
BRANCH  28  29
ATOM     29  C   UNL A   1      40.391  25.560  26.382  1.00  0.00     0.338 C 
ATOM     30  O   UNL A   1      40.943  25.901  25.349  1.00  0.00    -0.246 OA
BRANCH  29  31
ATOM     31  C   UNL A   1      40.529  26.278  27.655  1.00  0.00     0.060 A 
ATOM     32  C   UNL A   1      39.542  26.069  28.626  1.00  0.00     0.016 A 
ATOM     33  C   UNL A   1      41.604  27.138  27.887  1.00  0.00     0.016 A 
ATOM     34  C   UNL A   1      39.602  26.764  29.827  1.00  0.00     0.010 A 
ATOM     35  C   UNL A   1      41.659  27.840  29.088  1.00  0.00     0.010 A 
ATOM     36  C   UNL A   1      40.637  27.682  30.040  1.00  0.00    -0.014 A 
BRANCH  36  37
ATOM     37  C   UNL A   1      40.555  28.616  31.181  1.00  0.00     0.031 A 
ATOM     38  C   UNL A   1      39.550  29.730  31.115  1.00  0.00     0.074 A 
ATOM     39  C   UNL A   1      41.350  28.459  32.251  1.00  0.00     0.049 A 
ATOM     40  N   UNL A   1      39.332  30.700  31.961  1.00  0.00    -0.248 NA
ATOM     41  C   UNL A   1      38.680  29.756  29.927  1.00  0.00     0.031 C 
ATOM     42  C   UNL A   1      42.325  27.383  32.428  1.00  0.00     0.029 A 
ATOM     43  N   UNL A   1      41.464  29.211  33.390  1.00  0.00    -0.354 N 
ATOM     44  C   UNL A   1      38.306  31.457  31.406  1.00  0.00     0.074 A 
ATOM     45  C   UNL A   1      37.977  30.858  30.131  1.00  0.00     0.031 C 
ATOM     46  C   UNL A   1      42.944  27.548  33.608  1.00  0.00     0.029 A 
ATOM     47  C   UNL A   1      42.435  28.759  34.249  1.00  0.00     0.049 A 
ATOM     48  H   UNL A   1      40.905  29.999  33.574  1.00  0.00     0.167 HD
ATOM     49  C   UNL A   1      37.690  32.547  31.922  1.00  0.00     0.037 A 
ATOM     50  C   UNL A   1      42.874  29.283  35.410  1.00  0.00     0.037 A 
ATOM     51  C   UNL A   1      38.044  33.132  33.188  1.00  0.00     0.049 A 
ATOM     52  C   UNL A   1      42.231  30.543  35.927  1.00  0.00     0.074 A 
ATOM     53  C   UNL A   1      37.486  34.232  33.814  1.00  0.00     0.029 A 
ATOM     54  N   UNL A   1      39.057  32.670  34.017  1.00  0.00    -0.354 N 
ATOM     55  N   UNL A   1      41.252  31.244  35.405  1.00  0.00    -0.248 NA
ATOM     56  C   UNL A   1      42.750  31.080  37.191  1.00  0.00     0.031 C 
ATOM     57  C   UNL A   1      38.202  34.469  34.992  1.00  0.00     0.029 A 
ATOM     58  C   UNL A   1      39.161  33.478  35.136  1.00  0.00     0.049 A 
ATOM     59  H   UNL A   1      39.620  31.883  33.835  1.00  0.00     0.167 HD
ATOM     60  C   UNL A   1      41.013  32.288  36.294  1.00  0.00     0.074 A 
ATOM     61  C   UNL A   1      41.949  32.120  37.388  1.00  0.00     0.031 C 
ATOM     62  C   UNL A   1      40.099  33.288  36.218  1.00  0.00     0.037 A 
BRANCH  49  63
ATOM     63  C   UNL A   1      36.608  33.185  31.093  1.00  0.00     0.058 A 
ATOM     64  C   UNL A   1      36.900  34.056  30.030  1.00  0.00     0.135 A 
ATOM     65  C   UNL A   1      35.255  32.932  31.376  1.00  0.00     0.135 A 
ATOM     66  F   UNL A   1      38.174  34.350  29.727  1.00  0.00    -0.206 F 
ATOM     67  C   UNL A   1      35.892  34.687  29.307  1.00  0.00     0.059 A 
ATOM     68  C   UNL A   1      34.230  33.525  30.643  1.00  0.00     0.059 A 
ATOM     69  F   UNL A   1      34.916  32.111  32.382  1.00  0.00    -0.206 F 
ATOM     70  C   UNL A   1      34.560  34.418  29.625  1.00  0.00     0.060 A 
BRANCH  70  71
ATOM     71  S   UNL A   1      33.265  35.264  28.696  1.00  0.00     0.124 S 
ATOM     72  O   UNL A   1      32.560  34.140  28.088  1.00  0.00    -0.237 OA
ATOM     73  O   UNL A   1      32.540  35.973  29.746  1.00  0.00    -0.237 OA
ATOM     74  O   UNL A   1      34.008  36.112  27.769  1.00  0.00    -0.744 OA
ENDBRANCH  70  71
ENDBRANCH  49  63
BRANCH  50  75
ATOM     75  C   UNL A   1      43.965  28.607  36.158  1.00  0.00     0.058 A 
ATOM     76  C   UNL A   1      45.285  29.078  36.088  1.00  0.00     0.135 A 
ATOM     77  C   UNL A   1      43.710  27.501  36.984  1.00  0.00     0.135 A 
ATOM     78  F   UNL A   1      45.582  30.127  35.306  1.00  0.00    -0.206 F 
ATOM     79  C   UNL A   1      46.312  28.476  36.806  1.00  0.00     0.059 A 
ATOM     80  C   UNL A   1      44.715  26.898  37.733  1.00  0.00     0.059 A 
ATOM     81  F   UNL A   1      42.461  27.020  37.095  1.00  0.00    -0.206 F 
ATOM     82  C   UNL A   1      46.015  27.391  37.634  1.00  0.00     0.060 A 
BRANCH  82  83
ATOM     83  S   UNL A   1      47.345  26.666  38.617  1.00  0.00     0.124 S 
ATOM     84  O   UNL A   1      46.975  27.081  39.965  1.00  0.00    -0.237 OA
ATOM     85  O   UNL A   1      47.198  25.243  38.322  1.00  0.00    -0.237 OA
ATOM     86  O   UNL A   1      48.546  27.290  38.069  1.00  0.00    -0.744 OA
ENDBRANCH  82  83
ENDBRANCH  50  75
BRANCH  62  87
ATOM     87  C   UNL A   1      40.030  34.256  37.368  1.00  0.00     0.058 A 
ATOM     88  C   UNL A   1      39.197  34.036  38.476  1.00  0.00     0.135 A 
ATOM     89  C   UNL A   1      40.860  35.389  37.388  1.00  0.00     0.135 A 
ATOM     90  F   UNL A   1      38.378  32.972  38.506  1.00  0.00    -0.206 F 
ATOM     91  C   UNL A   1      39.175  34.915  39.553  1.00  0.00     0.059 A 
ATOM     92  C   UNL A   1      40.878  36.263  38.468  1.00  0.00     0.059 A 
ATOM     93  F   UNL A   1      41.684  35.641  36.358  1.00  0.00    -0.206 F 
ATOM     94  C   UNL A   1      40.023  36.023  39.543  1.00  0.00     0.060 A 
BRANCH  94  95
ATOM     95  S   UNL A   1      40.015  37.133  40.967  1.00  0.00     0.124 S 
ATOM     96  O   UNL A   1      38.834  37.947  40.698  1.00  0.00    -0.237 OA
ATOM     97  O   UNL A   1      39.902  36.202  42.085  1.00  0.00    -0.237 OA
ATOM     98  O   UNL A   1      41.294  37.829  40.865  1.00  0.00    -0.744 OA
ENDBRANCH  94  95
ENDBRANCH  62  87
ENDBRANCH  36  37
ENDBRANCH  29  31
ENDBRANCH  28  29
ENDBRANCH  27  28
ENDBRANCH  26  27
ENDBRANCH   1  26
TORSDOF 21
ENDMDL
MODEL 2
REMARK VINA RESULT:     -10.6      1.500      2.270
REMARK SMILES COc1ccc(/C=C/c2ncc([N+](=O)[O-])cc2C(=O)OCCOCCOC(=O)c2ccc(-c3c4nc(c(-c5c(F)cc(S(=O)(=O)[O-])cc5F)c5ccc([nH]5)c(-c5c(F)cc(S(=O)(=O)[O-])cc5F)c5nc(c(-c6c(F)cc(S(=O)(=O)[O-])cc6F)c6ccc3[nH]6)C=C5)C=C4)cc2)cc1
REMARK SMILES IDX 23 1 22 2 21 3 20 4 18 5 19 6 17 7 9 8 10 9 11 10 16 11
REMARK SMILES IDX 12 12 8 13 7 14 6 15 3 16 4 17 96 18 5 19 95 20 2 21 1 22
REMARK SMILES IDX 13 23 14 24 15 25 24 26 25 27 26 28 27 29 28 30 29 31 30 32
REMARK SMILES IDX 94 33 31 34 93 35 32 36 33 37 34 38 87 39 35 40 92 41 86 42
REMARK SMILES IDX 88 43 36 44 91 45 85 46 84 47 37 49 71 50 50 51 70 52 51 53
REMARK SMILES IDX 54 54 69 55 89 56 52 57 53 58 68 60 90 61 55 62 38 63 39 64
REMARK SMILES IDX 48 65 40 66 41 67 47 68 49 69 42 70 43 71 44 72 45 73 46 74
REMARK SMILES IDX 72 75 73 76 82 77 74 78 75 79 81 80 83 81 76 82 77 83 78 84
REMARK SMILES IDX 79 85 80 86 56 87 57 88 66 89 58 90 59 91 65 92 67 93 60 94
REMARK SMILES IDX 61 95 62 96 63 97 64 98
REMARK H PARENT 88 48 54 59
REMARK Flexibility Score: inf
ROOT
ATOM      1  O   UNL A   1      38.895  23.034  26.675  1.00  0.00    -0.374 OA
ENDROOT
BRANCH   1   2
ATOM      2  C   UNL A   1      37.854  22.936  25.701  1.00  0.00     0.202 C 
BRANCH   2   3
ATOM      3  C   UNL A   1      37.445  21.522  25.280  1.00  0.00     0.261 C 
BRANCH   3   4
ATOM      4  O   UNL A   1      36.122  21.538  24.709  1.00  0.00    -0.460 OA
BRANCH   4   5
ATOM      5  C   UNL A   1      35.127  21.105  25.517  1.00  0.00     0.340 C 
ATOM      6  O   UNL A   1      34.916  21.435  26.671  1.00  0.00    -0.246 OA
BRANCH   5   7
ATOM      7  C   UNL A   1      34.233  20.222  24.741  1.00  0.00     0.092 A 
ATOM      8  C   UNL A   1      33.114  20.748  24.077  1.00  0.00     0.078 A 
ATOM      9  N   UNL A   1      32.237  19.959  23.398  1.00  0.00    -0.249 NA
ATOM     10  C   UNL A   1      32.475  18.622  23.380  1.00  0.00     0.197 A 
ATOM     11  C   UNL A   1      34.495  18.848  24.656  1.00  0.00     0.105 A 
ATOM     12  C   UNL A   1      33.588  18.041  23.969  1.00  0.00     0.288 A 
BRANCH   8  13
ATOM     13  C   UNL A   1      32.841  22.192  23.990  1.00  0.00     0.030 C 
ATOM     14  C   UNL A   1      31.855  22.787  24.683  1.00  0.00     0.010 C 
BRANCH  14  15
ATOM     15  C   UNL A   1      31.445  24.195  24.507  1.00  0.00    -0.025 A 
ATOM     16  C   UNL A   1      30.638  26.892  24.258  1.00  0.00     0.118 A 
ATOM     17  C   UNL A   1      30.944  26.134  23.128  1.00  0.00     0.047 A 
ATOM     18  C   UNL A   1      30.716  26.302  25.514  1.00  0.00     0.047 A 
ATOM     19  C   UNL A   1      31.352  24.799  23.249  1.00  0.00     0.012 A 
ATOM     20  C   UNL A   1      31.145  24.974  25.635  1.00  0.00     0.012 A 
BRANCH  16  21
ATOM     21  O   UNL A   1      30.249  28.183  24.023  1.00  0.00    -0.497 OA
ATOM     22  C   UNL A   1      31.018  28.872  23.041  1.00  0.00     0.278 C 
ENDBRANCH  16  21
ENDBRANCH  14  15
ENDBRANCH   8  13
BRANCH  12  23
ATOM     23  N   UNL A   1      33.787  16.604  23.869  1.00  0.00     0.064 N 
ATOM     24  O   UNL A   1      34.241  16.162  22.804  1.00  0.00    -0.258 OA
ATOM     25  O   UNL A   1      33.496  15.917  24.856  1.00  0.00    -0.258 OA
ENDBRANCH  12  23
ENDBRANCH   5   7
ENDBRANCH   4   5
ENDBRANCH   3   4
ENDBRANCH   2   3
ENDBRANCH   1   2
BRANCH   1  26
ATOM     26  C   UNL A   1      40.033  22.202  26.495  1.00  0.00     0.202 C 
BRANCH  26  27
ATOM     27  C   UNL A   1      41.375  22.861  26.165  1.00  0.00     0.261 C 
BRANCH  27  28
ATOM     28  O   UNL A   1      41.691  23.925  27.058  1.00  0.00    -0.460 OA
BRANCH  28  29
ATOM     29  C   UNL A   1      41.603  25.148  26.480  1.00  0.00     0.338 C 
ATOM     30  O   UNL A   1      41.639  25.414  25.290  1.00  0.00    -0.246 OA
BRANCH  29  31
ATOM     31  C   UNL A   1      41.261  26.123  27.523  1.00  0.00     0.060 A 
ATOM     32  C   UNL A   1      42.043  27.282  27.607  1.00  0.00     0.016 A 
ATOM     33  C   UNL A   1      40.195  25.902  28.397  1.00  0.00     0.016 A 
ATOM     34  C   UNL A   1      41.790  28.210  28.608  1.00  0.00     0.010 A 
ATOM     35  C   UNL A   1      39.947  26.830  29.405  1.00  0.00     0.010 A 
ATOM     36  C   UNL A   1      40.769  27.963  29.534  1.00  0.00    -0.014 A 
BRANCH  36  37
ATOM     37  C   UNL A   1      40.675  28.795  30.750  1.00  0.00     0.031 A 
ATOM     38  C   UNL A   1      39.640  29.882  30.789  1.00  0.00     0.074 A 
ATOM     39  C   UNL A   1      41.488  28.571  31.795  1.00  0.00     0.049 A 
ATOM     40  N   UNL A   1      39.405  30.770  31.715  1.00  0.00    -0.248 NA
ATOM     41  C   UNL A   1      38.754  29.982  29.615  1.00  0.00     0.031 C 
ATOM     42  C   UNL A   1      42.495  27.513  31.870  1.00  0.00     0.029 A 
ATOM     43  N   UNL A   1      41.596  29.228  32.992  1.00  0.00    -0.354 N 
ATOM     44  C   UNL A   1      38.352  31.542  31.236  1.00  0.00     0.074 A 
ATOM     45  C   UNL A   1      38.023  31.043  29.919  1.00  0.00     0.031 C 
ATOM     46  C   UNL A   1      43.124  27.596  33.054  1.00  0.00     0.029 A 
ATOM     47  C   UNL A   1      42.590  28.734  33.800  1.00  0.00     0.049 A 
ATOM     48  H   UNL A   1      41.017  29.981  33.248  1.00  0.00     0.167 HD
ATOM     49  C   UNL A   1      37.713  32.566  31.849  1.00  0.00     0.037 A 
ATOM     50  C   UNL A   1      43.028  29.171  34.996  1.00  0.00     0.037 A 
ATOM     51  C   UNL A   1      38.066  33.053  33.156  1.00  0.00     0.049 A 
ATOM     52  C   UNL A   1      42.357  30.364  35.624  1.00  0.00     0.074 A 
ATOM     53  C   UNL A   1      37.485  34.080  33.878  1.00  0.00     0.029 A 
ATOM     54  N   UNL A   1      39.102  32.552  33.932  1.00  0.00    -0.354 N 
ATOM     55  N   UNL A   1      41.352  31.079  35.173  1.00  0.00    -0.248 NA
ATOM     56  C   UNL A   1      42.877  30.808  36.924  1.00  0.00     0.031 C 
ATOM     57  C   UNL A   1      38.210  34.238  35.064  1.00  0.00     0.029 A 
ATOM     58  C   UNL A   1      39.198  33.266  35.115  1.00  0.00     0.049 A 
ATOM     59  H   UNL A   1      39.684  31.800  33.679  1.00  0.00     0.167 HD
ATOM     60  C   UNL A   1      41.096  32.037  36.149  1.00  0.00     0.074 A 
ATOM     61  C   UNL A   1      42.050  31.804  37.216  1.00  0.00     0.031 C 
ATOM     62  C   UNL A   1      40.153  33.013  36.167  1.00  0.00     0.037 A 
BRANCH  49  63
ATOM     63  C   UNL A   1      36.602  33.240  31.088  1.00  0.00     0.058 A 
ATOM     64  C   UNL A   1      36.856  34.088  29.996  1.00  0.00     0.135 A 
ATOM     65  C   UNL A   1      35.263  33.046  31.466  1.00  0.00     0.135 A 
ATOM     66  F   UNL A   1      38.117  34.326  29.603  1.00  0.00    -0.206 F 
ATOM     67  C   UNL A   1      35.827  34.752  29.336  1.00  0.00     0.059 A 
ATOM     68  C   UNL A   1      34.216  33.674  30.796  1.00  0.00     0.059 A 
ATOM     69  F   UNL A   1      34.961  32.250  32.503  1.00  0.00    -0.206 F 
ATOM     70  C   UNL A   1      34.510  34.542  29.748  1.00  0.00     0.060 A 
BRANCH  70  71
ATOM     71  S   UNL A   1      33.190  35.432  28.898  1.00  0.00     0.124 S 
ATOM     72  O   UNL A   1      32.551  34.357  28.145  1.00  0.00    -0.237 OA
ATOM     73  O   UNL A   1      32.414  35.974  30.009  1.00  0.00    -0.237 OA
ATOM     74  O   UNL A   1      33.905  36.420  28.096  1.00  0.00    -0.744 OA
ENDBRANCH  70  71
ENDBRANCH  49  63
BRANCH  50  75
ATOM     75  C   UNL A   1      44.147  28.466  35.673  1.00  0.00     0.058 A 
ATOM     76  C   UNL A   1      43.900  27.408  36.561  1.00  0.00     0.135 A 
ATOM     77  C   UNL A   1      45.485  28.809  35.423  1.00  0.00     0.135 A 
ATOM     78  F   UNL A   1      42.639  27.048  36.840  1.00  0.00    -0.206 F 
ATOM     79  C   UNL A   1      44.938  26.719  37.179  1.00  0.00     0.059 A 
ATOM     80  C   UNL A   1      46.541  28.117  36.007  1.00  0.00     0.059 A 
ATOM     81  F   UNL A   1      45.775  29.806  34.571  1.00  0.00    -0.206 F 
ATOM     82  C   UNL A   1      46.256  27.075  36.888  1.00  0.00     0.060 A 
BRANCH  82  83
ATOM     83  S   UNL A   1      47.593  26.123  37.641  1.00  0.00     0.124 S 
ATOM     84  O   UNL A   1      48.771  26.768  37.072  1.00  0.00    -0.237 OA
ATOM     85  O   UNL A   1      47.363  26.351  39.065  1.00  0.00    -0.237 OA
ATOM     86  O   UNL A   1      47.335  24.760  37.183  1.00  0.00    -0.744 OA
ENDBRANCH  82  83
ENDBRANCH  50  75
BRANCH  62  87
ATOM     87  C   UNL A   1      40.072  33.878  37.395  1.00  0.00     0.058 A 
ATOM     88  C   UNL A   1      39.260  33.543  38.489  1.00  0.00     0.135 A 
ATOM     89  C   UNL A   1      40.872  35.029  37.502  1.00  0.00     0.135 A 
ATOM     90  F   UNL A   1      38.470  32.458  38.437  1.00  0.00    -0.206 F 
ATOM     91  C   UNL A   1      39.227  34.327  39.636  1.00  0.00     0.059 A 
ATOM     92  C   UNL A   1      40.880  35.809  38.652  1.00  0.00     0.059 A 
ATOM     93  F   UNL A   1      41.677  35.389  36.489  1.00  0.00    -0.206 F 
ATOM     94  C   UNL A   1      40.045  35.456  39.711  1.00  0.00     0.060 A 
BRANCH  94  95
ATOM     95  S   UNL A   1      40.024  36.442  41.223  1.00  0.00     0.124 S 
ATOM     96  O   UNL A   1      40.509  37.731  40.740  1.00  0.00    -0.237 OA
ATOM     97  O   UNL A   1      38.615  36.398  41.603  1.00  0.00    -0.237 OA
ATOM     98  O   UNL A   1      40.929  35.723  42.113  1.00  0.00    -0.744 OA
ENDBRANCH  94  95
ENDBRANCH  62  87
ENDBRANCH  36  37
ENDBRANCH  29  31
ENDBRANCH  28  29
ENDBRANCH  27  28
ENDBRANCH  26  27
ENDBRANCH   1  26
TORSDOF 21
ENDMDL
MODEL 3
REMARK VINA RESULT:     -10.5      6.938     12.301
REMARK SMILES COc1ccc(/C=C/c2ncc([N+](=O)[O-])cc2C(=O)OCCOCCOC(=O)c2ccc(-c3c4nc(c(-c5c(F)cc(S(=O)(=O)[O-])cc5F)c5ccc([nH]5)c(-c5c(F)cc(S(=O)(=O)[O-])cc5F)c5nc(c(-c6c(F)cc(S(=O)(=O)[O-])cc6F)c6ccc3[nH]6)C=C5)C=C4)cc2)cc1
REMARK SMILES IDX 23 1 22 2 21 3 20 4 18 5 19 6 17 7 9 8 10 9 11 10 16 11
REMARK SMILES IDX 12 12 8 13 7 14 6 15 3 16 4 17 96 18 5 19 95 20 2 21 1 22
REMARK SMILES IDX 13 23 14 24 15 25 24 26 25 27 26 28 27 29 28 30 29 31 30 32
REMARK SMILES IDX 94 33 31 34 93 35 32 36 33 37 34 38 87 39 35 40 92 41 86 42
REMARK SMILES IDX 88 43 36 44 91 45 85 46 84 47 37 49 71 50 50 51 70 52 51 53
REMARK SMILES IDX 54 54 69 55 89 56 52 57 53 58 68 60 90 61 55 62 38 63 39 64
REMARK SMILES IDX 48 65 40 66 41 67 47 68 49 69 42 70 43 71 44 72 45 73 46 74
REMARK SMILES IDX 72 75 73 76 82 77 74 78 75 79 81 80 83 81 76 82 77 83 78 84
REMARK SMILES IDX 79 85 80 86 56 87 57 88 66 89 58 90 59 91 65 92 67 93 60 94
REMARK SMILES IDX 61 95 62 96 63 97 64 98
REMARK H PARENT 88 48 54 59
REMARK Flexibility Score: inf
ROOT
ATOM      1  O   UNL A   1      34.846  31.205  27.703  1.00  0.00    -0.374 OA
ENDROOT
BRANCH   1   2
ATOM      2  C   UNL A   1      33.573  30.729  27.264  1.00  0.00     0.202 C 
BRANCH   2   3
ATOM      3  C   UNL A   1      33.529  29.298  26.722  1.00  0.00     0.261 C 
BRANCH   3   4
ATOM      4  O   UNL A   1      32.291  29.070  26.021  1.00  0.00    -0.460 OA
BRANCH   4   5
ATOM      5  C   UNL A   1      32.372  29.074  24.670  1.00  0.00     0.340 C 
ATOM      6  O   UNL A   1      33.380  28.999  23.990  1.00  0.00    -0.246 OA
BRANCH   5   7
ATOM      7  C   UNL A   1      31.005  29.073  24.111  1.00  0.00     0.092 A 
ATOM      8  C   UNL A   1      30.425  27.881  23.651  1.00  0.00     0.078 A 
ATOM      9  N   UNL A   1      29.189  27.849  23.080  1.00  0.00    -0.249 NA
ATOM     10  C   UNL A   1      28.518  29.025  22.962  1.00  0.00     0.197 A 
ATOM     11  C   UNL A   1      30.269  30.264  24.039  1.00  0.00     0.105 A 
ATOM     12  C   UNL A   1      29.009  30.230  23.442  1.00  0.00     0.288 A 
BRANCH   8  13
ATOM     13  C   UNL A   1      31.060  26.565  23.820  1.00  0.00     0.030 C 
ATOM     14  C   UNL A   1      30.355  25.422  23.896  1.00  0.00     0.010 C 
BRANCH  14  15
ATOM     15  C   UNL A   1      30.936  24.104  24.222  1.00  0.00    -0.025 A 
ATOM     16  C   UNL A   1      32.066  21.570  24.758  1.00  0.00     0.118 A 
ATOM     17  C   UNL A   1      31.356  22.255  25.743  1.00  0.00     0.047 A 
ATOM     18  C   UNL A   1      32.200  22.140  23.497  1.00  0.00     0.047 A 
ATOM     19  C   UNL A   1      30.801  23.514  25.483  1.00  0.00     0.012 A 
ATOM     20  C   UNL A   1      31.664  23.409  23.245  1.00  0.00     0.012 A 
BRANCH  16  21
ATOM     21  O   UNL A   1      32.562  20.347  25.121  1.00  0.00    -0.497 OA
ATOM     22  C   UNL A   1      33.960  20.177  24.899  1.00  0.00     0.278 C 
ENDBRANCH  16  21
ENDBRANCH  14  15
ENDBRANCH   8  13
BRANCH  12  23
ATOM     23  N   UNL A   1      28.208  31.437  23.310  1.00  0.00     0.064 N 
ATOM     24  O   UNL A   1      27.052  31.408  23.753  1.00  0.00    -0.258 OA
ATOM     25  O   UNL A   1      28.736  32.415  22.767  1.00  0.00    -0.258 OA
ENDBRANCH  12  23
ENDBRANCH   5   7
ENDBRANCH   4   5
ENDBRANCH   3   4
ENDBRANCH   2   3
ENDBRANCH   1   2
BRANCH   1  26
ATOM     26  C   UNL A   1      34.856  32.352  28.542  1.00  0.00     0.202 C 
BRANCH  26  27
ATOM     27  C   UNL A   1      35.193  32.172  30.024  1.00  0.00     0.261 C 
BRANCH  27  28
ATOM     28  O   UNL A   1      36.582  31.940  30.240  1.00  0.00    -0.460 OA
BRANCH  28  29
ATOM     29  C   UNL A   1      36.836  30.758  30.853  1.00  0.00     0.338 C 
ATOM     30  O   UNL A   1      36.115  30.152  31.628  1.00  0.00    -0.246 OA
BRANCH  29  31
ATOM     31  C   UNL A   1      38.069  30.203  30.283  1.00  0.00     0.060 A 
ATOM     32  C   UNL A   1      39.052  29.760  31.177  1.00  0.00     0.016 A 
ATOM     33  C   UNL A   1      38.255  30.121  28.902  1.00  0.00     0.016 A 
ATOM     34  C   UNL A   1      40.256  29.273  30.687  1.00  0.00     0.010 A 
ATOM     35  C   UNL A   1      39.466  29.639  28.412  1.00  0.00     0.010 A 
ATOM     36  C   UNL A   1      40.480  29.253  29.305  1.00  0.00    -0.014 A 
BRANCH  36  37
ATOM     37  C   UNL A   1      41.843  29.002  28.794  1.00  0.00     0.031 A 
ATOM     38  C   UNL A   1      42.181  27.615  28.328  1.00  0.00     0.074 A 
ATOM     39  C   UNL A   1      42.744  29.995  28.736  1.00  0.00     0.049 A 
ATOM     40  N   UNL A   1      43.318  27.141  27.895  1.00  0.00    -0.248 NA
ATOM     41  C   UNL A   1      41.089  26.628  28.366  1.00  0.00     0.031 C 
ATOM     42  C   UNL A   1      42.497  31.384  29.123  1.00  0.00     0.029 A 
ATOM     43  N   UNL A   1      44.053  29.983  28.334  1.00  0.00    -0.354 N 
ATOM     44  C   UNL A   1      43.082  25.800  27.616  1.00  0.00     0.074 A 
ATOM     45  C   UNL A   1      41.706  25.526  27.970  1.00  0.00     0.031 C 
ATOM     46  C   UNL A   1      43.624  32.092  28.942  1.00  0.00     0.029 A 
ATOM     47  C   UNL A   1      44.678  31.199  28.465  1.00  0.00     0.049 A 
ATOM     48  H   UNL A   1      44.502  29.180  27.984  1.00  0.00     0.167 HD
ATOM     49  C   UNL A   1      43.936  24.885  27.100  1.00  0.00     0.037 A 
ATOM     50  C   UNL A   1      45.962  31.538  28.244  1.00  0.00     0.037 A 
ATOM     51  C   UNL A   1      45.305  25.177  26.767  1.00  0.00     0.049 A 
ATOM     52  C   UNL A   1      46.918  30.485  27.748  1.00  0.00     0.074 A 
ATOM     53  C   UNL A   1      46.260  24.332  26.233  1.00  0.00     0.029 A 
ATOM     54  N   UNL A   1      45.916  26.411  26.946  1.00  0.00    -0.354 N 
ATOM     55  N   UNL A   1      46.684  29.223  27.472  1.00  0.00    -0.248 NA
ATOM     56  C   UNL A   1      48.308  30.902  27.531  1.00  0.00     0.031 C 
ATOM     57  C   UNL A   1      47.465  25.039  26.146  1.00  0.00     0.029 A 
ATOM     58  C   UNL A   1      47.244  26.344  26.561  1.00  0.00     0.049 A 
ATOM     59  H   UNL A   1      45.470  27.216  27.297  1.00  0.00     0.167 HD
ATOM     60  C   UNL A   1      47.891  28.702  27.015  1.00  0.00     0.074 A 
ATOM     61  C   UNL A   1      48.849  29.790  27.049  1.00  0.00     0.031 C 
ATOM     62  C   UNL A   1      48.179  27.443  26.598  1.00  0.00     0.037 A 
BRANCH  49  63
ATOM     63  C   UNL A   1      43.416  23.485  26.910  1.00  0.00     0.058 A 
ATOM     64  C   UNL A   1      43.241  22.603  27.989  1.00  0.00     0.135 A 
ATOM     65  C   UNL A   1      43.099  23.014  25.625  1.00  0.00     0.135 A 
ATOM     66  F   UNL A   1      43.546  22.991  29.238  1.00  0.00    -0.206 F 
ATOM     67  C   UNL A   1      42.815  21.292  27.798  1.00  0.00     0.059 A 
ATOM     68  C   UNL A   1      42.638  21.717  25.414  1.00  0.00     0.059 A 
ATOM     69  F   UNL A   1      43.249  23.811  24.556  1.00  0.00    -0.206 F 
ATOM     70  C   UNL A   1      42.521  20.858  26.504  1.00  0.00     0.060 A 
BRANCH  70  71
ATOM     71  S   UNL A   1      41.995  19.147  26.269  1.00  0.00     0.124 S 
ATOM     72  O   UNL A   1      40.583  19.319  25.940  1.00  0.00    -0.237 OA
ATOM     73  O   UNL A   1      42.851  18.706  25.172  1.00  0.00    -0.237 OA
ATOM     74  O   UNL A   1      42.266  18.526  27.561  1.00  0.00    -0.744 OA
ENDBRANCH  70  71
ENDBRANCH  49  63
BRANCH  50  75
ATOM     75  C   UNL A   1      46.405  32.937  28.479  1.00  0.00     0.058 A 
ATOM     76  C   UNL A   1      46.305  33.904  27.468  1.00  0.00     0.135 A 
ATOM     77  C   UNL A   1      46.904  33.345  29.726  1.00  0.00     0.135 A 
ATOM     78  F   UNL A   1      45.843  33.562  26.256  1.00  0.00    -0.206 F 
ATOM     79  C   UNL A   1      46.687  35.224  27.683  1.00  0.00     0.059 A 
ATOM     80  C   UNL A   1      47.266  34.665  29.974  1.00  0.00     0.059 A 
ATOM     81  F   UNL A   1      47.007  32.461  30.732  1.00  0.00    -0.206 F 
ATOM     82  C   UNL A   1      47.158  35.597  28.943  1.00  0.00     0.060 A 
BRANCH  82  83
ATOM     83  S   UNL A   1      47.581  37.330  29.228  1.00  0.00     0.124 S 
ATOM     84  O   UNL A   1      48.397  37.240  30.433  1.00  0.00    -0.237 OA
ATOM     85  O   UNL A   1      48.289  37.675  27.999  1.00  0.00    -0.237 OA
ATOM     86  O   UNL A   1      46.279  37.970  29.393  1.00  0.00    -0.744 OA
ENDBRANCH  82  83
ENDBRANCH  50  75
BRANCH  62  87
ATOM     87  C   UNL A   1      49.574  27.179  26.099  1.00  0.00     0.058 A 
ATOM     88  C   UNL A   1      49.929  27.357  24.754  1.00  0.00     0.135 A 
ATOM     89  C   UNL A   1      50.585  26.803  26.999  1.00  0.00     0.135 A 
ATOM     90  F   UNL A   1      49.000  27.708  23.850  1.00  0.00    -0.206 F 
ATOM     91  C   UNL A   1      51.232  27.152  24.314  1.00  0.00     0.059 A 
ATOM     92  C   UNL A   1      51.901  26.625  26.588  1.00  0.00     0.059 A 
ATOM     93  F   UNL A   1      50.303  26.630  28.301  1.00  0.00    -0.206 F 
ATOM     94  C   UNL A   1      52.213  26.791  25.239  1.00  0.00     0.060 A 
BRANCH  94  95
ATOM     95  S   UNL A   1      53.909  26.569  24.662  1.00  0.00     0.124 S 
ATOM     96  O   UNL A   1      53.984  25.119  24.522  1.00  0.00    -0.237 OA
ATOM     97  O   UNL A   1      53.913  27.327  23.414  1.00  0.00    -0.237 OA
ATOM     98  O   UNL A   1      54.714  27.140  25.737  1.00  0.00    -0.744 OA
ENDBRANCH  94  95
ENDBRANCH  62  87
ENDBRANCH  36  37
ENDBRANCH  29  31
ENDBRANCH  28  29
ENDBRANCH  27  28
ENDBRANCH  26  27
ENDBRANCH   1  26
TORSDOF 21
ENDMDL
