MODEL 1
REMARK VINA RESULT:      -9.8      0.000      0.000
REMARK SMILES O=C(OCCOCCOC(=O)[C@@H]1C[C@@H]2CC(=O)[C@H]1C2)c1ccc(-c2c3nc(c(-c4c(F)cc(S(=O)(=O)[O-])cc4F)c4ccc([nH]4)c(-c4c(F)cc(S(=O)(=O)[O-])cc4F)c4nc(c(-c5c(F)cc(S(=O)(=O)[O-])cc5F)c5ccc2[nH]5)C=C4)C=C3)cc1
REMARK SMILES IDX 4 1 3 2 2 3 1 4 20 5 21 6 85 7 22 8 84 9 23 10 24 11 25 12
REMARK SMILES IDX 78 13 26 14 83 15 77 16 79 17 27 18 82 19 76 20 75 21 28 23
REMARK SMILES IDX 62 24 41 25 61 26 42 27 45 28 60 29 80 30 43 31 44 32 59 34
REMARK SMILES IDX 81 35 46 36 29 37 30 38 39 39 31 40 32 41 38 42 40 43 33 44
REMARK SMILES IDX 34 45 35 46 36 47 37 48 63 49 64 50 73 51 65 52 66 53 72 54
REMARK SMILES IDX 74 55 67 56 68 57 69 58 70 59 71 60 47 61 48 62 57 63 49 64
REMARK SMILES IDX 50 65 56 66 58 67 51 68 52 69 53 70 54 71 55 72 5 73 6 74
REMARK SMILES IDX 7 75 8 76 9 77 10 78 11 79 12 80 13 81 18 82 14 83 16 84
REMARK SMILES IDX 19 85 15 86 17 87
REMARK H PARENT 79 22 45 33
REMARK Flexibility Score: inf
ROOT
ATOM      1  C   UNL A   1      34.249  32.687  28.565  1.00  0.00     0.261 C 
ENDROOT
BRANCH   1   2
ATOM      2  O   UNL A   1      33.898  31.685  27.601  1.00  0.00    -0.460 OA
BRANCH   2   3
ATOM      3  C   UNL A   1      34.426  30.444  27.482  1.00  0.00     0.338 C 
ATOM      4  O   UNL A   1      33.790  29.594  26.860  1.00  0.00    -0.246 OA
BRANCH   3   5
ATOM      5  C   UNL A   1      35.749  30.052  28.054  1.00  0.00     0.060 A 
ATOM      6  C   UNL A   1      35.933  29.414  29.282  1.00  0.00     0.016 A 
ATOM      7  C   UNL A   1      36.882  30.273  27.253  1.00  0.00     0.016 A 
ATOM      8  C   UNL A   1      37.183  29.055  29.739  1.00  0.00     0.010 A 
ATOM      9  C   UNL A   1      38.151  29.881  27.688  1.00  0.00     0.010 A 
ATOM     10  C   UNL A   1      38.296  29.283  28.944  1.00  0.00    -0.014 A 
BRANCH  10  11
ATOM     11  C   UNL A   1      39.601  28.998  29.551  1.00  0.00     0.031 A 
ATOM     12  C   UNL A   1      39.975  29.758  30.783  1.00  0.00     0.074 A 
ATOM     13  C   UNL A   1      40.317  27.952  29.100  1.00  0.00     0.049 A 
ATOM     14  N   UNL A   1      41.064  29.696  31.491  1.00  0.00    -0.248 NA
ATOM     15  C   UNL A   1      38.970  30.707  31.298  1.00  0.00     0.031 C 
ATOM     16  C   UNL A   1      39.915  27.066  28.001  1.00  0.00     0.029 A 
ATOM     17  N   UNL A   1      41.501  27.426  29.533  1.00  0.00    -0.354 N 
ATOM     18  C   UNL A   1      40.895  30.620  32.514  1.00  0.00     0.074 A 
ATOM     19  C   UNL A   1      39.600  31.232  32.336  1.00  0.00     0.031 C 
ATOM     20  C   UNL A   1      40.830  26.093  27.864  1.00  0.00     0.029 A 
ATOM     21  C   UNL A   1      41.913  26.334  28.807  1.00  0.00     0.049 A 
ATOM     22  H   UNL A   1      42.009  27.794  30.292  1.00  0.00     0.167 HD
ATOM     23  C   UNL A   1      41.763  30.925  33.504  1.00  0.00     0.037 A 
ATOM     24  C   UNL A   1      43.065  25.642  28.883  1.00  0.00     0.037 A 
ATOM     25  C   UNL A   1      43.043  30.283  33.634  1.00  0.00     0.049 A 
ATOM     26  C   UNL A   1      44.064  26.081  29.918  1.00  0.00     0.074 A 
ATOM     27  C   UNL A   1      44.053  30.540  34.539  1.00  0.00     0.029 A 
ATOM     28  N   UNL A   1      43.482  29.243  32.821  1.00  0.00    -0.354 N 
ATOM     29  N   UNL A   1      43.944  27.020  30.831  1.00  0.00    -0.248 NA
ATOM     30  C   UNL A   1      45.356  25.389  29.929  1.00  0.00     0.031 C 
ATOM     31  C   UNL A   1      45.125  29.694  34.237  1.00  0.00     0.029 A 
ATOM     32  C   UNL A   1      44.759  28.862  33.187  1.00  0.00     0.049 A 
ATOM     33  H   UNL A   1      42.960  28.838  32.091  1.00  0.00     0.167 HD
ATOM     34  C   UNL A   1      45.137  27.016  31.542  1.00  0.00     0.074 A 
ATOM     35  C   UNL A   1      45.956  25.969  30.960  1.00  0.00     0.031 C 
ATOM     36  C   UNL A   1      45.527  27.802  32.577  1.00  0.00     0.037 A 
BRANCH  23  37
ATOM     37  C   UNL A   1      41.382  32.046  34.427  1.00  0.00     0.058 A 
ATOM     38  C   UNL A   1      40.579  31.848  35.562  1.00  0.00     0.135 A 
ATOM     39  C   UNL A   1      41.788  33.360  34.138  1.00  0.00     0.135 A 
ATOM     40  F   UNL A   1      40.129  30.619  35.866  1.00  0.00    -0.206 F 
ATOM     41  C   UNL A   1      40.164  32.913  36.357  1.00  0.00     0.059 A 
ATOM     42  C   UNL A   1      41.410  34.436  34.934  1.00  0.00     0.059 A 
ATOM     43  F   UNL A   1      42.541  33.611  33.056  1.00  0.00    -0.206 F 
ATOM     44  C   UNL A   1      40.582  34.204  36.032  1.00  0.00     0.060 A 
BRANCH  44  45
ATOM     45  S   UNL A   1      40.019  35.580  37.056  1.00  0.00     0.124 S 
ATOM     46  O   UNL A   1      38.904  34.971  37.775  1.00  0.00    -0.237 OA
ATOM     47  O   UNL A   1      41.203  35.875  37.857  1.00  0.00    -0.237 OA
ATOM     48  O   UNL A   1      39.653  36.603  36.083  1.00  0.00    -0.744 OA
ENDBRANCH  44  45
ENDBRANCH  23  37
BRANCH  24  49
ATOM     49  C   UNL A   1      43.347  24.530  27.933  1.00  0.00     0.058 A 
ATOM     50  C   UNL A   1      44.034  24.750  26.731  1.00  0.00     0.135 A 
ATOM     51  C   UNL A   1      42.926  23.216  28.206  1.00  0.00     0.135 A 
ATOM     52  F   UNL A   1      44.455  25.985  26.415  1.00  0.00    -0.206 F 
ATOM     53  C   UNL A   1      44.275  23.718  25.825  1.00  0.00     0.059 A 
ATOM     54  C   UNL A   1      43.182  22.163  27.333  1.00  0.00     0.059 A 
ATOM     55  F   UNL A   1      42.271  22.942  29.345  1.00  0.00    -0.206 F 
ATOM     56  C   UNL A   1      43.844  22.427  26.136  1.00  0.00     0.060 A 
BRANCH  56  57
ATOM     57  S   UNL A   1      44.172  21.094  24.962  1.00  0.00     0.124 S 
ATOM     58  O   UNL A   1      43.048  20.199  25.214  1.00  0.00    -0.237 OA
ATOM     59  O   UNL A   1      44.153  21.799  23.685  1.00  0.00    -0.237 OA
ATOM     60  O   UNL A   1      45.480  20.595  25.377  1.00  0.00    -0.744 OA
ENDBRANCH  56  57
ENDBRANCH  24  49
BRANCH  36  61
ATOM     61  C   UNL A   1      46.877  27.518  33.168  1.00  0.00     0.058 A 
ATOM     62  C   UNL A   1      48.032  28.178  32.724  1.00  0.00     0.135 A 
ATOM     63  C   UNL A   1      46.999  26.614  34.235  1.00  0.00     0.135 A 
ATOM     64  F   UNL A   1      47.965  29.045  31.701  1.00  0.00    -0.206 F 
ATOM     65  C   UNL A   1      49.271  27.931  33.301  1.00  0.00     0.059 A 
ATOM     66  C   UNL A   1      48.221  26.377  34.850  1.00  0.00     0.059 A 
ATOM     67  F   UNL A   1      45.918  25.969  34.703  1.00  0.00    -0.206 F 
ATOM     68  C   UNL A   1      49.353  27.032  34.367  1.00  0.00     0.060 A 
BRANCH  68  69
ATOM     69  S   UNL A   1      50.961  26.750  35.135  1.00  0.00     0.124 S 
ATOM     70  O   UNL A   1      51.594  28.054  34.974  1.00  0.00    -0.237 OA
ATOM     71  O   UNL A   1      50.594  26.385  36.499  1.00  0.00    -0.237 OA
ATOM     72  O   UNL A   1      51.534  25.671  34.336  1.00  0.00    -0.744 OA
ENDBRANCH  68  69
ENDBRANCH  36  61
ENDBRANCH  10  11
ENDBRANCH   3   5
ENDBRANCH   2   3
ENDBRANCH   1   2
BRANCH   1  73
ATOM     73  C   UNL A   1      33.706  34.056  28.145  1.00  0.00     0.202 C 
BRANCH  73  74
ATOM     74  O   UNL A   1      32.685  34.594  28.985  1.00  0.00    -0.374 OA
BRANCH  74  75
ATOM     75  C   UNL A   1      32.910  35.901  29.526  1.00  0.00     0.202 C 
BRANCH  75  76
ATOM     76  C   UNL A   1      32.961  35.824  31.053  1.00  0.00     0.261 C 
BRANCH  76  77
ATOM     77  O   UNL A   1      34.038  34.946  31.410  1.00  0.00    -0.463 OA
BRANCH  77  78
ATOM     78  C   UNL A   1      34.608  35.253  32.608  1.00  0.00     0.309 C 
ATOM     79  O   UNL A   1      34.776  36.376  33.063  1.00  0.00    -0.252 OA
BRANCH  78  80
ATOM     80  C   UNL A   1      34.901  33.976  33.361  1.00  0.00     0.110 C 
ATOM     81  C   UNL A   1      35.536  34.247  34.750  1.00  0.00     0.020 C 
ATOM     82  C   UNL A   1      35.947  33.104  32.666  1.00  0.00     0.070 C 
ATOM     83  C   UNL A   1      36.906  33.558  34.644  1.00  0.00    -0.002 C 
ATOM     84  C   UNL A   1      37.143  33.983  32.376  1.00  0.00     0.137 C 
ATOM     85  C   UNL A   1      36.541  32.312  33.830  1.00  0.00     0.016 C 
ATOM     86  C   UNL A   1      37.816  34.353  33.680  1.00  0.00     0.079 C 
ATOM     87  O   UNL A   1      37.502  34.322  31.258  1.00  0.00    -0.299 OA
ENDBRANCH  78  80
ENDBRANCH  77  78
ENDBRANCH  76  77
ENDBRANCH  75  76
ENDBRANCH  74  75
ENDBRANCH  73  74
ENDBRANCH   1  73
TORSDOF 17
ENDMDL
MODEL 2
REMARK VINA RESULT:      -9.6      3.925     12.005
REMARK SMILES O=C(OCCOCCOC(=O)[C@@H]1C[C@@H]2CC(=O)[C@H]1C2)c1ccc(-c2c3nc(c(-c4c(F)cc(S(=O)(=O)[O-])cc4F)c4ccc([nH]4)c(-c4c(F)cc(S(=O)(=O)[O-])cc4F)c4nc(c(-c5c(F)cc(S(=O)(=O)[O-])cc5F)c5ccc2[nH]5)C=C4)C=C3)cc1
REMARK SMILES IDX 4 1 3 2 2 3 1 4 20 5 21 6 85 7 22 8 84 9 23 10 24 11 25 12
REMARK SMILES IDX 78 13 26 14 83 15 77 16 79 17 27 18 82 19 76 20 75 21 28 23
REMARK SMILES IDX 62 24 41 25 61 26 42 27 45 28 60 29 80 30 43 31 44 32 59 34
REMARK SMILES IDX 81 35 46 36 29 37 30 38 39 39 31 40 32 41 38 42 40 43 33 44
REMARK SMILES IDX 34 45 35 46 36 47 37 48 63 49 64 50 73 51 65 52 66 53 72 54
REMARK SMILES IDX 74 55 67 56 68 57 69 58 70 59 71 60 47 61 48 62 57 63 49 64
REMARK SMILES IDX 50 65 56 66 58 67 51 68 52 69 53 70 54 71 55 72 5 73 6 74
REMARK SMILES IDX 7 75 8 76 9 77 10 78 11 79 12 80 13 81 18 82 14 83 16 84
REMARK SMILES IDX 19 85 15 86 17 87
REMARK H PARENT 79 22 45 33
REMARK Flexibility Score: inf
ROOT
ATOM      1  C   UNL A   1      40.485  21.349  26.892  1.00  0.00     0.261 C 
ENDROOT
BRANCH   1   2
ATOM      2  O   UNL A   1      39.335  21.730  26.125  1.00  0.00    -0.460 OA
BRANCH   2   3
ATOM      3  C   UNL A   1      38.644  22.892  26.209  1.00  0.00     0.338 C 
ATOM      4  O   UNL A   1      37.472  22.905  25.834  1.00  0.00    -0.246 OA
BRANCH   3   5
ATOM      5  C   UNL A   1      39.223  24.158  26.749  1.00  0.00     0.060 A 
ATOM      6  C   UNL A   1      39.908  25.111  25.993  1.00  0.00     0.016 A 
ATOM      7  C   UNL A   1      38.986  24.442  28.104  1.00  0.00     0.016 A 
ATOM      8  C   UNL A   1      40.394  26.275  26.549  1.00  0.00     0.010 A 
ATOM      9  C   UNL A   1      39.443  25.635  28.673  1.00  0.00     0.010 A 
ATOM     10  C   UNL A   1      40.161  26.544  27.890  1.00  0.00    -0.014 A 
BRANCH  10  11
ATOM     11  C   UNL A   1      40.822  27.731  28.442  1.00  0.00     0.031 A 
ATOM     12  C   UNL A   1      42.308  27.823  28.311  1.00  0.00     0.074 A 
ATOM     13  C   UNL A   1      40.067  28.762  28.864  1.00  0.00     0.049 A 
ATOM     14  N   UNL A   1      43.116  28.757  28.722  1.00  0.00    -0.248 NA
ATOM     15  C   UNL A   1      42.973  26.715  27.600  1.00  0.00     0.031 C 
ATOM     16  C   UNL A   1      38.599  28.792  28.856  1.00  0.00     0.029 A 
ATOM     17  N   UNL A   1      40.420  29.995  29.336  1.00  0.00    -0.354 N 
ATOM     18  C   UNL A   1      44.387  28.336  28.354  1.00  0.00     0.074 A 
ATOM     19  C   UNL A   1      44.247  27.062  27.688  1.00  0.00     0.031 C 
ATOM     20  C   UNL A   1      38.182  29.994  29.282  1.00  0.00     0.029 A 
ATOM     21  C   UNL A   1      39.344  30.784  29.665  1.00  0.00     0.049 A 
ATOM     22  H   UNL A   1      41.355  30.288  29.431  1.00  0.00     0.167 HD
ATOM     23  C   UNL A   1      45.562  28.967  28.571  1.00  0.00     0.037 A 
ATOM     24  C   UNL A   1      39.319  31.995  30.251  1.00  0.00     0.037 A 
ATOM     25  C   UNL A   1      45.644  30.236  29.241  1.00  0.00     0.049 A 
ATOM     26  C   UNL A   1      40.644  32.622  30.590  1.00  0.00     0.074 A 
ATOM     27  C   UNL A   1      46.766  30.958  29.597  1.00  0.00     0.029 A 
ATOM     28  N   UNL A   1      44.540  30.974  29.658  1.00  0.00    -0.354 N 
ATOM     29  N   UNL A   1      41.854  32.182  30.325  1.00  0.00    -0.248 NA
ATOM     30  C   UNL A   1      40.610  33.894  31.318  1.00  0.00     0.031 C 
ATOM     31  C   UNL A   1      46.342  32.104  30.277  1.00  0.00     0.029 A 
ATOM     32  C   UNL A   1      44.954  32.132  30.287  1.00  0.00     0.049 A 
ATOM     33  H   UNL A   1      43.601  30.709  29.524  1.00  0.00     0.167 HD
ATOM     34  C   UNL A   1      42.728  33.134  30.833  1.00  0.00     0.074 A 
ATOM     35  C   UNL A   1      41.902  34.181  31.406  1.00  0.00     0.031 C 
ATOM     36  C   UNL A   1      44.085  33.149  30.832  1.00  0.00     0.037 A 
BRANCH  23  37
ATOM     37  C   UNL A   1      46.814  28.243  28.167  1.00  0.00     0.058 A 
ATOM     38  C   UNL A   1      47.372  28.362  26.884  1.00  0.00     0.135 A 
ATOM     39  C   UNL A   1      47.439  27.368  29.071  1.00  0.00     0.135 A 
ATOM     40  F   UNL A   1      46.795  29.154  25.965  1.00  0.00    -0.206 F 
ATOM     41  C   UNL A   1      48.483  27.615  26.500  1.00  0.00     0.059 A 
ATOM     42  C   UNL A   1      48.567  26.633  28.719  1.00  0.00     0.059 A 
ATOM     43  F   UNL A   1      46.939  27.201  30.305  1.00  0.00    -0.206 F 
ATOM     44  C   UNL A   1      49.071  26.750  27.425  1.00  0.00     0.060 A 
BRANCH  44  45
ATOM     45  S   UNL A   1      50.496  25.771  26.909  1.00  0.00     0.124 S 
ATOM     46  O   UNL A   1      50.152  24.454  27.436  1.00  0.00    -0.237 OA
ATOM     47  O   UNL A   1      50.453  25.902  25.456  1.00  0.00    -0.237 OA
ATOM     48  O   UNL A   1      51.620  26.433  27.562  1.00  0.00    -0.744 OA
ENDBRANCH  44  45
ENDBRANCH  23  37
BRANCH  24  49
ATOM     49  C   UNL A   1      38.024  32.645  30.598  1.00  0.00     0.058 A 
ATOM     50  C   UNL A   1      37.454  32.506  31.871  1.00  0.00     0.135 A 
ATOM     51  C   UNL A   1      37.324  33.418  29.656  1.00  0.00     0.135 A 
ATOM     52  F   UNL A   1      38.076  31.774  32.809  1.00  0.00    -0.206 F 
ATOM     53  C   UNL A   1      36.228  33.087  32.192  1.00  0.00     0.059 A 
ATOM     54  C   UNL A   1      36.115  34.036  29.961  1.00  0.00     0.059 A 
ATOM     55  F   UNL A   1      37.824  33.594  28.423  1.00  0.00    -0.206 F 
ATOM     56  C   UNL A   1      35.566  33.851  31.228  1.00  0.00     0.060 A 
BRANCH  56  57
ATOM     57  S   UNL A   1      33.985  34.612  31.657  1.00  0.00     0.124 S 
ATOM     58  O   UNL A   1      34.409  35.927  32.124  1.00  0.00    -0.237 OA
ATOM     59  O   UNL A   1      33.276  34.584  30.382  1.00  0.00    -0.237 OA
ATOM     60  O   UNL A   1      33.451  33.721  32.684  1.00  0.00    -0.744 OA
ENDBRANCH  56  57
ENDBRANCH  24  49
BRANCH  36  61
ATOM     61  C   UNL A   1      44.746  34.357  31.427  1.00  0.00     0.058 A 
ATOM     62  C   UNL A   1      45.129  34.401  32.776  1.00  0.00     0.135 A 
ATOM     63  C   UNL A   1      45.052  35.460  30.615  1.00  0.00     0.135 A 
ATOM     64  F   UNL A   1      44.850  33.373  33.594  1.00  0.00    -0.206 F 
ATOM     65  C   UNL A   1      45.770  35.513  33.307  1.00  0.00     0.059 A 
ATOM     66  C   UNL A   1      45.724  36.567  31.116  1.00  0.00     0.059 A 
ATOM     67  F   UNL A   1      44.717  35.457  29.314  1.00  0.00    -0.206 F 
ATOM     68  C   UNL A   1      46.068  36.589  32.467  1.00  0.00     0.060 A 
BRANCH  68  69
ATOM     69  S   UNL A   1      46.937  38.009  33.159  1.00  0.00     0.124 S 
ATOM     70  O   UNL A   1      45.842  38.950  33.366  1.00  0.00    -0.237 OA
ATOM     71  O   UNL A   1      47.532  37.450  34.369  1.00  0.00    -0.237 OA
ATOM     72  O   UNL A   1      47.886  38.370  32.110  1.00  0.00    -0.744 OA
ENDBRANCH  68  69
ENDBRANCH  36  61
ENDBRANCH  10  11
ENDBRANCH   3   5
ENDBRANCH   2   3
ENDBRANCH   1   2
BRANCH   1  73
ATOM     73  C   UNL A   1      41.004  19.979  26.445  1.00  0.00     0.202 C 
BRANCH  73  74
ATOM     74  O   UNL A   1      42.419  19.806  26.517  1.00  0.00    -0.374 OA
BRANCH  74  75
ATOM     75  C   UNL A   1      42.981  18.726  25.764  1.00  0.00     0.202 C 
BRANCH  75  76
ATOM     76  C   UNL A   1      44.198  19.224  24.981  1.00  0.00     0.261 C 
BRANCH  76  77
ATOM     77  O   UNL A   1      44.126  20.656  24.927  1.00  0.00    -0.463 OA
BRANCH  77  78
ATOM     78  C   UNL A   1      45.348  21.257  24.941  1.00  0.00     0.309 C 
ATOM     79  O   UNL A   1      46.411  20.729  25.237  1.00  0.00    -0.252 OA
BRANCH  78  80
ATOM     80  C   UNL A   1      45.214  22.667  24.412  1.00  0.00     0.110 C 
ATOM     81  C   UNL A   1      46.583  23.392  24.326  1.00  0.00     0.020 C 
ATOM     82  C   UNL A   1      44.399  23.572  25.336  1.00  0.00     0.070 C 
ATOM     83  C   UNL A   1      46.402  24.585  25.279  1.00  0.00    -0.002 C 
ATOM     84  C   UNL A   1      44.989  23.445  26.723  1.00  0.00     0.137 C 
ATOM     85  C   UNL A   1      44.943  24.960  24.998  1.00  0.00     0.016 C 
ATOM     86  C   UNL A   1      46.361  24.083  26.740  1.00  0.00     0.079 C 
ATOM     87  O   UNL A   1      44.427  22.918  27.672  1.00  0.00    -0.299 OA
ENDBRANCH  78  80
ENDBRANCH  77  78
ENDBRANCH  76  77
ENDBRANCH  75  76
ENDBRANCH  74  75
ENDBRANCH  73  74
ENDBRANCH   1  73
TORSDOF 17
ENDMDL
MODEL 3
REMARK VINA RESULT:      -9.6      0.670      8.684
REMARK SMILES O=C(OCCOCCOC(=O)[C@@H]1C[C@@H]2CC(=O)[C@H]1C2)c1ccc(-c2c3nc(c(-c4c(F)cc(S(=O)(=O)[O-])cc4F)c4ccc([nH]4)c(-c4c(F)cc(S(=O)(=O)[O-])cc4F)c4nc(c(-c5c(F)cc(S(=O)(=O)[O-])cc5F)c5ccc2[nH]5)C=C4)C=C3)cc1
REMARK SMILES IDX 4 1 3 2 2 3 1 4 20 5 21 6 85 7 22 8 84 9 23 10 24 11 25 12
REMARK SMILES IDX 78 13 26 14 83 15 77 16 79 17 27 18 82 19 76 20 75 21 28 23
REMARK SMILES IDX 62 24 41 25 61 26 42 27 45 28 60 29 80 30 43 31 44 32 59 34
REMARK SMILES IDX 81 35 46 36 29 37 30 38 39 39 31 40 32 41 38 42 40 43 33 44
REMARK SMILES IDX 34 45 35 46 36 47 37 48 63 49 64 50 73 51 65 52 66 53 72 54
REMARK SMILES IDX 74 55 67 56 68 57 69 58 70 59 71 60 47 61 48 62 57 63 49 64
REMARK SMILES IDX 50 65 56 66 58 67 51 68 52 69 53 70 54 71 55 72 5 73 6 74
REMARK SMILES IDX 7 75 8 76 9 77 10 78 11 79 12 80 13 81 18 82 14 83 16 84
REMARK SMILES IDX 19 85 15 86 17 87
REMARK H PARENT 79 22 45 33
REMARK Flexibility Score: inf
ROOT
ATOM      1  C   UNL A   1      34.282  32.738  28.027  1.00  0.00     0.261 C 
ENDROOT
BRANCH   1   2
ATOM      2  O   UNL A   1      33.790  31.426  27.728  1.00  0.00    -0.460 OA
BRANCH   2   3
ATOM      3  C   UNL A   1      34.521  30.324  27.438  1.00  0.00     0.338 C 
ATOM      4  O   UNL A   1      34.137  29.587  26.531  1.00  0.00    -0.246 OA
BRANCH   3   5
ATOM      5  C   UNL A   1      35.783  29.961  28.151  1.00  0.00     0.060 A 
ATOM      6  C   UNL A   1      35.849  29.425  29.438  1.00  0.00     0.016 A 
ATOM      7  C   UNL A   1      36.983  30.097  27.434  1.00  0.00     0.016 A 
ATOM      8  C   UNL A   1      37.047  29.086  30.029  1.00  0.00     0.010 A 
ATOM      9  C   UNL A   1      38.202  29.723  28.007  1.00  0.00     0.010 A 
ATOM     10  C   UNL A   1      38.229  29.229  29.315  1.00  0.00    -0.014 A 
BRANCH  10  11
ATOM     11  C   UNL A   1      39.471  28.977  30.053  1.00  0.00     0.031 A 
ATOM     12  C   UNL A   1      40.408  27.949  29.504  1.00  0.00     0.074 A 
ATOM     13  C   UNL A   1      39.808  29.796  31.065  1.00  0.00     0.049 A 
ATOM     14  N   UNL A   1      41.552  27.542  29.972  1.00  0.00    -0.248 NA
ATOM     15  C   UNL A   1      40.006  27.303  28.241  1.00  0.00     0.031 C 
ATOM     16  C   UNL A   1      39.003  30.930  31.536  1.00  0.00     0.029 A 
ATOM     17  N   UNL A   1      40.927  29.836  31.849  1.00  0.00    -0.354 N 
ATOM     18  C   UNL A   1      41.991  26.568  29.085  1.00  0.00     0.074 A 
ATOM     19  C   UNL A   1      40.992  26.442  28.050  1.00  0.00     0.031 C 
ATOM     20  C   UNL A   1      39.669  31.565  32.513  1.00  0.00     0.029 A 
ATOM     21  C   UNL A   1      40.902  30.840  32.788  1.00  0.00     0.049 A 
ATOM     22  H   UNL A   1      41.677  29.207  31.751  1.00  0.00     0.167 HD
ATOM     23  C   UNL A   1      43.130  25.844  29.150  1.00  0.00     0.037 A 
ATOM     24  C   UNL A   1      41.770  31.103  33.781  1.00  0.00     0.037 A 
ATOM     25  C   UNL A   1      44.092  26.011  30.204  1.00  0.00     0.049 A 
ATOM     26  C   UNL A   1      42.971  30.204  33.901  1.00  0.00     0.074 A 
ATOM     27  C   UNL A   1      45.251  25.299  30.441  1.00  0.00     0.029 A 
ATOM     28  N   UNL A   1      43.995  26.972  31.207  1.00  0.00    -0.354 N 
ATOM     29  N   UNL A   1      43.343  29.220  33.114  1.00  0.00    -0.248 NA
ATOM     30  C   UNL A   1      43.859  30.433  35.044  1.00  0.00     0.031 C 
ATOM     31  C   UNL A   1      45.826  25.793  31.616  1.00  0.00     0.029 A 
ATOM     32  C   UNL A   1      45.062  26.857  32.078  1.00  0.00     0.049 A 
ATOM     33  H   UNL A   1      43.272  27.635  31.284  1.00  0.00     0.167 HD
ATOM     34  C   UNL A   1      44.522  28.724  33.653  1.00  0.00     0.074 A 
ATOM     35  C   UNL A   1      44.808  29.532  34.824  1.00  0.00     0.031 C 
ATOM     36  C   UNL A   1      45.302  27.698  33.227  1.00  0.00     0.037 A 
BRANCH  23  37
ATOM     37  C   UNL A   1      43.319  24.771  28.116  1.00  0.00     0.058 A 
ATOM     38  C   UNL A   1      42.877  23.452  28.309  1.00  0.00     0.135 A 
ATOM     39  C   UNL A   1      44.009  25.059  26.927  1.00  0.00     0.135 A 
ATOM     40  F   UNL A   1      42.247  23.109  29.445  1.00  0.00    -0.206 F 
ATOM     41  C   UNL A   1      43.140  22.451  27.378  1.00  0.00     0.059 A 
ATOM     42  C   UNL A   1      44.257  24.082  25.968  1.00  0.00     0.059 A 
ATOM     43  F   UNL A   1      44.471  26.298  26.698  1.00  0.00    -0.206 F 
ATOM     44  C   UNL A   1      43.834  22.777  26.212  1.00  0.00     0.060 A 
BRANCH  44  45
ATOM     45  S   UNL A   1      44.188  21.466  25.022  1.00  0.00     0.124 S 
ATOM     46  O   UNL A   1      43.091  20.537  25.275  1.00  0.00    -0.237 OA
ATOM     47  O   UNL A   1      44.133  22.179  23.750  1.00  0.00    -0.237 OA
ATOM     48  O   UNL A   1      45.512  20.995  25.416  1.00  0.00    -0.744 OA
ENDBRANCH  44  45
ENDBRANCH  23  37
BRANCH  24  49
ATOM     49  C   UNL A   1      41.506  32.204  34.750  1.00  0.00     0.058 A 
ATOM     50  C   UNL A   1      40.706  32.006  35.884  1.00  0.00     0.135 A 
ATOM     51  C   UNL A   1      42.047  33.488  34.556  1.00  0.00     0.135 A 
ATOM     52  F   UNL A   1      40.159  30.802  36.117  1.00  0.00    -0.206 F 
ATOM     53  C   UNL A   1      40.432  33.040  36.777  1.00  0.00     0.059 A 
ATOM     54  C   UNL A   1      41.814  34.528  35.450  1.00  0.00     0.059 A 
ATOM     55  F   UNL A   1      42.827  33.736  33.494  1.00  0.00    -0.206 F 
ATOM     56  C   UNL A   1      40.992  34.299  36.551  1.00  0.00     0.060 A 
BRANCH  56  57
ATOM     57  S   UNL A   1      40.642  35.630  37.721  1.00  0.00     0.124 S 
ATOM     58  O   UNL A   1      40.112  34.887  38.859  1.00  0.00    -0.237 OA
ATOM     59  O   UNL A   1      41.959  36.229  37.906  1.00  0.00    -0.237 OA
ATOM     60  O   UNL A   1      39.676  36.460  37.005  1.00  0.00    -0.744 OA
ENDBRANCH  56  57
ENDBRANCH  24  49
BRANCH  36  61
ATOM     61  C   UNL A   1      46.555  27.433  34.009  1.00  0.00     0.058 A 
ATOM     62  C   UNL A   1      46.584  26.518  35.072  1.00  0.00     0.135 A 
ATOM     63  C   UNL A   1      47.755  28.065  33.646  1.00  0.00     0.135 A 
ATOM     64  F   UNL A   1      45.459  25.896  35.460  1.00  0.00    -0.206 F 
ATOM     65  C   UNL A   1      47.758  26.257  35.767  1.00  0.00     0.059 A 
ATOM     66  C   UNL A   1      48.946  27.793  34.304  1.00  0.00     0.059 A 
ATOM     67  F   UNL A   1      47.778  28.939  32.626  1.00  0.00    -0.206 F 
ATOM     68  C   UNL A   1      48.935  26.897  35.371  1.00  0.00     0.060 A 
BRANCH  68  69
ATOM     69  S   UNL A   1      50.461  26.519  36.256  1.00  0.00     0.124 S 
ATOM     70  O   UNL A   1      50.644  27.728  37.052  1.00  0.00    -0.237 OA
ATOM     71  O   UNL A   1      50.099  25.317  37.000  1.00  0.00    -0.237 OA
ATOM     72  O   UNL A   1      51.432  26.318  35.186  1.00  0.00    -0.744 OA
ENDBRANCH  68  69
ENDBRANCH  36  61
ENDBRANCH  10  11
ENDBRANCH   3   5
ENDBRANCH   2   3
ENDBRANCH   1   2
BRANCH   1  73
ATOM     73  C   UNL A   1      33.145  33.764  27.994  1.00  0.00     0.202 C 
BRANCH  73  74
ATOM     74  O   UNL A   1      32.855  34.398  29.240  1.00  0.00    -0.374 OA
BRANCH  74  75
ATOM     75  C   UNL A   1      33.385  35.713  29.439  1.00  0.00     0.202 C 
BRANCH  75  76
ATOM     76  C   UNL A   1      32.903  36.264  30.782  1.00  0.00     0.261 C 
BRANCH  76  77
ATOM     77  O   UNL A   1      33.020  35.214  31.752  1.00  0.00    -0.463 OA
BRANCH  77  78
ATOM     78  C   UNL A   1      34.080  35.374  32.593  1.00  0.00     0.309 C 
ATOM     79  O   UNL A   1      34.618  36.433  32.886  1.00  0.00    -0.252 OA
BRANCH  78  80
ATOM     80  C   UNL A   1      34.425  34.042  33.217  1.00  0.00     0.110 C 
ATOM     81  C   UNL A   1      35.443  34.185  34.379  1.00  0.00     0.020 C 
ATOM     82  C   UNL A   1      35.137  33.099  32.247  1.00  0.00     0.070 C 
ATOM     83  C   UNL A   1      36.647  33.365  33.886  1.00  0.00    -0.002 C 
ATOM     84  C   UNL A   1      36.297  33.863  31.648  1.00  0.00     0.137 C 
ATOM     85  C   UNL A   1      35.937  32.199  33.189  1.00  0.00     0.016 C 
ATOM     86  C   UNL A   1      37.338  34.104  32.719  1.00  0.00     0.079 C 
ATOM     87  O   UNL A   1      36.370  34.212  30.479  1.00  0.00    -0.299 OA
ENDBRANCH  78  80
ENDBRANCH  77  78
ENDBRANCH  76  77
ENDBRANCH  75  76
ENDBRANCH  74  75
ENDBRANCH  73  74
ENDBRANCH   1  73
TORSDOF 17
ENDMDL
