MODEL 1
REMARK VINA RESULT:      -9.8      0.000      0.000
REMARK SMILES O=C(NCCC(=O)OCCOCCOC(=O)c1ccc(-c2c3nc(c(-c4c(F)cc(S(=O)(=O)[O-])cc4F)c4ccc([nH]4)c(-c4c(F)cc(S(=O)(=O)[O-])cc4F)c4nc(c(-c5c(F)cc(S(=O)(=O)[O-])cc5F)c5ccc2[nH]5)C=C4)C=C3)cc1)N[C@@H]1CCOC1
REMARK SMILES IDX 11 1 10 2 9 3 8 4 6 5 7 6 5 7 4 8 3 9 1 10 2 11 83 12 84 15
REMARK SMILES IDX 85 16 88 17 86 18 87 19 12 20 13 21 14 22 15 23 16 24 17 25
REMARK SMILES IDX 18 26 82 27 19 28 81 29 20 30 21 31 22 32 75 33 23 34 80 35
REMARK SMILES IDX 74 36 76 37 24 38 79 39 73 40 72 41 25 43 59 44 38 45 58 46
REMARK SMILES IDX 39 47 42 48 57 49 77 50 40 51 41 52 56 54 78 55 43 56 26 57
REMARK SMILES IDX 27 58 36 59 28 60 29 61 35 62 37 63 30 64 31 65 32 66 33 67
REMARK SMILES IDX 34 68 60 69 61 70 70 71 62 72 63 73 69 74 71 75 64 76 65 77
REMARK SMILES IDX 66 78 67 79 68 80 44 81 45 82 54 83 46 84 47 85 53 86 55 87
REMARK SMILES IDX 48 88 49 89 50 90 51 91 52 92
REMARK H PARENT 3 13 83 14 76 42 42 53
REMARK Flexibility Score: inf
ROOT
ATOM      1  O   UNL A   1      42.498  21.050  26.178  1.00  0.00    -0.374 OA
ENDROOT
BRANCH   1   2
ATOM      2  C   UNL A   1      42.460  19.740  26.747  1.00  0.00     0.202 C 
BRANCH   2   3
ATOM      3  C   UNL A   1      42.722  18.567  25.797  1.00  0.00     0.261 C 
BRANCH   3   4
ATOM      4  O   UNL A   1      44.119  18.212  25.736  1.00  0.00    -0.463 OA
BRANCH   4   5
ATOM      5  C   UNL A   1      44.846  18.797  24.747  1.00  0.00     0.307 C 
ATOM      6  O   UNL A   1      44.607  18.711  23.548  1.00  0.00    -0.252 OA
BRANCH   5   7
ATOM      7  C   UNL A   1      46.040  19.554  25.278  1.00  0.00     0.144 C 
BRANCH   7   8
ATOM      8  C   UNL A   1      46.019  21.053  25.014  1.00  0.00     0.129 C 
BRANCH   8   9
ATOM      9  N   UNL A   1      45.271  21.792  26.013  1.00  0.00    -0.338 N 
ATOM     10  O   UNL A   1      44.645  23.435  27.367  1.00  0.00    -0.249 OA
ATOM     11  C   UNL A   1      45.402  23.055  26.484  1.00  0.00     0.315 C 
ATOM     12  N   UNL A   1      46.380  23.817  25.930  1.00  0.00    -0.333 N 
ATOM     13  H   UNL A   1      44.535  21.282  26.424  1.00  0.00     0.165 HD
ATOM     14  H   UNL A   1      46.907  23.414  25.203  1.00  0.00     0.165 HD
BRANCH  12  15
ATOM     15  C   UNL A   1      46.717  25.182  26.325  1.00  0.00     0.112 C 
ATOM     16  C   UNL A   1      46.295  26.241  25.328  1.00  0.00     0.056 C 
ATOM     17  C   UNL A   1      48.203  25.460  26.553  1.00  0.00     0.185 C 
ATOM     18  C   UNL A   1      47.586  26.649  24.653  1.00  0.00     0.162 C 
ATOM     19  O   UNL A   1      48.629  26.456  25.614  1.00  0.00    -0.379 OA
ENDBRANCH  12  15
ENDBRANCH   8   9
ENDBRANCH   7   8
ENDBRANCH   5   7
ENDBRANCH   4   5
ENDBRANCH   3   4
ENDBRANCH   2   3
ENDBRANCH   1   2
BRANCH   1  20
ATOM     20  C   UNL A   1      41.271  21.771  26.118  1.00  0.00     0.202 C 
BRANCH  20  21
ATOM     21  C   UNL A   1      41.105  22.958  27.077  1.00  0.00     0.261 C 
BRANCH  21  22
ATOM     22  O   UNL A   1      40.257  23.993  26.547  1.00  0.00    -0.460 OA
BRANCH  22  23
ATOM     23  C   UNL A   1      40.889  25.180  26.351  1.00  0.00     0.338 C 
ATOM     24  O   UNL A   1      41.234  25.656  25.282  1.00  0.00    -0.246 OA
BRANCH  23  25
ATOM     25  C   UNL A   1      40.958  25.947  27.609  1.00  0.00     0.060 A 
ATOM     26  C   UNL A   1      39.831  25.913  28.441  1.00  0.00     0.016 A 
ATOM     27  C   UNL A   1      42.051  26.754  27.929  1.00  0.00     0.016 A 
ATOM     28  C   UNL A   1      39.770  26.729  29.568  1.00  0.00     0.010 A 
ATOM     29  C   UNL A   1      41.982  27.581  29.058  1.00  0.00     0.010 A 
ATOM     30  C   UNL A   1      40.828  27.600  29.860  1.00  0.00    -0.014 A 
BRANCH  30  31
ATOM     31  C   UNL A   1      40.658  28.618  30.927  1.00  0.00     0.031 A 
ATOM     32  C   UNL A   1      41.521  28.543  32.157  1.00  0.00     0.074 A 
ATOM     33  C   UNL A   1      39.776  29.624  30.780  1.00  0.00     0.049 A 
ATOM     34  N   UNL A   1      41.533  29.318  33.211  1.00  0.00    -0.248 NA
ATOM     35  C   UNL A   1      42.505  27.449  32.204  1.00  0.00     0.031 C 
ATOM     36  C   UNL A   1      38.911  29.823  29.619  1.00  0.00     0.029 A 
ATOM     37  N   UNL A   1      39.460  30.663  31.619  1.00  0.00    -0.354 N 
ATOM     38  C   UNL A   1      42.519  28.807  34.048  1.00  0.00     0.074 A 
ATOM     39  C   UNL A   1      43.064  27.638  33.392  1.00  0.00     0.031 C 
ATOM     40  C   UNL A   1      38.150  30.912  29.824  1.00  0.00     0.029 A 
ATOM     41  C   UNL A   1      38.452  31.467  31.143  1.00  0.00     0.049 A 
ATOM     42  H   UNL A   1      39.911  30.817  32.481  1.00  0.00     0.167 HD
ATOM     43  C   UNL A   1      42.937  29.274  35.249  1.00  0.00     0.037 A 
ATOM     44  C   UNL A   1      37.829  32.517  31.715  1.00  0.00     0.037 A 
ATOM     45  C   UNL A   1      42.386  30.435  35.900  1.00  0.00     0.049 A 
ATOM     46  C   UNL A   1      38.266  32.981  33.080  1.00  0.00     0.074 A 
ATOM     47  C   UNL A   1      42.748  30.995  37.113  1.00  0.00     0.029 A 
ATOM     48  N   UNL A   1      41.349  31.207  35.398  1.00  0.00    -0.354 N 
ATOM     49  N   UNL A   1      39.215  32.503  33.850  1.00  0.00    -0.248 NA
ATOM     50  C   UNL A   1      37.552  34.130  33.653  1.00  0.00     0.031 C 
ATOM     51  C   UNL A   1      41.899  32.078  37.366  1.00  0.00     0.029 A 
ATOM     52  C   UNL A   1      41.043  32.226  36.287  1.00  0.00     0.049 A 
ATOM     53  H   UNL A   1      40.896  31.055  34.537  1.00  0.00     0.167 HD
ATOM     54  C   UNL A   1      39.227  33.306  34.986  1.00  0.00     0.074 A 
ATOM     55  C   UNL A   1      38.199  34.309  34.797  1.00  0.00     0.031 C 
ATOM     56  C   UNL A   1      40.019  33.222  36.084  1.00  0.00     0.037 A 
BRANCH  43  57
ATOM     57  C   UNL A   1      44.031  28.514  35.949  1.00  0.00     0.058 A 
ATOM     58  C   UNL A   1      43.749  27.449  36.819  1.00  0.00     0.135 A 
ATOM     59  C   UNL A   1      45.379  28.836  35.725  1.00  0.00     0.135 A 
ATOM     60  F   UNL A   1      42.477  27.108  37.083  1.00  0.00    -0.206 F 
ATOM     61  C   UNL A   1      44.764  26.748  37.464  1.00  0.00     0.059 A 
ATOM     62  C   UNL A   1      46.411  28.131  36.338  1.00  0.00     0.059 A 
ATOM     63  F   UNL A   1      45.706  29.844  34.902  1.00  0.00    -0.206 F 
ATOM     64  C   UNL A   1      46.092  27.097  37.217  1.00  0.00     0.060 A 
BRANCH  64  65
ATOM     65  S   UNL A   1      47.398  26.178  38.060  1.00  0.00     0.124 S 
ATOM     66  O   UNL A   1      46.645  25.494  39.107  1.00  0.00    -0.237 OA
ATOM     67  O   UNL A   1      47.918  25.326  36.995  1.00  0.00    -0.237 OA
ATOM     68  O   UNL A   1      48.307  27.223  38.523  1.00  0.00    -0.744 OA
ENDBRANCH  64  65
ENDBRANCH  43  57
BRANCH  44  69
ATOM     69  C   UNL A   1      36.712  33.192  31.001  1.00  0.00     0.058 A 
ATOM     70  C   UNL A   1      36.948  34.002  29.882  1.00  0.00     0.135 A 
ATOM     71  C   UNL A   1      35.383  33.030  31.423  1.00  0.00     0.135 A 
ATOM     72  F   UNL A   1      38.201  34.197  29.445  1.00  0.00    -0.206 F 
ATOM     73  C   UNL A   1      35.906  34.637  29.210  1.00  0.00     0.059 A 
ATOM     74  C   UNL A   1      34.323  33.634  30.754  1.00  0.00     0.059 A 
ATOM     75  F   UNL A   1      35.103  32.258  32.485  1.00  0.00    -0.206 F 
ATOM     76  C   UNL A   1      34.596  34.443  29.652  1.00  0.00     0.060 A 
BRANCH  76  77
ATOM     77  S   UNL A   1      33.247  35.223  28.740  1.00  0.00     0.124 S 
ATOM     78  O   UNL A   1      32.380  35.670  29.823  1.00  0.00    -0.237 OA
ATOM     79  O   UNL A   1      33.943  36.274  28.003  1.00  0.00    -0.237 OA
ATOM     80  O   UNL A   1      32.724  34.136  27.919  1.00  0.00    -0.744 OA
ENDBRANCH  76  77
ENDBRANCH  44  69
BRANCH  56  81
ATOM     81  C   UNL A   1      39.833  34.261  37.156  1.00  0.00     0.058 A 
ATOM     82  C   UNL A   1      39.042  34.022  38.291  1.00  0.00     0.135 A 
ATOM     83  C   UNL A   1      40.501  35.494  37.073  1.00  0.00     0.135 A 
ATOM     84  F   UNL A   1      38.377  32.862  38.417  1.00  0.00    -0.206 F 
ATOM     85  C   UNL A   1      38.900  34.976  39.293  1.00  0.00     0.059 A 
ATOM     86  C   UNL A   1      40.396  36.453  38.077  1.00  0.00     0.059 A 
ATOM     87  F   UNL A   1      41.280  35.772  36.016  1.00  0.00    -0.206 F 
ATOM     88  C   UNL A   1      39.583  36.189  39.179  1.00  0.00     0.060 A 
BRANCH  88  89
ATOM     89  S   UNL A   1      39.418  37.406  40.503  1.00  0.00     0.124 S 
ATOM     90  O   UNL A   1      38.599  38.429  39.860  1.00  0.00    -0.237 OA
ATOM     91  O   UNL A   1      38.761  36.637  41.555  1.00  0.00    -0.237 OA
ATOM     92  O   UNL A   1      40.797  37.790  40.785  1.00  0.00    -0.744 OA
ENDBRANCH  88  89
ENDBRANCH  56  81
ENDBRANCH  30  31
ENDBRANCH  23  25
ENDBRANCH  22  23
ENDBRANCH  21  22
ENDBRANCH  20  21
ENDBRANCH   1  20
TORSDOF 20
ENDMDL
MODEL 2
REMARK VINA RESULT:      -9.5      5.398     11.671
REMARK SMILES O=C(NCCC(=O)OCCOCCOC(=O)c1ccc(-c2c3nc(c(-c4c(F)cc(S(=O)(=O)[O-])cc4F)c4ccc([nH]4)c(-c4c(F)cc(S(=O)(=O)[O-])cc4F)c4nc(c(-c5c(F)cc(S(=O)(=O)[O-])cc5F)c5ccc2[nH]5)C=C4)C=C3)cc1)N[C@@H]1CCOC1
REMARK SMILES IDX 11 1 10 2 9 3 8 4 6 5 7 6 5 7 4 8 3 9 1 10 2 11 83 12 84 15
REMARK SMILES IDX 85 16 88 17 86 18 87 19 12 20 13 21 14 22 15 23 16 24 17 25
REMARK SMILES IDX 18 26 82 27 19 28 81 29 20 30 21 31 22 32 75 33 23 34 80 35
REMARK SMILES IDX 74 36 76 37 24 38 79 39 73 40 72 41 25 43 59 44 38 45 58 46
REMARK SMILES IDX 39 47 42 48 57 49 77 50 40 51 41 52 56 54 78 55 43 56 26 57
REMARK SMILES IDX 27 58 36 59 28 60 29 61 35 62 37 63 30 64 31 65 32 66 33 67
REMARK SMILES IDX 34 68 60 69 61 70 70 71 62 72 63 73 69 74 71 75 64 76 65 77
REMARK SMILES IDX 66 78 67 79 68 80 44 81 45 82 54 83 46 84 47 85 53 86 55 87
REMARK SMILES IDX 48 88 49 89 50 90 51 91 52 92
REMARK H PARENT 3 13 83 14 76 42 42 53
REMARK Flexibility Score: inf
ROOT
ATOM      1  O   UNL A   1      33.393  26.720  23.866  1.00  0.00    -0.374 OA
ENDROOT
BRANCH   1   2
ATOM      2  C   UNL A   1      33.866  25.759  24.810  1.00  0.00     0.202 C 
BRANCH   2   3
ATOM      3  C   UNL A   1      33.519  24.292  24.536  1.00  0.00     0.261 C 
BRANCH   3   4
ATOM      4  O   UNL A   1      32.407  23.833  25.331  1.00  0.00    -0.463 OA
BRANCH   4   5
ATOM      5  C   UNL A   1      31.168  24.044  24.812  1.00  0.00     0.307 C 
ATOM      6  O   UNL A   1      30.781  23.644  23.720  1.00  0.00    -0.252 OA
BRANCH   5   7
ATOM      7  C   UNL A   1      30.296  24.880  25.718  1.00  0.00     0.144 C 
BRANCH   7   8
ATOM      8  C   UNL A   1      30.034  26.298  25.228  1.00  0.00     0.129 C 
BRANCH   8   9
ATOM      9  N   UNL A   1      30.413  26.496  23.842  1.00  0.00    -0.338 N 
ATOM     10  O   UNL A   1      30.650  27.453  21.855  1.00  0.00    -0.249 OA
ATOM     11  C   UNL A   1      30.260  27.553  23.010  1.00  0.00     0.315 C 
ATOM     12  N   UNL A   1      29.676  28.663  23.530  1.00  0.00    -0.333 N 
ATOM     13  H   UNL A   1      30.862  25.721  23.433  1.00  0.00     0.165 HD
ATOM     14  H   UNL A   1      29.433  28.639  24.483  1.00  0.00     0.165 HD
BRANCH  12  15
ATOM     15  C   UNL A   1      29.377  29.889  22.793  1.00  0.00     0.112 C 
ATOM     16  C   UNL A   1      29.153  31.104  23.670  1.00  0.00     0.056 C 
ATOM     17  C   UNL A   1      28.138  29.841  21.900  1.00  0.00     0.185 C 
ATOM     18  C   UNL A   1      27.655  31.311  23.636  1.00  0.00     0.162 C 
ATOM     19  O   UNL A   1      27.201  30.820  22.370  1.00  0.00    -0.379 OA
ENDBRANCH  12  15
ENDBRANCH   8   9
ENDBRANCH   7   8
ENDBRANCH   5   7
ENDBRANCH   4   5
ENDBRANCH   3   4
ENDBRANCH   2   3
ENDBRANCH   1   2
BRANCH   1  20
ATOM     20  C   UNL A   1      33.616  28.095  24.167  1.00  0.00     0.202 C 
BRANCH  20  21
ATOM     21  C   UNL A   1      33.134  28.603  25.533  1.00  0.00     0.261 C 
BRANCH  21  22
ATOM     22  O   UNL A   1      34.176  28.620  26.524  1.00  0.00    -0.460 OA
BRANCH  22  23
ATOM     23  C   UNL A   1      34.392  29.841  27.081  1.00  0.00     0.338 C 
ATOM     24  O   UNL A   1      33.638  30.799  27.057  1.00  0.00    -0.246 OA
BRANCH  23  25
ATOM     25  C   UNL A   1      35.617  29.828  27.904  1.00  0.00     0.060 A 
ATOM     26  C   UNL A   1      36.829  30.080  27.249  1.00  0.00     0.016 A 
ATOM     27  C   UNL A   1      35.599  29.488  29.257  1.00  0.00     0.016 A 
ATOM     28  C   UNL A   1      38.035  29.938  27.932  1.00  0.00     0.010 A 
ATOM     29  C   UNL A   1      36.814  29.337  29.939  1.00  0.00     0.010 A 
ATOM     30  C   UNL A   1      38.037  29.525  29.270  1.00  0.00    -0.014 A 
BRANCH  30  31
ATOM     31  C   UNL A   1      39.323  29.162  29.918  1.00  0.00     0.031 A 
ATOM     32  C   UNL A   1      39.763  29.912  31.146  1.00  0.00     0.074 A 
ATOM     33  C   UNL A   1      40.067  28.146  29.443  1.00  0.00     0.049 A 
ATOM     34  N   UNL A   1      40.850  29.769  31.860  1.00  0.00    -0.248 NA
ATOM     35  C   UNL A   1      38.856  30.964  31.634  1.00  0.00     0.031 C 
ATOM     36  C   UNL A   1      39.727  27.322  28.285  1.00  0.00     0.029 A 
ATOM     37  N   UNL A   1      41.266  27.640  29.877  1.00  0.00    -0.354 N 
ATOM     38  C   UNL A   1      40.761  30.710  32.879  1.00  0.00     0.074 A 
ATOM     39  C   UNL A   1      39.528  31.440  32.674  1.00  0.00     0.031 C 
ATOM     40  C   UNL A   1      40.703  26.420  28.090  1.00  0.00     0.029 A 
ATOM     41  C   UNL A   1      41.751  26.623  29.090  1.00  0.00     0.049 A 
ATOM     42  H   UNL A   1      41.736  27.974  30.676  1.00  0.00     0.167 HD
ATOM     43  C   UNL A   1      41.624  30.941  33.898  1.00  0.00     0.037 A 
ATOM     44  C   UNL A   1      42.917  25.948  29.155  1.00  0.00     0.037 A 
ATOM     45  C   UNL A   1      42.854  30.217  34.093  1.00  0.00     0.049 A 
ATOM     46  C   UNL A   1      43.892  26.265  30.258  1.00  0.00     0.074 A 
ATOM     47  C   UNL A   1      43.791  30.368  35.101  1.00  0.00     0.029 A 
ATOM     48  N   UNL A   1      43.323  29.212  33.260  1.00  0.00    -0.354 N 
ATOM     49  N   UNL A   1      43.785  27.142  31.228  1.00  0.00    -0.248 NA
ATOM     50  C   UNL A   1      45.145  25.497  30.279  1.00  0.00     0.031 C 
ATOM     51  C   UNL A   1      44.849  29.487  34.850  1.00  0.00     0.029 A 
ATOM     52  C   UNL A   1      44.546  28.749  33.717  1.00  0.00     0.049 A 
ATOM     53  H   UNL A   1      42.855  28.876  32.461  1.00  0.00     0.167 HD
ATOM     54  C   UNL A   1      44.944  27.015  31.987  1.00  0.00     0.074 A 
ATOM     55  C   UNL A   1      45.733  25.968  31.371  1.00  0.00     0.031 C 
ATOM     56  C   UNL A   1      45.320  27.701  33.096  1.00  0.00     0.037 A 
BRANCH  43  57
ATOM     57  C   UNL A   1      41.279  32.039  34.868  1.00  0.00     0.058 A 
ATOM     58  C   UNL A   1      41.681  33.367  34.653  1.00  0.00     0.135 A 
ATOM     59  C   UNL A   1      40.514  31.764  36.012  1.00  0.00     0.135 A 
ATOM     60  F   UNL A   1      42.429  33.683  33.583  1.00  0.00    -0.206 F 
ATOM     61  C   UNL A   1      41.359  34.379  35.552  1.00  0.00     0.059 A 
ATOM     62  C   UNL A   1      40.157  32.766  36.911  1.00  0.00     0.059 A 
ATOM     63  F   UNL A   1      40.102  30.513  36.267  1.00  0.00    -0.206 F 
ATOM     64  C   UNL A   1      40.597  34.068  36.679  1.00  0.00     0.060 A 
BRANCH  64  65
ATOM     65  S   UNL A   1      40.186  35.393  37.836  1.00  0.00     0.124 S 
ATOM     66  O   UNL A   1      41.369  35.412  38.690  1.00  0.00    -0.237 OA
ATOM     67  O   UNL A   1      40.025  36.542  36.951  1.00  0.00    -0.237 OA
ATOM     68  O   UNL A   1      38.960  34.920  38.474  1.00  0.00    -0.744 OA
ENDBRANCH  64  65
ENDBRANCH  43  57
BRANCH  44  69
ATOM     69  C   UNL A   1      43.231  24.915  28.131  1.00  0.00     0.058 A 
ATOM     70  C   UNL A   1      43.848  25.256  26.920  1.00  0.00     0.135 A 
ATOM     71  C   UNL A   1      42.926  23.563  28.353  1.00  0.00     0.135 A 
ATOM     72  F   UNL A   1      44.150  26.536  26.656  1.00  0.00    -0.206 F 
ATOM     73  C   UNL A   1      44.144  24.294  25.958  1.00  0.00     0.059 A 
ATOM     74  C   UNL A   1      43.234  22.581  27.418  1.00  0.00     0.059 A 
ATOM     75  F   UNL A   1      42.341  23.184  29.500  1.00  0.00    -0.206 F 
ATOM     76  C   UNL A   1      43.836  22.957  26.218  1.00  0.00     0.060 A 
BRANCH  76  77
ATOM     77  S   UNL A   1      44.276  21.709  24.990  1.00  0.00     0.124 S 
ATOM     78  O   UNL A   1      45.665  21.431  25.337  1.00  0.00    -0.237 OA
ATOM     79  O   UNL A   1      43.320  20.645  25.277  1.00  0.00    -0.237 OA
ATOM     80  O   UNL A   1      44.069  22.400  23.721  1.00  0.00    -0.744 OA
ENDBRANCH  76  77
ENDBRANCH  44  69
BRANCH  56  81
ATOM     81  C   UNL A   1      46.626  27.322  33.739  1.00  0.00     0.058 A 
ATOM     82  C   UNL A   1      46.709  26.306  34.704  1.00  0.00     0.135 A 
ATOM     83  C   UNL A   1      47.820  27.947  33.343  1.00  0.00     0.135 A 
ATOM     84  F   UNL A   1      45.597  25.681  35.123  1.00  0.00    -0.206 F 
ATOM     85  C   UNL A   1      47.925  25.940  35.272  1.00  0.00     0.059 A 
ATOM     86  C   UNL A   1      49.052  27.578  33.877  1.00  0.00     0.059 A 
ATOM     87  F   UNL A   1      47.801  28.917  32.416  1.00  0.00    -0.206 F 
ATOM     88  C   UNL A   1      49.093  26.581  34.851  1.00  0.00     0.060 A 
BRANCH  88  89
ATOM     89  S   UNL A   1      50.669  26.073  35.571  1.00  0.00     0.124 S 
ATOM     90  O   UNL A   1      51.400  27.335  35.596  1.00  0.00    -0.237 OA
ATOM     91  O   UNL A   1      50.265  25.547  36.871  1.00  0.00    -0.237 OA
ATOM     92  O   UNL A   1      51.168  25.077  34.627  1.00  0.00    -0.744 OA
ENDBRANCH  88  89
ENDBRANCH  56  81
ENDBRANCH  30  31
ENDBRANCH  23  25
ENDBRANCH  22  23
ENDBRANCH  21  22
ENDBRANCH  20  21
ENDBRANCH   1  20
TORSDOF 20
ENDMDL
MODEL 3
REMARK VINA RESULT:      -9.5      6.710     14.320
REMARK SMILES O=C(NCCC(=O)OCCOCCOC(=O)c1ccc(-c2c3nc(c(-c4c(F)cc(S(=O)(=O)[O-])cc4F)c4ccc([nH]4)c(-c4c(F)cc(S(=O)(=O)[O-])cc4F)c4nc(c(-c5c(F)cc(S(=O)(=O)[O-])cc5F)c5ccc2[nH]5)C=C4)C=C3)cc1)N[C@@H]1CCOC1
REMARK SMILES IDX 11 1 10 2 9 3 8 4 6 5 7 6 5 7 4 8 3 9 1 10 2 11 83 12 84 15
REMARK SMILES IDX 85 16 88 17 86 18 87 19 12 20 13 21 14 22 15 23 16 24 17 25
REMARK SMILES IDX 18 26 82 27 19 28 81 29 20 30 21 31 22 32 75 33 23 34 80 35
REMARK SMILES IDX 74 36 76 37 24 38 79 39 73 40 72 41 25 43 59 44 38 45 58 46
REMARK SMILES IDX 39 47 42 48 57 49 77 50 40 51 41 52 56 54 78 55 43 56 26 57
REMARK SMILES IDX 27 58 36 59 28 60 29 61 35 62 37 63 30 64 31 65 32 66 33 67
REMARK SMILES IDX 34 68 60 69 61 70 70 71 62 72 63 73 69 74 71 75 64 76 65 77
REMARK SMILES IDX 66 78 67 79 68 80 44 81 45 82 54 83 46 84 47 85 53 86 55 87
REMARK SMILES IDX 48 88 49 89 50 90 51 91 52 92
REMARK H PARENT 3 13 83 14 76 42 42 53
REMARK Flexibility Score: inf
ROOT
ATOM      1  O   UNL A   1      34.596  33.295  27.997  1.00  0.00    -0.374 OA
ENDROOT
BRANCH   1   2
ATOM      2  C   UNL A   1      33.220  33.150  27.643  1.00  0.00     0.202 C 
BRANCH   2   3
ATOM      3  C   UNL A   1      32.703  31.721  27.455  1.00  0.00     0.261 C 
BRANCH   3   4
ATOM      4  O   UNL A   1      33.713  30.836  26.928  1.00  0.00    -0.463 OA
BRANCH   4   5
ATOM      5  C   UNL A   1      33.344  29.540  26.749  1.00  0.00     0.307 C 
ATOM      6  O   UNL A   1      33.274  28.696  27.634  1.00  0.00    -0.252 OA
BRANCH   5   7
ATOM      7  C   UNL A   1      33.057  29.215  25.302  1.00  0.00     0.144 C 
BRANCH   7   8
ATOM      8  C   UNL A   1      31.725  28.523  25.051  1.00  0.00     0.129 C 
BRANCH   8   9
ATOM      9  N   UNL A   1      31.417  28.384  23.640  1.00  0.00    -0.338 N 
ATOM     10  O   UNL A   1      30.343  28.555  21.707  1.00  0.00    -0.249 OA
ATOM     11  C   UNL A   1      30.383  28.842  22.896  1.00  0.00     0.315 C 
ATOM     12  N   UNL A   1      29.454  29.598  23.535  1.00  0.00    -0.333 N 
ATOM     13  H   UNL A   1      32.080  27.860  23.134  1.00  0.00     0.165 HD
ATOM     14  H   UNL A   1      29.610  29.790  24.487  1.00  0.00     0.165 HD
BRANCH  12  15
ATOM     15  C   UNL A   1      28.244  30.147  22.929  1.00  0.00     0.112 C 
ATOM     16  C   UNL A   1      28.408  30.572  21.485  1.00  0.00     0.056 C 
ATOM     17  C   UNL A   1      27.660  31.382  23.615  1.00  0.00     0.185 C 
ATOM     18  C   UNL A   1      28.461  32.082  21.548  1.00  0.00     0.162 C 
ATOM     19  O   UNL A   1      27.685  32.473  22.685  1.00  0.00    -0.379 OA
ENDBRANCH  12  15
ENDBRANCH   8   9
ENDBRANCH   7   8
ENDBRANCH   5   7
ENDBRANCH   4   5
ENDBRANCH   3   4
ENDBRANCH   2   3
ENDBRANCH   1   2
BRANCH   1  20
ATOM     20  C   UNL A   1      34.898  33.501  29.374  1.00  0.00     0.202 C 
BRANCH  20  21
ATOM     21  C   UNL A   1      35.154  32.254  30.232  1.00  0.00     0.261 C 
BRANCH  21  22
ATOM     22  O   UNL A   1      35.939  31.258  29.552  1.00  0.00    -0.460 OA
BRANCH  22  23
ATOM     23  C   UNL A   1      36.598  30.408  30.383  1.00  0.00     0.338 C 
ATOM     24  O   UNL A   1      36.104  29.697  31.242  1.00  0.00    -0.246 OA
BRANCH  23  25
ATOM     25  C   UNL A   1      38.019  30.302  30.000  1.00  0.00     0.060 A 
ATOM     26  C   UNL A   1      38.303  30.162  28.635  1.00  0.00     0.016 A 
ATOM     27  C   UNL A   1      39.042  30.244  30.948  1.00  0.00     0.016 A 
ATOM     28  C   UNL A   1      39.608  29.908  28.217  1.00  0.00     0.010 A 
ATOM     29  C   UNL A   1      40.350  29.979  30.524  1.00  0.00     0.010 A 
ATOM     30  C   UNL A   1      40.633  29.773  29.161  1.00  0.00    -0.014 A 
BRANCH  30  31
ATOM     31  C   UNL A   1      41.965  29.285  28.725  1.00  0.00     0.031 A 
ATOM     32  C   UNL A   1      43.117  30.251  28.663  1.00  0.00     0.074 A 
ATOM     33  C   UNL A   1      42.156  27.985  28.431  1.00  0.00     0.049 A 
ATOM     34  N   UNL A   1      44.356  30.042  28.299  1.00  0.00    -0.248 NA
ATOM     35  C   UNL A   1      42.834  31.638  29.065  1.00  0.00     0.031 C 
ATOM     36  C   UNL A   1      41.127  26.948  28.490  1.00  0.00     0.029 A 
ATOM     37  N   UNL A   1      43.283  27.320  28.018  1.00  0.00    -0.354 N 
ATOM     38  C   UNL A   1      45.001  31.267  28.427  1.00  0.00     0.074 A 
ATOM     39  C   UNL A   1      44.009  32.222  28.872  1.00  0.00     0.031 C 
ATOM     40  C   UNL A   1      41.667  25.777  28.113  1.00  0.00     0.029 A 
ATOM     41  C   UNL A   1      43.070  25.987  27.756  1.00  0.00     0.049 A 
ATOM     42  H   UNL A   1      44.160  27.755  27.918  1.00  0.00     0.167 HD
ATOM     43  C   UNL A   1      46.302  31.568  28.200  1.00  0.00     0.037 A 
ATOM     44  C   UNL A   1      43.905  25.050  27.264  1.00  0.00     0.037 A 
ATOM     45  C   UNL A   1      47.284  30.614  27.750  1.00  0.00     0.049 A 
ATOM     46  C   UNL A   1      45.332  25.421  26.957  1.00  0.00     0.074 A 
ATOM     47  C   UNL A   1      48.631  30.817  27.502  1.00  0.00     0.029 A 
ATOM     48  N   UNL A   1      47.024  29.281  27.471  1.00  0.00    -0.354 N 
ATOM     49  N   UNL A   1      45.935  26.578  27.103  1.00  0.00    -0.248 NA
ATOM     50  C   UNL A   1      46.196  24.359  26.424  1.00  0.00     0.031 C 
ATOM     51  C   UNL A   1      49.174  29.618  27.028  1.00  0.00     0.029 A 
ATOM     52  C   UNL A   1      48.179  28.654  27.031  1.00  0.00     0.049 A 
ATOM     53  H   UNL A   1      46.148  28.843  27.570  1.00  0.00     0.167 HD
ATOM     54  C   UNL A   1      47.251  26.376  26.702  1.00  0.00     0.074 A 
ATOM     55  C   UNL A   1      47.362  24.984  26.320  1.00  0.00     0.031 C 
ATOM     56  C   UNL A   1      48.277  27.264  26.658  1.00  0.00     0.037 A 
BRANCH  43  57
ATOM     57  C   UNL A   1      46.735  32.993  28.413  1.00  0.00     0.058 A 
ATOM     58  C   UNL A   1      47.271  33.427  29.637  1.00  0.00     0.135 A 
ATOM     59  C   UNL A   1      46.641  33.929  27.372  1.00  0.00     0.135 A 
ATOM     60  F   UNL A   1      47.368  32.576  30.672  1.00  0.00    -0.206 F 
ATOM     61  C   UNL A   1      47.671  34.745  29.829  1.00  0.00     0.059 A 
ATOM     62  C   UNL A   1      47.061  35.248  27.534  1.00  0.00     0.059 A 
ATOM     63  F   UNL A   1      46.138  33.570  26.182  1.00  0.00    -0.206 F 
ATOM     64  C   UNL A   1      47.562  35.649  28.772  1.00  0.00     0.060 A 
BRANCH  64  65
ATOM     65  S   UNL A   1      48.087  37.356  29.036  1.00  0.00     0.124 S 
ATOM     66  O   UNL A   1      49.439  37.168  29.552  1.00  0.00    -0.237 OA
ATOM     67  O   UNL A   1      47.993  37.923  27.695  1.00  0.00    -0.237 OA
ATOM     68  O   UNL A   1      47.114  37.866  29.999  1.00  0.00    -0.744 OA
ENDBRANCH  64  65
ENDBRANCH  43  57
BRANCH  44  69
ATOM     69  C   UNL A   1      43.404  23.672  27.015  1.00  0.00     0.058 A 
ATOM     70  C   UNL A   1      43.110  23.228  25.719  1.00  0.00     0.135 A 
ATOM     71  C   UNL A   1      43.221  22.768  28.074  1.00  0.00     0.135 A 
ATOM     72  F   UNL A   1      43.258  24.057  24.674  1.00  0.00    -0.206 F 
ATOM     73  C   UNL A   1      42.640  21.939  25.479  1.00  0.00     0.059 A 
ATOM     74  C   UNL A   1      42.776  21.468  27.858  1.00  0.00     0.059 A 
ATOM     75  F   UNL A   1      43.496  23.142  29.333  1.00  0.00    -0.206 F 
ATOM     76  C   UNL A   1      42.481  21.064  26.557  1.00  0.00     0.060 A 
BRANCH  76  77
ATOM     77  S   UNL A   1      41.927  19.377  26.230  1.00  0.00     0.124 S 
ATOM     78  O   UNL A   1      42.342  18.691  27.448  1.00  0.00    -0.237 OA
ATOM     79  O   UNL A   1      40.489  19.555  26.056  1.00  0.00    -0.237 OA
ATOM     80  O   UNL A   1      42.656  19.013  25.020  1.00  0.00    -0.744 OA
ENDBRANCH  76  77
ENDBRANCH  44  69
BRANCH  56  81
ATOM     81  C   UNL A   1      49.620  26.752  26.212  1.00  0.00     0.058 A 
ATOM     82  C   UNL A   1      50.087  26.941  24.902  1.00  0.00     0.135 A 
ATOM     83  C   UNL A   1      50.475  26.112  27.125  1.00  0.00     0.135 A 
ATOM     84  F   UNL A   1      49.307  27.541  23.988  1.00  0.00    -0.206 F 
ATOM     85  C   UNL A   1      51.343  26.493  24.505  1.00  0.00     0.059 A 
ATOM     86  C   UNL A   1      51.746  25.681  26.758  1.00  0.00     0.059 A 
ATOM     87  F   UNL A   1      50.084  25.915  28.394  1.00  0.00    -0.206 F 
ATOM     88  C   UNL A   1      52.167  25.865  25.442  1.00  0.00     0.060 A 
BRANCH  88  89
ATOM     89  S   UNL A   1      53.808  25.318  24.923  1.00  0.00     0.124 S 
ATOM     90  O   UNL A   1      53.634  23.870  24.879  1.00  0.00    -0.237 OA
ATOM     91  O   UNL A   1      53.965  25.978  23.631  1.00  0.00    -0.237 OA
ATOM     92  O   UNL A   1      54.681  25.814  25.983  1.00  0.00    -0.744 OA
ENDBRANCH  88  89
ENDBRANCH  56  81
ENDBRANCH  30  31
ENDBRANCH  23  25
ENDBRANCH  22  23
ENDBRANCH  21  22
ENDBRANCH  20  21
ENDBRANCH   1  20
TORSDOF 20
ENDMDL
