MODEL 1
REMARK VINA RESULT:     -12.7      0.000      0.000
REMARK SMILES Cc1ccc([C@@]23C[C@@H]4C[C@@H](C[C@@](C(=O)N5CCC(C(=O)OCCOCCOC(=O)c6ccc(-c7c8nc(c(-c9c(F)cc(S(=O)(=O)[O-])cc9F)c9ccc([nH]9)c(-c9c(F)cc(S(=O)(=O)[O-])cc9F)c9nc(c(-c%10c(F)cc(S(=O)(=O)[O-])cc%10F)c%10ccc7[nH]%10)C=C9)C=C8)cc6)CC5)(C4)C2)C3)cc1
REMARK SMILES IDX 25 1 24 2 23 3 22 4 21 5 19 6 20 7 18 8 13 9 14 10 15 11
REMARK SMILES IDX 16 12 97 13 17 14 96 15 12 16 6 17 7 18 99 19 100 20 8 21
REMARK SMILES IDX 10 22 9 23 98 24 11 25 5 26 1 27 2 28 3 29 102 30 4 31
REMARK SMILES IDX 101 32 26 33 27 34 28 35 29 36 30 37 31 38 95 39 32 40 94 41
REMARK SMILES IDX 33 42 34 43 35 44 88 45 36 46 93 47 87 48 89 49 37 50 92 51
REMARK SMILES IDX 86 52 85 53 38 55 72 56 51 57 71 58 52 59 55 60 70 61 90 62
REMARK SMILES IDX 53 63 54 64 69 66 91 67 56 68 39 69 40 70 49 71 41 72 42 73
REMARK SMILES IDX 48 74 50 75 43 76 44 77 45 78 46 79 47 80 73 81 74 82 83 83
REMARK SMILES IDX 75 84 76 85 82 86 84 87 77 88 78 89 79 90 80 91 81 92 57 93
REMARK SMILES IDX 58 94 67 95 59 96 60 97 66 98 68 99 61 100 62 101 63 102
REMARK SMILES IDX 64 103 65 104
REMARK H PARENT 89 54 55 65
REMARK Flexibility Score: inf
ROOT
ATOM      1  C   UNL A   1      35.100  33.658  28.020  1.00  0.00     0.202 C 
ENDROOT
BRANCH   1   2
ATOM      2  O   UNL A   1      33.713  34.007  28.121  1.00  0.00    -0.374 OA
BRANCH   2   3
ATOM      3  C   UNL A   1      32.834  33.005  27.662  1.00  0.00     0.202 C 
BRANCH   3   4
ATOM      4  C   UNL A   1      33.620  31.728  27.506  1.00  0.00     0.261 C 
BRANCH   4   5
ATOM      5  O   UNL A   1      32.799  30.551  27.391  1.00  0.00    -0.463 OA
BRANCH   5   6
ATOM      6  C   UNL A   1      32.386  30.112  26.172  1.00  0.00     0.309 C 
ATOM      7  O   UNL A   1      31.354  30.413  25.589  1.00  0.00    -0.252 OA
BRANCH   6   8
ATOM      8  C   UNL A   1      33.381  29.168  25.587  1.00  0.00     0.103 C 
ATOM      9  C   UNL A   1      32.857  25.765  23.652  1.00  0.00     0.228 C 
ATOM     10  O   UNL A   1      32.205  25.970  22.628  1.00  0.00    -0.274 OA
ATOM     11  N   UNL A   1      33.707  26.739  24.204  1.00  0.00    -0.342 N 
ATOM     12  C   UNL A   1      33.952  27.958  23.456  1.00  0.00     0.120 C 
ATOM     13  C   UNL A   1      34.176  26.826  25.599  1.00  0.00     0.120 C 
ATOM     14  C   UNL A   1      33.137  29.068  24.080  1.00  0.00     0.037 C 
ATOM     15  C   UNL A   1      33.317  27.823  26.320  1.00  0.00     0.037 C 
BRANCH   9  16
ATOM     16  C   UNL A   1      32.899  24.365  24.282  1.00  0.00     0.051 C 
ATOM     17  C   UNL A   1      34.729  22.826  25.227  1.00  0.00    -0.003 C 
ATOM     18  C   UNL A   1      33.913  22.864  26.554  1.00  0.00     0.015 C 
ATOM     19  C   UNL A   1      34.398  24.081  24.433  1.00  0.00     0.028 C 
ATOM     20  C   UNL A   1      34.208  21.668  24.341  1.00  0.00     0.015 C 
ATOM     21  C   UNL A   1      32.394  22.948  26.295  1.00  0.00    -0.009 C 
ATOM     22  C   UNL A   1      32.691  21.845  24.057  1.00  0.00    -0.009 C 
ATOM     23  C   UNL A   1      31.949  21.779  25.403  1.00  0.00     0.007 C 
ATOM     24  C   UNL A   1      32.068  24.261  25.576  1.00  0.00     0.020 C 
ATOM     25  C   UNL A   1      32.391  23.214  23.374  1.00  0.00     0.020 C 
BRANCH  17  26
ATOM     26  C   UNL A   1      36.246  22.794  25.514  1.00  0.00    -0.042 A 
ATOM     27  C   UNL A   1      40.455  22.624  26.579  1.00  0.00     0.044 C 
ATOM     28  C   UNL A   1      39.007  22.663  26.204  1.00  0.00    -0.051 A 
ATOM     29  C   UNL A   1      38.287  23.829  26.426  1.00  0.00     0.004 A 
ATOM     30  C   UNL A   1      38.351  21.565  25.635  1.00  0.00     0.004 A 
ATOM     31  C   UNL A   1      36.941  23.894  26.072  1.00  0.00     0.004 A 
ATOM     32  C   UNL A   1      36.989  21.629  25.298  1.00  0.00     0.004 A 
ENDBRANCH  17  26
ENDBRANCH   9  16
ENDBRANCH   6   8
ENDBRANCH   5   6
ENDBRANCH   4   5
ENDBRANCH   3   4
ENDBRANCH   2   3
ENDBRANCH   1   2
BRANCH   1  33
ATOM     33  C   UNL A   1      36.138  34.023  29.137  1.00  0.00     0.261 C 
BRANCH  33  34
ATOM     34  O   UNL A   1      36.878  32.865  29.605  1.00  0.00    -0.460 OA
BRANCH  34  35
ATOM     35  C   UNL A   1      36.143  31.841  30.157  1.00  0.00     0.338 C 
ATOM     36  O   UNL A   1      35.262  31.967  30.965  1.00  0.00    -0.246 OA
BRANCH  35  37
ATOM     37  C   UNL A   1      36.785  30.527  29.785  1.00  0.00     0.060 A 
ATOM     38  C   UNL A   1      36.806  29.500  30.742  1.00  0.00     0.016 A 
ATOM     39  C   UNL A   1      37.705  30.509  28.743  1.00  0.00     0.016 A 
ATOM     40  C   UNL A   1      37.932  28.672  30.849  1.00  0.00     0.010 A 
ATOM     41  C   UNL A   1      38.876  29.796  28.941  1.00  0.00     0.010 A 
ATOM     42  C   UNL A   1      39.034  28.941  30.045  1.00  0.00    -0.014 A 
BRANCH  42  43
ATOM     43  C   UNL A   1      40.419  28.570  30.379  1.00  0.00     0.031 A 
ATOM     44  C   UNL A   1      40.965  27.306  29.834  1.00  0.00     0.074 A 
ATOM     45  C   UNL A   1      41.262  29.460  30.976  1.00  0.00     0.049 A 
ATOM     46  N   UNL A   1      42.101  26.828  30.188  1.00  0.00    -0.248 NA
ATOM     47  C   UNL A   1      40.289  26.433  28.868  1.00  0.00     0.031 C 
ATOM     48  C   UNL A   1      42.728  29.441  31.039  1.00  0.00     0.029 A 
ATOM     49  N   UNL A   1      40.946  30.594  31.738  1.00  0.00    -0.354 N 
ATOM     50  C   UNL A   1      42.474  25.906  29.248  1.00  0.00     0.074 A 
ATOM     51  C   UNL A   1      41.259  25.564  28.563  1.00  0.00     0.031 C 
ATOM     52  C   UNL A   1      43.152  30.289  31.992  1.00  0.00     0.029 A 
ATOM     53  C   UNL A   1      41.980  30.819  32.661  1.00  0.00     0.049 A 
ATOM     54  H   UNL A   1      40.134  31.142  31.642  1.00  0.00     0.167 HD
ATOM     55  C   UNL A   1      43.806  25.672  29.081  1.00  0.00     0.037 A 
ATOM     56  C   UNL A   1      41.672  30.762  33.981  1.00  0.00     0.037 A 
ATOM     57  C   UNL A   1      44.577  26.243  30.210  1.00  0.00     0.049 A 
ATOM     58  C   UNL A   1      42.220  29.452  34.525  1.00  0.00     0.074 A 
ATOM     59  C   UNL A   1      45.573  27.184  30.388  1.00  0.00     0.029 A 
ATOM     60  N   UNL A   1      44.089  26.006  31.496  1.00  0.00    -0.354 N 
ATOM     61  N   UNL A   1      42.891  28.617  33.768  1.00  0.00    -0.248 NA
ATOM     62  C   UNL A   1      42.139  28.954  35.889  1.00  0.00     0.031 C 
ATOM     63  C   UNL A   1      45.591  27.559  31.786  1.00  0.00     0.029 A 
ATOM     64  C   UNL A   1      44.645  26.808  32.471  1.00  0.00     0.049 A 
ATOM     65  H   UNL A   1      43.405  25.326  31.691  1.00  0.00     0.167 HD
ATOM     66  C   UNL A   1      43.372  27.558  34.456  1.00  0.00     0.074 A 
ATOM     67  C   UNL A   1      42.801  27.779  35.786  1.00  0.00     0.031 C 
ATOM     68  C   UNL A   1      44.199  26.627  33.871  1.00  0.00     0.037 A 
BRANCH  55  69
ATOM     69  C   UNL A   1      44.368  25.012  27.833  1.00  0.00     0.058 A 
ATOM     70  C   UNL A   1      44.957  23.736  27.890  1.00  0.00     0.135 A 
ATOM     71  C   UNL A   1      44.413  25.620  26.551  1.00  0.00     0.135 A 
ATOM     72  F   UNL A   1      45.045  23.075  29.053  1.00  0.00    -0.206 F 
ATOM     73  C   UNL A   1      45.492  23.094  26.760  1.00  0.00     0.059 A 
ATOM     74  C   UNL A   1      44.886  24.977  25.402  1.00  0.00     0.059 A 
ATOM     75  F   UNL A   1      44.057  26.897  26.354  1.00  0.00    -0.206 F 
ATOM     76  C   UNL A   1      45.433  23.713  25.514  1.00  0.00     0.060 A 
BRANCH  76  77
ATOM     77  S   UNL A   1      46.091  22.870  24.058  1.00  0.00     0.124 S 
ATOM     78  O   UNL A   1      46.592  21.625  24.630  1.00  0.00    -0.237 OA
ATOM     79  O   UNL A   1      44.912  22.752  23.208  1.00  0.00    -0.237 OA
ATOM     80  O   UNL A   1      47.117  23.787  23.567  1.00  0.00    -0.744 OA
ENDBRANCH  76  77
ENDBRANCH  55  69
BRANCH  56  81
ATOM     81  C   UNL A   1      40.461  31.633  34.228  1.00  0.00     0.058 A 
ATOM     82  C   UNL A   1      39.259  30.933  34.536  1.00  0.00     0.135 A 
ATOM     83  C   UNL A   1      40.528  32.948  34.721  1.00  0.00     0.135 A 
ATOM     84  F   UNL A   1      39.104  29.668  34.115  1.00  0.00    -0.206 F 
ATOM     85  C   UNL A   1      38.270  31.438  35.390  1.00  0.00     0.059 A 
ATOM     86  C   UNL A   1      39.539  33.478  35.581  1.00  0.00     0.059 A 
ATOM     87  F   UNL A   1      41.618  33.694  34.489  1.00  0.00    -0.206 F 
ATOM     88  C   UNL A   1      38.441  32.697  35.950  1.00  0.00     0.060 A 
BRANCH  88  89
ATOM     89  S   UNL A   1      37.246  33.241  37.206  1.00  0.00     0.124 S 
ATOM     90  O   UNL A   1      36.145  33.738  36.386  1.00  0.00    -0.237 OA
ATOM     91  O   UNL A   1      36.979  31.994  37.922  1.00  0.00    -0.237 OA
ATOM     92  O   UNL A   1      37.981  34.261  37.943  1.00  0.00    -0.744 OA
ENDBRANCH  88  89
ENDBRANCH  56  81
BRANCH  68  93
ATOM     93  C   UNL A   1      44.614  25.367  34.588  1.00  0.00     0.058 A 
ATOM     94  C   UNL A   1      43.716  24.347  34.920  1.00  0.00     0.135 A 
ATOM     95  C   UNL A   1      45.958  25.149  34.983  1.00  0.00     0.135 A 
ATOM     96  F   UNL A   1      42.392  24.518  34.778  1.00  0.00    -0.206 F 
ATOM     97  C   UNL A   1      44.145  23.123  35.427  1.00  0.00     0.059 A 
ATOM     98  C   UNL A   1      46.396  23.969  35.556  1.00  0.00     0.059 A 
ATOM     99  F   UNL A   1      46.927  26.053  34.805  1.00  0.00    -0.206 F 
ATOM    100  C   UNL A   1      45.494  22.937  35.717  1.00  0.00     0.060 A 
BRANCH 100 101
ATOM    101  S   UNL A   1      46.068  21.349  36.323  1.00  0.00     0.124 S 
ATOM    102  O   UNL A   1      47.507  21.432  36.089  1.00  0.00    -0.237 OA
ATOM    103  O   UNL A   1      45.647  21.404  37.719  1.00  0.00    -0.237 OA
ATOM    104  O   UNL A   1      45.357  20.386  35.489  1.00  0.00    -0.744 OA
ENDBRANCH 100 101
ENDBRANCH  68  93
ENDBRANCH  42  43
ENDBRANCH  35  37
ENDBRANCH  34  35
ENDBRANCH  33  34
ENDBRANCH   1  33
TORSDOF 19
ENDMDL
MODEL 2
REMARK VINA RESULT:     -12.3      2.213      3.559
REMARK SMILES Cc1ccc([C@@]23C[C@@H]4C[C@@H](C[C@@](C(=O)N5CCC(C(=O)OCCOCCOC(=O)c6ccc(-c7c8nc(c(-c9c(F)cc(S(=O)(=O)[O-])cc9F)c9ccc([nH]9)c(-c9c(F)cc(S(=O)(=O)[O-])cc9F)c9nc(c(-c%10c(F)cc(S(=O)(=O)[O-])cc%10F)c%10ccc7[nH]%10)C=C9)C=C8)cc6)CC5)(C4)C2)C3)cc1
REMARK SMILES IDX 25 1 24 2 23 3 22 4 21 5 19 6 20 7 18 8 13 9 14 10 15 11
REMARK SMILES IDX 16 12 97 13 17 14 96 15 12 16 6 17 7 18 99 19 100 20 8 21
REMARK SMILES IDX 10 22 9 23 98 24 11 25 5 26 1 27 2 28 3 29 102 30 4 31
REMARK SMILES IDX 101 32 26 33 27 34 28 35 29 36 30 37 31 38 95 39 32 40 94 41
REMARK SMILES IDX 33 42 34 43 35 44 88 45 36 46 93 47 87 48 89 49 37 50 92 51
REMARK SMILES IDX 86 52 85 53 38 55 72 56 51 57 71 58 52 59 55 60 70 61 90 62
REMARK SMILES IDX 53 63 54 64 69 66 91 67 56 68 39 69 40 70 49 71 41 72 42 73
REMARK SMILES IDX 48 74 50 75 43 76 44 77 45 78 46 79 47 80 73 81 74 82 83 83
REMARK SMILES IDX 75 84 76 85 82 86 84 87 77 88 78 89 79 90 80 91 81 92 57 93
REMARK SMILES IDX 58 94 67 95 59 96 60 97 66 98 68 99 61 100 62 101 63 102
REMARK SMILES IDX 64 103 65 104
REMARK H PARENT 89 54 55 65
REMARK Flexibility Score: inf
ROOT
ATOM      1  C   UNL A   1      33.489  29.055  27.154  1.00  0.00     0.202 C 
ENDROOT
BRANCH   1   2
ATOM      2  O   UNL A   1      32.124  28.994  26.719  1.00  0.00    -0.374 OA
BRANCH   2   3
ATOM      3  C   UNL A   1      31.632  30.208  26.197  1.00  0.00     0.202 C 
BRANCH   3   4
ATOM      4  C   UNL A   1      31.109  29.941  24.808  1.00  0.00     0.261 C 
BRANCH   4   5
ATOM      5  O   UNL A   1      30.938  28.542  24.512  1.00  0.00    -0.463 OA
BRANCH   5   6
ATOM      6  C   UNL A   1      30.745  28.124  23.232  1.00  0.00     0.309 C 
ATOM      7  O   UNL A   1      29.723  28.225  22.569  1.00  0.00    -0.252 OA
BRANCH   6   8
ATOM      8  C   UNL A   1      31.983  27.492  22.692  1.00  0.00     0.103 C 
ATOM      9  C   UNL A   1      33.265  23.763  22.920  1.00  0.00     0.228 C 
ATOM     10  O   UNL A   1      32.449  23.014  22.380  1.00  0.00    -0.274 OA
ATOM     11  N   UNL A   1      33.444  25.094  22.505  1.00  0.00    -0.342 N 
ATOM     12  C   UNL A   1      32.772  25.549  21.302  1.00  0.00     0.120 C 
ATOM     13  C   UNL A   1      34.008  26.205  23.294  1.00  0.00     0.120 C 
ATOM     14  C   UNL A   1      31.583  26.387  21.713  1.00  0.00     0.037 C 
ATOM     15  C   UNL A   1      32.868  27.011  23.847  1.00  0.00     0.037 C 
BRANCH   9  16
ATOM     16  C   UNL A   1      34.248  23.220  23.967  1.00  0.00     0.051 C 
ATOM     17  C   UNL A   1      34.683  20.939  25.072  1.00  0.00    -0.003 C 
ATOM     18  C   UNL A   1      36.128  21.070  24.500  1.00  0.00     0.015 C 
ATOM     19  C   UNL A   1      33.758  21.788  24.214  1.00  0.00     0.028 C 
ATOM     20  C   UNL A   1      34.626  21.609  26.468  1.00  0.00     0.015 C 
ATOM     21  C   UNL A   1      36.610  22.534  24.479  1.00  0.00    -0.009 C 
ATOM     22  C   UNL A   1      35.055  23.099  26.371  1.00  0.00    -0.009 C 
ATOM     23  C   UNL A   1      36.516  23.138  25.889  1.00  0.00     0.007 C 
ATOM     24  C   UNL A   1      35.722  23.355  23.538  1.00  0.00     0.020 C 
ATOM     25  C   UNL A   1      34.164  23.889  25.366  1.00  0.00     0.020 C 
BRANCH  17  26
ATOM     26  C   UNL A   1      34.206  19.472  25.035  1.00  0.00    -0.042 A 
ATOM     27  C   UNL A   1      32.974  15.308  25.176  1.00  0.00     0.044 C 
ATOM     28  C   UNL A   1      33.379  16.747  25.134  1.00  0.00    -0.051 A 
ATOM     29  C   UNL A   1      34.638  17.077  24.650  1.00  0.00     0.004 A 
ATOM     30  C   UNL A   1      32.534  17.776  25.565  1.00  0.00     0.004 A 
ATOM     31  C   UNL A   1      35.032  18.412  24.587  1.00  0.00     0.004 A 
ATOM     32  C   UNL A   1      32.942  19.119  25.519  1.00  0.00     0.004 A 
ENDBRANCH  17  26
ENDBRANCH   9  16
ENDBRANCH   6   8
ENDBRANCH   5   6
ENDBRANCH   4   5
ENDBRANCH   3   4
ENDBRANCH   2   3
ENDBRANCH   1   2
BRANCH   1  33
ATOM     33  C   UNL A   1      34.325  30.379  27.102  1.00  0.00     0.261 C 
BRANCH  33  34
ATOM     34  O   UNL A   1      34.801  30.786  28.412  1.00  0.00    -0.460 OA
BRANCH  34  35
ATOM     35  C   UNL A   1      36.122  31.158  28.505  1.00  0.00     0.338 C 
ATOM     36  O   UNL A   1      36.537  32.285  28.466  1.00  0.00    -0.246 OA
BRANCH  35  37
ATOM     37  C   UNL A   1      36.983  29.923  28.405  1.00  0.00     0.060 A 
ATOM     38  C   UNL A   1      37.037  29.056  29.510  1.00  0.00     0.016 A 
ATOM     39  C   UNL A   1      38.010  29.902  27.469  1.00  0.00     0.016 A 
ATOM     40  C   UNL A   1      38.249  28.440  29.850  1.00  0.00     0.010 A 
ATOM     41  C   UNL A   1      39.239  29.418  27.885  1.00  0.00     0.010 A 
ATOM     42  C   UNL A   1      39.388  28.763  29.120  1.00  0.00    -0.014 A 
BRANCH  42  43
ATOM     43  C   UNL A   1      40.763  28.665  29.636  1.00  0.00     0.031 A 
ATOM     44  C   UNL A   1      41.736  27.821  28.904  1.00  0.00     0.074 A 
ATOM     45  C   UNL A   1      41.208  29.499  30.619  1.00  0.00     0.049 A 
ATOM     46  N   UNL A   1      42.906  27.557  29.356  1.00  0.00    -0.248 NA
ATOM     47  C   UNL A   1      41.493  27.163  27.616  1.00  0.00     0.031 C 
ATOM     48  C   UNL A   1      42.588  29.829  30.992  1.00  0.00     0.029 A 
ATOM     49  N   UNL A   1      40.462  30.212  31.569  1.00  0.00    -0.354 N 
ATOM     50  C   UNL A   1      43.664  27.109  28.307  1.00  0.00     0.074 A 
ATOM     51  C   UNL A   1      42.713  26.711  27.309  1.00  0.00     0.031 C 
ATOM     52  C   UNL A   1      42.602  30.406  32.207  1.00  0.00     0.029 A 
ATOM     53  C   UNL A   1      41.247  30.381  32.721  1.00  0.00     0.049 A 
ATOM     54  H   UNL A   1      39.542  30.539  31.449  1.00  0.00     0.167 HD
ATOM     55  C   UNL A   1      45.013  27.283  28.379  1.00  0.00     0.037 A 
ATOM     56  C   UNL A   1      40.800  29.829  33.877  1.00  0.00     0.037 A 
ATOM     57  C   UNL A   1      45.417  27.638  29.759  1.00  0.00     0.049 A 
ATOM     58  C   UNL A   1      41.645  28.597  34.156  1.00  0.00     0.074 A 
ATOM     59  C   UNL A   1      46.046  28.691  30.396  1.00  0.00     0.029 A 
ATOM     60  N   UNL A   1      44.860  26.887  30.797  1.00  0.00    -0.354 N 
ATOM     61  N   UNL A   1      42.633  28.244  33.368  1.00  0.00    -0.248 NA
ATOM     62  C   UNL A   1      41.541  27.685  35.284  1.00  0.00     0.031 C 
ATOM     63  C   UNL A   1      45.764  28.590  31.813  1.00  0.00     0.029 A 
ATOM     64  C   UNL A   1      45.011  27.448  32.048  1.00  0.00     0.049 A 
ATOM     65  H   UNL A   1      44.397  26.031  30.648  1.00  0.00     0.167 HD
ATOM     66  C   UNL A   1      43.320  27.178  33.834  1.00  0.00     0.074 A 
ATOM     67  C   UNL A   1      42.538  26.811  35.016  1.00  0.00     0.031 C 
ATOM     68  C   UNL A   1      44.461  26.722  33.215  1.00  0.00     0.037 A 
BRANCH  55  69
ATOM     69  C   UNL A   1      45.910  27.220  27.153  1.00  0.00     0.058 A 
ATOM     70  C   UNL A   1      46.816  26.160  26.971  1.00  0.00     0.135 A 
ATOM     71  C   UNL A   1      45.968  28.219  26.145  1.00  0.00     0.135 A 
ATOM     72  F   UNL A   1      46.916  25.182  27.882  1.00  0.00    -0.206 F 
ATOM     73  C   UNL A   1      47.664  26.068  25.854  1.00  0.00     0.059 A 
ATOM     74  C   UNL A   1      46.760  28.120  24.997  1.00  0.00     0.059 A 
ATOM     75  F   UNL A   1      45.303  29.378  26.251  1.00  0.00    -0.206 F 
ATOM     76  C   UNL A   1      47.615  27.042  24.860  1.00  0.00     0.060 A 
BRANCH  76  77
ATOM     77  S   UNL A   1      48.683  26.903  23.410  1.00  0.00     0.124 S 
ATOM     78  O   UNL A   1      48.345  28.114  22.668  1.00  0.00    -0.237 OA
ATOM     79  O   UNL A   1      50.014  26.871  24.005  1.00  0.00    -0.237 OA
ATOM     80  O   UNL A   1      48.254  25.653  22.788  1.00  0.00    -0.744 OA
ENDBRANCH  76  77
ENDBRANCH  55  69
BRANCH  56  81
ATOM     81  C   UNL A   1      39.359  30.242  34.079  1.00  0.00     0.058 A 
ATOM     82  C   UNL A   1      39.163  31.590  34.496  1.00  0.00     0.135 A 
ATOM     83  C   UNL A   1      38.275  29.668  33.392  1.00  0.00     0.135 A 
ATOM     84  F   UNL A   1      40.146  32.227  35.154  1.00  0.00    -0.206 F 
ATOM     85  C   UNL A   1      38.050  32.356  34.132  1.00  0.00     0.059 A 
ATOM     86  C   UNL A   1      37.139  30.422  33.018  1.00  0.00     0.059 A 
ATOM     87  F   UNL A   1      38.356  28.403  32.953  1.00  0.00    -0.206 F 
ATOM     88  C   UNL A   1      37.061  31.777  33.348  1.00  0.00     0.060 A 
BRANCH  88  89
ATOM     89  S   UNL A   1      35.731  32.848  32.725  1.00  0.00     0.124 S 
ATOM     90  O   UNL A   1      35.099  32.000  31.719  1.00  0.00    -0.237 OA
ATOM     91  O   UNL A   1      34.942  33.077  33.935  1.00  0.00    -0.237 OA
ATOM     92  O   UNL A   1      36.453  34.002  32.200  1.00  0.00    -0.744 OA
ENDBRANCH  88  89
ENDBRANCH  56  81
BRANCH  68  93
ATOM     93  C   UNL A   1      45.143  25.446  33.640  1.00  0.00     0.058 A 
ATOM     94  C   UNL A   1      46.247  25.422  34.499  1.00  0.00     0.135 A 
ATOM     95  C   UNL A   1      44.703  24.182  33.176  1.00  0.00     0.135 A 
ATOM     96  F   UNL A   1      46.877  26.555  34.849  1.00  0.00    -0.206 F 
ATOM     97  C   UNL A   1      46.755  24.232  35.014  1.00  0.00     0.059 A 
ATOM     98  C   UNL A   1      45.240  22.985  33.618  1.00  0.00     0.059 A 
ATOM     99  F   UNL A   1      43.707  24.032  32.297  1.00  0.00    -0.206 F 
ATOM    100  C   UNL A   1      46.224  23.018  34.584  1.00  0.00     0.060 A 
BRANCH 100 101
ATOM    101  S   UNL A   1      46.833  21.480  35.276  1.00  0.00     0.124 S 
ATOM    102  O   UNL A   1      45.945  20.494  34.667  1.00  0.00    -0.237 OA
ATOM    103  O   UNL A   1      48.212  21.474  34.798  1.00  0.00    -0.237 OA
ATOM    104  O   UNL A   1      46.668  21.662  36.715  1.00  0.00    -0.744 OA
ENDBRANCH 100 101
ENDBRANCH  68  93
ENDBRANCH  42  43
ENDBRANCH  35  37
ENDBRANCH  34  35
ENDBRANCH  33  34
ENDBRANCH   1  33
TORSDOF 19
ENDMDL
MODEL 3
REMARK VINA RESULT:     -12.3      1.535      2.374
REMARK SMILES Cc1ccc([C@@]23C[C@@H]4C[C@@H](C[C@@](C(=O)N5CCC(C(=O)OCCOCCOC(=O)c6ccc(-c7c8nc(c(-c9c(F)cc(S(=O)(=O)[O-])cc9F)c9ccc([nH]9)c(-c9c(F)cc(S(=O)(=O)[O-])cc9F)c9nc(c(-c%10c(F)cc(S(=O)(=O)[O-])cc%10F)c%10ccc7[nH]%10)C=C9)C=C8)cc6)CC5)(C4)C2)C3)cc1
REMARK SMILES IDX 25 1 24 2 23 3 22 4 21 5 19 6 20 7 18 8 13 9 14 10 15 11
REMARK SMILES IDX 16 12 97 13 17 14 96 15 12 16 6 17 7 18 99 19 100 20 8 21
REMARK SMILES IDX 10 22 9 23 98 24 11 25 5 26 1 27 2 28 3 29 102 30 4 31
REMARK SMILES IDX 101 32 26 33 27 34 28 35 29 36 30 37 31 38 95 39 32 40 94 41
REMARK SMILES IDX 33 42 34 43 35 44 88 45 36 46 93 47 87 48 89 49 37 50 92 51
REMARK SMILES IDX 86 52 85 53 38 55 72 56 51 57 71 58 52 59 55 60 70 61 90 62
REMARK SMILES IDX 53 63 54 64 69 66 91 67 56 68 39 69 40 70 49 71 41 72 42 73
REMARK SMILES IDX 48 74 50 75 43 76 44 77 45 78 46 79 47 80 73 81 74 82 83 83
REMARK SMILES IDX 75 84 76 85 82 86 84 87 77 88 78 89 79 90 80 91 81 92 57 93
REMARK SMILES IDX 58 94 67 95 59 96 60 97 66 98 68 99 61 100 62 101 63 102
REMARK SMILES IDX 64 103 65 104
REMARK H PARENT 89 54 55 65
REMARK Flexibility Score: inf
ROOT
ATOM      1  C   UNL A   1      35.481  33.770  28.132  1.00  0.00     0.202 C 
ENDROOT
BRANCH   1   2
ATOM      2  O   UNL A   1      34.851  32.636  27.519  1.00  0.00    -0.374 OA
BRANCH   2   3
ATOM      3  C   UNL A   1      33.577  32.335  28.042  1.00  0.00     0.202 C 
BRANCH   3   4
ATOM      4  C   UNL A   1      32.934  31.309  27.143  1.00  0.00     0.261 C 
BRANCH   4   5
ATOM      5  O   UNL A   1      33.020  29.962  27.646  1.00  0.00    -0.463 OA
BRANCH   5   6
ATOM      6  C   UNL A   1      33.670  28.999  26.937  1.00  0.00     0.309 C 
ATOM      7  O   UNL A   1      34.866  28.749  26.958  1.00  0.00    -0.252 OA
BRANCH   6   8
ATOM      8  C   UNL A   1      32.713  28.239  26.083  1.00  0.00     0.103 C 
ATOM      9  C   UNL A   1      31.719  24.418  26.123  1.00  0.00     0.228 C 
ATOM     10  O   UNL A   1      31.225  24.132  27.215  1.00  0.00    -0.274 OA
ATOM     11  N   UNL A   1      31.608  25.703  25.567  1.00  0.00    -0.342 N 
ATOM     12  C   UNL A   1      30.747  26.675  26.216  1.00  0.00     0.120 C 
ATOM     13  C   UNL A   1      32.484  26.313  24.549  1.00  0.00     0.120 C 
ATOM     14  C   UNL A   1      31.620  27.648  26.975  1.00  0.00     0.037 C 
ATOM     15  C   UNL A   1      33.471  27.198  25.252  1.00  0.00     0.037 C 
BRANCH   9  16
ATOM     16  C   UNL A   1      32.338  23.325  25.239  1.00  0.00     0.051 C 
ATOM     17  C   UNL A   1      34.711  22.439  24.800  1.00  0.00    -0.003 C 
ATOM     18  C   UNL A   1      34.156  21.059  25.269  1.00  0.00     0.015 C 
ATOM     19  C   UNL A   1      33.847  23.529  25.416  1.00  0.00     0.028 C 
ATOM     20  C   UNL A   1      34.482  22.589  23.276  1.00  0.00     0.015 C 
ATOM     21  C   UNL A   1      32.681  20.864  24.866  1.00  0.00    -0.009 C 
ATOM     22  C   UNL A   1      32.971  22.453  22.940  1.00  0.00    -0.009 C 
ATOM     23  C   UNL A   1      32.524  21.038  23.348  1.00  0.00     0.007 C 
ATOM     24  C   UNL A   1      31.813  21.914  25.568  1.00  0.00     0.020 C 
ATOM     25  C   UNL A   1      32.115  23.502  23.713  1.00  0.00     0.020 C 
BRANCH  17  26
ATOM     26  C   UNL A   1      36.173  22.630  25.260  1.00  0.00    -0.042 A 
ATOM     27  C   UNL A   1      40.206  23.099  26.808  1.00  0.00     0.044 C 
ATOM     28  C   UNL A   1      38.822  22.918  26.268  1.00  0.00    -0.051 A 
ATOM     29  C   UNL A   1      37.940  23.990  26.306  1.00  0.00     0.004 A 
ATOM     30  C   UNL A   1      38.382  21.705  25.725  1.00  0.00     0.004 A 
ATOM     31  C   UNL A   1      36.651  23.850  25.797  1.00  0.00     0.004 A 
ATOM     32  C   UNL A   1      37.076  21.562  25.231  1.00  0.00     0.004 A 
ENDBRANCH  17  26
ENDBRANCH   9  16
ENDBRANCH   6   8
ENDBRANCH   5   6
ENDBRANCH   4   5
ENDBRANCH   3   4
ENDBRANCH   2   3
ENDBRANCH   1   2
BRANCH   1  33
ATOM     33  C   UNL A   1      35.945  33.762  29.628  1.00  0.00     0.261 C 
BRANCH  33  34
ATOM     34  O   UNL A   1      36.902  32.706  29.906  1.00  0.00    -0.460 OA
BRANCH  34  35
ATOM     35  C   UNL A   1      36.397  31.526  30.403  1.00  0.00     0.338 C 
ATOM     36  O   UNL A   1      35.572  31.428  31.272  1.00  0.00    -0.246 OA
BRANCH  35  37
ATOM     37  C   UNL A   1      37.223  30.382  29.871  1.00  0.00     0.060 A 
ATOM     38  C   UNL A   1      37.228  29.173  30.586  1.00  0.00     0.016 A 
ATOM     39  C   UNL A   1      38.270  30.666  29.002  1.00  0.00     0.016 A 
ATOM     40  C   UNL A   1      38.414  28.433  30.691  1.00  0.00     0.010 A 
ATOM     41  C   UNL A   1      39.475  30.021  29.226  1.00  0.00     0.010 A 
ATOM     42  C   UNL A   1      39.577  28.959  30.140  1.00  0.00    -0.014 A 
BRANCH  42  43
ATOM     43  C   UNL A   1      40.937  28.633  30.599  1.00  0.00     0.031 A 
ATOM     44  C   UNL A   1      41.733  27.656  29.820  1.00  0.00     0.074 A 
ATOM     45  C   UNL A   1      41.548  29.368  31.572  1.00  0.00     0.049 A 
ATOM     46  N   UNL A   1      42.862  27.200  30.223  1.00  0.00    -0.248 NA
ATOM     47  C   UNL A   1      41.338  27.067  28.537  1.00  0.00     0.031 C 
ATOM     48  C   UNL A   1      42.976  29.466  31.893  1.00  0.00     0.029 A 
ATOM     49  N   UNL A   1      40.964  30.176  32.559  1.00  0.00    -0.354 N 
ATOM     50  C   UNL A   1      43.497  26.653  29.140  1.00  0.00     0.074 A 
ATOM     51  C   UNL A   1      42.457  26.429  28.176  1.00  0.00     0.031 C 
ATOM     52  C   UNL A   1      43.129  30.013  33.112  1.00  0.00     0.029 A 
ATOM     53  C   UNL A   1      41.809  30.198  33.679  1.00  0.00     0.049 A 
ATOM     54  H   UNL A   1      40.104  30.648  32.479  1.00  0.00     0.167 HD
ATOM     55  C   UNL A   1      44.858  26.607  29.158  1.00  0.00     0.037 A 
ATOM     56  C   UNL A   1      41.323  29.706  34.847  1.00  0.00     0.037 A 
ATOM     57  C   UNL A   1      45.366  26.869  30.525  1.00  0.00     0.049 A 
ATOM     58  C   UNL A   1      41.968  28.350  35.079  1.00  0.00     0.074 A 
ATOM     59  C   UNL A   1      46.180  27.797  31.147  1.00  0.00     0.029 A 
ATOM     60  N   UNL A   1      44.735  26.201  31.577  1.00  0.00    -0.354 N 
ATOM     61  N   UNL A   1      42.856  27.856  34.249  1.00  0.00    -0.248 NA
ATOM     62  C   UNL A   1      41.761  27.448  36.201  1.00  0.00     0.031 C 
ATOM     63  C   UNL A   1      45.940  27.720  32.573  1.00  0.00     0.029 A 
ATOM     64  C   UNL A   1      45.022  26.710  32.827  1.00  0.00     0.049 A 
ATOM     65  H   UNL A   1      44.135  25.433  31.438  1.00  0.00     0.167 HD
ATOM     66  C   UNL A   1      43.379  26.686  34.676  1.00  0.00     0.074 A 
ATOM     67  C   UNL A   1      42.594  26.430  35.885  1.00  0.00     0.031 C 
ATOM     68  C   UNL A   1      44.407  26.063  34.007  1.00  0.00     0.037 A 
BRANCH  55  69
ATOM     69  C   UNL A   1      45.686  26.421  27.898  1.00  0.00     0.058 A 
ATOM     70  C   UNL A   1      45.809  27.455  26.952  1.00  0.00     0.135 A 
ATOM     71  C   UNL A   1      46.335  25.213  27.531  1.00  0.00     0.135 A 
ATOM     72  F   UNL A   1      45.189  28.629  27.138  1.00  0.00    -0.206 F 
ATOM     73  C   UNL A   1      46.561  27.321  25.772  1.00  0.00     0.059 A 
ATOM     74  C   UNL A   1      47.137  25.076  26.392  1.00  0.00     0.059 A 
ATOM     75  F   UNL A   1      46.176  24.079  28.226  1.00  0.00    -0.206 F 
ATOM     76  C   UNL A   1      47.240  26.135  25.510  1.00  0.00     0.060 A 
BRANCH  76  77
ATOM     77  S   UNL A   1      48.233  25.978  24.010  1.00  0.00     0.124 S 
ATOM     78  O   UNL A   1      49.592  25.985  24.543  1.00  0.00    -0.237 OA
ATOM     79  O   UNL A   1      47.770  24.707  23.461  1.00  0.00    -0.237 OA
ATOM     80  O   UNL A   1      47.865  27.158  23.230  1.00  0.00    -0.744 OA
ENDBRANCH  76  77
ENDBRANCH  55  69
BRANCH  56  81
ATOM     81  C   UNL A   1      39.976  30.342  35.111  1.00  0.00     0.058 A 
ATOM     82  C   UNL A   1      40.018  31.632  35.713  1.00  0.00     0.135 A 
ATOM     83  C   UNL A   1      38.821  30.075  34.355  1.00  0.00     0.135 A 
ATOM     84  F   UNL A   1      41.085  31.984  36.448  1.00  0.00    -0.206 F 
ATOM     85  C   UNL A   1      39.069  32.631  35.464  1.00  0.00     0.059 A 
ATOM     86  C   UNL A   1      37.848  31.066  34.095  1.00  0.00     0.059 A 
ATOM     87  F   UNL A   1      38.682  28.889  33.744  1.00  0.00    -0.206 F 
ATOM     88  C   UNL A   1      38.008  32.355  34.611  1.00  0.00     0.060 A 
BRANCH  88  89
ATOM     89  S   UNL A   1      36.906  33.725  34.150  1.00  0.00     0.124 S 
ATOM     90  O   UNL A   1      35.590  33.097  34.221  1.00  0.00    -0.237 OA
ATOM     91  O   UNL A   1      37.191  34.701  35.200  1.00  0.00    -0.237 OA
ATOM     92  O   UNL A   1      37.357  34.074  32.807  1.00  0.00    -0.744 OA
ENDBRANCH  88  89
ENDBRANCH  56  81
BRANCH  68  93
ATOM     93  C   UNL A   1      44.890  24.687  34.392  1.00  0.00     0.058 A 
ATOM     94  C   UNL A   1      46.088  24.465  35.080  1.00  0.00     0.135 A 
ATOM     95  C   UNL A   1      44.152  23.524  34.061  1.00  0.00     0.135 A 
ATOM     96  F   UNL A   1      46.968  25.459  35.276  1.00  0.00    -0.206 F 
ATOM     97  C   UNL A   1      46.432  23.209  35.575  1.00  0.00     0.059 A 
ATOM     98  C   UNL A   1      44.511  22.255  34.480  1.00  0.00     0.059 A 
ATOM     99  F   UNL A   1      43.022  23.554  33.346  1.00  0.00    -0.206 F 
ATOM    100  C   UNL A   1      45.620  22.114  35.289  1.00  0.00     0.060 A 
BRANCH 100 101
ATOM    101  S   UNL A   1      46.023  20.501  35.961  1.00  0.00     0.124 S 
ATOM    102  O   UNL A   1      45.689  20.663  37.373  1.00  0.00    -0.237 OA
ATOM    103  O   UNL A   1      45.133  19.637  35.192  1.00  0.00    -0.237 OA
ATOM    104  O   UNL A   1      47.446  20.355  35.671  1.00  0.00    -0.744 OA
ENDBRANCH 100 101
ENDBRANCH  68  93
ENDBRANCH  42  43
ENDBRANCH  35  37
ENDBRANCH  34  35
ENDBRANCH  33  34
ENDBRANCH   1  33
TORSDOF 19
ENDMDL
