MODEL 1
REMARK VINA RESULT:     -11.5      0.000      0.000
REMARK SMILES C[C@@H](C(=O)OCCOCCOC(=O)c1ccc(-c2c3nc(c(-c4c(F)cc(S(=O)(=O)[O-])cc4F)c4ccc([nH]4)c(-c4c(F)cc(S(=O)(=O)[O-])cc4F)c4nc(c(-c5c(F)cc(S(=O)(=O)[O-])cc5F)c5ccc2[nH]5)C=C4)C=C3)cc1)c1ccc2c3cc(Cl)ccc3n(C(=O)c3cocn3)c2c1
REMARK SMILES IDX 8 1 7 2 6 3 5 4 3 5 4 6 2 7 1 8 80 9 81 10 100 11 82 12
REMARK SMILES IDX 99 13 83 14 91 15 84 16 90 17 85 18 89 19 86 20 88 21 87 22
REMARK SMILES IDX 92 23 93 24 94 25 95 26 98 27 96 28 97 29 9 30 10 31 11 32
REMARK SMILES IDX 12 33 13 34 14 35 15 36 79 37 16 38 78 39 17 40 18 41 19 42
REMARK SMILES IDX 72 43 20 44 77 45 71 46 73 47 21 48 76 49 70 50 69 51 22 53
REMARK SMILES IDX 56 54 35 55 55 56 36 57 39 58 54 59 74 60 37 61 38 62 53 64
REMARK SMILES IDX 75 65 40 66 23 67 24 68 33 69 25 70 26 71 32 72 34 73 27 74
REMARK SMILES IDX 28 75 29 76 30 77 31 78 57 79 58 80 67 81 59 82 60 83 66 84
REMARK SMILES IDX 68 85 61 86 62 87 63 88 64 89 65 90 41 91 42 92 51 93 43 94
REMARK SMILES IDX 44 95 50 96 52 97 45 98 46 99 47 100 48 101 49 102
REMARK H PARENT 73 52 39 63
REMARK Flexibility Score: inf
ROOT
ATOM      1  O   UNL A   1      37.324  22.408  25.701  1.00  0.00    -0.374 OA
ENDROOT
BRANCH   1   2
ATOM      2  C   UNL A   1      36.490  21.766  24.733  1.00  0.00     0.202 C 
BRANCH   2   3
ATOM      3  C   UNL A   1      35.282  20.972  25.239  1.00  0.00     0.261 C 
BRANCH   3   4
ATOM      4  O   UNL A   1      34.208  20.993  24.276  1.00  0.00    -0.463 OA
BRANCH   4   5
ATOM      5  C   UNL A   1      33.063  21.613  24.676  1.00  0.00     0.313 C 
ATOM      6  O   UNL A   1      32.486  21.375  25.731  1.00  0.00    -0.252 OA
BRANCH   5   7
ATOM      7  C   UNL A   1      32.579  22.666  23.671  1.00  0.00     0.126 C 
ATOM      8  C   UNL A   1      33.088  22.521  22.237  1.00  0.00     0.025 C 
BRANCH   7   9
ATOM      9  C   UNL A   1      32.827  24.075  24.210  1.00  0.00    -0.032 A 
ATOM     10  C   UNL A   1      33.742  24.348  25.230  1.00  0.00     0.005 A 
ATOM     11  C   UNL A   1      32.044  25.123  23.712  1.00  0.00     0.032 A 
ATOM     12  C   UNL A   1      33.866  25.626  25.782  1.00  0.00     0.011 A 
ATOM     13  C   UNL A   1      32.157  26.411  24.272  1.00  0.00     0.058 A 
ATOM     14  C   UNL A   1      33.064  26.674  25.291  1.00  0.00     0.008 A 
ATOM     15  N   UNL A   1      31.480  27.598  23.965  1.00  0.00    -0.274 N 
ATOM     16  C   UNL A   1      32.924  28.041  25.649  1.00  0.00     0.009 A 
ATOM     17  C   UNL A   1      31.907  28.592  24.858  1.00  0.00     0.057 A 
ATOM     18  C   UNL A   1      33.559  28.830  26.634  1.00  0.00     0.031 A 
ATOM     19  C   UNL A   1      31.440  29.898  25.112  1.00  0.00     0.029 A 
ATOM     20  C   UNL A   1      33.117  30.129  26.856  1.00  0.00     0.041 A 
ATOM     21  C   UNL A   1      32.061  30.651  26.120  1.00  0.00     0.023 A 
ATOM     22  Cl  UNL A   1      33.867  31.080  28.081  1.00  0.00    -0.084 Cl
BRANCH  15  23
ATOM     23  C   UNL A   1      30.497  27.689  22.943  1.00  0.00     0.284 C 
ATOM     24  O   UNL A   1      30.926  27.777  21.794  1.00  0.00    -0.266 OA
BRANCH  23  25
ATOM     25  C   UNL A   1      29.055  27.759  23.156  1.00  0.00     0.167 A 
ATOM     26  C   UNL A   1      28.224  26.925  23.872  1.00  0.00     0.231 A 
ATOM     27  N   UNL A   1      28.318  28.868  22.754  1.00  0.00    -0.211 NA
ATOM     28  O   UNL A   1      26.985  27.498  23.935  1.00  0.00    -0.451 OA
ATOM     29  C   UNL A   1      27.127  28.670  23.260  1.00  0.00     0.308 A 
ENDBRANCH  23  25
ENDBRANCH  15  23
ENDBRANCH   7   9
ENDBRANCH   5   7
ENDBRANCH   4   5
ENDBRANCH   3   4
ENDBRANCH   2   3
ENDBRANCH   1   2
BRANCH   1  30
ATOM     30  C   UNL A   1      38.669  21.962  25.807  1.00  0.00     0.202 C 
BRANCH  30  31
ATOM     31  C   UNL A   1      39.689  22.882  26.495  1.00  0.00     0.261 C 
BRANCH  31  32
ATOM     32  O   UNL A   1      39.297  24.261  26.496  1.00  0.00    -0.460 OA
BRANCH  32  33
ATOM     33  C   UNL A   1      40.334  25.121  26.362  1.00  0.00     0.338 C 
ATOM     34  O   UNL A   1      40.979  25.351  25.345  1.00  0.00    -0.246 OA
BRANCH  33  35
ATOM     35  C   UNL A   1      40.480  25.925  27.585  1.00  0.00     0.060 A 
ATOM     36  C   UNL A   1      39.459  25.826  28.538  1.00  0.00     0.016 A 
ATOM     37  C   UNL A   1      41.552  26.800  27.769  1.00  0.00     0.016 A 
ATOM     38  C   UNL A   1      39.480  26.637  29.664  1.00  0.00     0.010 A 
ATOM     39  C   UNL A   1      41.562  27.628  28.895  1.00  0.00     0.010 A 
ATOM     40  C   UNL A   1      40.507  27.574  29.826  1.00  0.00    -0.014 A 
BRANCH  40  41
ATOM     41  C   UNL A   1      40.373  28.607  30.878  1.00  0.00     0.031 A 
ATOM     42  C   UNL A   1      41.274  28.534  32.079  1.00  0.00     0.074 A 
ATOM     43  C   UNL A   1      39.501  29.621  30.732  1.00  0.00     0.049 A 
ATOM     44  N   UNL A   1      41.325  29.316  33.125  1.00  0.00    -0.248 NA
ATOM     45  C   UNL A   1      42.248  27.431  32.104  1.00  0.00     0.031 C 
ATOM     46  C   UNL A   1      38.618  29.817  29.583  1.00  0.00     0.029 A 
ATOM     47  N   UNL A   1      39.217  30.678  31.558  1.00  0.00    -0.354 N 
ATOM     48  C   UNL A   1      42.326  28.795  33.937  1.00  0.00     0.074 A 
ATOM     49  C   UNL A   1      42.837  27.615  33.277  1.00  0.00     0.031 C 
ATOM     50  C   UNL A   1      37.886  30.926  29.780  1.00  0.00     0.029 A 
ATOM     51  C   UNL A   1      38.222  31.496  31.083  1.00  0.00     0.049 A 
ATOM     52  H   UNL A   1      39.683  30.835  32.412  1.00  0.00     0.167 HD
ATOM     53  C   UNL A   1      42.779  29.266  35.123  1.00  0.00     0.037 A 
ATOM     54  C   UNL A   1      37.636  32.569  31.649  1.00  0.00     0.037 A 
ATOM     55  C   UNL A   1      42.265  30.447  35.763  1.00  0.00     0.049 A 
ATOM     56  C   UNL A   1      38.110  33.033  33.002  1.00  0.00     0.074 A 
ATOM     57  C   UNL A   1      42.668  31.024  36.955  1.00  0.00     0.029 A 
ATOM     58  N   UNL A   1      41.229  31.228  35.272  1.00  0.00    -0.354 N 
ATOM     59  N   UNL A   1      39.071  32.544  33.752  1.00  0.00    -0.248 NA
ATOM     60  C   UNL A   1      37.426  34.193  33.585  1.00  0.00     0.031 C 
ATOM     61  C   UNL A   1      41.836  32.119  37.213  1.00  0.00     0.029 A 
ATOM     62  C   UNL A   1      40.958  32.264  36.150  1.00  0.00     0.049 A 
ATOM     63  H   UNL A   1      40.757  31.071  34.423  1.00  0.00     0.167 HD
ATOM     64  C   UNL A   1      39.126  33.357  34.879  1.00  0.00     0.074 A 
ATOM     65  C   UNL A   1      38.109  34.374  34.708  1.00  0.00     0.031 C 
ATOM     66  C   UNL A   1      39.945  33.273  35.958  1.00  0.00     0.037 A 
BRANCH  53  67
ATOM     67  C   UNL A   1      43.859  28.484  35.821  1.00  0.00     0.058 A 
ATOM     68  C   UNL A   1      43.569  27.399  36.663  1.00  0.00     0.135 A 
ATOM     69  C   UNL A   1      45.211  28.806  35.613  1.00  0.00     0.135 A 
ATOM     70  F   UNL A   1      42.294  27.059  36.914  1.00  0.00    -0.206 F 
ATOM     71  C   UNL A   1      44.578  26.674  37.290  1.00  0.00     0.059 A 
ATOM     72  C   UNL A   1      46.237  28.077  36.206  1.00  0.00     0.059 A 
ATOM     73  F   UNL A   1      45.546  29.838  34.823  1.00  0.00    -0.206 F 
ATOM     74  C   UNL A   1      45.909  27.020  37.054  1.00  0.00     0.060 A 
BRANCH  74  75
ATOM     75  S   UNL A   1      47.207  26.060  37.863  1.00  0.00     0.124 S 
ATOM     76  O   UNL A   1      48.260  27.061  38.010  1.00  0.00    -0.237 OA
ATOM     77  O   UNL A   1      46.558  25.637  39.099  1.00  0.00    -0.237 OA
ATOM     78  O   UNL A   1      47.488  24.993  36.908  1.00  0.00    -0.744 OA
ENDBRANCH  74  75
ENDBRANCH  53  67
BRANCH  54  79
ATOM     79  C   UNL A   1      36.528  33.271  30.946  1.00  0.00     0.058 A 
ATOM     80  C   UNL A   1      35.187  33.021  31.272  1.00  0.00     0.135 A 
ATOM     81  C   UNL A   1      36.789  34.206  29.932  1.00  0.00     0.135 A 
ATOM     82  F   UNL A   1      34.884  32.129  32.227  1.00  0.00    -0.206 F 
ATOM     83  C   UNL A   1      34.144  33.657  30.607  1.00  0.00     0.059 A 
ATOM     84  C   UNL A   1      35.764  34.877  29.272  1.00  0.00     0.059 A 
ATOM     85  F   UNL A   1      38.055  34.492  29.589  1.00  0.00    -0.206 F 
ATOM     86  C   UNL A   1      34.444  34.587  29.610  1.00  0.00     0.060 A 
BRANCH  86  87
ATOM     87  S   UNL A   1      33.083  35.438  28.782  1.00  0.00     0.124 S 
ATOM     88  O   UNL A   1      32.349  35.989  29.916  1.00  0.00    -0.237 OA
ATOM     89  O   UNL A   1      33.789  36.403  27.946  1.00  0.00    -0.237 OA
ATOM     90  O   UNL A   1      32.408  34.365  28.056  1.00  0.00    -0.744 OA
ENDBRANCH  86  87
ENDBRANCH  54  79
BRANCH  66  91
ATOM     91  C   UNL A   1      39.808  34.332  37.019  1.00  0.00     0.058 A 
ATOM     92  C   UNL A   1      38.970  34.162  38.132  1.00  0.00     0.135 A 
ATOM     93  C   UNL A   1      40.571  35.509  36.947  1.00  0.00     0.135 A 
ATOM     94  F   UNL A   1      38.215  33.059  38.247  1.00  0.00    -0.206 F 
ATOM     95  C   UNL A   1      38.874  35.134  39.123  1.00  0.00     0.059 A 
ATOM     96  C   UNL A   1      40.515  36.479  37.942  1.00  0.00     0.059 A 
ATOM     97  F   UNL A   1      41.399  35.717  35.910  1.00  0.00    -0.206 F 
ATOM     98  C   UNL A   1      39.654  36.288  39.021  1.00  0.00     0.060 A 
BRANCH  98  99
ATOM     99  S   UNL A   1      39.544  37.525  40.331  1.00  0.00     0.124 S 
ATOM    100  O   UNL A   1      38.817  36.794  41.364  1.00  0.00    -0.237 OA
ATOM    101  O   UNL A   1      40.948  37.801  40.617  1.00  0.00    -0.237 OA
ATOM    102  O   UNL A   1      38.810  38.621  39.705  1.00  0.00    -0.744 OA
ENDBRANCH  98  99
ENDBRANCH  66  91
ENDBRANCH  40  41
ENDBRANCH  33  35
ENDBRANCH  32  33
ENDBRANCH  31  32
ENDBRANCH  30  31
ENDBRANCH   1  30
TORSDOF 20
ENDMDL
MODEL 2
REMARK VINA RESULT:     -11.5      6.582     11.884
REMARK SMILES C[C@@H](C(=O)OCCOCCOC(=O)c1ccc(-c2c3nc(c(-c4c(F)cc(S(=O)(=O)[O-])cc4F)c4ccc([nH]4)c(-c4c(F)cc(S(=O)(=O)[O-])cc4F)c4nc(c(-c5c(F)cc(S(=O)(=O)[O-])cc5F)c5ccc2[nH]5)C=C4)C=C3)cc1)c1ccc2c3cc(Cl)ccc3n(C(=O)c3cocn3)c2c1
REMARK SMILES IDX 8 1 7 2 6 3 5 4 3 5 4 6 2 7 1 8 80 9 81 10 100 11 82 12
REMARK SMILES IDX 99 13 83 14 91 15 84 16 90 17 85 18 89 19 86 20 88 21 87 22
REMARK SMILES IDX 92 23 93 24 94 25 95 26 98 27 96 28 97 29 9 30 10 31 11 32
REMARK SMILES IDX 12 33 13 34 14 35 15 36 79 37 16 38 78 39 17 40 18 41 19 42
REMARK SMILES IDX 72 43 20 44 77 45 71 46 73 47 21 48 76 49 70 50 69 51 22 53
REMARK SMILES IDX 56 54 35 55 55 56 36 57 39 58 54 59 74 60 37 61 38 62 53 64
REMARK SMILES IDX 75 65 40 66 23 67 24 68 33 69 25 70 26 71 32 72 34 73 27 74
REMARK SMILES IDX 28 75 29 76 30 77 31 78 57 79 58 80 67 81 59 82 60 83 66 84
REMARK SMILES IDX 68 85 61 86 62 87 63 88 64 89 65 90 41 91 42 92 51 93 43 94
REMARK SMILES IDX 44 95 50 96 52 97 45 98 46 99 47 100 48 101 49 102
REMARK H PARENT 73 52 39 63
REMARK Flexibility Score: inf
ROOT
ATOM      1  O   UNL A   1      35.166  34.180  30.721  1.00  0.00    -0.374 OA
ENDROOT
BRANCH   1   2
ATOM      2  C   UNL A   1      34.110  34.214  29.758  1.00  0.00     0.202 C 
BRANCH   2   3
ATOM      3  C   UNL A   1      34.293  33.415  28.463  1.00  0.00     0.261 C 
BRANCH   3   4
ATOM      4  O   UNL A   1      33.613  32.146  28.536  1.00  0.00    -0.463 OA
BRANCH   4   5
ATOM      5  C   UNL A   1      33.851  31.284  27.510  1.00  0.00     0.313 C 
ATOM      6  O   UNL A   1      34.905  30.676  27.354  1.00  0.00    -0.252 OA
BRANCH   5   7
ATOM      7  C   UNL A   1      32.647  31.132  26.572  1.00  0.00     0.126 C 
ATOM      8  C   UNL A   1      31.413  31.969  26.911  1.00  0.00     0.025 C 
BRANCH   7   9
ATOM      9  C   UNL A   1      32.286  29.656  26.396  1.00  0.00    -0.032 A 
ATOM     10  C   UNL A   1      32.698  28.663  27.289  1.00  0.00     0.005 A 
ATOM     11  C   UNL A   1      31.581  29.278  25.248  1.00  0.00     0.032 A 
ATOM     12  C   UNL A   1      32.451  27.309  27.043  1.00  0.00     0.011 A 
ATOM     13  C   UNL A   1      31.340  27.914  24.991  1.00  0.00     0.058 A 
ATOM     14  C   UNL A   1      31.758  26.930  25.879  1.00  0.00     0.008 A 
ATOM     15  N   UNL A   1      30.685  27.294  23.919  1.00  0.00    -0.274 N 
ATOM     16  C   UNL A   1      31.388  25.673  25.333  1.00  0.00     0.009 A 
ATOM     17  C   UNL A   1      30.771  25.904  24.096  1.00  0.00     0.057 A 
ATOM     18  C   UNL A   1      31.591  24.350  25.784  1.00  0.00     0.031 A 
ATOM     19  C   UNL A   1      30.445  24.823  23.252  1.00  0.00     0.029 A 
ATOM     20  C   UNL A   1      31.236  23.286  24.962  1.00  0.00     0.041 A 
ATOM     21  C   UNL A   1      30.689  23.518  23.707  1.00  0.00     0.023 A 
ATOM     22  Cl  UNL A   1      31.514  21.674  25.497  1.00  0.00    -0.084 Cl
BRANCH  15  23
ATOM     23  C   UNL A   1      30.107  28.015  22.840  1.00  0.00     0.284 C 
ATOM     24  O   UNL A   1      30.714  27.958  21.773  1.00  0.00    -0.266 OA
BRANCH  23  25
ATOM     25  C   UNL A   1      28.916  28.856  22.922  1.00  0.00     0.167 A 
ATOM     26  C   UNL A   1      27.609  28.516  23.194  1.00  0.00     0.231 A 
ATOM     27  N   UNL A   1      29.008  30.242  22.890  1.00  0.00    -0.211 NA
ATOM     28  O   UNL A   1      26.884  29.664  23.342  1.00  0.00    -0.451 OA
ATOM     29  C   UNL A   1      27.797  30.657  23.167  1.00  0.00     0.308 A 
ENDBRANCH  23  25
ENDBRANCH  15  23
ENDBRANCH   7   9
ENDBRANCH   5   7
ENDBRANCH   4   5
ENDBRANCH   3   4
ENDBRANCH   2   3
ENDBRANCH   1   2
BRANCH   1  30
ATOM     30  C   UNL A   1      34.983  33.360  31.868  1.00  0.00     0.202 C 
BRANCH  30  31
ATOM     31  C   UNL A   1      35.593  31.951  31.859  1.00  0.00     0.261 C 
BRANCH  31  32
ATOM     32  O   UNL A   1      36.320  31.656  30.660  1.00  0.00    -0.460 OA
BRANCH  32  33
ATOM     33  C   UNL A   1      36.666  30.352  30.540  1.00  0.00     0.338 C 
ATOM     34  O   UNL A   1      35.917  29.382  30.569  1.00  0.00    -0.246 OA
BRANCH  33  35
ATOM     35  C   UNL A   1      38.083  30.241  30.163  1.00  0.00     0.060 A 
ATOM     36  C   UNL A   1      38.374  30.164  28.795  1.00  0.00     0.016 A 
ATOM     37  C   UNL A   1      39.096  30.150  31.118  1.00  0.00     0.016 A 
ATOM     38  C   UNL A   1      39.679  29.950  28.374  1.00  0.00     0.010 A 
ATOM     39  C   UNL A   1      40.407  29.917  30.693  1.00  0.00     0.010 A 
ATOM     40  C   UNL A   1      40.695  29.779  29.322  1.00  0.00    -0.014 A 
BRANCH  40  41
ATOM     41  C   UNL A   1      42.016  29.287  28.871  1.00  0.00     0.031 A 
ATOM     42  C   UNL A   1      43.173  30.246  28.846  1.00  0.00     0.074 A 
ATOM     43  C   UNL A   1      42.188  27.993  28.548  1.00  0.00     0.049 A 
ATOM     44  N   UNL A   1      44.411  30.043  28.477  1.00  0.00    -0.248 NA
ATOM     45  C   UNL A   1      42.898  31.621  29.296  1.00  0.00     0.031 C 
ATOM     46  C   UNL A   1      41.148  26.966  28.589  1.00  0.00     0.029 A 
ATOM     47  N   UNL A   1      43.305  27.322  28.120  1.00  0.00    -0.354 N 
ATOM     48  C   UNL A   1      45.058  31.262  28.640  1.00  0.00     0.074 A 
ATOM     49  C   UNL A   1      44.072  32.207  29.113  1.00  0.00     0.031 C 
ATOM     50  C   UNL A   1      41.676  25.794  28.197  1.00  0.00     0.029 A 
ATOM     51  C   UNL A   1      43.078  25.996  27.843  1.00  0.00     0.049 A 
ATOM     52  H   UNL A   1      44.187  27.751  28.022  1.00  0.00     0.167 HD
ATOM     53  C   UNL A   1      46.360  31.561  28.419  1.00  0.00     0.037 A 
ATOM     54  C   UNL A   1      43.907  25.060  27.339  1.00  0.00     0.037 A 
ATOM     55  C   UNL A   1      47.332  30.605  27.955  1.00  0.00     0.049 A 
ATOM     56  C   UNL A   1      45.335  25.435  27.035  1.00  0.00     0.074 A 
ATOM     57  C   UNL A   1      48.682  30.798  27.719  1.00  0.00     0.029 A 
ATOM     58  N   UNL A   1      47.057  29.281  27.646  1.00  0.00    -0.354 N 
ATOM     59  N   UNL A   1      45.941  26.587  27.211  1.00  0.00    -0.248 NA
ATOM     60  C   UNL A   1      46.191  24.386  26.468  1.00  0.00     0.031 C 
ATOM     61  C   UNL A   1      49.210  29.606  27.212  1.00  0.00     0.029 A 
ATOM     62  C   UNL A   1      48.204  28.653  27.193  1.00  0.00     0.049 A 
ATOM     63  H   UNL A   1      46.176  28.851  27.737  1.00  0.00     0.167 HD
ATOM     64  C   UNL A   1      47.257  26.389  26.806  1.00  0.00     0.074 A 
ATOM     65  C   UNL A   1      47.360  25.007  26.386  1.00  0.00     0.031 C 
ATOM     66  C   UNL A   1      48.289  27.271  26.786  1.00  0.00     0.037 A 
BRANCH  53  67
ATOM     67  C   UNL A   1      46.802  32.982  28.641  1.00  0.00     0.058 A 
ATOM     68  C   UNL A   1      47.255  33.436  29.890  1.00  0.00     0.135 A 
ATOM     69  C   UNL A   1      46.806  33.895  27.573  1.00  0.00     0.135 A 
ATOM     70  F   UNL A   1      47.253  32.612  30.951  1.00  0.00    -0.206 F 
ATOM     71  C   UNL A   1      47.676  34.749  30.078  1.00  0.00     0.059 A 
ATOM     72  C   UNL A   1      47.251  35.204  27.732  1.00  0.00     0.059 A 
ATOM     73  F   UNL A   1      46.377  33.517  26.359  1.00  0.00    -0.206 F 
ATOM     74  C   UNL A   1      47.672  35.625  28.992  1.00  0.00     0.060 A 
BRANCH  74  75
ATOM     75  S   UNL A   1      48.236  37.321  29.248  1.00  0.00     0.124 S 
ATOM     76  O   UNL A   1      47.324  38.065  28.384  1.00  0.00    -0.237 OA
ATOM     77  O   UNL A   1      48.038  37.501  30.682  1.00  0.00    -0.237 OA
ATOM     78  O   UNL A   1      49.627  37.288  28.809  1.00  0.00    -0.744 OA
ENDBRANCH  74  75
ENDBRANCH  53  67
BRANCH  54  79
ATOM     79  C   UNL A   1      43.406  23.684  27.078  1.00  0.00     0.058 A 
ATOM     80  C   UNL A   1      43.288  22.744  28.113  1.00  0.00     0.135 A 
ATOM     81  C   UNL A   1      43.036  23.279  25.785  1.00  0.00     0.135 A 
ATOM     82  F   UNL A   1      43.638  23.079  29.364  1.00  0.00    -0.206 F 
ATOM     83  C   UNL A   1      42.840  21.450  27.875  1.00  0.00     0.059 A 
ATOM     84  C   UNL A   1      42.557  21.999  25.527  1.00  0.00     0.059 A 
ATOM     85  F   UNL A   1      43.118  24.142  24.760  1.00  0.00    -0.206 F 
ATOM     86  C   UNL A   1      42.473  21.088  26.578  1.00  0.00     0.060 A 
BRANCH  86  87
ATOM     87  S   UNL A   1      41.853  19.416  26.289  1.00  0.00     0.124 S 
ATOM     88  O   UNL A   1      40.433  19.666  26.061  1.00  0.00    -0.237 OA
ATOM     89  O   UNL A   1      42.625  19.002  25.121  1.00  0.00    -0.237 OA
ATOM     90  O   UNL A   1      42.180  18.717  27.529  1.00  0.00    -0.744 OA
ENDBRANCH  86  87
ENDBRANCH  54  79
BRANCH  66  91
ATOM     91  C   UNL A   1      49.631  26.760  26.335  1.00  0.00     0.058 A 
ATOM     92  C   UNL A   1      50.065  26.886  25.007  1.00  0.00     0.135 A 
ATOM     93  C   UNL A   1      50.517  26.186  27.262  1.00  0.00     0.135 A 
ATOM     94  F   UNL A   1      49.256  27.422  24.079  1.00  0.00    -0.206 F 
ATOM     95  C   UNL A   1      51.320  26.438  24.607  1.00  0.00     0.059 A 
ATOM     96  C   UNL A   1      51.788  25.760  26.891  1.00  0.00     0.059 A 
ATOM     97  F   UNL A   1      50.158  26.052  28.549  1.00  0.00    -0.206 F 
ATOM     98  C   UNL A   1      52.177  25.879  25.558  1.00  0.00     0.060 A 
BRANCH  98  99
ATOM     99  S   UNL A   1      53.814  25.333  25.031  1.00  0.00     0.124 S 
ATOM    100  O   UNL A   1      54.607  25.583  26.231  1.00  0.00    -0.237 OA
ATOM    101  O   UNL A   1      53.585  23.929  24.704  1.00  0.00    -0.237 OA
ATOM    102  O   UNL A   1      54.112  26.196  23.892  1.00  0.00    -0.744 OA
ENDBRANCH  98  99
ENDBRANCH  66  91
ENDBRANCH  40  41
ENDBRANCH  33  35
ENDBRANCH  32  33
ENDBRANCH  31  32
ENDBRANCH  30  31
ENDBRANCH   1  30
TORSDOF 20
ENDMDL
MODEL 3
REMARK VINA RESULT:     -11.3      0.479      7.909
REMARK SMILES C[C@@H](C(=O)OCCOCCOC(=O)c1ccc(-c2c3nc(c(-c4c(F)cc(S(=O)(=O)[O-])cc4F)c4ccc([nH]4)c(-c4c(F)cc(S(=O)(=O)[O-])cc4F)c4nc(c(-c5c(F)cc(S(=O)(=O)[O-])cc5F)c5ccc2[nH]5)C=C4)C=C3)cc1)c1ccc2c3cc(Cl)ccc3n(C(=O)c3cocn3)c2c1
REMARK SMILES IDX 8 1 7 2 6 3 5 4 3 5 4 6 2 7 1 8 80 9 81 10 100 11 82 12
REMARK SMILES IDX 99 13 83 14 91 15 84 16 90 17 85 18 89 19 86 20 88 21 87 22
REMARK SMILES IDX 92 23 93 24 94 25 95 26 98 27 96 28 97 29 9 30 10 31 11 32
REMARK SMILES IDX 12 33 13 34 14 35 15 36 79 37 16 38 78 39 17 40 18 41 19 42
REMARK SMILES IDX 72 43 20 44 77 45 71 46 73 47 21 48 76 49 70 50 69 51 22 53
REMARK SMILES IDX 56 54 35 55 55 56 36 57 39 58 54 59 74 60 37 61 38 62 53 64
REMARK SMILES IDX 75 65 40 66 23 67 24 68 33 69 25 70 26 71 32 72 34 73 27 74
REMARK SMILES IDX 28 75 29 76 30 77 31 78 57 79 58 80 67 81 59 82 60 83 66 84
REMARK SMILES IDX 68 85 61 86 62 87 63 88 64 89 65 90 41 91 42 92 51 93 43 94
REMARK SMILES IDX 44 95 50 96 52 97 45 98 46 99 47 100 48 101 49 102
REMARK H PARENT 73 52 39 63
REMARK Flexibility Score: inf
ROOT
ATOM      1  O   UNL A   1      37.306  22.560  25.714  1.00  0.00    -0.374 OA
ENDROOT
BRANCH   1   2
ATOM      2  C   UNL A   1      36.525  21.986  24.664  1.00  0.00     0.202 C 
BRANCH   2   3
ATOM      3  C   UNL A   1      35.287  21.171  25.052  1.00  0.00     0.261 C 
BRANCH   3   4
ATOM      4  O   UNL A   1      34.252  21.293  24.056  1.00  0.00    -0.463 OA
BRANCH   4   5
ATOM      5  C   UNL A   1      33.122  21.944  24.448  1.00  0.00     0.313 C 
ATOM      6  O   UNL A   1      32.495  21.677  25.467  1.00  0.00    -0.252 OA
BRANCH   5   7
ATOM      7  C   UNL A   1      32.724  23.071  23.486  1.00  0.00     0.126 C 
ATOM      8  C   UNL A   1      33.288  22.985  22.068  1.00  0.00     0.025 C 
BRANCH   7   9
ATOM      9  C   UNL A   1      33.004  24.436  24.114  1.00  0.00    -0.032 A 
ATOM     10  C   UNL A   1      33.958  24.629  25.118  1.00  0.00     0.005 A 
ATOM     11  C   UNL A   1      32.214  25.523  23.721  1.00  0.00     0.032 A 
ATOM     12  C   UNL A   1      34.114  25.864  25.753  1.00  0.00     0.011 A 
ATOM     13  C   UNL A   1      32.360  26.766  24.367  1.00  0.00     0.058 A 
ATOM     14  C   UNL A   1      33.305  26.950  25.368  1.00  0.00     0.008 A 
ATOM     15  N   UNL A   1      31.684  27.977  24.169  1.00  0.00    -0.274 N 
ATOM     16  C   UNL A   1      33.192  28.289  25.827  1.00  0.00     0.009 A 
ATOM     17  C   UNL A   1      32.152  28.902  25.115  1.00  0.00     0.057 A 
ATOM     18  C   UNL A   1      33.868  29.000  26.842  1.00  0.00     0.031 A 
ATOM     19  C   UNL A   1      31.707  30.190  25.478  1.00  0.00     0.029 A 
ATOM     20  C   UNL A   1      33.447  30.284  27.172  1.00  0.00     0.041 A 
ATOM     21  C   UNL A   1      32.371  30.864  26.513  1.00  0.00     0.023 A 
ATOM     22  Cl  UNL A   1      34.249  31.139  28.433  1.00  0.00    -0.084 Cl
BRANCH  15  23
ATOM     23  C   UNL A   1      30.666  28.147  23.193  1.00  0.00     0.284 C 
ATOM     24  O   UNL A   1      31.007  28.715  22.157  1.00  0.00    -0.266 OA
BRANCH  23  25
ATOM     25  C   UNL A   1      29.263  27.775  23.355  1.00  0.00     0.167 A 
ATOM     26  C   UNL A   1      28.706  26.638  23.896  1.00  0.00     0.231 A 
ATOM     27  N   UNL A   1      28.241  28.683  23.102  1.00  0.00    -0.211 NA
ATOM     28  O   UNL A   1      27.355  26.822  23.996  1.00  0.00    -0.451 OA
ATOM     29  C   UNL A   1      27.157  28.080  23.520  1.00  0.00     0.308 A 
ENDBRANCH  23  25
ENDBRANCH  15  23
ENDBRANCH   7   9
ENDBRANCH   5   7
ENDBRANCH   4   5
ENDBRANCH   3   4
ENDBRANCH   2   3
ENDBRANCH   1   2
BRANCH   1  30
ATOM     30  C   UNL A   1      38.664  22.152  25.820  1.00  0.00     0.202 C 
BRANCH  30  31
ATOM     31  C   UNL A   1      39.645  23.074  26.559  1.00  0.00     0.261 C 
BRANCH  31  32
ATOM     32  O   UNL A   1      39.133  24.396  26.766  1.00  0.00    -0.460 OA
BRANCH  32  33
ATOM     33  C   UNL A   1      40.049  25.373  26.565  1.00  0.00     0.338 C 
ATOM     34  O   UNL A   1      40.518  25.738  25.493  1.00  0.00    -0.246 OA
BRANCH  33  35
ATOM     35  C   UNL A   1      40.286  26.106  27.817  1.00  0.00     0.060 A 
ATOM     36  C   UNL A   1      39.325  25.968  28.827  1.00  0.00     0.016 A 
ATOM     37  C   UNL A   1      41.381  26.955  27.980  1.00  0.00     0.016 A 
ATOM     38  C   UNL A   1      39.430  26.715  29.992  1.00  0.00     0.010 A 
ATOM     39  C   UNL A   1      41.476  27.720  29.147  1.00  0.00     0.010 A 
ATOM     40  C   UNL A   1      40.481  27.629  30.138  1.00  0.00    -0.014 A 
BRANCH  40  41
ATOM     41  C   UNL A   1      40.430  28.603  31.251  1.00  0.00     0.031 A 
ATOM     42  C   UNL A   1      39.422  29.717  31.189  1.00  0.00     0.074 A 
ATOM     43  C   UNL A   1      41.230  28.459  32.322  1.00  0.00     0.049 A 
ATOM     44  N   UNL A   1      39.207  30.689  32.037  1.00  0.00    -0.248 NA
ATOM     45  C   UNL A   1      38.538  29.740  30.012  1.00  0.00     0.031 C 
ATOM     46  C   UNL A   1      42.205  27.385  32.510  1.00  0.00     0.029 A 
ATOM     47  N   UNL A   1      41.348  29.221  33.456  1.00  0.00    -0.354 N 
ATOM     48  C   UNL A   1      38.174  31.442  31.492  1.00  0.00     0.074 A 
ATOM     49  C   UNL A   1      37.823  30.834  30.229  1.00  0.00     0.031 C 
ATOM     50  C   UNL A   1      42.826  27.560  33.688  1.00  0.00     0.029 A 
ATOM     51  C   UNL A   1      42.320  28.776  34.320  1.00  0.00     0.049 A 
ATOM     52  H   UNL A   1      40.789  30.012  33.634  1.00  0.00     0.167 HD
ATOM     53  C   UNL A   1      37.570  32.540  32.007  1.00  0.00     0.037 A 
ATOM     54  C   UNL A   1      42.761  29.307  35.477  1.00  0.00     0.037 A 
ATOM     55  C   UNL A   1      37.926  33.129  33.271  1.00  0.00     0.049 A 
ATOM     56  C   UNL A   1      42.121  30.569  35.994  1.00  0.00     0.074 A 
ATOM     57  C   UNL A   1      37.363  34.228  33.896  1.00  0.00     0.029 A 
ATOM     58  N   UNL A   1      38.941  32.675  34.100  1.00  0.00    -0.354 N 
ATOM     59  N   UNL A   1      41.131  31.263  35.481  1.00  0.00    -0.248 NA
ATOM     60  C   UNL A   1      42.652  31.119  37.248  1.00  0.00     0.031 C 
ATOM     61  C   UNL A   1      38.077  34.474  35.073  1.00  0.00     0.029 A 
ATOM     62  C   UNL A   1      39.042  33.490  35.215  1.00  0.00     0.049 A 
ATOM     63  H   UNL A   1      39.506  31.889  33.922  1.00  0.00     0.167 HD
ATOM     64  C   UNL A   1      40.902  32.311  36.366  1.00  0.00     0.074 A 
ATOM     65  C   UNL A   1      41.849  32.154  37.450  1.00  0.00     0.031 C 
ATOM     66  C   UNL A   1      39.989  33.312  36.290  1.00  0.00     0.037 A 
BRANCH  53  67
ATOM     67  C   UNL A   1      36.490  33.195  31.190  1.00  0.00     0.058 A 
ATOM     68  C   UNL A   1      35.135  33.129  31.553  1.00  0.00     0.135 A 
ATOM     69  C   UNL A   1      36.823  33.933  30.041  1.00  0.00     0.135 A 
ATOM     70  F   UNL A   1      34.757  32.420  32.629  1.00  0.00    -0.206 F 
ATOM     71  C   UNL A   1      34.148  33.753  30.797  1.00  0.00     0.059 A 
ATOM     72  C   UNL A   1      35.855  34.590  29.288  1.00  0.00     0.059 A 
ATOM     73  F   UNL A   1      38.102  34.024  29.644  1.00  0.00    -0.206 F 
ATOM     74  C   UNL A   1      34.519  34.483  29.666  1.00  0.00     0.060 A 
BRANCH  74  75
ATOM     75  S   UNL A   1      33.227  35.300  28.705  1.00  0.00     0.124 S 
ATOM     76  O   UNL A   1      32.416  35.901  29.759  1.00  0.00    -0.237 OA
ATOM     77  O   UNL A   1      33.992  36.233  27.884  1.00  0.00    -0.237 OA
ATOM     78  O   UNL A   1      32.596  34.203  27.979  1.00  0.00    -0.744 OA
ENDBRANCH  74  75
ENDBRANCH  53  67
BRANCH  54  79
ATOM     79  C   UNL A   1      43.876  28.656  36.217  1.00  0.00     0.058 A 
ATOM     80  C   UNL A   1      43.651  27.534  37.029  1.00  0.00     0.135 A 
ATOM     81  C   UNL A   1      45.188  29.145  36.130  1.00  0.00     0.135 A 
ATOM     82  F   UNL A   1      42.413  27.033  37.153  1.00  0.00    -0.206 F 
ATOM     83  C   UNL A   1      44.683  26.931  37.740  1.00  0.00     0.059 A 
ATOM     84  C   UNL A   1      46.242  28.541  36.809  1.00  0.00     0.059 A 
ATOM     85  F   UNL A   1      45.461  30.209  35.359  1.00  0.00    -0.206 F 
ATOM     86  C   UNL A   1      45.976  27.441  37.621  1.00  0.00     0.060 A 
BRANCH  86  87
ATOM     87  S   UNL A   1      47.315  26.624  38.517  1.00  0.00     0.124 S 
ATOM     88  O   UNL A   1      48.069  26.015  37.427  1.00  0.00    -0.237 OA
ATOM     89  O   UNL A   1      47.959  27.746  39.193  1.00  0.00    -0.237 OA
ATOM     90  O   UNL A   1      46.611  25.692  39.395  1.00  0.00    -0.744 OA
ENDBRANCH  86  87
ENDBRANCH  54  79
BRANCH  66  91
ATOM     91  C   UNL A   1      39.937  34.294  37.430  1.00  0.00     0.058 A 
ATOM     92  C   UNL A   1      40.679  35.485  37.417  1.00  0.00     0.135 A 
ATOM     93  C   UNL A   1      39.089  34.062  38.525  1.00  0.00     0.135 A 
ATOM     94  F   UNL A   1      41.509  35.753  36.397  1.00  0.00    -0.206 F 
ATOM     95  C   UNL A   1      40.601  36.400  38.462  1.00  0.00     0.059 A 
ATOM     96  C   UNL A   1      38.971  34.978  39.566  1.00  0.00     0.059 A 
ATOM     97  F   UNL A   1      38.347  32.944  38.583  1.00  0.00    -0.206 F 
ATOM     98  C   UNL A   1      39.741  36.139  39.531  1.00  0.00     0.060 A 
BRANCH  98  99
ATOM     99  S   UNL A   1      39.625  37.351  40.863  1.00  0.00     0.124 S 
ATOM    100  O   UNL A   1      38.593  38.249  40.355  1.00  0.00    -0.237 OA
ATOM    101  O   UNL A   1      39.241  36.526  42.004  1.00  0.00    -0.237 OA
ATOM    102  O   UNL A   1      40.970  37.915  40.930  1.00  0.00    -0.744 OA
ENDBRANCH  98  99
ENDBRANCH  66  91
ENDBRANCH  40  41
ENDBRANCH  33  35
ENDBRANCH  32  33
ENDBRANCH  31  32
ENDBRANCH  30  31
ENDBRANCH   1  30
TORSDOF 20
ENDMDL
