MODEL 1
REMARK VINA RESULT:     -11.1      0.000      0.000
REMARK SMILES CC1=C(C)C[C@@H](C(=O)OCCOCCOC(=O)c2ccc(-c3c4nc(c(-c5c(F)cc(S(=O)(=O)[O-])cc5F)c5ccc([nH]5)c(-c5c(F)cc(S(=O)(=O)[O-])cc5F)c5nc(c(-c6c(F)cc(S(=O)(=O)[O-])cc6F)c6ccc3[nH]6)C=C5)C=C4)cc2)[C@@H](C(=O)NCC[NH+]2CCOCC2)C1
REMARK SMILES IDX 11 1 10 2 9 3 7 4 8 5 6 6 1 7 2 8 3 9 96 10 4 11 5 12 84 13
REMARK SMILES IDX 85 14 86 15 87 16 88 18 89 19 90 20 91 21 95 22 92 24 94 25
REMARK SMILES IDX 93 26 12 27 13 28 14 29 15 30 16 31 17 32 18 33 19 34 83 35
REMARK SMILES IDX 20 36 82 37 21 38 22 39 23 40 76 41 24 42 81 43 75 44 77 45
REMARK SMILES IDX 25 46 80 47 74 48 73 49 26 51 60 52 39 53 59 54 40 55 43 56
REMARK SMILES IDX 58 57 78 58 41 59 42 60 57 62 79 63 44 64 27 65 28 66 37 67
REMARK SMILES IDX 29 68 30 69 36 70 38 71 31 72 32 73 33 74 34 75 35 76 61 77
REMARK SMILES IDX 62 78 71 79 63 80 64 81 70 82 72 83 65 84 66 85 67 86 68 87
REMARK SMILES IDX 69 88 45 89 46 90 55 91 47 92 48 93 54 94 56 95 49 96 50 97
REMARK SMILES IDX 51 98 52 99 53 100
REMARK H PARENT 87 17 90 23 77 50 43 61
REMARK Flexibility Score: inf
ROOT
ATOM      1  C   UNL A   1      37.923  23.023  25.766  1.00  0.00     0.202 C 
ENDROOT
BRANCH   1   2
ATOM      2  C   UNL A   1      36.545  23.472  26.258  1.00  0.00     0.261 C 
BRANCH   2   3
ATOM      3  O   UNL A   1      35.811  24.170  25.226  1.00  0.00    -0.463 OA
BRANCH   3   4
ATOM      4  C   UNL A   1      34.905  23.448  24.531  1.00  0.00     0.310 C 
ATOM      5  O   UNL A   1      35.126  22.347  24.040  1.00  0.00    -0.252 OA
BRANCH   4   6
ATOM      6  C   UNL A   1      33.587  24.178  24.305  1.00  0.00     0.116 C 
ATOM      7  C   UNL A   1      31.516  27.190  26.853  1.00  0.00     0.039 C 
ATOM      8  C   UNL A   1      32.152  26.284  25.832  1.00  0.00    -0.074 C 
ATOM      9  C   UNL A   1      33.270  26.605  25.152  1.00  0.00    -0.073 C 
ATOM     10  C   UNL A   1      31.452  24.970  25.603  1.00  0.00     0.045 C 
ATOM     11  C   UNL A   1      33.994  27.920  25.281  1.00  0.00     0.039 C 
ATOM     12  C   UNL A   1      33.871  25.676  24.130  1.00  0.00     0.046 C 
ATOM     13  C   UNL A   1      32.335  23.808  25.125  1.00  0.00     0.097 C 
BRANCH  13  14
ATOM     14  C   UNL A   1      32.431  22.723  26.193  1.00  0.00     0.224 C 
ATOM     15  O   UNL A   1      32.595  23.055  27.372  1.00  0.00    -0.275 OA
ATOM     16  N   UNL A   1      32.365  21.400  25.916  1.00  0.00    -0.350 N 
ATOM     17  H   UNL A   1      32.334  20.814  26.706  1.00  0.00     0.163 HD
BRANCH  16  18
ATOM     18  C   UNL A   1      32.332  20.706  24.641  1.00  0.00     0.177 C 
BRANCH  18  19
ATOM     19  C   UNL A   1      33.221  19.448  24.663  1.00  0.00     0.283 C 
BRANCH  19  20
ATOM     20  N   UNL A   1      32.408  18.253  24.421  1.00  0.00    -0.330 N 
ATOM     21  C   UNL A   1      32.547  17.223  25.469  1.00  0.00     0.291 C 
ATOM     22  C   UNL A   1      32.737  17.636  23.116  1.00  0.00     0.291 C 
ATOM     23  H   UNL A   1      31.443  18.585  24.430  1.00  0.00     0.348 HD
ATOM     24  C   UNL A   1      33.826  16.378  25.394  1.00  0.00     0.221 C 
ATOM     25  C   UNL A   1      34.037  16.821  23.089  1.00  0.00     0.221 C 
ATOM     26  O   UNL A   1      34.020  15.811  24.098  1.00  0.00    -0.370 OA
ENDBRANCH  19  20
ENDBRANCH  18  19
ENDBRANCH  16  18
ENDBRANCH  13  14
ENDBRANCH   4   6
ENDBRANCH   3   4
ENDBRANCH   2   3
ENDBRANCH   1   2
BRANCH   1  27
ATOM     27  O   UNL A   1      38.917  22.905  26.787  1.00  0.00    -0.374 OA
BRANCH  27  28
ATOM     28  C   UNL A   1      40.029  22.069  26.463  1.00  0.00     0.202 C 
BRANCH  28  29
ATOM     29  C   UNL A   1      41.362  22.802  26.246  1.00  0.00     0.261 C 
BRANCH  29  30
ATOM     30  O   UNL A   1      41.199  24.231  26.141  1.00  0.00    -0.460 OA
BRANCH  30  31
ATOM     31  C   UNL A   1      42.337  24.945  26.349  1.00  0.00     0.338 C 
ATOM     32  O   UNL A   1      43.318  24.985  25.630  1.00  0.00    -0.246 OA
BRANCH  31  33
ATOM     33  C   UNL A   1      42.171  25.835  27.520  1.00  0.00     0.060 A 
ATOM     34  C   UNL A   1      41.025  25.679  28.313  1.00  0.00     0.016 A 
ATOM     35  C   UNL A   1      43.086  26.836  27.824  1.00  0.00     0.016 A 
ATOM     36  C   UNL A   1      40.768  26.548  29.383  1.00  0.00     0.010 A 
ATOM     37  C   UNL A   1      42.825  27.691  28.902  1.00  0.00     0.010 A 
ATOM     38  C   UNL A   1      41.655  27.585  29.690  1.00  0.00    -0.014 A 
BRANCH  38  39
ATOM     39  C   UNL A   1      41.368  28.598  30.767  1.00  0.00     0.031 A 
ATOM     40  C   UNL A   1      42.105  28.504  32.088  1.00  0.00     0.074 A 
ATOM     41  C   UNL A   1      40.421  29.557  30.641  1.00  0.00     0.049 A 
ATOM     42  N   UNL A   1      41.952  29.209  33.182  1.00  0.00    -0.248 NA
ATOM     43  C   UNL A   1      43.133  27.457  32.197  1.00  0.00     0.031 C 
ATOM     44  C   UNL A   1      39.594  29.804  29.458  1.00  0.00     0.029 A 
ATOM     45  N   UNL A   1      39.954  30.481  31.554  1.00  0.00    -0.354 N 
ATOM     46  C   UNL A   1      42.862  28.690  34.097  1.00  0.00     0.074 A 
ATOM     47  C   UNL A   1      43.458  27.527  33.478  1.00  0.00     0.031 C 
ATOM     48  C   UNL A   1      38.692  30.764  29.734  1.00  0.00     0.029 A 
ATOM     49  C   UNL A   1      38.882  31.221  31.108  1.00  0.00     0.049 A 
ATOM     50  H   UNL A   1      40.352  30.599  32.447  1.00  0.00     0.167 HD
ATOM     51  C   UNL A   1      43.241  29.167  35.309  1.00  0.00     0.037 A 
ATOM     52  C   UNL A   1      38.134  32.165  31.719  1.00  0.00     0.037 A 
ATOM     53  C   UNL A   1      42.689  30.342  35.928  1.00  0.00     0.049 A 
ATOM     54  C   UNL A   1      38.499  32.639  33.102  1.00  0.00     0.074 A 
ATOM     55  C   UNL A   1      43.080  30.961  37.102  1.00  0.00     0.029 A 
ATOM     56  N   UNL A   1      41.619  31.069  35.431  1.00  0.00    -0.354 N 
ATOM     57  N   UNL A   1      39.456  32.221  33.893  1.00  0.00    -0.248 NA
ATOM     58  C   UNL A   1      37.710  33.753  33.656  1.00  0.00     0.031 C 
ATOM     59  C   UNL A   1      42.212  32.030  37.344  1.00  0.00     0.029 A 
ATOM     60  C   UNL A   1      41.317  32.114  36.290  1.00  0.00     0.049 A 
ATOM     61  H   UNL A   1      41.143  30.873  34.591  1.00  0.00     0.167 HD
ATOM     62  C   UNL A   1      39.432  33.064  35.002  1.00  0.00     0.074 A 
ATOM     63  C   UNL A   1      38.351  34.002  34.791  1.00  0.00     0.031 C 
ATOM     64  C   UNL A   1      40.255  33.069  36.080  1.00  0.00     0.037 A 
BRANCH  51  65
ATOM     65  C   UNL A   1      44.341  28.421  36.018  1.00  0.00     0.058 A 
ATOM     66  C   UNL A   1      45.696  28.721  35.786  1.00  0.00     0.135 A 
ATOM     67  C   UNL A   1      44.049  27.373  36.903  1.00  0.00     0.135 A 
ATOM     68  F   UNL A   1      46.036  29.713  34.947  1.00  0.00    -0.206 F 
ATOM     69  C   UNL A   1      46.716  27.952  36.333  1.00  0.00     0.059 A 
ATOM     70  C   UNL A   1      45.056  26.619  37.498  1.00  0.00     0.059 A 
ATOM     71  F   UNL A   1      42.774  27.054  37.180  1.00  0.00    -0.206 F 
ATOM     72  C   UNL A   1      46.385  26.893  37.177  1.00  0.00     0.060 A 
BRANCH  72  73
ATOM     73  S   UNL A   1      47.717  25.860  37.821  1.00  0.00     0.124 S 
ATOM     74  O   UNL A   1      47.883  26.409  39.164  1.00  0.00    -0.237 OA
ATOM     75  O   UNL A   1      47.137  24.523  37.752  1.00  0.00    -0.237 OA
ATOM     76  O   UNL A   1      48.819  26.113  36.898  1.00  0.00    -0.744 OA
ENDBRANCH  72  73
ENDBRANCH  51  65
BRANCH  52  77
ATOM     77  C   UNL A   1      37.010  32.812  30.985  1.00  0.00     0.058 A 
ATOM     78  C   UNL A   1      35.687  32.395  31.197  1.00  0.00     0.135 A 
ATOM     79  C   UNL A   1      37.227  33.852  30.067  1.00  0.00     0.135 A 
ATOM     80  F   UNL A   1      35.432  31.394  32.053  1.00  0.00    -0.206 F 
ATOM     81  C   UNL A   1      34.620  32.981  30.526  1.00  0.00     0.059 A 
ATOM     82  C   UNL A   1      36.172  34.465  29.394  1.00  0.00     0.059 A 
ATOM     83  F   UNL A   1      38.472  34.296  29.834  1.00  0.00    -0.206 F 
ATOM     84  C   UNL A   1      34.871  34.022  29.632  1.00  0.00     0.060 A 
BRANCH  84  85
ATOM     85  S   UNL A   1      33.463  34.825  28.833  1.00  0.00     0.124 S 
ATOM     86  O   UNL A   1      32.563  35.041  29.959  1.00  0.00    -0.237 OA
ATOM     87  O   UNL A   1      34.080  36.021  28.269  1.00  0.00    -0.237 OA
ATOM     88  O   UNL A   1      33.022  33.836  27.853  1.00  0.00    -0.744 OA
ENDBRANCH  84  85
ENDBRANCH  52  77
BRANCH  64  89
ATOM     89  C   UNL A   1      40.087  34.164  37.100  1.00  0.00     0.058 A 
ATOM     90  C   UNL A   1      40.740  35.400  36.988  1.00  0.00     0.135 A 
ATOM     91  C   UNL A   1      39.195  33.994  38.174  1.00  0.00     0.135 A 
ATOM     92  F   UNL A   1      41.610  35.618  35.989  1.00  0.00    -0.206 F 
ATOM     93  C   UNL A   1      40.526  36.424  37.909  1.00  0.00     0.059 A 
ATOM     94  C   UNL A   1      38.942  35.013  39.088  1.00  0.00     0.059 A 
ATOM     95  F   UNL A   1      38.536  32.834  38.329  1.00  0.00    -0.206 F 
ATOM     96  C   UNL A   1      39.619  36.223  38.952  1.00  0.00     0.060 A 
BRANCH  96  97
ATOM     97  S   UNL A   1      39.310  37.577  40.106  1.00  0.00     0.124 S 
ATOM     98  O   UNL A   1      38.884  36.855  41.301  1.00  0.00    -0.237 OA
ATOM     99  O   UNL A   1      40.617  38.220  40.188  1.00  0.00    -0.237 OA
ATOM    100  O   UNL A   1      38.272  38.361  39.443  1.00  0.00    -0.744 OA
ENDBRANCH  96  97
ENDBRANCH  64  89
ENDBRANCH  38  39
ENDBRANCH  31  33
ENDBRANCH  30  31
ENDBRANCH  29  30
ENDBRANCH  28  29
ENDBRANCH  27  28
ENDBRANCH   1  27
TORSDOF 21
ENDMDL
MODEL 2
REMARK VINA RESULT:     -10.9      6.542     12.141
REMARK SMILES CC1=C(C)C[C@@H](C(=O)OCCOCCOC(=O)c2ccc(-c3c4nc(c(-c5c(F)cc(S(=O)(=O)[O-])cc5F)c5ccc([nH]5)c(-c5c(F)cc(S(=O)(=O)[O-])cc5F)c5nc(c(-c6c(F)cc(S(=O)(=O)[O-])cc6F)c6ccc3[nH]6)C=C5)C=C4)cc2)[C@@H](C(=O)NCC[NH+]2CCOCC2)C1
REMARK SMILES IDX 11 1 10 2 9 3 7 4 8 5 6 6 1 7 2 8 3 9 96 10 4 11 5 12 84 13
REMARK SMILES IDX 85 14 86 15 87 16 88 18 89 19 90 20 91 21 95 22 92 24 94 25
REMARK SMILES IDX 93 26 12 27 13 28 14 29 15 30 16 31 17 32 18 33 19 34 83 35
REMARK SMILES IDX 20 36 82 37 21 38 22 39 23 40 76 41 24 42 81 43 75 44 77 45
REMARK SMILES IDX 25 46 80 47 74 48 73 49 26 51 60 52 39 53 59 54 40 55 43 56
REMARK SMILES IDX 58 57 78 58 41 59 42 60 57 62 79 63 44 64 27 65 28 66 37 67
REMARK SMILES IDX 29 68 30 69 36 70 38 71 31 72 32 73 33 74 34 75 35 76 61 77
REMARK SMILES IDX 62 78 71 79 63 80 64 81 70 82 72 83 65 84 66 85 67 86 68 87
REMARK SMILES IDX 69 88 45 89 46 90 55 91 47 92 48 93 54 94 56 95 49 96 50 97
REMARK SMILES IDX 51 98 52 99 53 100
REMARK H PARENT 87 17 90 23 77 50 43 61
REMARK Flexibility Score: inf
ROOT
ATOM      1  C   UNL A   1      32.829  30.534  26.990  1.00  0.00     0.202 C 
ENDROOT
BRANCH   1   2
ATOM      2  C   UNL A   1      31.992  29.254  27.015  1.00  0.00     0.261 C 
BRANCH   2   3
ATOM      3  O   UNL A   1      31.858  28.677  25.697  1.00  0.00    -0.463 OA
BRANCH   3   4
ATOM      4  C   UNL A   1      32.446  27.477  25.495  1.00  0.00     0.310 C 
ATOM      5  O   UNL A   1      33.652  27.314  25.344  1.00  0.00    -0.252 OA
BRANCH   4   6
ATOM      6  C   UNL A   1      31.456  26.328  25.356  1.00  0.00     0.116 C 
ATOM      7  C   UNL A   1      32.108  22.148  23.955  1.00  0.00     0.039 C 
ATOM      8  C   UNL A   1      31.759  23.481  24.565  1.00  0.00    -0.074 C 
ATOM      9  C   UNL A   1      32.214  23.886  25.767  1.00  0.00    -0.073 C 
ATOM     10  C   UNL A   1      30.846  24.353  23.743  1.00  0.00     0.045 C 
ATOM     11  C   UNL A   1      33.080  23.050  26.672  1.00  0.00     0.039 C 
ATOM     12  C   UNL A   1      31.833  25.221  26.350  1.00  0.00     0.046 C 
ATOM     13  C   UNL A   1      30.981  25.867  23.962  1.00  0.00     0.097 C 
BRANCH  13  14
ATOM     14  C   UNL A   1      31.537  26.550  22.716  1.00  0.00     0.224 C 
ATOM     15  O   UNL A   1      32.577  26.117  22.209  1.00  0.00    -0.275 OA
ATOM     16  N   UNL A   1      30.957  27.627  22.139  1.00  0.00    -0.350 N 
ATOM     17  H   UNL A   1      31.357  27.903  21.283  1.00  0.00     0.163 HD
BRANCH  16  18
ATOM     18  C   UNL A   1      29.839  28.442  22.578  1.00  0.00     0.177 C 
BRANCH  18  19
ATOM     19  C   UNL A   1      29.683  29.701  21.703  1.00  0.00     0.283 C 
BRANCH  19  20
ATOM     20  N   UNL A   1      28.269  30.068  21.598  1.00  0.00    -0.330 N 
ATOM     21  C   UNL A   1      28.038  31.318  20.846  1.00  0.00     0.291 C 
ATOM     22  C   UNL A   1      27.651  30.211  22.936  1.00  0.00     0.291 C 
ATOM     23  H   UNL A   1      27.835  29.303  21.081  1.00  0.00     0.348 HD
ATOM     24  C   UNL A   1      28.325  32.612  21.618  1.00  0.00     0.221 C 
ATOM     25  C   UNL A   1      27.988  31.513  23.675  1.00  0.00     0.221 C 
ATOM     26  O   UNL A   1      27.651  32.648  22.876  1.00  0.00    -0.370 OA
ENDBRANCH  19  20
ENDBRANCH  18  19
ENDBRANCH  16  18
ENDBRANCH  13  14
ENDBRANCH   4   6
ENDBRANCH   3   4
ENDBRANCH   2   3
ENDBRANCH   1   2
BRANCH   1  27
ATOM     27  O   UNL A   1      34.036  30.479  27.754  1.00  0.00    -0.374 OA
BRANCH  27  28
ATOM     28  C   UNL A   1      34.733  31.718  27.885  1.00  0.00     0.202 C 
BRANCH  28  29
ATOM     29  C   UNL A   1      34.902  32.232  29.323  1.00  0.00     0.261 C 
BRANCH  29  30
ATOM     30  O   UNL A   1      36.280  32.245  29.750  1.00  0.00    -0.460 OA
BRANCH  30  31
ATOM     31  C   UNL A   1      36.650  31.168  30.493  1.00  0.00     0.338 C 
ATOM     32  O   UNL A   1      35.983  30.592  31.331  1.00  0.00    -0.246 OA
BRANCH  31  33
ATOM     33  C   UNL A   1      37.958  30.655  30.024  1.00  0.00     0.060 A 
ATOM     34  C   UNL A   1      38.948  30.394  30.982  1.00  0.00     0.016 A 
ATOM     35  C   UNL A   1      38.240  30.471  28.676  1.00  0.00     0.016 A 
ATOM     36  C   UNL A   1      40.234  29.991  30.595  1.00  0.00     0.010 A 
ATOM     37  C   UNL A   1      39.524  30.056  28.301  1.00  0.00     0.010 A 
ATOM     38  C   UNL A   1      40.555  29.830  29.243  1.00  0.00    -0.014 A 
BRANCH  38  39
ATOM     39  C   UNL A   1      41.949  29.493  28.780  1.00  0.00     0.031 A 
ATOM     40  C   UNL A   1      42.276  28.065  28.395  1.00  0.00     0.074 A 
ATOM     41  C   UNL A   1      42.955  30.399  28.760  1.00  0.00     0.049 A 
ATOM     42  N   UNL A   1      43.427  27.534  28.057  1.00  0.00    -0.248 NA
ATOM     43  C   UNL A   1      41.164  27.102  28.420  1.00  0.00     0.031 C 
ATOM     44  C   UNL A   1      42.848  31.818  29.107  1.00  0.00     0.029 A 
ATOM     45  N   UNL A   1      44.297  30.240  28.479  1.00  0.00    -0.354 N 
ATOM     46  C   UNL A   1      43.168  26.186  27.832  1.00  0.00     0.074 A 
ATOM     47  C   UNL A   1      41.790  25.957  28.206  1.00  0.00     0.031 C 
ATOM     48  C   UNL A   1      44.070  32.380  29.074  1.00  0.00     0.029 A 
ATOM     49  C   UNL A   1      45.054  31.372  28.686  1.00  0.00     0.049 A 
ATOM     50  H   UNL A   1      44.680  29.391  28.160  1.00  0.00     0.167 HD
ATOM     51  C   UNL A   1      43.963  25.231  27.288  1.00  0.00     0.037 A 
ATOM     52  C   UNL A   1      46.381  31.591  28.573  1.00  0.00     0.037 A 
ATOM     53  C   UNL A   1      45.323  25.445  26.874  1.00  0.00     0.049 A 
ATOM     54  C   UNL A   1      47.283  30.503  28.050  1.00  0.00     0.074 A 
ATOM     55  C   UNL A   1      46.171  24.569  26.219  1.00  0.00     0.029 A 
ATOM     56  N   UNL A   1      46.040  26.612  27.085  1.00  0.00    -0.354 N 
ATOM     57  N   UNL A   1      46.985  29.273  27.713  1.00  0.00    -0.248 NA
ATOM     58  C   UNL A   1      48.699  30.852  27.842  1.00  0.00     0.031 C 
ATOM     59  C   UNL A   1      47.419  25.187  26.083  1.00  0.00     0.029 A 
ATOM     60  C   UNL A   1      47.331  26.469  26.600  1.00  0.00     0.049 A 
ATOM     61  H   UNL A   1      45.686  27.422  27.518  1.00  0.00     0.167 HD
ATOM     62  C   UNL A   1      48.154  28.726  27.188  1.00  0.00     0.074 A 
ATOM     63  C   UNL A   1      49.170  29.751  27.272  1.00  0.00     0.031 C 
ATOM     64  C   UNL A   1      48.348  27.492  26.659  1.00  0.00     0.037 A 
BRANCH  51  65
ATOM     65  C   UNL A   1      43.345  23.872  27.078  1.00  0.00     0.058 A 
ATOM     66  C   UNL A   1      42.789  23.504  25.840  1.00  0.00     0.135 A 
ATOM     67  C   UNL A   1      43.267  22.945  28.128  1.00  0.00     0.135 A 
ATOM     68  F   UNL A   1      42.833  24.352  24.799  1.00  0.00    -0.206 F 
ATOM     69  C   UNL A   1      42.101  22.308  25.676  1.00  0.00     0.059 A 
ATOM     70  C   UNL A   1      42.621  21.722  27.973  1.00  0.00     0.059 A 
ATOM     71  F   UNL A   1      43.797  23.232  29.328  1.00  0.00    -0.206 F 
ATOM     72  C   UNL A   1      42.010  21.430  26.755  1.00  0.00     0.060 A 
BRANCH  72  73
ATOM     73  S   UNL A   1      41.052  19.914  26.549  1.00  0.00     0.124 S 
ATOM     74  O   UNL A   1      40.986  19.426  27.924  1.00  0.00    -0.237 OA
ATOM     75  O   UNL A   1      39.797  20.410  25.994  1.00  0.00    -0.237 OA
ATOM     76  O   UNL A   1      41.868  19.118  25.638  1.00  0.00    -0.744 OA
ENDBRANCH  72  73
ENDBRANCH  51  65
BRANCH  52  77
ATOM     77  C   UNL A   1      46.939  32.941  28.867  1.00  0.00     0.058 A 
ATOM     78  C   UNL A   1      47.007  33.918  27.862  1.00  0.00     0.135 A 
ATOM     79  C   UNL A   1      47.410  33.284  30.144  1.00  0.00     0.135 A 
ATOM     80  F   UNL A   1      46.583  33.631  26.622  1.00  0.00    -0.206 F 
ATOM     81  C   UNL A   1      47.522  35.186  28.109  1.00  0.00     0.059 A 
ATOM     82  C   UNL A   1      47.918  34.553  30.420  1.00  0.00     0.059 A 
ATOM     83  F   UNL A   1      47.361  32.390  31.144  1.00  0.00    -0.206 F 
ATOM     84  C   UNL A   1      47.968  35.498  29.394  1.00  0.00     0.060 A 
BRANCH  84  85
ATOM     85  S   UNL A   1      48.557  37.175  29.714  1.00  0.00     0.124 S 
ATOM     86  O   UNL A   1      48.911  37.103  31.127  1.00  0.00    -0.237 OA
ATOM     87  O   UNL A   1      49.674  37.284  28.780  1.00  0.00    -0.237 OA
ATOM     88  O   UNL A   1      47.400  38.006  29.395  1.00  0.00    -0.744 OA
ENDBRANCH  84  85
ENDBRANCH  52  77
BRANCH  64  89
ATOM     89  C   UNL A   1      49.690  27.179  26.052  1.00  0.00     0.058 A 
ATOM     90  C   UNL A   1      50.770  26.718  26.818  1.00  0.00     0.135 A 
ATOM     91  C   UNL A   1      49.874  27.278  24.661  1.00  0.00     0.135 A 
ATOM     92  F   UNL A   1      50.657  26.612  28.152  1.00  0.00    -0.206 F 
ATOM     93  C   UNL A   1      51.987  26.376  26.232  1.00  0.00     0.059 A 
ATOM     94  C   UNL A   1      51.069  26.912  24.050  1.00  0.00     0.059 A 
ATOM     95  F   UNL A   1      48.873  27.707  23.875  1.00  0.00    -0.206 F 
ATOM     96  C   UNL A   1      52.124  26.469  24.845  1.00  0.00     0.060 A 
BRANCH  96  97
ATOM     97  S   UNL A   1      53.688  25.971  24.092  1.00  0.00     0.124 S 
ATOM     98  O   UNL A   1      53.333  25.921  22.678  1.00  0.00    -0.237 OA
ATOM     99  O   UNL A   1      54.581  27.058  24.483  1.00  0.00    -0.237 OA
ATOM    100  O   UNL A   1      53.972  24.681  24.715  1.00  0.00    -0.744 OA
ENDBRANCH  96  97
ENDBRANCH  64  89
ENDBRANCH  38  39
ENDBRANCH  31  33
ENDBRANCH  30  31
ENDBRANCH  29  30
ENDBRANCH  28  29
ENDBRANCH  27  28
ENDBRANCH   1  27
TORSDOF 21
ENDMDL
MODEL 3
REMARK VINA RESULT:     -10.6      3.884     10.237
REMARK SMILES CC1=C(C)C[C@@H](C(=O)OCCOCCOC(=O)c2ccc(-c3c4nc(c(-c5c(F)cc(S(=O)(=O)[O-])cc5F)c5ccc([nH]5)c(-c5c(F)cc(S(=O)(=O)[O-])cc5F)c5nc(c(-c6c(F)cc(S(=O)(=O)[O-])cc6F)c6ccc3[nH]6)C=C5)C=C4)cc2)[C@@H](C(=O)NCC[NH+]2CCOCC2)C1
REMARK SMILES IDX 11 1 10 2 9 3 7 4 8 5 6 6 1 7 2 8 3 9 96 10 4 11 5 12 84 13
REMARK SMILES IDX 85 14 86 15 87 16 88 18 89 19 90 20 91 21 95 22 92 24 94 25
REMARK SMILES IDX 93 26 12 27 13 28 14 29 15 30 16 31 17 32 18 33 19 34 83 35
REMARK SMILES IDX 20 36 82 37 21 38 22 39 23 40 76 41 24 42 81 43 75 44 77 45
REMARK SMILES IDX 25 46 80 47 74 48 73 49 26 51 60 52 39 53 59 54 40 55 43 56
REMARK SMILES IDX 58 57 78 58 41 59 42 60 57 62 79 63 44 64 27 65 28 66 37 67
REMARK SMILES IDX 29 68 30 69 36 70 38 71 31 72 32 73 33 74 34 75 35 76 61 77
REMARK SMILES IDX 62 78 71 79 63 80 64 81 70 82 72 83 65 84 66 85 67 86 68 87
REMARK SMILES IDX 69 88 45 89 46 90 55 91 47 92 48 93 54 94 56 95 49 96 50 97
REMARK SMILES IDX 51 98 52 99 53 100
REMARK H PARENT 87 17 90 23 77 50 43 61
REMARK Flexibility Score: inf
ROOT
ATOM      1  C   UNL A   1      31.950  26.936  26.848  1.00  0.00     0.202 C 
ENDROOT
BRANCH   1   2
ATOM      2  C   UNL A   1      30.577  26.345  26.523  1.00  0.00     0.261 C 
BRANCH   2   3
ATOM      3  O   UNL A   1      30.662  25.320  25.507  1.00  0.00    -0.463 OA
BRANCH   3   4
ATOM      4  C   UNL A   1      30.068  25.586  24.322  1.00  0.00     0.310 C 
ATOM      5  O   UNL A   1      29.005  26.184  24.201  1.00  0.00    -0.252 OA
BRANCH   4   6
ATOM      6  C   UNL A   1      30.787  24.973  23.128  1.00  0.00     0.116 C 
ATOM      7  C   UNL A   1      34.811  23.075  22.880  1.00  0.00     0.039 C 
ATOM      8  C   UNL A   1      33.390  23.572  22.833  1.00  0.00    -0.074 C 
ATOM      9  C   UNL A   1      32.366  22.945  23.446  1.00  0.00    -0.073 C 
ATOM     10  C   UNL A   1      33.167  24.833  22.039  1.00  0.00     0.045 C 
ATOM     11  C   UNL A   1      32.497  21.653  24.208  1.00  0.00     0.039 C 
ATOM     12  C   UNL A   1      30.956  23.467  23.367  1.00  0.00     0.046 C 
ATOM     13  C   UNL A   1      31.977  25.702  22.470  1.00  0.00     0.097 C 
BRANCH  13  14
ATOM     14  C   UNL A   1      32.454  27.031  23.046  1.00  0.00     0.224 C 
ATOM     15  O   UNL A   1      33.468  27.049  23.753  1.00  0.00    -0.275 OA
ATOM     16  N   UNL A   1      31.811  28.204  22.839  1.00  0.00    -0.350 N 
ATOM     17  H   UNL A   1      32.283  28.999  23.178  1.00  0.00     0.163 HD
BRANCH  16  18
ATOM     18  C   UNL A   1      30.538  28.478  22.197  1.00  0.00     0.177 C 
BRANCH  18  19
ATOM     19  C   UNL A   1      30.225  29.987  22.193  1.00  0.00     0.283 C 
BRANCH  19  20
ATOM     20  N   UNL A   1      28.807  30.207  22.490  1.00  0.00    -0.330 N 
ATOM     21  C   UNL A   1      27.990  30.485  21.293  1.00  0.00     0.291 C 
ATOM     22  C   UNL A   1      28.627  31.325  23.445  1.00  0.00     0.291 C 
ATOM     23  H   UNL A   1      28.484  29.330  22.897  1.00  0.00     0.348 HD
ATOM     24  C   UNL A   1      28.103  31.910  20.736  1.00  0.00     0.221 C 
ATOM     25  C   UNL A   1      28.773  32.728  22.842  1.00  0.00     0.221 C 
ATOM     26  O   UNL A   1      27.879  32.899  21.741  1.00  0.00    -0.370 OA
ENDBRANCH  19  20
ENDBRANCH  18  19
ENDBRANCH  16  18
ENDBRANCH  13  14
ENDBRANCH   4   6
ENDBRANCH   3   4
ENDBRANCH   2   3
ENDBRANCH   1   2
BRANCH   1  27
ATOM     27  O   UNL A   1      31.919  28.191  27.531  1.00  0.00    -0.374 OA
BRANCH  27  28
ATOM     28  C   UNL A   1      31.744  29.337  26.698  1.00  0.00     0.202 C 
BRANCH  28  29
ATOM     29  C   UNL A   1      32.963  29.726  25.848  1.00  0.00     0.261 C 
BRANCH  29  30
ATOM     30  O   UNL A   1      34.210  29.540  26.549  1.00  0.00    -0.460 OA
BRANCH  30  31
ATOM     31  C   UNL A   1      34.582  30.592  27.326  1.00  0.00     0.338 C 
ATOM     32  O   UNL A   1      33.960  31.620  27.513  1.00  0.00    -0.246 OA
BRANCH  31  33
ATOM     33  C   UNL A   1      35.812  30.255  28.080  1.00  0.00     0.060 A 
ATOM     34  C   UNL A   1      37.049  30.459  27.454  1.00  0.00     0.016 A 
ATOM     35  C   UNL A   1      35.768  29.709  29.357  1.00  0.00     0.016 A 
ATOM     36  C   UNL A   1      38.244  30.077  28.082  1.00  0.00     0.010 A 
ATOM     37  C   UNL A   1      36.968  29.343  29.980  1.00  0.00     0.010 A 
ATOM     38  C   UNL A   1      38.227  29.494  29.353  1.00  0.00    -0.014 A 
BRANCH  38  39
ATOM     39  C   UNL A   1      39.477  28.983  30.021  1.00  0.00     0.031 A 
ATOM     40  C   UNL A   1      39.995  29.684  31.261  1.00  0.00     0.074 A 
ATOM     41  C   UNL A   1      40.211  27.960  29.522  1.00  0.00     0.049 A 
ATOM     42  N   UNL A   1      41.095  29.472  31.942  1.00  0.00    -0.248 NA
ATOM     43  C   UNL A   1      39.176  30.788  31.786  1.00  0.00     0.031 C 
ATOM     44  C   UNL A   1      39.891  27.167  28.333  1.00  0.00     0.029 A 
ATOM     45  N   UNL A   1      41.423  27.444  29.933  1.00  0.00    -0.354 N 
ATOM     46  C   UNL A   1      41.090  30.412  32.967  1.00  0.00     0.074 A 
ATOM     47  C   UNL A   1      39.957  31.279  32.733  1.00  0.00     0.031 C 
ATOM     48  C   UNL A   1      40.899  26.312  28.080  1.00  0.00     0.029 A 
ATOM     49  C   UNL A   1      41.935  26.476  29.097  1.00  0.00     0.049 A 
ATOM     50  H   UNL A   1      41.882  27.742  30.751  1.00  0.00     0.167 HD
ATOM     51  C   UNL A   1      41.895  30.512  34.054  1.00  0.00     0.037 A 
ATOM     52  C   UNL A   1      43.097  25.788  29.136  1.00  0.00     0.037 A 
ATOM     53  C   UNL A   1      43.005  29.639  34.327  1.00  0.00     0.049 A 
ATOM     54  C   UNL A   1      44.038  25.960  30.300  1.00  0.00     0.074 A 
ATOM     55  C   UNL A   1      43.811  29.597  35.450  1.00  0.00     0.029 A 
ATOM     56  N   UNL A   1      43.474  28.663  33.462  1.00  0.00    -0.354 N 
ATOM     57  N   UNL A   1      43.939  26.763  31.331  1.00  0.00    -0.248 NA
ATOM     58  C   UNL A   1      45.226  25.091  30.332  1.00  0.00     0.031 C 
ATOM     59  C   UNL A   1      44.803  28.633  35.242  1.00  0.00     0.029 A 
ATOM     60  C   UNL A   1      44.578  28.033  34.014  1.00  0.00     0.049 A 
ATOM     61  H   UNL A   1      43.082  28.450  32.584  1.00  0.00     0.167 HD
ATOM     62  C   UNL A   1      45.008  26.446  32.166  1.00  0.00     0.074 A 
ATOM     63  C   UNL A   1      45.753  25.394  31.511  1.00  0.00     0.031 C 
ATOM     64  C   UNL A   1      45.317  26.967  33.380  1.00  0.00     0.037 A 
BRANCH  51  65
ATOM     65  C   UNL A   1      41.562  31.595  35.048  1.00  0.00     0.058 A 
ATOM     66  C   UNL A   1      40.553  31.417  36.013  1.00  0.00     0.135 A 
ATOM     67  C   UNL A   1      42.220  32.833  35.015  1.00  0.00     0.135 A 
ATOM     68  F   UNL A   1      39.887  30.253  36.091  1.00  0.00    -0.206 F 
ATOM     69  C   UNL A   1      40.149  32.455  36.844  1.00  0.00     0.059 A 
ATOM     70  C   UNL A   1      41.862  33.872  35.869  1.00  0.00     0.059 A 
ATOM     71  F   UNL A   1      43.205  33.054  34.129  1.00  0.00    -0.206 F 
ATOM     72  C   UNL A   1      40.801  33.684  36.754  1.00  0.00     0.060 A 
BRANCH  72  73
ATOM     73  S   UNL A   1      40.217  35.042  37.789  1.00  0.00     0.124 S 
ATOM     74  O   UNL A   1      40.377  36.180  36.887  1.00  0.00    -0.237 OA
ATOM     75  O   UNL A   1      38.841  34.650  38.073  1.00  0.00    -0.237 OA
ATOM     76  O   UNL A   1      41.125  35.013  38.931  1.00  0.00    -0.744 OA
ENDBRANCH  72  73
ENDBRANCH  51  65
BRANCH  52  77
ATOM     77  C   UNL A   1      43.400  24.783  28.078  1.00  0.00     0.058 A 
ATOM     78  C   UNL A   1      44.249  25.108  27.010  1.00  0.00     0.135 A 
ATOM     79  C   UNL A   1      42.856  23.489  28.110  1.00  0.00     0.135 A 
ATOM     80  F   UNL A   1      44.781  26.337  26.928  1.00  0.00    -0.206 F 
ATOM     81  C   UNL A   1      44.550  24.189  26.010  1.00  0.00     0.059 A 
ATOM     82  C   UNL A   1      43.154  22.547  27.127  1.00  0.00     0.059 A 
ATOM     83  F   UNL A   1      42.045  23.123  29.114  1.00  0.00    -0.206 F 
ATOM     84  C   UNL A   1      44.004  22.907  26.081  1.00  0.00     0.060 A 
BRANCH  84  85
ATOM     85  S   UNL A   1      44.472  21.704  24.817  1.00  0.00     0.124 S 
ATOM     86  O   UNL A   1      44.132  22.414  23.589  1.00  0.00    -0.237 OA
ATOM     87  O   UNL A   1      45.896  21.530  25.081  1.00  0.00    -0.237 OA
ATOM     88  O   UNL A   1      43.638  20.547  25.128  1.00  0.00    -0.744 OA
ENDBRANCH  84  85
ENDBRANCH  52  77
BRANCH  64  89
ATOM     89  C   UNL A   1      46.474  26.371  34.138  1.00  0.00     0.058 A 
ATOM     90  C   UNL A   1      46.321  25.275  35.000  1.00  0.00     0.135 A 
ATOM     91  C   UNL A   1      47.776  26.865  33.938  1.00  0.00     0.135 A 
ATOM     92  F   UNL A   1      45.101  24.766  35.236  1.00  0.00    -0.206 F 
ATOM     93  C   UNL A   1      47.411  24.698  35.646  1.00  0.00     0.059 A 
ATOM     94  C   UNL A   1      48.884  26.285  34.549  1.00  0.00     0.059 A 
ATOM     95  F   UNL A   1      47.985  27.908  33.119  1.00  0.00    -0.206 F 
ATOM     96  C   UNL A   1      48.691  25.206  35.408  1.00  0.00     0.060 A 
BRANCH  96  97
ATOM     97  S   UNL A   1      50.102  24.414  36.210  1.00  0.00     0.124 S 
ATOM     98  O   UNL A   1      51.194  24.778  35.315  1.00  0.00    -0.237 OA
ATOM     99  O   UNL A   1      50.116  25.057  37.521  1.00  0.00    -0.237 OA
ATOM    100  O   UNL A   1      49.741  22.999  36.218  1.00  0.00    -0.744 OA
ENDBRANCH  96  97
ENDBRANCH  64  89
ENDBRANCH  38  39
ENDBRANCH  31  33
ENDBRANCH  30  31
ENDBRANCH  29  30
ENDBRANCH  28  29
ENDBRANCH  27  28
ENDBRANCH   1  27
TORSDOF 21
ENDMDL
