MODEL 1
REMARK VINA RESULT:     -10.4      0.000      0.000
REMARK SMILES CC(C)Cc1ccc([C@@H](C)C(=O)OCCOCCOC(=O)c2ccc(-c3c4nc(c(-c5c(F)cc(S(=O)(=O)[O-])cc5F)c5ccc([nH]5)c(-c5c(F)cc(S(=O)(=O)[O-])cc5F)c5nc(c(-c6c(F)cc(S(=O)(=O)[O-])cc6F)c6ccc3[nH]6)C=C5)C=C4)cc2)cc1
REMARK SMILES IDX 16 1 15 2 14 3 13 4 11 5 12 6 9 7 10 8 8 9 5 10 6 11 89 12
REMARK SMILES IDX 7 13 88 14 4 15 2 16 1 17 3 18 17 19 18 20 19 21 20 22 21 23
REMARK SMILES IDX 22 24 23 25 87 26 24 27 86 28 25 29 26 30 27 31 80 32 28 33
REMARK SMILES IDX 85 34 79 35 81 36 29 37 84 38 78 39 77 40 30 42 64 43 43 44
REMARK SMILES IDX 63 45 44 46 47 47 62 48 82 49 45 50 46 51 61 53 83 54 48 55
REMARK SMILES IDX 31 56 32 57 41 58 33 59 34 60 40 61 42 62 35 63 36 64 37 65
REMARK SMILES IDX 38 66 39 67 65 68 66 69 75 70 67 71 68 72 74 73 76 74 69 75
REMARK SMILES IDX 70 76 71 77 72 78 73 79 49 80 50 81 59 82 51 83 52 84 58 85
REMARK SMILES IDX 60 86 53 87 54 88 55 89 56 90 57 91
REMARK H PARENT 81 41 47 52
REMARK Flexibility Score: inf
ROOT
ATOM      1  O   UNL A   1      34.964  30.995  27.344  1.00  0.00    -0.374 OA
ENDROOT
BRANCH   1   2
ATOM      2  C   UNL A   1      33.751  30.246  27.277  1.00  0.00     0.202 C 
BRANCH   2   3
ATOM      3  C   UNL A   1      33.893  28.722  27.300  1.00  0.00     0.261 C 
BRANCH   3   4
ATOM      4  O   UNL A   1      33.891  28.168  25.971  1.00  0.00    -0.463 OA
BRANCH   4   5
ATOM      5  C   UNL A   1      33.451  26.888  25.861  1.00  0.00     0.313 C 
ATOM      6  O   UNL A   1      34.177  25.921  25.645  1.00  0.00    -0.252 OA
BRANCH   5   7
ATOM      7  C   UNL A   1      31.943  26.738  25.981  1.00  0.00     0.126 C 
ATOM      8  C   UNL A   1      31.608  25.264  26.198  1.00  0.00     0.025 C 
BRANCH   7   9
ATOM      9  C   UNL A   1      31.072  27.378  24.904  1.00  0.00    -0.034 A 
ATOM     10  C   UNL A   1      29.344  28.728  23.099  1.00  0.00    -0.048 A 
ATOM     11  C   UNL A   1      29.088  27.408  23.490  1.00  0.00     0.004 A 
ATOM     12  C   UNL A   1      30.502  29.351  23.575  1.00  0.00     0.004 A 
ATOM     13  C   UNL A   1      29.942  26.739  24.377  1.00  0.00     0.005 A 
ATOM     14  C   UNL A   1      31.351  28.685  24.468  1.00  0.00     0.005 A 
BRANCH  10  15
ATOM     15  C   UNL A   1      28.362  29.478  22.226  1.00  0.00     0.038 C 
BRANCH  15  16
ATOM     16  C   UNL A   1      28.505  31.012  22.218  1.00  0.00    -0.013 C 
ATOM     17  C   UNL A   1      28.045  31.629  20.900  1.00  0.00     0.008 C 
ATOM     18  C   UNL A   1      27.691  31.617  23.366  1.00  0.00     0.008 C 
ENDBRANCH  15  16
ENDBRANCH  10  15
ENDBRANCH   7   9
ENDBRANCH   5   7
ENDBRANCH   4   5
ENDBRANCH   3   4
ENDBRANCH   2   3
ENDBRANCH   1   2
BRANCH   1  19
ATOM     19  C   UNL A   1      34.939  32.225  28.068  1.00  0.00     0.202 C 
BRANCH  19  20
ATOM     20  C   UNL A   1      35.102  32.138  29.590  1.00  0.00     0.261 C 
BRANCH  20  21
ATOM     21  O   UNL A   1      36.479  32.186  30.000  1.00  0.00    -0.460 OA
BRANCH  21  22
ATOM     22  C   UNL A   1      36.839  31.213  30.865  1.00  0.00     0.338 C 
ATOM     23  O   UNL A   1      36.323  30.970  31.953  1.00  0.00    -0.246 OA
BRANCH  22  24
ATOM     24  C   UNL A   1      37.875  30.339  30.282  1.00  0.00     0.060 A 
ATOM     25  C   UNL A   1      38.862  29.851  31.146  1.00  0.00     0.016 A 
ATOM     26  C   UNL A   1      37.951  30.079  28.911  1.00  0.00     0.016 A 
ATOM     27  C   UNL A   1      39.979  29.202  30.629  1.00  0.00     0.010 A 
ATOM     28  C   UNL A   1      39.075  29.437  28.389  1.00  0.00     0.010 A 
ATOM     29  C   UNL A   1      40.119  29.053  29.244  1.00  0.00    -0.014 A 
BRANCH  29  30
ATOM     30  C   UNL A   1      41.443  28.684  28.696  1.00  0.00     0.031 A 
ATOM     31  C   UNL A   1      42.514  29.740  28.630  1.00  0.00     0.074 A 
ATOM     32  C   UNL A   1      41.701  27.419  28.324  1.00  0.00     0.049 A 
ATOM     33  N   UNL A   1      43.764  29.631  28.267  1.00  0.00    -0.248 NA
ATOM     34  C   UNL A   1      42.120  31.102  29.028  1.00  0.00     0.031 C 
ATOM     35  C   UNL A   1      40.740  26.317  28.359  1.00  0.00     0.029 A 
ATOM     36  N   UNL A   1      42.854  26.850  27.853  1.00  0.00    -0.354 N 
ATOM     37  C   UNL A   1      44.308  30.904  28.401  1.00  0.00     0.074 A 
ATOM     38  C   UNL A   1      43.241  31.779  28.833  1.00  0.00     0.031 C 
ATOM     39  C   UNL A   1      41.349  25.197  27.933  1.00  0.00     0.029 A 
ATOM     40  C   UNL A   1      42.735  25.508  27.587  1.00  0.00     0.049 A 
ATOM     41  H   UNL A   1      43.688  27.355  27.716  1.00  0.00     0.167 HD
ATOM     42  C   UNL A   1      45.588  31.303  28.203  1.00  0.00     0.037 A 
ATOM     43  C   UNL A   1      43.649  24.632  27.127  1.00  0.00     0.037 A 
ATOM     44  C   UNL A   1      46.641  30.426  27.765  1.00  0.00     0.049 A 
ATOM     45  C   UNL A   1      45.057  25.104  26.880  1.00  0.00     0.074 A 
ATOM     46  C   UNL A   1      47.972  30.723  27.530  1.00  0.00     0.029 A 
ATOM     47  N   UNL A   1      46.478  29.075  27.491  1.00  0.00    -0.354 N 
ATOM     48  N   UNL A   1      45.567  26.302  27.042  1.00  0.00    -0.248 NA
ATOM     49  C   UNL A   1      46.019  24.100  26.405  1.00  0.00     0.031 C 
ATOM     50  C   UNL A   1      48.606  29.558  27.083  1.00  0.00     0.029 A 
ATOM     51  C   UNL A   1      47.681  28.526  27.081  1.00  0.00     0.049 A 
ATOM     52  H   UNL A   1      45.631  28.581  27.575  1.00  0.00     0.167 HD
ATOM     53  C   UNL A   1      46.917  26.189  26.724  1.00  0.00     0.074 A 
ATOM     54  C   UNL A   1      47.142  24.804  26.362  1.00  0.00     0.031 C 
ATOM     55  C   UNL A   1      47.884  27.140  26.738  1.00  0.00     0.037 A 
BRANCH  42  56
ATOM     56  C   UNL A   1      45.903  32.753  28.447  1.00  0.00     0.058 A 
ATOM     57  C   UNL A   1      45.794  33.712  27.426  1.00  0.00     0.135 A 
ATOM     58  C   UNL A   1      46.320  33.192  29.714  1.00  0.00     0.135 A 
ATOM     59  F   UNL A   1      45.416  33.343  26.191  1.00  0.00    -0.206 F 
ATOM     60  C   UNL A   1      46.122  35.046  27.642  1.00  0.00     0.059 A 
ATOM     61  C   UNL A   1      46.630  34.527  29.959  1.00  0.00     0.059 A 
ATOM     62  F   UNL A   1      46.445  32.319  30.725  1.00  0.00    -0.206 F 
ATOM     63  C   UNL A   1      46.547  35.444  28.911  1.00  0.00     0.060 A 
BRANCH  63  64
ATOM     64  S   UNL A   1      46.990  37.174  29.173  1.00  0.00     0.124 S 
ATOM     65  O   UNL A   1      45.989  37.856  28.358  1.00  0.00    -0.237 OA
ATOM     66  O   UNL A   1      46.838  37.323  30.617  1.00  0.00    -0.237 OA
ATOM     67  O   UNL A   1      48.361  37.252  28.680  1.00  0.00    -0.744 OA
ENDBRANCH  63  64
ENDBRANCH  42  56
BRANCH  43  68
ATOM     68  C   UNL A   1      43.266  23.213  26.911  1.00  0.00     0.058 A 
ATOM     69  C   UNL A   1      42.982  22.729  25.626  1.00  0.00     0.135 A 
ATOM     70  C   UNL A   1      43.197  22.309  27.982  1.00  0.00     0.135 A 
ATOM     71  F   UNL A   1      43.030  23.557  24.572  1.00  0.00    -0.206 F 
ATOM     72  C   UNL A   1      42.634  21.399  25.409  1.00  0.00     0.059 A 
ATOM     73  C   UNL A   1      42.871  20.971  27.789  1.00  0.00     0.059 A 
ATOM     74  F   UNL A   1      43.474  22.721  29.229  1.00  0.00    -0.206 F 
ATOM     75  C   UNL A   1      42.584  20.527  26.498  1.00  0.00     0.060 A 
BRANCH  75  76
ATOM     76  S   UNL A   1      42.188  18.790  26.199  1.00  0.00     0.124 S 
ATOM     77  O   UNL A   1      42.404  18.208  27.518  1.00  0.00    -0.237 OA
ATOM     78  O   UNL A   1      40.801  18.864  25.752  1.00  0.00    -0.237 OA
ATOM     79  O   UNL A   1      43.149  18.401  25.171  1.00  0.00    -0.744 OA
ENDBRANCH  75  76
ENDBRANCH  43  68
BRANCH  55  80
ATOM     80  C   UNL A   1      49.281  26.705  26.398  1.00  0.00     0.058 A 
ATOM     81  C   UNL A   1      50.105  26.062  27.333  1.00  0.00     0.135 A 
ATOM     82  C   UNL A   1      49.785  26.901  25.102  1.00  0.00     0.135 A 
ATOM     83  F   UNL A   1      49.671  25.855  28.587  1.00  0.00    -0.206 F 
ATOM     84  C   UNL A   1      51.394  25.654  27.005  1.00  0.00     0.059 A 
ATOM     85  C   UNL A   1      51.061  26.479  24.744  1.00  0.00     0.059 A 
ATOM     86  F   UNL A   1      49.032  27.500  24.166  1.00  0.00    -0.206 F 
ATOM     87  C   UNL A   1      51.864  25.870  25.708  1.00  0.00     0.060 A 
BRANCH  87  88
ATOM     88  S   UNL A   1      53.532  25.319  25.286  1.00  0.00     0.124 S 
ATOM     89  O   UNL A   1      54.334  26.030  26.275  1.00  0.00    -0.237 OA
ATOM     90  O   UNL A   1      53.441  23.873  25.464  1.00  0.00    -0.237 OA
ATOM     91  O   UNL A   1      53.694  25.764  23.905  1.00  0.00    -0.744 OA
ENDBRANCH  87  88
ENDBRANCH  55  80
ENDBRANCH  29  30
ENDBRANCH  22  24
ENDBRANCH  21  22
ENDBRANCH  20  21
ENDBRANCH  19  20
ENDBRANCH   1  19
TORSDOF 20
ENDMDL
MODEL 2
REMARK VINA RESULT:     -10.2      3.393      9.602
REMARK SMILES CC(C)Cc1ccc([C@@H](C)C(=O)OCCOCCOC(=O)c2ccc(-c3c4nc(c(-c5c(F)cc(S(=O)(=O)[O-])cc5F)c5ccc([nH]5)c(-c5c(F)cc(S(=O)(=O)[O-])cc5F)c5nc(c(-c6c(F)cc(S(=O)(=O)[O-])cc6F)c6ccc3[nH]6)C=C5)C=C4)cc2)cc1
REMARK SMILES IDX 16 1 15 2 14 3 13 4 11 5 12 6 9 7 10 8 8 9 5 10 6 11 89 12
REMARK SMILES IDX 7 13 88 14 4 15 2 16 1 17 3 18 17 19 18 20 19 21 20 22 21 23
REMARK SMILES IDX 22 24 23 25 87 26 24 27 86 28 25 29 26 30 27 31 80 32 28 33
REMARK SMILES IDX 85 34 79 35 81 36 29 37 84 38 78 39 77 40 30 42 64 43 43 44
REMARK SMILES IDX 63 45 44 46 47 47 62 48 82 49 45 50 46 51 61 53 83 54 48 55
REMARK SMILES IDX 31 56 32 57 41 58 33 59 34 60 40 61 42 62 35 63 36 64 37 65
REMARK SMILES IDX 38 66 39 67 65 68 66 69 75 70 67 71 68 72 74 73 76 74 69 75
REMARK SMILES IDX 70 76 71 77 72 78 73 79 49 80 50 81 59 82 51 83 52 84 58 85
REMARK SMILES IDX 60 86 53 87 54 88 55 89 56 90 57 91
REMARK H PARENT 81 41 47 52
REMARK Flexibility Score: inf
ROOT
ATOM      1  O   UNL A   1      38.008  22.283  24.959  1.00  0.00    -0.374 OA
ENDROOT
BRANCH   1   2
ATOM      2  C   UNL A   1      37.473  23.324  25.776  1.00  0.00     0.202 C 
BRANCH   2   3
ATOM      3  C   UNL A   1      35.962  23.285  26.020  1.00  0.00     0.261 C 
BRANCH   3   4
ATOM      4  O   UNL A   1      35.224  23.640  24.836  1.00  0.00    -0.463 OA
BRANCH   4   5
ATOM      5  C   UNL A   1      33.874  23.509  24.915  1.00  0.00     0.313 C 
ATOM      6  O   UNL A   1      33.190  23.926  25.846  1.00  0.00    -0.252 OA
BRANCH   5   7
ATOM      7  C   UNL A   1      33.258  22.744  23.756  1.00  0.00     0.126 C 
ATOM      8  C   UNL A   1      31.908  23.371  23.411  1.00  0.00     0.025 C 
BRANCH   7   9
ATOM      9  C   UNL A   1      33.181  21.224  23.860  1.00  0.00    -0.034 A 
ATOM     10  C   UNL A   1      33.272  18.385  23.909  1.00  0.00    -0.048 A 
ATOM     11  C   UNL A   1      32.344  19.063  23.108  1.00  0.00     0.004 A 
ATOM     12  C   UNL A   1      34.119  19.138  24.728  1.00  0.00     0.004 A 
ATOM     13  C   UNL A   1      32.295  20.463  23.086  1.00  0.00     0.005 A 
ATOM     14  C   UNL A   1      34.075  20.537  24.701  1.00  0.00     0.005 A 
BRANCH  10  15
ATOM     15  C   UNL A   1      33.389  16.878  23.846  1.00  0.00     0.038 C 
BRANCH  15  16
ATOM     16  C   UNL A   1      33.638  16.167  25.190  1.00  0.00    -0.013 C 
ATOM     17  C   UNL A   1      32.659  15.022  25.429  1.00  0.00     0.008 C 
ATOM     18  C   UNL A   1      35.069  15.621  25.233  1.00  0.00     0.008 C 
ENDBRANCH  15  16
ENDBRANCH  10  15
ENDBRANCH   7   9
ENDBRANCH   5   7
ENDBRANCH   4   5
ENDBRANCH   3   4
ENDBRANCH   2   3
ENDBRANCH   1   2
BRANCH   1  19
ATOM     19  C   UNL A   1      37.802  20.938  25.388  1.00  0.00     0.202 C 
BRANCH  19  20
ATOM     20  C   UNL A   1      39.036  20.031  25.454  1.00  0.00     0.261 C 
BRANCH  20  21
ATOM     21  O   UNL A   1      39.970  20.446  26.464  1.00  0.00    -0.460 OA
BRANCH  21  22
ATOM     22  C   UNL A   1      41.244  20.049  26.248  1.00  0.00     0.338 C 
ATOM     23  O   UNL A   1      41.607  18.964  25.802  1.00  0.00    -0.246 OA
BRANCH  22  24
ATOM     24  C   UNL A   1      42.193  21.154  26.480  1.00  0.00     0.060 A 
ATOM     25  C   UNL A   1      42.478  21.484  27.810  1.00  0.00     0.016 A 
ATOM     26  C   UNL A   1      42.717  21.922  25.438  1.00  0.00     0.016 A 
ATOM     27  C   UNL A   1      43.192  22.642  28.101  1.00  0.00     0.010 A 
ATOM     28  C   UNL A   1      43.426  23.090  25.727  1.00  0.00     0.010 A 
ATOM     29  C   UNL A   1      43.610  23.483  27.061  1.00  0.00    -0.014 A 
BRANCH  29  30
ATOM     30  C   UNL A   1      44.051  24.857  27.388  1.00  0.00     0.031 A 
ATOM     31  C   UNL A   1      45.501  25.211  27.192  1.00  0.00     0.074 A 
ATOM     32  C   UNL A   1      43.165  25.782  27.791  1.00  0.00     0.049 A 
ATOM     33  N   UNL A   1      46.099  26.364  27.334  1.00  0.00    -0.248 NA
ATOM     34  C   UNL A   1      46.396  24.116  26.782  1.00  0.00     0.031 C 
ATOM     35  C   UNL A   1      41.737  25.548  28.001  1.00  0.00     0.029 A 
ATOM     36  N   UNL A   1      43.339  27.108  28.086  1.00  0.00    -0.354 N 
ATOM     37  C   UNL A   1      47.434  26.138  27.021  1.00  0.00     0.074 A 
ATOM     38  C   UNL A   1      47.569  24.728  26.728  1.00  0.00     0.031 C 
ATOM     39  C   UNL A   1      41.160  26.700  28.385  1.00  0.00     0.029 A 
ATOM     40  C   UNL A   1      42.180  27.745  28.457  1.00  0.00     0.049 A 
ATOM     41  H   UNL A   1      44.212  27.561  28.039  1.00  0.00     0.167 HD
ATOM     42  C   UNL A   1      48.453  27.029  26.962  1.00  0.00     0.037 A 
ATOM     43  C   UNL A   1      41.970  29.029  28.805  1.00  0.00     0.037 A 
ATOM     44  C   UNL A   1      48.310  28.430  27.262  1.00  0.00     0.049 A 
ATOM     45  C   UNL A   1      43.123  29.996  28.765  1.00  0.00     0.074 A 
ATOM     46  C   UNL A   1      49.274  29.422  27.236  1.00  0.00     0.029 A 
ATOM     47  N   UNL A   1      47.123  29.034  27.650  1.00  0.00    -0.354 N 
ATOM     48  N   UNL A   1      44.375  29.777  28.436  1.00  0.00    -0.248 NA
ATOM     49  C   UNL A   1      42.831  31.390  29.127  1.00  0.00     0.031 C 
ATOM     50  C   UNL A   1      48.675  30.621  27.639  1.00  0.00     0.029 A 
ATOM     51  C   UNL A   1      47.329  30.384  27.874  1.00  0.00     0.049 A 
ATOM     52  H   UNL A   1      46.260  28.570  27.750  1.00  0.00     0.167 HD
ATOM     53  C   UNL A   1      45.012  31.011  28.516  1.00  0.00     0.074 A 
ATOM     54  C   UNL A   1      44.006  31.971  28.922  1.00  0.00     0.031 C 
ATOM     55  C   UNL A   1      46.308  31.324  28.267  1.00  0.00     0.037 A 
BRANCH  42  56
ATOM     56  C   UNL A   1      49.807  26.504  26.570  1.00  0.00     0.058 A 
ATOM     57  C   UNL A   1      50.235  26.499  25.232  1.00  0.00     0.135 A 
ATOM     58  C   UNL A   1      50.687  25.997  27.540  1.00  0.00     0.135 A 
ATOM     59  F   UNL A   1      49.426  26.955  24.262  1.00  0.00    -0.206 F 
ATOM     60  C   UNL A   1      51.472  25.978  24.865  1.00  0.00     0.059 A 
ATOM     61  C   UNL A   1      51.939  25.494  27.198  1.00  0.00     0.059 A 
ATOM     62  F   UNL A   1      50.328  25.975  28.832  1.00  0.00    -0.206 F 
ATOM     63  C   UNL A   1      52.315  25.471  25.855  1.00  0.00     0.060 A 
BRANCH  63  64
ATOM     64  S   UNL A   1      53.908  24.778  25.364  1.00  0.00     0.124 S 
ATOM     65  O   UNL A   1      53.538  23.405  25.034  1.00  0.00    -0.237 OA
ATOM     66  O   UNL A   1      54.284  25.622  24.235  1.00  0.00    -0.237 OA
ATOM     67  O   UNL A   1      54.729  24.936  26.560  1.00  0.00    -0.744 OA
ENDBRANCH  63  64
ENDBRANCH  42  56
BRANCH  43  68
ATOM     68  C   UNL A   1      40.605  29.477  29.179  1.00  0.00     0.058 A 
ATOM     69  C   UNL A   1      39.612  29.661  28.205  1.00  0.00     0.135 A 
ATOM     70  C   UNL A   1      40.259  29.708  30.519  1.00  0.00     0.135 A 
ATOM     71  F   UNL A   1      39.898  29.457  26.911  1.00  0.00    -0.206 F 
ATOM     72  C   UNL A   1      38.326  30.069  28.545  1.00  0.00     0.059 A 
ATOM     73  C   UNL A   1      38.975  30.097  30.886  1.00  0.00     0.059 A 
ATOM     74  F   UNL A   1      41.170  29.531  31.489  1.00  0.00    -0.206 F 
ATOM     75  C   UNL A   1      38.017  30.282  29.890  1.00  0.00     0.060 A 
BRANCH  75  76
ATOM     76  S   UNL A   1      36.329  30.755  30.326  1.00  0.00     0.124 S 
ATOM     77  O   UNL A   1      36.017  29.794  31.377  1.00  0.00    -0.237 OA
ATOM     78  O   UNL A   1      36.498  32.139  30.753  1.00  0.00    -0.237 OA
ATOM     79  O   UNL A   1      35.599  30.580  29.073  1.00  0.00    -0.744 OA
ENDBRANCH  75  76
ENDBRANCH  43  68
BRANCH  55  80
ATOM     80  C   UNL A   1      46.701  32.769  28.381  1.00  0.00     0.058 A 
ATOM     81  C   UNL A   1      47.240  33.300  29.562  1.00  0.00     0.135 A 
ATOM     82  C   UNL A   1      46.571  33.625  27.274  1.00  0.00     0.135 A 
ATOM     83  F   UNL A   1      47.381  32.524  30.649  1.00  0.00    -0.206 F 
ATOM     84  C   UNL A   1      47.610  34.638  29.654  1.00  0.00     0.059 A 
ATOM     85  C   UNL A   1      46.958  34.960  27.336  1.00  0.00     0.059 A 
ATOM     86  F   UNL A   1      46.073  33.164  26.117  1.00  0.00    -0.206 F 
ATOM     87  C   UNL A   1      47.463  35.461  28.535  1.00  0.00     0.060 A 
BRANCH  87  88
ATOM     88  S   UNL A   1      47.964  37.192  28.658  1.00  0.00     0.124 S 
ATOM     89  O   UNL A   1      49.263  37.075  29.310  1.00  0.00    -0.237 OA
ATOM     90  O   UNL A   1      47.991  37.611  27.260  1.00  0.00    -0.237 OA
ATOM     91  O   UNL A   1      46.905  37.793  29.464  1.00  0.00    -0.744 OA
ENDBRANCH  87  88
ENDBRANCH  55  80
ENDBRANCH  29  30
ENDBRANCH  22  24
ENDBRANCH  21  22
ENDBRANCH  20  21
ENDBRANCH  19  20
ENDBRANCH   1  19
TORSDOF 20
ENDMDL
MODEL 3
REMARK VINA RESULT:     -10.1      2.717      9.397
REMARK SMILES CC(C)Cc1ccc([C@@H](C)C(=O)OCCOCCOC(=O)c2ccc(-c3c4nc(c(-c5c(F)cc(S(=O)(=O)[O-])cc5F)c5ccc([nH]5)c(-c5c(F)cc(S(=O)(=O)[O-])cc5F)c5nc(c(-c6c(F)cc(S(=O)(=O)[O-])cc6F)c6ccc3[nH]6)C=C5)C=C4)cc2)cc1
REMARK SMILES IDX 16 1 15 2 14 3 13 4 11 5 12 6 9 7 10 8 8 9 5 10 6 11 89 12
REMARK SMILES IDX 7 13 88 14 4 15 2 16 1 17 3 18 17 19 18 20 19 21 20 22 21 23
REMARK SMILES IDX 22 24 23 25 87 26 24 27 86 28 25 29 26 30 27 31 80 32 28 33
REMARK SMILES IDX 85 34 79 35 81 36 29 37 84 38 78 39 77 40 30 42 64 43 43 44
REMARK SMILES IDX 63 45 44 46 47 47 62 48 82 49 45 50 46 51 61 53 83 54 48 55
REMARK SMILES IDX 31 56 32 57 41 58 33 59 34 60 40 61 42 62 35 63 36 64 37 65
REMARK SMILES IDX 38 66 39 67 65 68 66 69 75 70 67 71 68 72 74 73 76 74 69 75
REMARK SMILES IDX 70 76 71 77 72 78 73 79 49 80 50 81 59 82 51 83 52 84 58 85
REMARK SMILES IDX 60 86 53 87 54 88 55 89 56 90 57 91
REMARK H PARENT 81 41 47 52
REMARK Flexibility Score: inf
ROOT
ATOM      1  O   UNL A   1      31.988  29.737  24.836  1.00  0.00    -0.374 OA
ENDROOT
BRANCH   1   2
ATOM      2  C   UNL A   1      32.152  28.441  24.261  1.00  0.00     0.202 C 
BRANCH   2   3
ATOM      3  C   UNL A   1      30.925  27.527  24.287  1.00  0.00     0.261 C 
BRANCH   3   4
ATOM      4  O   UNL A   1      31.295  26.145  24.442  1.00  0.00    -0.463 OA
BRANCH   4   5
ATOM      5  C   UNL A   1      30.914  25.554  25.604  1.00  0.00     0.313 C 
ATOM      6  O   UNL A   1      30.603  26.164  26.624  1.00  0.00    -0.252 OA
BRANCH   5   7
ATOM      7  C   UNL A   1      30.946  24.035  25.566  1.00  0.00     0.126 C 
ATOM      8  C   UNL A   1      30.136  23.493  26.742  1.00  0.00     0.025 C 
BRANCH   7   9
ATOM      9  C   UNL A   1      32.303  23.350  25.433  1.00  0.00    -0.034 A 
ATOM     10  C   UNL A   1      34.700  21.838  25.248  1.00  0.00    -0.048 A 
ATOM     11  C   UNL A   1      34.472  22.697  26.330  1.00  0.00     0.004 A 
ATOM     12  C   UNL A   1      33.744  21.781  24.230  1.00  0.00     0.004 A 
ATOM     13  C   UNL A   1      33.292  23.447  26.421  1.00  0.00     0.005 A 
ATOM     14  C   UNL A   1      32.561  22.525  24.324  1.00  0.00     0.005 A 
BRANCH  10  15
ATOM     15  C   UNL A   1      35.927  20.953  25.211  1.00  0.00     0.038 C 
BRANCH  15  16
ATOM     16  C   UNL A   1      37.183  21.572  24.567  1.00  0.00    -0.013 C 
ATOM     17  C   UNL A   1      36.856  22.805  23.730  1.00  0.00     0.008 C 
ATOM     18  C   UNL A   1      38.191  21.956  25.654  1.00  0.00     0.008 C 
ENDBRANCH  15  16
ENDBRANCH  10  15
ENDBRANCH   7   9
ENDBRANCH   5   7
ENDBRANCH   4   5
ENDBRANCH   3   4
ENDBRANCH   2   3
ENDBRANCH   1   2
BRANCH   1  19
ATOM     19  C   UNL A   1      31.799  29.811  26.249  1.00  0.00     0.202 C 
BRANCH  19  20
ATOM     20  C   UNL A   1      32.725  30.751  27.027  1.00  0.00     0.261 C 
BRANCH  20  21
ATOM     21  O   UNL A   1      33.663  30.041  27.853  1.00  0.00    -0.460 OA
BRANCH  21  22
ATOM     22  C   UNL A   1      34.620  30.816  28.409  1.00  0.00     0.338 C 
ATOM     23  O   UNL A   1      34.466  31.932  28.897  1.00  0.00    -0.246 OA
BRANCH  22  24
ATOM     24  C   UNL A   1      35.903  30.093  28.501  1.00  0.00     0.060 A 
ATOM     25  C   UNL A   1      36.342  29.729  29.780  1.00  0.00     0.016 A 
ATOM     26  C   UNL A   1      36.714  29.862  27.388  1.00  0.00     0.016 A 
ATOM     27  C   UNL A   1      37.631  29.238  29.959  1.00  0.00     0.010 A 
ATOM     28  C   UNL A   1      38.012  29.378  27.566  1.00  0.00     0.010 A 
ATOM     29  C   UNL A   1      38.492  29.126  28.860  1.00  0.00    -0.014 A 
BRANCH  29  30
ATOM     30  C   UNL A   1      39.939  28.940  29.103  1.00  0.00     0.031 A 
ATOM     31  C   UNL A   1      40.563  27.616  28.750  1.00  0.00     0.074 A 
ATOM     32  C   UNL A   1      40.689  29.951  29.570  1.00  0.00     0.049 A 
ATOM     33  N   UNL A   1      41.817  27.251  28.800  1.00  0.00    -0.248 NA
ATOM     34  C   UNL A   1      39.649  26.562  28.280  1.00  0.00     0.031 C 
ATOM     35  C   UNL A   1      40.188  31.277  29.931  1.00  0.00     0.029 A 
ATOM     36  N   UNL A   1      42.036  30.020  29.811  1.00  0.00    -0.354 N 
ATOM     37  C   UNL A   1      41.844  25.933  28.358  1.00  0.00     0.074 A 
ATOM     38  C   UNL A   1      40.477  25.546  28.091  1.00  0.00     0.031 C 
ATOM     39  C   UNL A   1      41.220  32.034  30.342  1.00  0.00     0.029 A 
ATOM     40  C   UNL A   1      42.448  31.242  30.282  1.00  0.00     0.049 A 
ATOM     41  H   UNL A   1      42.650  29.264  29.663  1.00  0.00     0.167 HD
ATOM     42  C   UNL A   1      42.915  25.125  28.172  1.00  0.00     0.037 A 
ATOM     43  C   UNL A   1      43.680  31.672  30.615  1.00  0.00     0.037 A 
ATOM     44  C   UNL A   1      44.272  25.516  28.448  1.00  0.00     0.049 A 
ATOM     45  C   UNL A   1      44.853  30.745  30.432  1.00  0.00     0.074 A 
ATOM     46  C   UNL A   1      45.433  24.778  28.297  1.00  0.00     0.029 A 
ATOM     47  N   UNL A   1      44.647  26.759  28.939  1.00  0.00    -0.354 N 
ATOM     48  N   UNL A   1      44.870  29.512  29.983  1.00  0.00    -0.248 NA
ATOM     49  C   UNL A   1      46.177  31.275  30.785  1.00  0.00     0.031 C 
ATOM     50  C   UNL A   1      46.507  25.565  28.728  1.00  0.00     0.029 A 
ATOM     51  C   UNL A   1      46.021  26.807  29.106  1.00  0.00     0.049 A 
ATOM     52  H   UNL A   1      44.028  27.497  29.139  1.00  0.00     0.167 HD
ATOM     53  C   UNL A   1      46.208  29.131  29.964  1.00  0.00     0.074 A 
ATOM     54  C   UNL A   1      46.969  30.266  30.446  1.00  0.00     0.031 C 
ATOM     55  C   UNL A   1      46.758  27.954  29.576  1.00  0.00     0.037 A 
BRANCH  42  56
ATOM     56  C   UNL A   1      42.649  23.737  27.657  1.00  0.00     0.058 A 
ATOM     57  C   UNL A   1      42.501  22.645  28.528  1.00  0.00     0.135 A 
ATOM     58  C   UNL A   1      42.542  23.492  26.278  1.00  0.00     0.135 A 
ATOM     59  F   UNL A   1      42.612  22.820  29.855  1.00  0.00    -0.206 F 
ATOM     60  C   UNL A   1      42.294  21.355  28.051  1.00  0.00     0.059 A 
ATOM     61  C   UNL A   1      42.310  22.213  25.780  1.00  0.00     0.059 A 
ATOM     62  F   UNL A   1      42.678  24.497  25.400  1.00  0.00    -0.206 F 
ATOM     63  C   UNL A   1      42.207  21.147  26.674  1.00  0.00     0.060 A 
BRANCH  63  64
ATOM     64  S   UNL A   1      41.958  19.466  26.065  1.00  0.00     0.124 S 
ATOM     65  O   UNL A   1      42.885  19.426  24.938  1.00  0.00    -0.237 OA
ATOM     66  O   UNL A   1      42.329  18.654  27.219  1.00  0.00    -0.237 OA
ATOM     67  O   UNL A   1      40.542  19.438  25.714  1.00  0.00    -0.744 OA
ENDBRANCH  63  64
ENDBRANCH  42  56
BRANCH  43  68
ATOM     68  C   UNL A   1      43.867  33.057  31.115  1.00  0.00     0.058 A 
ATOM     69  C   UNL A   1      43.906  33.331  32.490  1.00  0.00     0.135 A 
ATOM     70  C   UNL A   1      44.033  34.132  30.228  1.00  0.00     0.135 A 
ATOM     71  F   UNL A   1      43.747  32.336  33.375  1.00  0.00    -0.206 F 
ATOM     72  C   UNL A   1      44.092  34.623  32.971  1.00  0.00     0.059 A 
ATOM     73  C   UNL A   1      44.241  35.430  30.684  1.00  0.00     0.059 A 
ATOM     74  F   UNL A   1      44.018  33.920  28.903  1.00  0.00    -0.206 F 
ATOM     75  C   UNL A   1      44.262  35.666  32.058  1.00  0.00     0.060 A 
BRANCH  75  76
ATOM     76  S   UNL A   1      44.562  37.331  32.692  1.00  0.00     0.124 S 
ATOM     77  O   UNL A   1      44.048  37.224  34.052  1.00  0.00    -0.237 OA
ATOM     78  O   UNL A   1      46.010  37.453  32.562  1.00  0.00    -0.237 OA
ATOM     79  O   UNL A   1      43.787  38.177  31.788  1.00  0.00    -0.744 OA
ENDBRANCH  75  76
ENDBRANCH  43  68
BRANCH  55  80
ATOM     80  C   UNL A   1      48.256  27.851  29.611  1.00  0.00     0.058 A 
ATOM     81  C   UNL A   1      48.940  27.367  30.737  1.00  0.00     0.135 A 
ATOM     82  C   UNL A   1      49.015  28.204  28.483  1.00  0.00     0.135 A 
ATOM     83  F   UNL A   1      48.261  27.019  31.842  1.00  0.00    -0.206 F 
ATOM     84  C   UNL A   1      50.327  27.265  30.755  1.00  0.00     0.059 A 
ATOM     85  C   UNL A   1      50.401  28.087  28.470  1.00  0.00     0.059 A 
ATOM     86  F   UNL A   1      48.408  28.661  27.376  1.00  0.00    -0.206 F 
ATOM     87  C   UNL A   1      51.049  27.631  29.617  1.00  0.00     0.060 A 
BRANCH  87  88
ATOM     88  S   UNL A   1      52.848  27.477  29.644  1.00  0.00     0.124 S 
ATOM     89  O   UNL A   1      53.262  28.799  29.185  1.00  0.00    -0.237 OA
ATOM     90  O   UNL A   1      53.119  27.181  31.048  1.00  0.00    -0.237 OA
ATOM     91  O   UNL A   1      53.107  26.379  28.718  1.00  0.00    -0.744 OA
ENDBRANCH  87  88
ENDBRANCH  55  80
ENDBRANCH  29  30
ENDBRANCH  22  24
ENDBRANCH  21  22
ENDBRANCH  20  21
ENDBRANCH  19  20
ENDBRANCH   1  19
TORSDOF 20
ENDMDL
