MODEL 1
REMARK VINA RESULT:     -10.5      0.000      0.000
REMARK SMILES C[C@@H](C(=O)NCC(=O)OCCOCCOC(=O)c1ccc(-c2c3nc(c(-c4c(F)cc(S(=O)(=O)[O-])cc4F)c4ccc([nH]4)c(-c4c(F)cc(S(=O)(=O)[O-])cc4F)c4nc(c(-c5c(F)cc(S(=O)(=O)[O-])cc5F)c5ccc2[nH]5)C=C4)C=C3)cc1)N1C(=O)/C(=C/c2cccc([N+](=O)[O-])c2)SC1=S
REMARK SMILES IDX 11 1 10 2 9 3 7 4 8 5 6 6 5 7 3 8 4 9 2 11 1 12 84 13 85 14
REMARK SMILES IDX 99 15 86 16 87 17 98 18 100 19 88 20 89 21 90 22 97 23 91 24
REMARK SMILES IDX 93 25 92 26 94 27 95 28 96 29 12 30 13 31 14 32 15 33 16 34
REMARK SMILES IDX 17 35 18 36 19 37 83 38 20 39 82 40 21 41 22 42 23 43 76 44
REMARK SMILES IDX 24 45 81 46 75 47 77 48 25 49 80 50 74 51 73 52 26 54 60 55
REMARK SMILES IDX 39 56 59 57 40 58 43 59 58 60 78 61 41 62 42 63 57 65 79 66
REMARK SMILES IDX 44 67 27 68 28 69 37 70 29 71 30 72 36 73 38 74 31 75 32 76
REMARK SMILES IDX 33 77 34 78 35 79 61 80 62 81 71 82 63 83 64 84 70 85 72 86
REMARK SMILES IDX 65 87 66 88 67 89 68 90 69 91 45 92 46 93 55 94 47 95 48 96
REMARK SMILES IDX 54 97 56 98 49 99 50 100 51 101 52 102 53 103
REMARK H PARENT 5 10 77 53 43 64
REMARK Flexibility Score: inf
ROOT
ATOM      1  C   UNL A   1      32.569  28.307  27.462  1.00  0.00     0.202 C 
ENDROOT
BRANCH   1   2
ATOM      2  C   UNL A   1      31.258  27.724  26.926  1.00  0.00     0.261 C 
BRANCH   2   3
ATOM      3  O   UNL A   1      31.336  26.291  26.859  1.00  0.00    -0.462 OA
BRANCH   3   4
ATOM      4  C   UNL A   1      30.306  25.657  26.240  1.00  0.00     0.325 C 
ATOM      5  O   UNL A   1      29.196  25.463  26.723  1.00  0.00    -0.250 OA
BRANCH   4   6
ATOM      6  C   UNL A   1      30.656  25.269  24.802  1.00  0.00     0.238 C 
BRANCH   6   7
ATOM      7  N   UNL A   1      30.502  26.313  23.793  1.00  0.00    -0.343 N 
ATOM      8  C   UNL A   1      31.442  27.134  23.243  1.00  0.00     0.243 C 
ATOM      9  O   UNL A   1      31.069  27.932  22.380  1.00  0.00    -0.273 OA
ATOM     10  H   UNL A   1      29.584  26.442  23.460  1.00  0.00     0.164 HD
BRANCH   8  11
ATOM     11  C   UNL A   1      32.911  27.015  23.690  1.00  0.00     0.178 C 
ATOM     12  C   UNL A   1      33.802  27.998  22.928  1.00  0.00     0.042 C 
BRANCH  11  13
ATOM     13  N   UNL A   1      33.320  25.600  23.590  1.00  0.00    -0.281 N 
ATOM     14  C   UNL A   1      33.925  24.963  24.659  1.00  0.00     0.266 C 
ATOM     15  C   UNL A   1      33.258  24.876  22.413  1.00  0.00     0.149 C 
ATOM     16  O   UNL A   1      34.193  25.449  25.747  1.00  0.00    -0.268 OA
ATOM     17  C   UNL A   1      34.201  23.542  24.325  1.00  0.00     0.081 C 
ATOM     18  S   UNL A   1      33.856  23.242  22.673  1.00  0.00    -0.054 SA
ATOM     19  S   UNL A   1      32.693  25.373  20.918  1.00  0.00    -0.052 S 
ATOM     20  C   UNL A   1      34.603  22.674  25.262  1.00  0.00     0.029 C 
BRANCH  20  21
ATOM     21  C   UNL A   1      34.891  21.253  25.056  1.00  0.00    -0.018 A 
ATOM     22  C   UNL A   1      36.221  20.817  24.989  1.00  0.00     0.008 A 
ATOM     23  C   UNL A   1      33.851  20.333  24.875  1.00  0.00     0.093 A 
ATOM     24  C   UNL A   1      36.516  19.472  24.755  1.00  0.00     0.008 A 
ATOM     25  C   UNL A   1      34.153  18.986  24.643  1.00  0.00     0.270 A 
ATOM     26  C   UNL A   1      35.483  18.549  24.581  1.00  0.00     0.085 A 
BRANCH  25  27
ATOM     27  N   UNL A   1      33.062  18.021  24.464  1.00  0.00     0.062 N 
ATOM     28  O   UNL A   1      31.995  18.240  25.057  1.00  0.00    -0.258 OA
ATOM     29  O   UNL A   1      33.262  17.053  23.716  1.00  0.00    -0.258 OA
ENDBRANCH  25  27
ENDBRANCH  20  21
ENDBRANCH  11  13
ENDBRANCH   8  11
ENDBRANCH   6   7
ENDBRANCH   4   6
ENDBRANCH   3   4
ENDBRANCH   2   3
ENDBRANCH   1   2
BRANCH   1  30
ATOM     30  O   UNL A   1      32.796  29.690  27.179  1.00  0.00    -0.374 OA
BRANCH  30  31
ATOM     31  C   UNL A   1      34.143  30.159  27.211  1.00  0.00     0.202 C 
BRANCH  31  32
ATOM     32  C   UNL A   1      34.759  30.443  28.587  1.00  0.00     0.261 C 
BRANCH  32  33
ATOM     33  O   UNL A   1      35.822  29.534  28.918  1.00  0.00    -0.460 OA
BRANCH  33  34
ATOM     34  C   UNL A   1      36.555  29.900  29.997  1.00  0.00     0.338 C 
ATOM     35  O   UNL A   1      36.142  30.060  31.142  1.00  0.00    -0.246 OA
BRANCH  34  36
ATOM     36  C   UNL A   1      37.994  29.924  29.678  1.00  0.00     0.060 A 
ATOM     37  C   UNL A   1      38.352  29.859  28.326  1.00  0.00     0.016 A 
ATOM     38  C   UNL A   1      38.974  29.906  30.673  1.00  0.00     0.016 A 
ATOM     39  C   UNL A   1      39.689  29.714  27.963  1.00  0.00     0.010 A 
ATOM     40  C   UNL A   1      40.317  29.752  30.305  1.00  0.00     0.010 A 
ATOM     41  C   UNL A   1      40.676  29.615  28.952  1.00  0.00    -0.014 A 
BRANCH  41  42
ATOM     42  C   UNL A   1      42.053  29.218  28.567  1.00  0.00     0.031 A 
ATOM     43  C   UNL A   1      42.324  27.782  28.204  1.00  0.00     0.074 A 
ATOM     44  C   UNL A   1      43.041  30.129  28.501  1.00  0.00     0.049 A 
ATOM     45  N   UNL A   1      43.450  27.211  27.862  1.00  0.00    -0.248 NA
ATOM     46  C   UNL A   1      41.169  26.868  28.226  1.00  0.00     0.031 C 
ATOM     47  C   UNL A   1      42.895  31.555  28.790  1.00  0.00     0.029 A 
ATOM     48  N   UNL A   1      44.366  29.987  28.174  1.00  0.00    -0.354 N 
ATOM     49  C   UNL A   1      43.145  25.873  27.639  1.00  0.00     0.074 A 
ATOM     50  C   UNL A   1      41.731  25.711  27.902  1.00  0.00     0.031 C 
ATOM     51  C   UNL A   1      44.088  32.155  28.640  1.00  0.00     0.029 A 
ATOM     52  C   UNL A   1      45.087  31.153  28.274  1.00  0.00     0.049 A 
ATOM     53  H   UNL A   1      44.764  29.130  27.895  1.00  0.00     0.167 HD
ATOM     54  C   UNL A   1      43.966  24.872  27.241  1.00  0.00     0.037 A 
ATOM     55  C   UNL A   1      46.406  31.380  28.110  1.00  0.00     0.037 A 
ATOM     56  C   UNL A   1      45.371  25.038  26.972  1.00  0.00     0.049 A 
ATOM     57  C   UNL A   1      47.310  30.238  27.724  1.00  0.00     0.074 A 
ATOM     58  C   UNL A   1      46.283  24.087  26.548  1.00  0.00     0.029 A 
ATOM     59  N   UNL A   1      46.067  26.229  27.103  1.00  0.00    -0.354 N 
ATOM     60  N   UNL A   1      47.003  28.982  27.496  1.00  0.00    -0.248 NA
ATOM     61  C   UNL A   1      48.741  30.542  27.569  1.00  0.00     0.031 C 
ATOM     62  C   UNL A   1      47.541  24.695  26.464  1.00  0.00     0.029 A 
ATOM     63  C   UNL A   1      47.402  26.034  26.789  1.00  0.00     0.049 A 
ATOM     64  H   UNL A   1      45.672  27.087  27.380  1.00  0.00     0.167 HD
ATOM     65  C   UNL A   1      48.196  28.356  27.144  1.00  0.00     0.074 A 
ATOM     66  C   UNL A   1      49.228  29.371  27.181  1.00  0.00     0.031 C 
ATOM     67  C   UNL A   1      48.415  27.059  26.815  1.00  0.00     0.037 A 
BRANCH  54  68
ATOM     68  C   UNL A   1      43.374  23.499  27.091  1.00  0.00     0.058 A 
ATOM     69  C   UNL A   1      43.208  22.643  28.190  1.00  0.00     0.135 A 
ATOM     70  C   UNL A   1      42.922  23.053  25.838  1.00  0.00     0.135 A 
ATOM     71  F   UNL A   1      43.639  23.012  29.407  1.00  0.00    -0.206 F 
ATOM     72  C   UNL A   1      42.627  21.386  28.050  1.00  0.00     0.059 A 
ATOM     73  C   UNL A   1      42.317  21.810  25.680  1.00  0.00     0.059 A 
ATOM     74  F   UNL A   1      43.061  23.832  24.754  1.00  0.00    -0.206 F 
ATOM     75  C   UNL A   1      42.184  20.979  26.791  1.00  0.00     0.060 A 
BRANCH  75  76
ATOM     76  S   UNL A   1      41.414  19.354  26.629  1.00  0.00     0.124 S 
ATOM     77  O   UNL A   1      40.416  19.606  25.594  1.00  0.00    -0.237 OA
ATOM     78  O   UNL A   1      42.539  18.512  26.232  1.00  0.00    -0.237 OA
ATOM     79  O   UNL A   1      40.882  19.095  27.964  1.00  0.00    -0.744 OA
ENDBRANCH  75  76
ENDBRANCH  54  68
BRANCH  55  80
ATOM     80  C   UNL A   1      46.961  32.742  28.328  1.00  0.00     0.058 A 
ATOM     81  C   UNL A   1      46.980  33.695  27.299  1.00  0.00     0.135 A 
ATOM     82  C   UNL A   1      47.500  33.112  29.571  1.00  0.00     0.135 A 
ATOM     83  F   UNL A   1      46.488  33.384  26.090  1.00  0.00    -0.206 F 
ATOM     84  C   UNL A   1      47.530  34.959  27.486  1.00  0.00     0.059 A 
ATOM     85  C   UNL A   1      48.032  34.379  29.790  1.00  0.00     0.059 A 
ATOM     86  F   UNL A   1      47.498  32.241  30.592  1.00  0.00    -0.206 F 
ATOM     87  C   UNL A   1      48.054  35.291  28.737  1.00  0.00     0.060 A 
BRANCH  87  88
ATOM     88  S   UNL A   1      48.734  36.946  28.984  1.00  0.00     0.124 S 
ATOM     89  O   UNL A   1      49.550  36.752  30.178  1.00  0.00    -0.237 OA
ATOM     90  O   UNL A   1      49.463  37.169  27.741  1.00  0.00    -0.237 OA
ATOM     91  O   UNL A   1      47.544  37.774  29.160  1.00  0.00    -0.744 OA
ENDBRANCH  87  88
ENDBRANCH  55  80
BRANCH  67  92
ATOM     92  C   UNL A   1      49.813  26.665  26.426  1.00  0.00     0.058 A 
ATOM     93  C   UNL A   1      50.692  26.063  27.339  1.00  0.00     0.135 A 
ATOM     94  C   UNL A   1      50.256  26.840  25.105  1.00  0.00     0.135 A 
ATOM     95  F   UNL A   1      50.320  25.879  28.615  1.00  0.00    -0.206 F 
ATOM     96  C   UNL A   1      51.970  25.663  26.960  1.00  0.00     0.059 A 
ATOM     97  C   UNL A   1      51.521  26.425  24.698  1.00  0.00     0.059 A 
ATOM     98  F   UNL A   1      49.450  27.401  24.190  1.00  0.00    -0.206 F 
ATOM     99  C   UNL A   1      52.375  25.847  25.636  1.00  0.00     0.060 A 
BRANCH  99 100
ATOM    100  S   UNL A   1      54.021  25.291  25.146  1.00  0.00     0.124 S 
ATOM    101  O   UNL A   1      54.277  26.127  23.977  1.00  0.00    -0.237 OA
ATOM    102  O   UNL A   1      54.821  25.594  26.329  1.00  0.00    -0.237 OA
ATOM    103  O   UNL A   1      53.832  23.870  24.871  1.00  0.00    -0.744 OA
ENDBRANCH  99 100
ENDBRANCH  67  92
ENDBRANCH  41  42
ENDBRANCH  34  36
ENDBRANCH  33  34
ENDBRANCH  32  33
ENDBRANCH  31  32
ENDBRANCH  30  31
ENDBRANCH   1  30
TORSDOF 22
ENDMDL
MODEL 2
REMARK VINA RESULT:      -9.6      1.558      2.235
REMARK SMILES C[C@@H](C(=O)NCC(=O)OCCOCCOC(=O)c1ccc(-c2c3nc(c(-c4c(F)cc(S(=O)(=O)[O-])cc4F)c4ccc([nH]4)c(-c4c(F)cc(S(=O)(=O)[O-])cc4F)c4nc(c(-c5c(F)cc(S(=O)(=O)[O-])cc5F)c5ccc2[nH]5)C=C4)C=C3)cc1)N1C(=O)/C(=C/c2cccc([N+](=O)[O-])c2)SC1=S
REMARK SMILES IDX 11 1 10 2 9 3 7 4 8 5 6 6 5 7 3 8 4 9 2 11 1 12 84 13 85 14
REMARK SMILES IDX 99 15 86 16 87 17 98 18 100 19 88 20 89 21 90 22 97 23 91 24
REMARK SMILES IDX 93 25 92 26 94 27 95 28 96 29 12 30 13 31 14 32 15 33 16 34
REMARK SMILES IDX 17 35 18 36 19 37 83 38 20 39 82 40 21 41 22 42 23 43 76 44
REMARK SMILES IDX 24 45 81 46 75 47 77 48 25 49 80 50 74 51 73 52 26 54 60 55
REMARK SMILES IDX 39 56 59 57 40 58 43 59 58 60 78 61 41 62 42 63 57 65 79 66
REMARK SMILES IDX 44 67 27 68 28 69 37 70 29 71 30 72 36 73 38 74 31 75 32 76
REMARK SMILES IDX 33 77 34 78 35 79 61 80 62 81 71 82 63 83 64 84 70 85 72 86
REMARK SMILES IDX 65 87 66 88 67 89 68 90 69 91 45 92 46 93 55 94 47 95 48 96
REMARK SMILES IDX 54 97 56 98 49 99 50 100 51 101 52 102 53 103
REMARK H PARENT 5 10 77 53 43 64
REMARK Flexibility Score: inf
ROOT
ATOM      1  C   UNL A   1      32.548  27.305  26.848  1.00  0.00     0.202 C 
ENDROOT
BRANCH   1   2
ATOM      2  C   UNL A   1      31.279  26.552  26.437  1.00  0.00     0.261 C 
BRANCH   2   3
ATOM      3  O   UNL A   1      31.373  25.168  26.814  1.00  0.00    -0.462 OA
BRANCH   3   4
ATOM      4  C   UNL A   1      30.288  24.394  26.547  1.00  0.00     0.325 C 
ATOM      5  O   UNL A   1      29.168  24.551  27.020  1.00  0.00    -0.250 OA
BRANCH   4   6
ATOM      6  C   UNL A   1      30.597  23.320  25.502  1.00  0.00     0.238 C 
BRANCH   6   7
ATOM      7  N   UNL A   1      30.509  23.732  24.104  1.00  0.00    -0.343 N 
ATOM      8  C   UNL A   1      31.491  24.162  23.261  1.00  0.00     0.243 C 
ATOM      9  O   UNL A   1      31.171  24.435  22.102  1.00  0.00    -0.273 OA
ATOM     10  H   UNL A   1      29.606  23.692  23.712  1.00  0.00     0.164 HD
BRANCH   8  11
ATOM     11  C   UNL A   1      32.941  24.260  23.771  1.00  0.00     0.178 C 
ATOM     12  C   UNL A   1      33.862  24.855  22.706  1.00  0.00     0.042 C 
BRANCH  11  13
ATOM     13  N   UNL A   1      33.351  22.936  24.279  1.00  0.00    -0.281 N 
ATOM     14  C   UNL A   1      32.911  21.777  23.664  1.00  0.00     0.266 C 
ATOM     15  C   UNL A   1      34.066  22.764  25.450  1.00  0.00     0.149 C 
ATOM     16  O   UNL A   1      32.170  21.695  22.696  1.00  0.00    -0.268 OA
ATOM     17  C   UNL A   1      33.493  20.585  24.333  1.00  0.00     0.081 C 
ATOM     18  S   UNL A   1      34.342  21.052  25.746  1.00  0.00    -0.054 SA
ATOM     19  S   UNL A   1      34.651  23.937  26.491  1.00  0.00    -0.052 S 
ATOM     20  C   UNL A   1      33.371  19.361  23.801  1.00  0.00     0.029 C 
BRANCH  20  21
ATOM     21  C   UNL A   1      33.911  18.120  24.359  1.00  0.00    -0.018 A 
ATOM     22  C   UNL A   1      35.295  17.978  24.523  1.00  0.00     0.008 A 
ATOM     23  C   UNL A   1      33.063  17.055  24.683  1.00  0.00     0.093 A 
ATOM     24  C   UNL A   1      35.833  16.788  25.017  1.00  0.00     0.008 A 
ATOM     25  C   UNL A   1      33.607  15.865  25.180  1.00  0.00     0.270 A 
ATOM     26  C   UNL A   1      34.991  15.724  25.349  1.00  0.00     0.085 A 
BRANCH  25  27
ATOM     27  N   UNL A   1      32.716  14.753  25.531  1.00  0.00     0.062 N 
ATOM     28  O   UNL A   1      31.515  15.008  25.704  1.00  0.00    -0.258 OA
ATOM     29  O   UNL A   1      33.210  13.619  25.614  1.00  0.00    -0.258 OA
ENDBRANCH  25  27
ENDBRANCH  20  21
ENDBRANCH  11  13
ENDBRANCH   8  11
ENDBRANCH   6   7
ENDBRANCH   4   6
ENDBRANCH   3   4
ENDBRANCH   2   3
ENDBRANCH   1   2
BRANCH   1  30
ATOM     30  O   UNL A   1      32.628  28.667  26.421  1.00  0.00    -0.374 OA
BRANCH  30  31
ATOM     31  C   UNL A   1      33.922  29.265  26.357  1.00  0.00     0.202 C 
BRANCH  31  32
ATOM     32  C   UNL A   1      34.491  29.855  27.653  1.00  0.00     0.261 C 
BRANCH  32  33
ATOM     33  O   UNL A   1      35.782  29.319  27.988  1.00  0.00    -0.460 OA
BRANCH  33  34
ATOM     34  C   UNL A   1      36.410  29.964  29.000  1.00  0.00     0.338 C 
ATOM     35  O   UNL A   1      35.901  30.354  30.047  1.00  0.00    -0.246 OA
BRANCH  34  36
ATOM     36  C   UNL A   1      37.867  30.003  28.782  1.00  0.00     0.060 A 
ATOM     37  C   UNL A   1      38.348  29.483  27.574  1.00  0.00     0.016 A 
ATOM     38  C   UNL A   1      38.754  30.440  29.769  1.00  0.00     0.016 A 
ATOM     39  C   UNL A   1      39.719  29.340  27.371  1.00  0.00     0.010 A 
ATOM     40  C   UNL A   1      40.131  30.287  29.565  1.00  0.00     0.010 A 
ATOM     41  C   UNL A   1      40.618  29.700  28.383  1.00  0.00    -0.014 A 
BRANCH  41  42
ATOM     42  C   UNL A   1      42.047  29.319  28.255  1.00  0.00     0.031 A 
ATOM     43  C   UNL A   1      42.396  27.884  27.960  1.00  0.00     0.074 A 
ATOM     44  C   UNL A   1      43.019  30.243  28.359  1.00  0.00     0.049 A 
ATOM     45  N   UNL A   1      43.572  27.326  27.832  1.00  0.00    -0.248 NA
ATOM     46  C   UNL A   1      41.267  26.954  27.784  1.00  0.00     0.031 C 
ATOM     47  C   UNL A   1      42.806  31.669  28.603  1.00  0.00     0.029 A 
ATOM     48  N   UNL A   1      44.383  30.117  28.277  1.00  0.00    -0.354 N 
ATOM     49  C   UNL A   1      43.328  25.982  27.571  1.00  0.00     0.074 A 
ATOM     50  C   UNL A   1      41.892  25.803  27.578  1.00  0.00     0.031 C 
ATOM     51  C   UNL A   1      43.999  32.284  28.664  1.00  0.00     0.029 A 
ATOM     52  C   UNL A   1      45.060  31.293  28.493  1.00  0.00     0.049 A 
ATOM     53  H   UNL A   1      44.834  29.263  28.082  1.00  0.00     0.167 HD
ATOM     54  C   UNL A   1      44.220  24.991  27.337  1.00  0.00     0.037 A 
ATOM     55  C   UNL A   1      46.384  31.537  28.566  1.00  0.00     0.037 A 
ATOM     56  C   UNL A   1      45.648  25.173  27.323  1.00  0.00     0.049 A 
ATOM     57  C   UNL A   1      47.357  30.405  28.359  1.00  0.00     0.074 A 
ATOM     58  C   UNL A   1      46.633  24.232  27.079  1.00  0.00     0.029 A 
ATOM     59  N   UNL A   1      46.295  26.375  27.565  1.00  0.00    -0.354 N 
ATOM     60  N   UNL A   1      47.111  29.143  28.093  1.00  0.00    -0.248 NA
ATOM     61  C   UNL A   1      48.788  30.728  28.461  1.00  0.00     0.031 C 
ATOM     62  C   UNL A   1      47.877  24.857  27.216  1.00  0.00     0.029 A 
ATOM     63  C   UNL A   1      47.666  26.196  27.497  1.00  0.00     0.049 A 
ATOM     64  H   UNL A   1      45.846  27.230  27.758  1.00  0.00     0.167 HD
ATOM     65  C   UNL A   1      48.355  28.532  27.966  1.00  0.00     0.074 A 
ATOM     66  C   UNL A   1      49.351  29.561  28.179  1.00  0.00     0.031 C 
ATOM     67  C   UNL A   1      48.646  27.235  27.695  1.00  0.00     0.037 A 
BRANCH  54  68
ATOM     68  C   UNL A   1      43.681  23.608  27.097  1.00  0.00     0.058 A 
ATOM     69  C   UNL A   1      43.210  22.806  28.147  1.00  0.00     0.135 A 
ATOM     70  C   UNL A   1      43.590  23.098  25.791  1.00  0.00     0.135 A 
ATOM     71  F   UNL A   1      43.291  23.238  29.416  1.00  0.00    -0.206 F 
ATOM     72  C   UNL A   1      42.681  21.541  27.914  1.00  0.00     0.059 A 
ATOM     73  C   UNL A   1      43.042  21.845  25.532  1.00  0.00     0.059 A 
ATOM     74  F   UNL A   1      44.029  23.823  24.751  1.00  0.00    -0.206 F 
ATOM     75  C   UNL A   1      42.600  21.069  26.602  1.00  0.00     0.060 A 
BRANCH  75  76
ATOM     76  S   UNL A   1      41.891  19.434  26.314  1.00  0.00     0.124 S 
ATOM     77  O   UNL A   1      40.476  19.754  26.150  1.00  0.00    -0.237 OA
ATOM     78  O   UNL A   1      42.586  19.000  25.106  1.00  0.00    -0.237 OA
ATOM     79  O   UNL A   1      42.231  18.697  27.528  1.00  0.00    -0.744 OA
ENDBRANCH  75  76
ENDBRANCH  54  68
BRANCH  55  80
ATOM     80  C   UNL A   1      46.874  32.909  28.867  1.00  0.00     0.058 A 
ATOM     81  C   UNL A   1      47.056  33.344  30.188  1.00  0.00     0.135 A 
ATOM     82  C   UNL A   1      47.154  33.819  27.835  1.00  0.00     0.135 A 
ATOM     83  F   UNL A   1      46.790  32.514  31.209  1.00  0.00    -0.206 F 
ATOM     84  C   UNL A   1      47.480  34.637  30.478  1.00  0.00     0.059 A 
ATOM     85  C   UNL A   1      47.602  35.109  28.099  1.00  0.00     0.059 A 
ATOM     86  F   UNL A   1      47.004  33.450  26.553  1.00  0.00    -0.206 F 
ATOM     87  C   UNL A   1      47.751  35.513  29.425  1.00  0.00     0.060 A 
BRANCH  87  88
ATOM     88  S   UNL A   1      48.335  37.179  29.806  1.00  0.00     0.124 S 
ATOM     89  O   UNL A   1      48.836  37.009  31.166  1.00  0.00    -0.237 OA
ATOM     90  O   UNL A   1      49.345  37.394  28.775  1.00  0.00    -0.237 OA
ATOM     91  O   UNL A   1      47.131  37.994  29.673  1.00  0.00    -0.744 OA
ENDBRANCH  87  88
ENDBRANCH  55  80
BRANCH  67  92
ATOM     92  C   UNL A   1      50.095  26.858  27.567  1.00  0.00     0.058 A 
ATOM     93  C   UNL A   1      50.765  26.904  26.335  1.00  0.00     0.135 A 
ATOM     94  C   UNL A   1      50.838  26.502  28.705  1.00  0.00     0.135 A 
ATOM     95  F   UNL A   1      50.100  27.231  25.216  1.00  0.00    -0.206 F 
ATOM     96  C   UNL A   1      52.117  26.593  26.232  1.00  0.00     0.059 A 
ATOM     97  C   UNL A   1      52.197  26.213  28.630  1.00  0.00     0.059 A 
ATOM     98  F   UNL A   1      50.247  26.454  29.910  1.00  0.00    -0.206 F 
ATOM     99  C   UNL A   1      52.825  26.250  27.386  1.00  0.00     0.060 A 
BRANCH  99 100
ATOM    100  S   UNL A   1      54.589  25.886  27.247  1.00  0.00     0.124 S 
ATOM    101  O   UNL A   1      55.064  27.027  26.473  1.00  0.00    -0.237 OA
ATOM    102  O   UNL A   1      55.012  25.846  28.643  1.00  0.00    -0.237 OA
ATOM    103  O   UNL A   1      54.617  24.602  26.553  1.00  0.00    -0.744 OA
ENDBRANCH  99 100
ENDBRANCH  67  92
ENDBRANCH  41  42
ENDBRANCH  34  36
ENDBRANCH  33  34
ENDBRANCH  32  33
ENDBRANCH  31  32
ENDBRANCH  30  31
ENDBRANCH   1  30
TORSDOF 22
ENDMDL
MODEL 3
REMARK VINA RESULT:      -9.1      7.724     14.789
REMARK SMILES C[C@@H](C(=O)NCC(=O)OCCOCCOC(=O)c1ccc(-c2c3nc(c(-c4c(F)cc(S(=O)(=O)[O-])cc4F)c4ccc([nH]4)c(-c4c(F)cc(S(=O)(=O)[O-])cc4F)c4nc(c(-c5c(F)cc(S(=O)(=O)[O-])cc5F)c5ccc2[nH]5)C=C4)C=C3)cc1)N1C(=O)/C(=C/c2cccc([N+](=O)[O-])c2)SC1=S
REMARK SMILES IDX 11 1 10 2 9 3 7 4 8 5 6 6 5 7 3 8 4 9 2 11 1 12 84 13 85 14
REMARK SMILES IDX 99 15 86 16 87 17 98 18 100 19 88 20 89 21 90 22 97 23 91 24
REMARK SMILES IDX 93 25 92 26 94 27 95 28 96 29 12 30 13 31 14 32 15 33 16 34
REMARK SMILES IDX 17 35 18 36 19 37 83 38 20 39 82 40 21 41 22 42 23 43 76 44
REMARK SMILES IDX 24 45 81 46 75 47 77 48 25 49 80 50 74 51 73 52 26 54 60 55
REMARK SMILES IDX 39 56 59 57 40 58 43 59 58 60 78 61 41 62 42 63 57 65 79 66
REMARK SMILES IDX 44 67 27 68 28 69 37 70 29 71 30 72 36 73 38 74 31 75 32 76
REMARK SMILES IDX 33 77 34 78 35 79 61 80 62 81 71 82 63 83 64 84 70 85 72 86
REMARK SMILES IDX 65 87 66 88 67 89 68 90 69 91 45 92 46 93 55 94 47 95 48 96
REMARK SMILES IDX 54 97 56 98 49 99 50 100 51 101 52 102 53 103
REMARK H PARENT 5 10 77 53 43 64
REMARK Flexibility Score: inf
ROOT
ATOM      1  C   UNL A   1      46.723  26.739  27.079  1.00  0.00     0.202 C 
ENDROOT
BRANCH   1   2
ATOM      2  C   UNL A   1      46.618  25.862  28.330  1.00  0.00     0.261 C 
BRANCH   2   3
ATOM      3  O   UNL A   1      46.199  26.646  29.459  1.00  0.00    -0.462 OA
BRANCH   3   4
ATOM      4  C   UNL A   1      47.186  27.189  30.218  1.00  0.00     0.325 C 
ATOM      5  O   UNL A   1      47.528  28.366  30.206  1.00  0.00    -0.250 OA
BRANCH   4   6
ATOM      6  C   UNL A   1      47.794  26.166  31.181  1.00  0.00     0.238 C 
BRANCH   6   7
ATOM      7  N   UNL A   1      49.117  25.657  30.835  1.00  0.00    -0.343 N 
ATOM      8  C   UNL A   1      50.174  25.364  31.646  1.00  0.00     0.243 C 
ATOM      9  O   UNL A   1      51.195  24.919  31.116  1.00  0.00    -0.273 OA
ATOM     10  H   UNL A   1      49.269  25.503  29.874  1.00  0.00     0.164 HD
BRANCH   8  11
ATOM     11  C   UNL A   1      50.045  25.565  33.167  1.00  0.00     0.178 C 
ATOM     12  C   UNL A   1      51.348  26.093  33.767  1.00  0.00     0.042 C 
BRANCH  11  13
ATOM     13  N   UNL A   1      49.546  24.312  33.767  1.00  0.00    -0.281 N 
ATOM     14  C   UNL A   1      48.302  24.264  34.369  1.00  0.00     0.266 C 
ATOM     15  C   UNL A   1      50.321  23.173  33.891  1.00  0.00     0.149 C 
ATOM     16  O   UNL A   1      47.507  25.185  34.488  1.00  0.00    -0.268 OA
ATOM     17  C   UNL A   1      48.016  22.890  34.856  1.00  0.00     0.081 C 
ATOM     18  S   UNL A   1      49.402  21.897  34.680  1.00  0.00    -0.054 SA
ATOM     19  S   UNL A   1      51.895  22.928  33.379  1.00  0.00    -0.052 S 
ATOM     20  C   UNL A   1      46.799  22.549  35.299  1.00  0.00     0.029 C 
BRANCH  20  21
ATOM     21  C   UNL A   1      46.397  21.229  35.789  1.00  0.00    -0.018 A 
ATOM     22  C   UNL A   1      45.717  20.350  34.935  1.00  0.00     0.008 A 
ATOM     23  C   UNL A   1      46.640  20.854  37.115  1.00  0.00     0.093 A 
ATOM     24  C   UNL A   1      45.292  19.101  35.393  1.00  0.00     0.008 A 
ATOM     25  C   UNL A   1      46.213  19.601  37.569  1.00  0.00     0.270 A 
ATOM     26  C   UNL A   1      45.538  18.720  36.713  1.00  0.00     0.085 A 
BRANCH  25  27
ATOM     27  N   UNL A   1      46.479  19.205  38.957  1.00  0.00     0.062 N 
ATOM     28  O   UNL A   1      47.412  18.415  39.163  1.00  0.00    -0.258 OA
ATOM     29  O   UNL A   1      45.770  19.699  39.845  1.00  0.00    -0.258 OA
ENDBRANCH  25  27
ENDBRANCH  20  21
ENDBRANCH  11  13
ENDBRANCH   8  11
ENDBRANCH   6   7
ENDBRANCH   4   6
ENDBRANCH   3   4
ENDBRANCH   2   3
ENDBRANCH   1   2
BRANCH   1  30
ATOM     30  O   UNL A   1      45.810  26.428  26.023  1.00  0.00    -0.374 OA
BRANCH  30  31
ATOM     31  C   UNL A   1      45.274  25.107  25.980  1.00  0.00     0.202 C 
BRANCH  31  32
ATOM     32  C   UNL A   1      44.017  24.883  25.131  1.00  0.00     0.261 C 
BRANCH  32  33
ATOM     33  O   UNL A   1      42.834  24.702  25.927  1.00  0.00    -0.460 OA
BRANCH  33  34
ATOM     34  C   UNL A   1      42.019  25.783  25.972  1.00  0.00     0.338 C 
ATOM     35  O   UNL A   1      41.203  26.120  25.119  1.00  0.00    -0.246 OA
BRANCH  34  36
ATOM     36  C   UNL A   1      42.094  26.451  27.284  1.00  0.00     0.060 A 
ATOM     37  C   UNL A   1      41.257  25.968  28.298  1.00  0.00     0.016 A 
ATOM     38  C   UNL A   1      42.883  27.583  27.495  1.00  0.00     0.016 A 
ATOM     39  C   UNL A   1      41.158  26.651  29.508  1.00  0.00     0.010 A 
ATOM     40  C   UNL A   1      42.775  28.273  28.710  1.00  0.00     0.010 A 
ATOM     41  C   UNL A   1      41.884  27.833  29.705  1.00  0.00    -0.014 A 
BRANCH  41  42
ATOM     42  C   UNL A   1      41.588  28.678  30.889  1.00  0.00     0.031 A 
ATOM     43  C   UNL A   1      40.430  29.639  30.829  1.00  0.00     0.074 A 
ATOM     44  C   UNL A   1      42.313  28.563  32.017  1.00  0.00     0.049 A 
ATOM     45  N   UNL A   1      40.008  30.486  31.731  1.00  0.00    -0.248 NA
ATOM     46  C   UNL A   1      39.641  29.643  29.585  1.00  0.00     0.031 C 
ATOM     47  C   UNL A   1      43.432  27.642  32.211  1.00  0.00     0.029 A 
ATOM     48  N   UNL A   1      42.218  29.232  33.211  1.00  0.00    -0.354 N 
ATOM     49  C   UNL A   1      38.913  31.130  31.165  1.00  0.00     0.074 A 
ATOM     50  C   UNL A   1      38.748  30.591  29.832  1.00  0.00     0.031 C 
ATOM     51  C   UNL A   1      43.928  27.814  33.448  1.00  0.00     0.029 A 
ATOM     52  C   UNL A   1      43.183  28.876  34.122  1.00  0.00     0.049 A 
ATOM     53  H   UNL A   1      41.523  29.906  33.397  1.00  0.00     0.167 HD
ATOM     54  C   UNL A   1      38.114  32.078  31.709  1.00  0.00     0.037 A 
ATOM     55  C   UNL A   1      43.447  29.365  35.350  1.00  0.00     0.037 A 
ATOM     56  C   UNL A   1      38.277  32.607  33.038  1.00  0.00     0.049 A 
ATOM     57  C   UNL A   1      42.578  30.461  35.912  1.00  0.00     0.074 A 
ATOM     58  C   UNL A   1      37.507  33.558  33.685  1.00  0.00     0.029 A 
ATOM     59  N   UNL A   1      39.277  32.234  33.922  1.00  0.00    -0.354 N 
ATOM     60  N   UNL A   1      41.535  31.046  35.372  1.00  0.00    -0.248 NA
ATOM     61  C   UNL A   1      42.921  30.964  37.251  1.00  0.00     0.031 C 
ATOM     62  C   UNL A   1      38.068  33.791  34.945  1.00  0.00     0.029 A 
ATOM     63  C   UNL A   1      39.158  32.950  35.101  1.00  0.00     0.049 A 
ATOM     64  H   UNL A   1      39.971  31.560  33.739  1.00  0.00     0.167 HD
ATOM     65  C   UNL A   1      41.080  31.962  36.316  1.00  0.00     0.074 A 
ATOM     66  C   UNL A   1      41.957  31.850  37.463  1.00  0.00     0.031 C 
ATOM     67  C   UNL A   1      40.029  32.816  36.241  1.00  0.00     0.037 A 
BRANCH  54  68
ATOM     68  C   UNL A   1      36.999  32.624  30.861  1.00  0.00     0.058 A 
ATOM     69  C   UNL A   1      37.212  33.660  29.940  1.00  0.00     0.135 A 
ATOM     70  C   UNL A   1      35.711  32.069  30.938  1.00  0.00     0.135 A 
ATOM     71  F   UNL A   1      38.419  34.238  29.839  1.00  0.00    -0.206 F 
ATOM     72  C   UNL A   1      36.183  34.138  29.134  1.00  0.00     0.059 A 
ATOM     73  C   UNL A   1      34.674  32.515  30.125  1.00  0.00     0.059 A 
ATOM     74  F   UNL A   1      35.454  31.078  31.806  1.00  0.00    -0.206 F 
ATOM     75  C   UNL A   1      34.918  33.558  29.233  1.00  0.00     0.060 A 
BRANCH  75  76
ATOM     76  S   UNL A   1      33.599  34.174  28.165  1.00  0.00     0.124 S 
ATOM     77  O   UNL A   1      34.354  34.955  27.190  1.00  0.00    -0.237 OA
ATOM     78  O   UNL A   1      33.000  32.941  27.662  1.00  0.00    -0.237 OA
ATOM     79  O   UNL A   1      32.759  34.949  29.074  1.00  0.00    -0.744 OA
ENDBRANCH  75  76
ENDBRANCH  54  68
BRANCH  55  80
ATOM     80  C   UNL A   1      44.599  28.839  36.131  1.00  0.00     0.058 A 
ATOM     81  C   UNL A   1      44.441  27.781  37.038  1.00  0.00     0.135 A 
ATOM     82  C   UNL A   1      45.879  29.399  35.995  1.00  0.00     0.135 A 
ATOM     83  F   UNL A   1      43.234  27.222  37.211  1.00  0.00    -0.206 F 
ATOM     84  C   UNL A   1      45.506  27.308  37.798  1.00  0.00     0.059 A 
ATOM     85  C   UNL A   1      46.965  28.926  36.725  1.00  0.00     0.059 A 
ATOM     86  F   UNL A   1      46.086  30.407  35.134  1.00  0.00    -0.206 F 
ATOM     87  C   UNL A   1      46.765  27.888  37.633  1.00  0.00     0.060 A 
BRANCH  87  88
ATOM     88  S   UNL A   1      48.152  27.245  38.596  1.00  0.00     0.124 S 
ATOM     89  O   UNL A   1      48.448  28.373  39.473  1.00  0.00    -0.237 OA
ATOM     90  O   UNL A   1      47.565  26.073  39.237  1.00  0.00    -0.237 OA
ATOM     91  O   UNL A   1      49.159  26.954  37.579  1.00  0.00    -0.744 OA
ENDBRANCH  87  88
ENDBRANCH  55  80
BRANCH  67  92
ATOM     92  C   UNL A   1      39.737  33.668  37.445  1.00  0.00     0.058 A 
ATOM     93  C   UNL A   1      38.831  33.260  38.436  1.00  0.00     0.135 A 
ATOM     94  C   UNL A   1      40.417  34.882  37.636  1.00  0.00     0.135 A 
ATOM     95  F   UNL A   1      38.150  32.112  38.299  1.00  0.00    -0.206 F 
ATOM     96  C   UNL A   1      38.597  34.035  39.568  1.00  0.00     0.059 A 
ATOM     97  C   UNL A   1      40.217  35.661  38.772  1.00  0.00     0.059 A 
ATOM     98  F   UNL A   1      41.301  35.312  36.723  1.00  0.00    -0.206 F 
ATOM     99  C   UNL A   1      39.296  35.233  39.728  1.00  0.00     0.060 A 
BRANCH  99 100
ATOM    100  S   UNL A   1      39.012  36.213  41.218  1.00  0.00     0.124 S 
ATOM    101  O   UNL A   1      40.278  36.045  41.925  1.00  0.00    -0.237 OA
ATOM    102  O   UNL A   1      38.762  37.545  40.676  1.00  0.00    -0.237 OA
ATOM    103  O   UNL A   1      37.858  35.566  41.835  1.00  0.00    -0.744 OA
ENDBRANCH  99 100
ENDBRANCH  67  92
ENDBRANCH  41  42
ENDBRANCH  34  36
ENDBRANCH  33  34
ENDBRANCH  32  33
ENDBRANCH  31  32
ENDBRANCH  30  31
ENDBRANCH   1  30
TORSDOF 22
ENDMDL
