MODEL 1
REMARK VINA RESULT:     -11.5      0.000      0.000
REMARK SMILES Cc1ccccc1CSCC(=O)Nc1ccc(C)c(C(=O)OCCOCCOC(=O)c2ccc(-c3c4nc(c(-c5c(F)cc(S(=O)(=O)[O-])cc5F)c5ccc([nH]5)c(-c5c(F)cc(S(=O)(=O)[O-])cc5F)c5nc(c(-c6c(F)cc(S(=O)(=O)[O-])cc6F)c6ccc3[nH]6)C=C5)C=C4)cc2)c1
REMARK SMILES IDX 24 1 23 2 22 3 20 4 21 5 19 6 14 7 15 8 97 9 16 10 17 11
REMARK SMILES IDX 18 12 13 13 11 14 12 15 10 17 9 18 8 19 7 20 1 21 2 22 3 23
REMARK SMILES IDX 4 24 6 25 5 26 25 27 26 28 27 29 28 30 29 31 30 32 31 33
REMARK SMILES IDX 32 34 96 35 33 36 95 37 34 38 35 39 36 40 89 41 37 42 94 43
REMARK SMILES IDX 88 44 90 45 38 46 93 47 87 48 86 49 39 51 73 52 52 53 72 54
REMARK SMILES IDX 53 55 56 56 71 57 91 58 54 59 55 60 70 62 92 63 57 64 40 65
REMARK SMILES IDX 41 66 50 67 42 68 43 69 49 70 51 71 44 72 45 73 46 74 47 75
REMARK SMILES IDX 48 76 74 77 75 78 84 79 76 80 77 81 83 82 85 83 78 84 79 85
REMARK SMILES IDX 80 86 81 87 82 88 58 89 59 90 68 91 60 92 61 93 67 94 69 95
REMARK SMILES IDX 62 96 63 97 64 98 65 99 66 100
REMARK H PARENT 13 16 90 50 56 61
REMARK Flexibility Score: inf
ROOT
ATOM      1  C   UNL A   1      31.491  28.238  27.387  1.00  0.00     0.202 C 
ENDROOT
BRANCH   1   2
ATOM      2  C   UNL A   1      31.871  26.920  26.815  1.00  0.00     0.261 C 
BRANCH   2   3
ATOM      3  O   UNL A   1      30.829  26.401  25.978  1.00  0.00    -0.460 OA
BRANCH   3   4
ATOM      4  C   UNL A   1      30.737  26.624  24.652  1.00  0.00     0.338 C 
ATOM      5  O   UNL A   1      30.047  27.410  24.053  1.00  0.00    -0.246 OA
BRANCH   4   6
ATOM      6  C   UNL A   1      31.806  25.801  24.040  1.00  0.00     0.065 A 
ATOM      7  C   UNL A   1      32.307  23.630  23.174  1.00  0.00     0.042 A 
ATOM      8  C   UNL A   1      33.260  24.209  22.342  1.00  0.00     0.026 A 
ATOM      9  C   UNL A   1      31.510  24.434  23.963  1.00  0.00     0.042 A 
ATOM     10  C   UNL A   1      33.639  25.532  22.507  1.00  0.00     0.006 A 
ATOM     11  C   UNL A   1      32.960  26.337  23.413  1.00  0.00    -0.036 A 
ATOM     12  C   UNL A   1      33.470  27.746  23.579  1.00  0.00     0.045 C 
BRANCH   7  13
ATOM     13  N   UNL A   1      32.124  22.252  23.181  1.00  0.00    -0.325 N 
ATOM     14  C   UNL A   1      32.358  21.413  24.241  1.00  0.00     0.234 C 
ATOM     15  O   UNL A   1      32.157  20.206  24.061  1.00  0.00    -0.274 OA
ATOM     16  H   UNL A   1      31.795  21.841  22.349  1.00  0.00     0.169 HD
BRANCH  14  17
ATOM     17  C   UNL A   1      32.660  21.941  25.641  1.00  0.00     0.170 C 
BRANCH  17  18
ATOM     18  S   UNL A   1      34.302  21.676  26.359  1.00  0.00    -0.147 SA
BRANCH  18  19
ATOM     19  C   UNL A   1      35.396  22.013  24.938  1.00  0.00     0.105 C 
BRANCH  19  20
ATOM     20  C   UNL A   1      36.791  22.358  25.362  1.00  0.00    -0.035 A 
ATOM     21  C   UNL A   1      37.760  20.001  24.926  1.00  0.00     0.044 C 
ATOM     22  C   UNL A   1      37.838  21.420  25.428  1.00  0.00    -0.047 A 
ATOM     23  C   UNL A   1      39.053  21.820  26.007  1.00  0.00     0.004 A 
ATOM     24  C   UNL A   1      39.246  23.126  26.460  1.00  0.00     0.000 A 
ATOM     25  C   UNL A   1      37.026  23.691  25.757  1.00  0.00     0.005 A 
ATOM     26  C   UNL A   1      38.240  24.070  26.310  1.00  0.00     0.000 A 
ENDBRANCH  19  20
ENDBRANCH  18  19
ENDBRANCH  17  18
ENDBRANCH  14  17
ENDBRANCH   7  13
ENDBRANCH   4   6
ENDBRANCH   3   4
ENDBRANCH   2   3
ENDBRANCH   1   2
BRANCH   1  27
ATOM     27  O   UNL A   1      32.624  29.050  27.116  1.00  0.00    -0.374 OA
BRANCH  27  28
ATOM     28  C   UNL A   1      32.415  30.143  26.266  1.00  0.00     0.202 C 
BRANCH  28  29
ATOM     29  C   UNL A   1      32.952  31.433  26.881  1.00  0.00     0.261 C 
BRANCH  29  30
ATOM     30  O   UNL A   1      33.837  31.144  27.992  1.00  0.00    -0.460 OA
BRANCH  30  31
ATOM     31  C   UNL A   1      35.104  31.661  27.925  1.00  0.00     0.338 C 
ATOM     32  O   UNL A   1      35.355  32.788  27.539  1.00  0.00    -0.246 OA
BRANCH  31  33
ATOM     33  C   UNL A   1      36.114  30.679  28.425  1.00  0.00     0.060 A 
ATOM     34  C   UNL A   1      35.926  29.974  29.634  1.00  0.00     0.016 A 
ATOM     35  C   UNL A   1      37.349  30.634  27.787  1.00  0.00     0.016 A 
ATOM     36  C   UNL A   1      37.015  29.354  30.277  1.00  0.00     0.010 A 
ATOM     37  C   UNL A   1      38.431  30.135  28.477  1.00  0.00     0.010 A 
ATOM     38  C   UNL A   1      38.284  29.514  29.734  1.00  0.00    -0.014 A 
BRANCH  38  39
ATOM     39  C   UNL A   1      39.571  29.110  30.317  1.00  0.00     0.031 A 
ATOM     40  C   UNL A   1      40.143  27.875  29.750  1.00  0.00     0.074 A 
ATOM     41  C   UNL A   1      40.361  30.008  30.958  1.00  0.00     0.049 A 
ATOM     42  N   UNL A   1      41.319  27.438  30.001  1.00  0.00    -0.248 NA
ATOM     43  C   UNL A   1      39.401  27.003  28.840  1.00  0.00     0.031 C 
ATOM     44  C   UNL A   1      41.817  30.157  30.914  1.00  0.00     0.029 A 
ATOM     45  N   UNL A   1      39.982  31.043  31.810  1.00  0.00    -0.354 N 
ATOM     46  C   UNL A   1      41.616  26.464  29.078  1.00  0.00     0.074 A 
ATOM     47  C   UNL A   1      40.351  26.141  28.472  1.00  0.00     0.031 C 
ATOM     48  C   UNL A   1      42.212  31.035  31.860  1.00  0.00     0.029 A 
ATOM     49  C   UNL A   1      41.044  31.361  32.666  1.00  0.00     0.049 A 
ATOM     50  H   UNL A   1      39.101  31.483  31.812  1.00  0.00     0.167 HD
ATOM     51  C   UNL A   1      42.934  26.168  28.888  1.00  0.00     0.037 A 
ATOM     52  C   UNL A   1      40.849  31.192  34.003  1.00  0.00     0.037 A 
ATOM     53  C   UNL A   1      43.745  26.866  29.911  1.00  0.00     0.049 A 
ATOM     54  C   UNL A   1      41.620  29.966  34.431  1.00  0.00     0.074 A 
ATOM     55  C   UNL A   1      44.581  27.969  29.928  1.00  0.00     0.029 A 
ATOM     56  N   UNL A   1      43.445  26.622  31.245  1.00  0.00    -0.354 N 
ATOM     57  N   UNL A   1      42.295  29.231  33.585  1.00  0.00    -0.248 NA
ATOM     58  C   UNL A   1      41.722  29.459  35.789  1.00  0.00     0.031 C 
ATOM     59  C   UNL A   1      44.734  28.393  31.295  1.00  0.00     0.029 A 
ATOM     60  C   UNL A   1      44.013  27.534  32.111  1.00  0.00     0.049 A 
ATOM     61  H   UNL A   1      42.883  25.870  31.543  1.00  0.00     0.167 HD
ATOM     62  C   UNL A   1      42.930  28.218  34.213  1.00  0.00     0.074 A 
ATOM     63  C   UNL A   1      42.485  28.363  35.597  1.00  0.00     0.031 C 
ATOM     64  C   UNL A   1      43.772  27.368  33.549  1.00  0.00     0.037 A 
BRANCH  51  65
ATOM     65  C   UNL A   1      43.520  25.376  27.726  1.00  0.00     0.058 A 
ATOM     66  C   UNL A   1      44.215  24.174  27.979  1.00  0.00     0.135 A 
ATOM     67  C   UNL A   1      43.492  25.738  26.357  1.00  0.00     0.135 A 
ATOM     68  F   UNL A   1      44.336  23.687  29.222  1.00  0.00    -0.206 F 
ATOM     69  C   UNL A   1      44.831  23.413  26.975  1.00  0.00     0.059 A 
ATOM     70  C   UNL A   1      44.091  24.992  25.337  1.00  0.00     0.059 A 
ATOM     71  F   UNL A   1      42.893  26.841  25.909  1.00  0.00    -0.206 F 
ATOM     72  C   UNL A   1      44.763  23.828  25.654  1.00  0.00     0.060 A 
BRANCH  72  73
ATOM     73  S   UNL A   1      45.545  22.838  24.369  1.00  0.00     0.124 S 
ATOM     74  O   UNL A   1      44.397  22.402  23.581  1.00  0.00    -0.237 OA
ATOM     75  O   UNL A   1      46.425  23.811  23.729  1.00  0.00    -0.237 OA
ATOM     76  O   UNL A   1      46.223  21.782  25.114  1.00  0.00    -0.744 OA
ENDBRANCH  72  73
ENDBRANCH  51  65
BRANCH  52  77
ATOM     77  C   UNL A   1      39.476  31.679  34.409  1.00  0.00     0.058 A 
ATOM     78  C   UNL A   1      39.326  33.070  34.640  1.00  0.00     0.135 A 
ATOM     79  C   UNL A   1      38.314  30.991  34.020  1.00  0.00     0.135 A 
ATOM     80  F   UNL A   1      40.392  33.805  35.001  1.00  0.00    -0.206 F 
ATOM     81  C   UNL A   1      38.143  33.764  34.347  1.00  0.00     0.059 A 
ATOM     82  C   UNL A   1      37.126  31.670  33.695  1.00  0.00     0.059 A 
ATOM     83  F   UNL A   1      38.371  29.675  33.766  1.00  0.00    -0.206 F 
ATOM     84  C   UNL A   1      37.064  33.063  33.812  1.00  0.00     0.060 A 
BRANCH  84  85
ATOM     85  S   UNL A   1      35.746  33.999  32.952  1.00  0.00     0.124 S 
ATOM     86  O   UNL A   1      35.631  35.198  33.769  1.00  0.00    -0.237 OA
ATOM     87  O   UNL A   1      36.304  34.200  31.614  1.00  0.00    -0.237 OA
ATOM     88  O   UNL A   1      34.617  33.076  32.997  1.00  0.00    -0.744 OA
ENDBRANCH  84  85
ENDBRANCH  52  77
BRANCH  64  89
ATOM     89  C   UNL A   1      44.399  26.216  34.265  1.00  0.00     0.058 A 
ATOM     90  C   UNL A   1      45.785  26.123  34.441  1.00  0.00     0.135 A 
ATOM     91  C   UNL A   1      43.625  25.167  34.803  1.00  0.00     0.135 A 
ATOM     92  F   UNL A   1      46.620  26.975  33.826  1.00  0.00    -0.206 F 
ATOM     93  C   UNL A   1      46.348  25.166  35.274  1.00  0.00     0.059 A 
ATOM     94  C   UNL A   1      44.174  24.155  35.567  1.00  0.00     0.059 A 
ATOM     95  F   UNL A   1      42.295  25.102  34.662  1.00  0.00    -0.206 F 
ATOM     96  C   UNL A   1      45.526  24.204  35.853  1.00  0.00     0.060 A 
BRANCH  96  97
ATOM     97  S   UNL A   1      46.230  23.018  36.997  1.00  0.00     0.124 S 
ATOM     98  O   UNL A   1      46.019  23.669  38.287  1.00  0.00    -0.237 OA
ATOM     99  O   UNL A   1      45.404  21.844  36.735  1.00  0.00    -0.237 OA
ATOM    100  O   UNL A   1      47.621  22.919  36.569  1.00  0.00    -0.744 OA
ENDBRANCH  96  97
ENDBRANCH  64  89
ENDBRANCH  38  39
ENDBRANCH  31  33
ENDBRANCH  30  31
ENDBRANCH  29  30
ENDBRANCH  28  29
ENDBRANCH  27  28
ENDBRANCH   1  27
TORSDOF 22
ENDMDL
MODEL 2
REMARK VINA RESULT:     -11.4      1.496      2.811
REMARK SMILES Cc1ccccc1CSCC(=O)Nc1ccc(C)c(C(=O)OCCOCCOC(=O)c2ccc(-c3c4nc(c(-c5c(F)cc(S(=O)(=O)[O-])cc5F)c5ccc([nH]5)c(-c5c(F)cc(S(=O)(=O)[O-])cc5F)c5nc(c(-c6c(F)cc(S(=O)(=O)[O-])cc6F)c6ccc3[nH]6)C=C5)C=C4)cc2)c1
REMARK SMILES IDX 24 1 23 2 22 3 20 4 21 5 19 6 14 7 15 8 97 9 16 10 17 11
REMARK SMILES IDX 18 12 13 13 11 14 12 15 10 17 9 18 8 19 7 20 1 21 2 22 3 23
REMARK SMILES IDX 4 24 6 25 5 26 25 27 26 28 27 29 28 30 29 31 30 32 31 33
REMARK SMILES IDX 32 34 96 35 33 36 95 37 34 38 35 39 36 40 89 41 37 42 94 43
REMARK SMILES IDX 88 44 90 45 38 46 93 47 87 48 86 49 39 51 73 52 52 53 72 54
REMARK SMILES IDX 53 55 56 56 71 57 91 58 54 59 55 60 70 62 92 63 57 64 40 65
REMARK SMILES IDX 41 66 50 67 42 68 43 69 49 70 51 71 44 72 45 73 46 74 47 75
REMARK SMILES IDX 48 76 74 77 75 78 84 79 76 80 77 81 83 82 85 83 78 84 79 85
REMARK SMILES IDX 80 86 81 87 82 88 58 89 59 90 68 91 60 92 61 93 67 94 69 95
REMARK SMILES IDX 62 96 63 97 64 98 65 99 66 100
REMARK H PARENT 13 16 90 50 56 61
REMARK Flexibility Score: inf
ROOT
ATOM      1  C   UNL A   1      31.796  28.627  27.037  1.00  0.00     0.202 C 
ENDROOT
BRANCH   1   2
ATOM      2  C   UNL A   1      32.734  27.541  26.652  1.00  0.00     0.261 C 
BRANCH   2   3
ATOM      3  O   UNL A   1      32.045  26.293  26.501  1.00  0.00    -0.460 OA
BRANCH   3   4
ATOM      4  C   UNL A   1      32.209  25.456  25.457  1.00  0.00     0.338 C 
ATOM      5  O   UNL A   1      32.061  25.663  24.279  1.00  0.00    -0.246 OA
BRANCH   4   6
ATOM      6  C   UNL A   1      32.786  24.219  26.032  1.00  0.00     0.065 A 
ATOM      7  C   UNL A   1      34.769  23.277  26.976  1.00  0.00     0.042 A 
ATOM      8  C   UNL A   1      33.976  22.395  27.702  1.00  0.00     0.026 A 
ATOM      9  C   UNL A   1      34.176  24.255  26.206  1.00  0.00     0.042 A 
ATOM     10  C   UNL A   1      32.621  22.275  27.437  1.00  0.00     0.006 A 
ATOM     11  C   UNL A   1      32.012  23.144  26.542  1.00  0.00    -0.036 A 
ATOM     12  C   UNL A   1      30.549  22.912  26.261  1.00  0.00     0.045 C 
BRANCH   7  13
ATOM     13  N   UNL A   1      36.156  23.206  27.058  1.00  0.00    -0.325 N 
ATOM     14  C   UNL A   1      37.037  23.429  26.030  1.00  0.00     0.234 C 
ATOM     15  O   UNL A   1      38.241  23.303  26.280  1.00  0.00    -0.274 OA
ATOM     16  H   UNL A   1      36.540  22.976  27.934  1.00  0.00     0.169 HD
BRANCH  14  17
ATOM     17  C   UNL A   1      36.587  24.000  24.688  1.00  0.00     0.170 C 
BRANCH  17  18
ATOM     18  S   UNL A   1      36.372  22.888  23.273  1.00  0.00    -0.147 SA
BRANCH  18  19
ATOM     19  C   UNL A   1      34.555  22.815  23.122  1.00  0.00     0.105 C 
BRANCH  19  20
ATOM     20  C   UNL A   1      33.984  21.567  23.722  1.00  0.00    -0.035 A 
ATOM     21  C   UNL A   1      31.631  21.863  22.690  1.00  0.00     0.044 C 
ATOM     22  C   UNL A   1      32.636  21.184  23.585  1.00  0.00    -0.047 A 
ATOM     23  C   UNL A   1      32.178  20.091  24.337  1.00  0.00     0.004 A 
ATOM     24  C   UNL A   1      33.038  19.363  25.160  1.00  0.00     0.000 A 
ATOM     25  C   UNL A   1      34.855  20.778  24.500  1.00  0.00     0.005 A 
ATOM     26  C   UNL A   1      34.385  19.690  25.221  1.00  0.00     0.000 A 
ENDBRANCH  19  20
ENDBRANCH  18  19
ENDBRANCH  17  18
ENDBRANCH  14  17
ENDBRANCH   7  13
ENDBRANCH   4   6
ENDBRANCH   3   4
ENDBRANCH   2   3
ENDBRANCH   1   2
BRANCH   1  27
ATOM     27  O   UNL A   1      32.128  29.677  26.140  1.00  0.00    -0.374 OA
BRANCH  27  28
ATOM     28  C   UNL A   1      31.774  30.971  26.541  1.00  0.00     0.202 C 
BRANCH  28  29
ATOM     29  C   UNL A   1      32.912  31.646  27.302  1.00  0.00     0.261 C 
BRANCH  29  30
ATOM     30  O   UNL A   1      34.145  30.897  27.156  1.00  0.00    -0.460 OA
BRANCH  30  31
ATOM     31  C   UNL A   1      35.291  31.495  27.610  1.00  0.00     0.338 C 
ATOM     32  O   UNL A   1      35.475  32.698  27.602  1.00  0.00    -0.246 OA
BRANCH  31  33
ATOM     33  C   UNL A   1      36.249  30.483  28.149  1.00  0.00     0.060 A 
ATOM     34  C   UNL A   1      36.051  29.870  29.405  1.00  0.00     0.016 A 
ATOM     35  C   UNL A   1      37.461  30.317  27.487  1.00  0.00     0.016 A 
ATOM     36  C   UNL A   1      37.115  29.223  30.062  1.00  0.00     0.010 A 
ATOM     37  C   UNL A   1      38.528  29.793  28.182  1.00  0.00     0.010 A 
ATOM     38  C   UNL A   1      38.377  29.264  29.480  1.00  0.00    -0.014 A 
BRANCH  38  39
ATOM     39  C   UNL A   1      39.650  28.814  30.058  1.00  0.00     0.031 A 
ATOM     40  C   UNL A   1      40.134  27.518  29.549  1.00  0.00     0.074 A 
ATOM     41  C   UNL A   1      40.508  29.697  30.630  1.00  0.00     0.049 A 
ATOM     42  N   UNL A   1      41.287  27.024  29.800  1.00  0.00    -0.248 NA
ATOM     43  C   UNL A   1      39.319  26.644  28.706  1.00  0.00     0.031 C 
ATOM     44  C   UNL A   1      41.969  29.753  30.548  1.00  0.00     0.029 A 
ATOM     45  N   UNL A   1      40.213  30.798  31.431  1.00  0.00    -0.354 N 
ATOM     46  C   UNL A   1      41.502  25.984  28.927  1.00  0.00     0.074 A 
ATOM     47  C   UNL A   1      40.206  25.706  28.367  1.00  0.00     0.031 C 
ATOM     48  C   UNL A   1      42.439  30.656  31.434  1.00  0.00     0.029 A 
ATOM     49  C   UNL A   1      41.312  31.097  32.245  1.00  0.00     0.049 A 
ATOM     50  H   UNL A   1      39.360  31.291  31.426  1.00  0.00     0.167 HD
ATOM     51  C   UNL A   1      42.795  25.598  28.726  1.00  0.00     0.037 A 
ATOM     52  C   UNL A   1      41.141  31.014  33.593  1.00  0.00     0.037 A 
ATOM     53  C   UNL A   1      43.671  26.301  29.691  1.00  0.00     0.049 A 
ATOM     54  C   UNL A   1      41.846  29.768  34.073  1.00  0.00     0.074 A 
ATOM     55  C   UNL A   1      44.572  27.350  29.628  1.00  0.00     0.029 A 
ATOM     56  N   UNL A   1      43.390  26.148  31.043  1.00  0.00    -0.354 N 
ATOM     57  N   UNL A   1      42.455  28.948  33.256  1.00  0.00    -0.248 NA
ATOM     58  C   UNL A   1      41.951  29.331  35.455  1.00  0.00     0.031 C 
ATOM     59  C   UNL A   1      44.783  27.838  30.966  1.00  0.00     0.029 A 
ATOM     60  C   UNL A   1      44.033  27.070  31.844  1.00  0.00     0.049 A 
ATOM     61  H   UNL A   1      42.791  25.451  31.395  1.00  0.00     0.167 HD
ATOM     62  C   UNL A   1      43.044  27.934  33.926  1.00  0.00     0.074 A 
ATOM     63  C   UNL A   1      42.642  28.182  35.309  1.00  0.00     0.031 C 
ATOM     64  C   UNL A   1      43.817  26.998  33.294  1.00  0.00     0.037 A 
BRANCH  51  65
ATOM     65  C   UNL A   1      43.305  24.709  27.598  1.00  0.00     0.058 A 
ATOM     66  C   UNL A   1      43.192  23.306  27.708  1.00  0.00     0.135 A 
ATOM     67  C   UNL A   1      43.951  25.136  26.413  1.00  0.00     0.135 A 
ATOM     68  F   UNL A   1      42.606  22.736  28.770  1.00  0.00    -0.206 F 
ATOM     69  C   UNL A   1      43.683  22.416  26.744  1.00  0.00     0.059 A 
ATOM     70  C   UNL A   1      44.440  24.267  25.432  1.00  0.00     0.059 A 
ATOM     71  F   UNL A   1      44.162  26.419  26.122  1.00  0.00    -0.206 F 
ATOM     72  C   UNL A   1      44.305  22.904  25.605  1.00  0.00     0.060 A 
BRANCH  72  73
ATOM     73  S   UNL A   1      44.921  21.755  24.364  1.00  0.00     0.124 S 
ATOM     74  O   UNL A   1      46.352  21.740  24.645  1.00  0.00    -0.237 OA
ATOM     75  O   UNL A   1      44.193  20.533  24.693  1.00  0.00    -0.237 OA
ATOM     76  O   UNL A   1      44.544  22.380  23.099  1.00  0.00    -0.744 OA
ENDBRANCH  72  73
ENDBRANCH  51  65
BRANCH  52  77
ATOM     77  C   UNL A   1      39.809  31.605  34.000  1.00  0.00     0.058 A 
ATOM     78  C   UNL A   1      39.678  33.015  33.922  1.00  0.00     0.135 A 
ATOM     79  C   UNL A   1      38.618  30.869  33.883  1.00  0.00     0.135 A 
ATOM     80  F   UNL A   1      40.771  33.793  34.009  1.00  0.00    -0.206 F 
ATOM     81  C   UNL A   1      38.472  33.646  33.586  1.00  0.00     0.059 A 
ATOM     82  C   UNL A   1      37.404  31.479  33.521  1.00  0.00     0.059 A 
ATOM     83  F   UNL A   1      38.654  29.529  33.930  1.00  0.00    -0.206 F 
ATOM     84  C   UNL A   1      37.349  32.863  33.324  1.00  0.00     0.060 A 
BRANCH  84  85
ATOM     85  S   UNL A   1      35.956  33.604  32.396  1.00  0.00     0.124 S 
ATOM     86  O   UNL A   1      35.142  32.441  32.074  1.00  0.00    -0.237 OA
ATOM     87  O   UNL A   1      35.370  34.532  33.365  1.00  0.00    -0.237 OA
ATOM     88  O   UNL A   1      36.627  34.254  31.275  1.00  0.00    -0.744 OA
ENDBRANCH  84  85
ENDBRANCH  52  77
BRANCH  64  89
ATOM     89  C   UNL A   1      44.391  25.852  34.060  1.00  0.00     0.058 A 
ATOM     90  C   UNL A   1      43.578  24.882  34.659  1.00  0.00     0.135 A 
ATOM     91  C   UNL A   1      45.784  25.687  34.215  1.00  0.00     0.135 A 
ATOM     92  F   UNL A   1      42.245  25.036  34.715  1.00  0.00    -0.206 F 
ATOM     93  C   UNL A   1      44.109  23.718  35.194  1.00  0.00     0.059 A 
ATOM     94  C   UNL A   1      46.337  24.574  34.819  1.00  0.00     0.059 A 
ATOM     95  F   UNL A   1      46.674  26.566  33.740  1.00  0.00    -0.206 F 
ATOM     96  C   UNL A   1      45.491  23.564  35.243  1.00  0.00     0.060 A 
BRANCH  96  97
ATOM     97  S   UNL A   1      46.186  22.029  35.852  1.00  0.00     0.124 S 
ATOM     98  O   UNL A   1      45.521  21.035  35.015  1.00  0.00    -0.237 OA
ATOM     99  O   UNL A   1      47.606  22.234  35.589  1.00  0.00    -0.237 OA
ATOM    100  O   UNL A   1      45.800  22.018  37.259  1.00  0.00    -0.744 OA
ENDBRANCH  96  97
ENDBRANCH  64  89
ENDBRANCH  38  39
ENDBRANCH  31  33
ENDBRANCH  30  31
ENDBRANCH  29  30
ENDBRANCH  28  29
ENDBRANCH  27  28
ENDBRANCH   1  27
TORSDOF 22
ENDMDL
MODEL 3
REMARK VINA RESULT:     -11.3      1.733      4.028
REMARK SMILES Cc1ccccc1CSCC(=O)Nc1ccc(C)c(C(=O)OCCOCCOC(=O)c2ccc(-c3c4nc(c(-c5c(F)cc(S(=O)(=O)[O-])cc5F)c5ccc([nH]5)c(-c5c(F)cc(S(=O)(=O)[O-])cc5F)c5nc(c(-c6c(F)cc(S(=O)(=O)[O-])cc6F)c6ccc3[nH]6)C=C5)C=C4)cc2)c1
REMARK SMILES IDX 24 1 23 2 22 3 20 4 21 5 19 6 14 7 15 8 97 9 16 10 17 11
REMARK SMILES IDX 18 12 13 13 11 14 12 15 10 17 9 18 8 19 7 20 1 21 2 22 3 23
REMARK SMILES IDX 4 24 6 25 5 26 25 27 26 28 27 29 28 30 29 31 30 32 31 33
REMARK SMILES IDX 32 34 96 35 33 36 95 37 34 38 35 39 36 40 89 41 37 42 94 43
REMARK SMILES IDX 88 44 90 45 38 46 93 47 87 48 86 49 39 51 73 52 52 53 72 54
REMARK SMILES IDX 53 55 56 56 71 57 91 58 54 59 55 60 70 62 92 63 57 64 40 65
REMARK SMILES IDX 41 66 50 67 42 68 43 69 49 70 51 71 44 72 45 73 46 74 47 75
REMARK SMILES IDX 48 76 74 77 75 78 84 79 76 80 77 81 83 82 85 83 78 84 79 85
REMARK SMILES IDX 80 86 81 87 82 88 58 89 59 90 68 91 60 92 61 93 67 94 69 95
REMARK SMILES IDX 62 96 63 97 64 98 65 99 66 100
REMARK H PARENT 13 16 90 50 56 61
REMARK Flexibility Score: inf
ROOT
ATOM      1  C   UNL A   1      33.450  26.412  25.894  1.00  0.00     0.202 C 
ENDROOT
BRANCH   1   2
ATOM      2  C   UNL A   1      34.090  26.163  24.577  1.00  0.00     0.261 C 
BRANCH   2   3
ATOM      3  O   UNL A   1      34.987  25.046  24.640  1.00  0.00    -0.460 OA
BRANCH   3   4
ATOM      4  C   UNL A   1      34.851  23.921  23.912  1.00  0.00     0.338 C 
ATOM      5  O   UNL A   1      35.124  23.719  22.755  1.00  0.00    -0.246 OA
BRANCH   4   6
ATOM      6  C   UNL A   1      34.433  22.877  24.876  1.00  0.00     0.065 A 
ATOM      7  C   UNL A   1      32.588  22.075  26.167  1.00  0.00     0.042 A 
ATOM      8  C   UNL A   1      33.135  20.797  26.110  1.00  0.00     0.026 A 
ATOM      9  C   UNL A   1      33.187  23.106  25.472  1.00  0.00     0.042 A 
ATOM     10  C   UNL A   1      34.420  20.595  25.633  1.00  0.00     0.006 A 
ATOM     11  C   UNL A   1      35.122  21.651  25.067  1.00  0.00    -0.036 A 
ATOM     12  C   UNL A   1      36.535  21.366  24.626  1.00  0.00     0.045 C 
BRANCH   7  13
ATOM     13  N   UNL A   1      31.418  22.308  26.881  1.00  0.00    -0.325 N 
ATOM     14  C   UNL A   1      30.499  23.294  26.623  1.00  0.00     0.234 C 
ATOM     15  O   UNL A   1      29.522  23.366  27.376  1.00  0.00    -0.274 OA
ATOM     16  H   UNL A   1      31.232  21.711  27.641  1.00  0.00     0.169 HD
BRANCH  14  17
ATOM     17  C   UNL A   1      30.557  24.143  25.356  1.00  0.00     0.170 C 
BRANCH  17  18
ATOM     18  S   UNL A   1      29.831  25.804  25.362  1.00  0.00    -0.147 SA
BRANCH  18  19
ATOM     19  C   UNL A   1      29.770  26.196  23.581  1.00  0.00     0.105 C 
BRANCH  19  20
ATOM     20  C   UNL A   1      29.251  27.577  23.320  1.00  0.00    -0.035 A 
ATOM     21  C   UNL A   1      31.579  28.638  22.944  1.00  0.00     0.044 C 
ATOM     22  C   UNL A   1      30.082  28.694  23.109  1.00  0.00    -0.047 A 
ATOM     23  C   UNL A   1      29.485  29.963  23.051  1.00  0.00     0.004 A 
ATOM     24  C   UNL A   1      28.102  30.120  23.144  1.00  0.00     0.000 A 
ATOM     25  C   UNL A   1      27.851  27.745  23.338  1.00  0.00     0.005 A 
ATOM     26  C   UNL A   1      27.281  29.008  23.261  1.00  0.00     0.000 A 
ENDBRANCH  19  20
ENDBRANCH  18  19
ENDBRANCH  17  18
ENDBRANCH  14  17
ENDBRANCH   7  13
ENDBRANCH   4   6
ENDBRANCH   3   4
ENDBRANCH   2   3
ENDBRANCH   1   2
BRANCH   1  27
ATOM     27  O   UNL A   1      33.483  27.827  26.010  1.00  0.00    -0.374 OA
BRANCH  27  28
ATOM     28  C   UNL A   1      32.318  28.438  26.489  1.00  0.00     0.202 C 
BRANCH  28  29
ATOM     29  C   UNL A   1      32.612  29.824  27.057  1.00  0.00     0.261 C 
BRANCH  29  30
ATOM     30  O   UNL A   1      33.840  30.358  26.503  1.00  0.00    -0.460 OA
BRANCH  30  31
ATOM     31  C   UNL A   1      34.626  31.103  27.341  1.00  0.00     0.338 C 
ATOM     32  O   UNL A   1      34.452  32.290  27.554  1.00  0.00    -0.246 OA
BRANCH  31  33
ATOM     33  C   UNL A   1      35.683  30.262  27.981  1.00  0.00     0.060 A 
ATOM     34  C   UNL A   1      35.534  29.755  29.290  1.00  0.00     0.016 A 
ATOM     35  C   UNL A   1      36.916  30.170  27.344  1.00  0.00     0.016 A 
ATOM     36  C   UNL A   1      36.653  29.297  30.012  1.00  0.00     0.010 A 
ATOM     37  C   UNL A   1      38.023  29.839  28.092  1.00  0.00     0.010 A 
ATOM     38  C   UNL A   1      37.911  29.424  29.435  1.00  0.00    -0.014 A 
BRANCH  38  39
ATOM     39  C   UNL A   1      39.218  29.178  30.060  1.00  0.00     0.031 A 
ATOM     40  C   UNL A   1      39.868  27.919  29.653  1.00  0.00     0.074 A 
ATOM     41  C   UNL A   1      39.947  30.198  30.579  1.00  0.00     0.049 A 
ATOM     42  N   UNL A   1      41.067  27.592  29.954  1.00  0.00    -0.248 NA
ATOM     43  C   UNL A   1      39.186  26.894  28.865  1.00  0.00     0.031 C 
ATOM     44  C   UNL A   1      41.392  30.430  30.511  1.00  0.00     0.029 A 
ATOM     45  N   UNL A   1      39.501  31.308  31.293  1.00  0.00    -0.354 N 
ATOM     46  C   UNL A   1      41.428  26.528  29.161  1.00  0.00     0.074 A 
ATOM     47  C   UNL A   1      40.189  26.052  28.605  1.00  0.00     0.031 C 
ATOM     48  C   UNL A   1      41.727  31.444  31.336  1.00  0.00     0.029 A 
ATOM     49  C   UNL A   1      40.537  31.797  32.098  1.00  0.00     0.049 A 
ATOM     50  H   UNL A   1      38.595  31.689  31.242  1.00  0.00     0.167 HD
ATOM     51  C   UNL A   1      42.763  26.293  29.005  1.00  0.00     0.037 A 
ATOM     52  C   UNL A   1      40.348  31.788  33.446  1.00  0.00     0.037 A 
ATOM     53  C   UNL A   1      43.525  27.165  29.929  1.00  0.00     0.049 A 
ATOM     54  C   UNL A   1      41.191  30.676  34.024  1.00  0.00     0.074 A 
ATOM     55  C   UNL A   1      44.291  28.311  29.801  1.00  0.00     0.029 A 
ATOM     56  N   UNL A   1      43.235  27.074  31.284  1.00  0.00    -0.354 N 
ATOM     57  N   UNL A   1      41.914  29.884  33.277  1.00  0.00    -0.248 NA
ATOM     58  C   UNL A   1      41.319  30.354  35.435  1.00  0.00     0.031 C 
ATOM     59  C   UNL A   1      44.410  28.914  31.104  1.00  0.00     0.029 A 
ATOM     60  C   UNL A   1      43.741  28.122  32.025  1.00  0.00     0.049 A 
ATOM     61  H   UNL A   1      42.719  26.333  31.677  1.00  0.00     0.167 HD
ATOM     62  C   UNL A   1      42.608  29.000  34.026  1.00  0.00     0.074 A 
ATOM     63  C   UNL A   1      42.149  29.292  35.381  1.00  0.00     0.031 C 
ATOM     64  C   UNL A   1      43.504  28.126  33.473  1.00  0.00     0.037 A 
BRANCH  51  65
ATOM     65  C   UNL A   1      43.403  25.397  27.951  1.00  0.00     0.058 A 
ATOM     66  C   UNL A   1      44.027  25.978  26.826  1.00  0.00     0.135 A 
ATOM     67  C   UNL A   1      43.410  23.982  27.938  1.00  0.00     0.135 A 
ATOM     68  F   UNL A   1      44.107  27.308  26.682  1.00  0.00    -0.206 F 
ATOM     69  C   UNL A   1      44.592  25.228  25.786  1.00  0.00     0.059 A 
ATOM     70  C   UNL A   1      43.975  23.212  26.916  1.00  0.00     0.059 A 
ATOM     71  F   UNL A   1      42.867  23.243  28.904  1.00  0.00    -0.206 F 
ATOM     72  C   UNL A   1      44.564  23.842  25.838  1.00  0.00     0.060 A 
BRANCH  72  73
ATOM     73  S   UNL A   1      45.303  22.885  24.504  1.00  0.00     0.124 S 
ATOM     74  O   UNL A   1      44.133  22.490  23.728  1.00  0.00    -0.237 OA
ATOM     75  O   UNL A   1      46.184  23.866  23.878  1.00  0.00    -0.237 OA
ATOM     76  O   UNL A   1      45.982  21.795  25.199  1.00  0.00    -0.744 OA
ENDBRANCH  72  73
ENDBRANCH  51  65
BRANCH  52  77
ATOM     77  C   UNL A   1      38.945  32.237  33.792  1.00  0.00     0.058 A 
ATOM     78  C   UNL A   1      38.629  33.601  33.567  1.00  0.00     0.135 A 
ATOM     79  C   UNL A   1      37.864  31.340  33.756  1.00  0.00     0.135 A 
ATOM     80  F   UNL A   1      39.608  34.521  33.569  1.00  0.00    -0.206 F 
ATOM     81  C   UNL A   1      37.354  34.027  33.170  1.00  0.00     0.059 A 
ATOM     82  C   UNL A   1      36.583  31.741  33.335  1.00  0.00     0.059 A 
ATOM     83  F   UNL A   1      38.077  30.029  33.944  1.00  0.00    -0.206 F 
ATOM     84  C   UNL A   1      36.348  33.078  32.994  1.00  0.00     0.060 A 
BRANCH  84  85
ATOM     85  S   UNL A   1      34.879  33.526  31.996  1.00  0.00     0.124 S 
ATOM     86  O   UNL A   1      33.780  33.121  32.861  1.00  0.00    -0.237 OA
ATOM     87  O   UNL A   1      35.034  34.970  31.812  1.00  0.00    -0.237 OA
ATOM     88  O   UNL A   1      35.068  32.743  30.780  1.00  0.00    -0.744 OA
ENDBRANCH  84  85
ENDBRANCH  52  77
BRANCH  64  89
ATOM     89  C   UNL A   1      44.199  27.116  34.328  1.00  0.00     0.058 A 
ATOM     90  C   UNL A   1      43.546  25.969  34.793  1.00  0.00     0.135 A 
ATOM     91  C   UNL A   1      45.550  27.268  34.705  1.00  0.00     0.135 A 
ATOM     92  F   UNL A   1      42.221  25.813  34.633  1.00  0.00    -0.206 F 
ATOM     93  C   UNL A   1      44.240  24.939  35.412  1.00  0.00     0.059 A 
ATOM     94  C   UNL A   1      46.241  26.292  35.396  1.00  0.00     0.059 A 
ATOM     95  F   UNL A   1      46.278  28.341  34.374  1.00  0.00    -0.206 F 
ATOM     96  C   UNL A   1      45.595  25.103  35.683  1.00  0.00     0.060 A 
BRANCH  96  97
ATOM     97  S   UNL A   1      46.518  23.748  36.404  1.00  0.00     0.124 S 
ATOM     98  O   UNL A   1      47.631  24.439  37.048  1.00  0.00    -0.237 OA
ATOM     99  O   UNL A   1      45.524  23.171  37.304  1.00  0.00    -0.237 OA
ATOM    100  O   UNL A   1      46.875  22.929  35.252  1.00  0.00    -0.744 OA
ENDBRANCH  96  97
ENDBRANCH  64  89
ENDBRANCH  38  39
ENDBRANCH  31  33
ENDBRANCH  30  31
ENDBRANCH  29  30
ENDBRANCH  28  29
ENDBRANCH  27  28
ENDBRANCH   1  27
TORSDOF 22
ENDMDL
