MODEL 1
REMARK VINA RESULT:     -11.6      0.000      0.000
REMARK SMILES CC(C)Cc1cc2c(cc1Cl)C=C(C(=O)OCCOCCOC(=O)c1ccc(-c3c4nc(c(-c5c(F)cc(S(=O)(=O)[O-])cc5F)c5ccc([nH]5)c(-c5c(F)cc(S(=O)(=O)[O-])cc5F)c5nc(c(-c6c(F)cc(S(=O)(=O)[O-])cc6F)c6ccc3[nH]6)C=C5)C=C4)cc1)[C@H](C(F)(F)F)O2
REMARK SMILES IDX 20 1 19 2 18 3 17 4 16 5 14 6 15 7 13 8 5 9 6 10 10 11 7 12
REMARK SMILES IDX 9 13 11 14 8 15 96 16 12 17 91 18 4 19 2 20 1 21 3 22 92 23
REMARK SMILES IDX 93 24 94 25 95 26 21 27 22 28 23 29 24 30 25 31 26 32 90 33
REMARK SMILES IDX 27 34 89 35 28 36 29 37 30 38 83 39 31 40 88 41 82 42 84 43
REMARK SMILES IDX 32 44 87 45 81 46 80 47 33 49 67 50 46 51 66 52 47 53 50 54
REMARK SMILES IDX 65 55 85 56 48 57 49 58 64 60 86 61 51 62 34 63 35 64 44 65
REMARK SMILES IDX 36 66 37 67 43 68 45 69 38 70 39 71 40 72 41 73 42 74 68 75
REMARK SMILES IDX 69 76 78 77 70 78 71 79 77 80 79 81 72 82 73 83 74 84 75 85
REMARK SMILES IDX 76 86 52 87 53 88 62 89 54 90 55 91 61 92 63 93 56 94 57 95
REMARK SMILES IDX 58 96 59 97 60 98
REMARK H PARENT 84 48 50 59
REMARK Flexibility Score: inf
ROOT
ATOM      1  C   UNL A   1      39.478  21.865  26.219  1.00  0.00     0.202 C 
ENDROOT
BRANCH   1   2
ATOM      2  O   UNL A   1      38.101  22.253  26.197  1.00  0.00    -0.374 OA
BRANCH   2   3
ATOM      3  C   UNL A   1      37.337  21.831  25.065  1.00  0.00     0.202 C 
BRANCH   3   4
ATOM      4  C   UNL A   1      36.144  20.923  25.375  1.00  0.00     0.261 C 
BRANCH   4   5
ATOM      5  O   UNL A   1      34.911  21.641  25.194  1.00  0.00    -0.460 OA
BRANCH   5   6
ATOM      6  C   UNL A   1      34.373  22.123  26.331  1.00  0.00     0.338 C 
ATOM      7  O   UNL A   1      34.631  21.752  27.466  1.00  0.00    -0.246 OA
BRANCH   6   8
ATOM      8  C   UNL A   1      33.484  23.263  26.036  1.00  0.00     0.087 C 
ATOM      9  C   UNL A   1      31.897  27.886  24.900  1.00  0.00    -0.025 A 
ATOM     10  C   UNL A   1      31.471  26.885  25.796  1.00  0.00     0.052 A 
ATOM     11  C   UNL A   1      33.025  27.637  24.101  1.00  0.00     0.045 A 
ATOM     12  C   UNL A   1      32.140  25.668  25.881  1.00  0.00     0.128 A 
ATOM     13  C   UNL A   1      33.712  26.426  24.205  1.00  0.00     0.032 A 
ATOM     14  Cl  UNL A   1      33.635  28.801  22.979  1.00  0.00    -0.084 Cl
ATOM     15  C   UNL A   1      33.271  25.444  25.095  1.00  0.00     0.019 A 
ATOM     16  O   UNL A   1      31.675  24.761  26.799  1.00  0.00    -0.475 OA
ATOM     17  C   UNL A   1      34.035  24.230  25.288  1.00  0.00     0.027 C 
ATOM     18  C   UNL A   1      32.096  23.371  26.612  1.00  0.00     0.316 C 
BRANCH   9  19
ATOM     19  C   UNL A   1      31.110  29.174  24.831  1.00  0.00     0.040 C 
BRANCH  19  20
ATOM     20  C   UNL A   1      30.313  29.343  23.521  1.00  0.00    -0.013 C 
ATOM     21  C   UNL A   1      29.458  28.113  23.195  1.00  0.00     0.008 C 
ATOM     22  C   UNL A   1      29.411  30.574  23.629  1.00  0.00     0.008 C 
ENDBRANCH  19  20
ENDBRANCH   9  19
BRANCH  18  23
ATOM     23  C   UNL A   1      30.996  22.617  25.831  1.00  0.00     0.430 C 
ATOM     24  F   UNL A   1      29.830  22.561  26.519  1.00  0.00    -0.167 F 
ATOM     25  F   UNL A   1      30.712  23.177  24.635  1.00  0.00    -0.167 F 
ATOM     26  F   UNL A   1      31.373  21.340  25.579  1.00  0.00    -0.167 F 
ENDBRANCH  18  23
ENDBRANCH   6   8
ENDBRANCH   5   6
ENDBRANCH   4   5
ENDBRANCH   3   4
ENDBRANCH   2   3
ENDBRANCH   1   2
BRANCH   1  27
ATOM     27  C   UNL A   1      40.491  22.965  26.571  1.00  0.00     0.261 C 
BRANCH  27  28
ATOM     28  O   UNL A   1      39.884  24.269  26.548  1.00  0.00    -0.460 OA
BRANCH  28  29
ATOM     29  C   UNL A   1      40.731  25.301  26.313  1.00  0.00     0.338 C 
ATOM     30  O   UNL A   1      41.207  25.626  25.237  1.00  0.00    -0.246 OA
BRANCH  29  31
ATOM     31  C   UNL A   1      40.820  26.146  27.526  1.00  0.00     0.060 A 
ATOM     32  C   UNL A   1      41.866  27.049  27.732  1.00  0.00     0.016 A 
ATOM     33  C   UNL A   1      39.811  26.007  28.488  1.00  0.00     0.016 A 
ATOM     34  C   UNL A   1      41.872  27.844  28.884  1.00  0.00     0.010 A 
ATOM     35  C   UNL A   1      39.822  26.797  29.638  1.00  0.00     0.010 A 
ATOM     36  C   UNL A   1      40.837  27.742  29.832  1.00  0.00    -0.014 A 
BRANCH  36  37
ATOM     37  C   UNL A   1      40.719  28.728  30.938  1.00  0.00     0.031 A 
ATOM     38  C   UNL A   1      41.575  28.649  32.166  1.00  0.00     0.074 A 
ATOM     39  C   UNL A   1      39.768  29.677  30.839  1.00  0.00     0.049 A 
ATOM     40  N   UNL A   1      41.576  29.430  33.217  1.00  0.00    -0.248 NA
ATOM     41  C   UNL A   1      42.552  27.553  32.231  1.00  0.00     0.031 C 
ATOM     42  C   UNL A   1      38.851  29.830  29.707  1.00  0.00     0.029 A 
ATOM     43  N   UNL A   1      39.409  30.685  31.697  1.00  0.00    -0.354 N 
ATOM     44  C   UNL A   1      42.562  28.937  34.062  1.00  0.00     0.074 A 
ATOM     45  C   UNL A   1      43.109  27.758  33.419  1.00  0.00     0.031 C 
ATOM     46  C   UNL A   1      38.051  30.884  29.930  1.00  0.00     0.029 A 
ATOM     47  C   UNL A   1      38.370  31.458  31.233  1.00  0.00     0.049 A 
ATOM     48  H   UNL A   1      39.853  30.841  32.562  1.00  0.00     0.167 HD
ATOM     49  C   UNL A   1      42.982  29.434  35.252  1.00  0.00     0.037 A 
ATOM     50  C   UNL A   1      37.740  32.508  31.793  1.00  0.00     0.037 A 
ATOM     51  C   UNL A   1      42.416  30.595  35.895  1.00  0.00     0.049 A 
ATOM     52  C   UNL A   1      38.190  33.005  33.138  1.00  0.00     0.074 A 
ATOM     53  C   UNL A   1      42.792  31.185  37.092  1.00  0.00     0.029 A 
ATOM     54  N   UNL A   1      41.349  31.339  35.409  1.00  0.00    -0.354 N 
ATOM     55  N   UNL A   1      39.160  32.559  33.898  1.00  0.00    -0.248 NA
ATOM     56  C   UNL A   1      37.464  34.153  33.697  1.00  0.00     0.031 C 
ATOM     57  C   UNL A   1      41.922  32.249  37.353  1.00  0.00     0.029 A 
ATOM     58  C   UNL A   1      41.042  32.364  36.291  1.00  0.00     0.049 A 
ATOM     59  H   UNL A   1      40.880  31.164  34.560  1.00  0.00     0.167 HD
ATOM     60  C   UNL A   1      39.180  33.388  35.014  1.00  0.00     0.074 A 
ATOM     61  C   UNL A   1      38.132  34.370  34.823  1.00  0.00     0.031 C 
ATOM     62  C   UNL A   1      39.995  33.339  36.097  1.00  0.00     0.037 A 
BRANCH  49  63
ATOM     63  C   UNL A   1      44.120  28.733  35.946  1.00  0.00     0.058 A 
ATOM     64  C   UNL A   1      43.891  27.649  36.810  1.00  0.00     0.135 A 
ATOM     65  C   UNL A   1      45.453  29.088  35.685  1.00  0.00     0.135 A 
ATOM     66  F   UNL A   1      42.637  27.271  37.104  1.00  0.00    -0.206 F 
ATOM     67  C   UNL A   1      44.942  26.957  37.403  1.00  0.00     0.059 A 
ATOM     68  C   UNL A   1      46.521  28.393  36.247  1.00  0.00     0.059 A 
ATOM     69  F   UNL A   1      45.731  30.114  34.864  1.00  0.00    -0.206 F 
ATOM     70  C   UNL A   1      46.254  27.333  37.112  1.00  0.00     0.060 A 
BRANCH  70  71
ATOM     71  S   UNL A   1      47.602  26.413  37.884  1.00  0.00     0.124 S 
ATOM     72  O   UNL A   1      46.885  25.281  38.465  1.00  0.00    -0.237 OA
ATOM     73  O   UNL A   1      48.458  26.102  36.745  1.00  0.00    -0.237 OA
ATOM     74  O   UNL A   1      48.158  27.360  38.846  1.00  0.00    -0.744 OA
ENDBRANCH  70  71
ENDBRANCH  49  63
BRANCH  50  75
ATOM     75  C   UNL A   1      36.634  33.178  31.058  1.00  0.00     0.058 A 
ATOM     76  C   UNL A   1      35.300  32.984  31.439  1.00  0.00     0.135 A 
ATOM     77  C   UNL A   1      36.890  34.047  29.986  1.00  0.00     0.135 A 
ATOM     78  F   UNL A   1      35.004  32.156  32.454  1.00  0.00    -0.206 F 
ATOM     79  C   UNL A   1      34.255  33.621  30.780  1.00  0.00     0.059 A 
ATOM     80  C   UNL A   1      35.865  34.717  29.329  1.00  0.00     0.059 A 
ATOM     81  F   UNL A   1      38.154  34.277  29.594  1.00  0.00    -0.206 F 
ATOM     82  C   UNL A   1      34.548  34.492  29.729  1.00  0.00     0.060 A 
BRANCH  82  83
ATOM     83  S   UNL A   1      33.186  35.357  28.921  1.00  0.00     0.124 S 
ATOM     84  O   UNL A   1      32.409  35.818  30.065  1.00  0.00    -0.237 OA
ATOM     85  O   UNL A   1      33.888  36.392  28.167  1.00  0.00    -0.237 OA
ATOM     86  O   UNL A   1      32.559  34.317  28.110  1.00  0.00    -0.744 OA
ENDBRANCH  82  83
ENDBRANCH  50  75
BRANCH  62  87
ATOM     87  C   UNL A   1      39.811  34.397  37.154  1.00  0.00     0.058 A 
ATOM     88  C   UNL A   1      38.967  34.202  38.258  1.00  0.00     0.135 A 
ATOM     89  C   UNL A   1      40.524  35.605  37.084  1.00  0.00     0.135 A 
ATOM     90  F   UNL A   1      38.255  33.069  38.373  1.00  0.00    -0.206 F 
ATOM     91  C   UNL A   1      38.814  35.177  39.240  1.00  0.00     0.059 A 
ATOM     92  C   UNL A   1      40.411  36.581  38.069  1.00  0.00     0.059 A 
ATOM     93  F   UNL A   1      41.354  35.842  36.055  1.00  0.00    -0.206 F 
ATOM     94  C   UNL A   1      39.544  36.363  39.138  1.00  0.00     0.060 A 
BRANCH  94  95
ATOM     95  S   UNL A   1      39.353  37.607  40.432  1.00  0.00     0.124 S 
ATOM     96  O   UNL A   1      39.111  36.777  41.608  1.00  0.00    -0.237 OA
ATOM     97  O   UNL A   1      40.640  38.294  40.395  1.00  0.00    -0.237 OA
ATOM     98  O   UNL A   1      38.213  38.399  39.979  1.00  0.00    -0.744 OA
ENDBRANCH  94  95
ENDBRANCH  62  87
ENDBRANCH  36  37
ENDBRANCH  29  31
ENDBRANCH  28  29
ENDBRANCH  27  28
ENDBRANCH   1  27
TORSDOF 20
ENDMDL
MODEL 2
REMARK VINA RESULT:     -11.3      6.761     11.884
REMARK SMILES CC(C)Cc1cc2c(cc1Cl)C=C(C(=O)OCCOCCOC(=O)c1ccc(-c3c4nc(c(-c5c(F)cc(S(=O)(=O)[O-])cc5F)c5ccc([nH]5)c(-c5c(F)cc(S(=O)(=O)[O-])cc5F)c5nc(c(-c6c(F)cc(S(=O)(=O)[O-])cc6F)c6ccc3[nH]6)C=C5)C=C4)cc1)[C@H](C(F)(F)F)O2
REMARK SMILES IDX 20 1 19 2 18 3 17 4 16 5 14 6 15 7 13 8 5 9 6 10 10 11 7 12
REMARK SMILES IDX 9 13 11 14 8 15 96 16 12 17 91 18 4 19 2 20 1 21 3 22 92 23
REMARK SMILES IDX 93 24 94 25 95 26 21 27 22 28 23 29 24 30 25 31 26 32 90 33
REMARK SMILES IDX 27 34 89 35 28 36 29 37 30 38 83 39 31 40 88 41 82 42 84 43
REMARK SMILES IDX 32 44 87 45 81 46 80 47 33 49 67 50 46 51 66 52 47 53 50 54
REMARK SMILES IDX 65 55 85 56 48 57 49 58 64 60 86 61 51 62 34 63 35 64 44 65
REMARK SMILES IDX 36 66 37 67 43 68 45 69 38 70 39 71 40 72 41 73 42 74 68 75
REMARK SMILES IDX 69 76 78 77 70 78 71 79 77 80 79 81 72 82 73 83 74 84 75 85
REMARK SMILES IDX 76 86 52 87 53 88 62 89 54 90 55 91 61 92 63 93 56 94 57 95
REMARK SMILES IDX 58 96 59 97 60 98
REMARK H PARENT 84 48 50 59
REMARK Flexibility Score: inf
ROOT
ATOM      1  C   UNL A   1      34.472  32.055  28.251  1.00  0.00     0.202 C 
ENDROOT
BRANCH   1   2
ATOM      2  O   UNL A   1      34.456  31.025  27.258  1.00  0.00    -0.374 OA
BRANCH   2   3
ATOM      3  C   UNL A   1      33.258  30.250  27.161  1.00  0.00     0.202 C 
BRANCH   3   4
ATOM      4  C   UNL A   1      32.719  30.044  25.744  1.00  0.00     0.261 C 
BRANCH   4   5
ATOM      5  O   UNL A   1      32.697  28.643  25.418  1.00  0.00    -0.460 OA
BRANCH   5   6
ATOM      6  C   UNL A   1      33.174  28.347  24.193  1.00  0.00     0.338 C 
ATOM      7  O   UNL A   1      33.558  29.148  23.354  1.00  0.00    -0.246 OA
BRANCH   6   8
ATOM      8  C   UNL A   1      33.280  26.886  24.022  1.00  0.00     0.087 C 
ATOM      9  C   UNL A   1      34.481  22.078  24.815  1.00  0.00    -0.025 A 
ATOM     10  C   UNL A   1      34.424  22.911  23.678  1.00  0.00     0.052 A 
ATOM     11  C   UNL A   1      34.156  22.627  26.066  1.00  0.00     0.045 A 
ATOM     12  C   UNL A   1      34.040  24.244  23.786  1.00  0.00     0.128 A 
ATOM     13  C   UNL A   1      33.796  23.971  26.177  1.00  0.00     0.032 A 
ATOM     14  Cl  UNL A   1      34.204  21.696  27.521  1.00  0.00    -0.084 Cl
ATOM     15  C   UNL A   1      33.740  24.779  25.038  1.00  0.00     0.019 A 
ATOM     16  O   UNL A   1      34.038  24.989  22.634  1.00  0.00    -0.475 OA
ATOM     17  C   UNL A   1      33.472  26.196  25.155  1.00  0.00     0.027 C 
ATOM     18  C   UNL A   1      33.266  26.232  22.663  1.00  0.00     0.316 C 
BRANCH   9  19
ATOM     19  C   UNL A   1      34.874  20.631  24.629  1.00  0.00     0.040 C 
BRANCH  19  20
ATOM     20  C   UNL A   1      33.697  19.646  24.779  1.00  0.00    -0.013 C 
ATOM     21  C   UNL A   1      32.530  19.984  23.845  1.00  0.00     0.008 C 
ATOM     22  C   UNL A   1      34.183  18.224  24.490  1.00  0.00     0.008 C 
ENDBRANCH  19  20
ENDBRANCH   9  19
BRANCH  18  23
ATOM     23  C   UNL A   1      31.862  25.961  22.075  1.00  0.00     0.430 C 
ATOM     24  F   UNL A   1      31.881  25.897  20.722  1.00  0.00    -0.167 F 
ATOM     25  F   UNL A   1      31.316  24.806  22.510  1.00  0.00    -0.167 F 
ATOM     26  F   UNL A   1      30.998  26.949  22.416  1.00  0.00    -0.167 F 
ENDBRANCH  18  23
ENDBRANCH   6   8
ENDBRANCH   5   6
ENDBRANCH   4   5
ENDBRANCH   3   4
ENDBRANCH   2   3
ENDBRANCH   1   2
BRANCH   1  27
ATOM     27  C   UNL A   1      35.251  31.748  29.539  1.00  0.00     0.261 C 
BRANCH  27  28
ATOM     28  O   UNL A   1      35.940  30.488  29.453  1.00  0.00    -0.460 OA
BRANCH  28  29
ATOM     29  C   UNL A   1      36.691  30.160  30.533  1.00  0.00     0.338 C 
ATOM     30  O   UNL A   1      36.282  29.858  31.643  1.00  0.00    -0.246 OA
BRANCH  29  31
ATOM     31  C   UNL A   1      38.101  29.987  30.114  1.00  0.00     0.060 A 
ATOM     32  C   UNL A   1      39.146  29.881  31.035  1.00  0.00     0.016 A 
ATOM     33  C   UNL A   1      38.366  29.940  28.739  1.00  0.00     0.016 A 
ATOM     34  C   UNL A   1      40.452  29.683  30.573  1.00  0.00     0.010 A 
ATOM     35  C   UNL A   1      39.669  29.747  28.281  1.00  0.00     0.010 A 
ATOM     36  C   UNL A   1      40.720  29.588  29.194  1.00  0.00    -0.014 A 
BRANCH  36  37
ATOM     37  C   UNL A   1      42.057  29.161  28.706  1.00  0.00     0.031 A 
ATOM     38  C   UNL A   1      42.340  27.744  28.305  1.00  0.00     0.074 A 
ATOM     39  C   UNL A   1      43.044  30.077  28.685  1.00  0.00     0.049 A 
ATOM     40  N   UNL A   1      43.460  27.222  27.872  1.00  0.00    -0.248 NA
ATOM     41  C   UNL A   1      41.230  26.786  28.408  1.00  0.00     0.031 C 
ATOM     42  C   UNL A   1      42.895  31.479  29.086  1.00  0.00     0.029 A 
ATOM     43  N   UNL A   1      44.362  29.974  28.320  1.00  0.00    -0.354 N 
ATOM     44  C   UNL A   1      43.192  25.881  27.630  1.00  0.00     0.074 A 
ATOM     45  C   UNL A   1      41.810  25.660  28.010  1.00  0.00     0.031 C 
ATOM     46  C   UNL A   1      44.069  32.109  28.923  1.00  0.00     0.029 A 
ATOM     47  C   UNL A   1      45.061  31.152  28.444  1.00  0.00     0.049 A 
ATOM     48  H   UNL A   1      44.768  29.137  27.999  1.00  0.00     0.167 HD
ATOM     49  C   UNL A   1      44.016  24.932  27.122  1.00  0.00     0.037 A 
ATOM     50  C   UNL A   1      46.356  31.432  28.203  1.00  0.00     0.037 A 
ATOM     51  C   UNL A   1      45.397  25.158  26.768  1.00  0.00     0.049 A 
ATOM     52  C   UNL A   1      47.262  30.349  27.692  1.00  0.00     0.074 A 
ATOM     53  C   UNL A   1      46.303  24.261  26.226  1.00  0.00     0.029 A 
ATOM     54  N   UNL A   1      46.079  26.356  26.929  1.00  0.00    -0.354 N 
ATOM     55  N   UNL A   1      46.977  29.098  27.418  1.00  0.00    -0.248 NA
ATOM     56  C   UNL A   1      48.663  30.714  27.449  1.00  0.00     0.031 C 
ATOM     57  C   UNL A   1      47.542  24.900  26.109  1.00  0.00     0.029 A 
ATOM     58  C   UNL A   1      47.396  26.214  26.519  1.00  0.00     0.049 A 
ATOM     59  H   UNL A   1      45.684  27.186  27.283  1.00  0.00     0.167 HD
ATOM     60  C   UNL A   1      48.156  28.534  26.945  1.00  0.00     0.074 A 
ATOM     61  C   UNL A   1      49.155  29.584  26.958  1.00  0.00     0.031 C 
ATOM     62  C   UNL A   1      48.389  27.262  26.535  1.00  0.00     0.037 A 
BRANCH  49  63
ATOM     63  C   UNL A   1      43.453  23.552  26.905  1.00  0.00     0.058 A 
ATOM     64  C   UNL A   1      43.153  23.080  25.617  1.00  0.00     0.135 A 
ATOM     65  C   UNL A   1      43.289  22.664  27.981  1.00  0.00     0.135 A 
ATOM     66  F   UNL A   1      43.282  23.889  24.553  1.00  0.00    -0.206 F 
ATOM     67  C   UNL A   1      42.694  21.784  25.406  1.00  0.00     0.059 A 
ATOM     68  C   UNL A   1      42.855  21.354  27.790  1.00  0.00     0.059 A 
ATOM     69  F   UNL A   1      43.564  23.060  29.234  1.00  0.00    -0.206 F 
ATOM     70  C   UNL A   1      42.551  20.927  26.498  1.00  0.00     0.060 A 
BRANCH  70  71
ATOM     71  S   UNL A   1      41.965  19.246  26.199  1.00  0.00     0.124 S 
ATOM     72  O   UNL A   1      42.304  18.590  27.459  1.00  0.00    -0.237 OA
ATOM     73  O   UNL A   1      40.541  19.453  25.957  1.00  0.00    -0.237 OA
ATOM     74  O   UNL A   1      42.740  18.813  25.041  1.00  0.00    -0.744 OA
ENDBRANCH  70  71
ENDBRANCH  49  63
BRANCH  50  75
ATOM     75  C   UNL A   1      46.858  32.816  28.415  1.00  0.00     0.058 A 
ATOM     76  C   UNL A   1      47.355  33.214  29.664  1.00  0.00     0.135 A 
ATOM     77  C   UNL A   1      46.884  33.753  27.371  1.00  0.00     0.135 A 
ATOM     78  F   UNL A   1      47.345  32.356  30.696  1.00  0.00    -0.206 F 
ATOM     79  C   UNL A   1      47.852  34.495  29.875  1.00  0.00     0.059 A 
ATOM     80  C   UNL A   1      47.402  35.031  27.549  1.00  0.00     0.059 A 
ATOM     81  F   UNL A   1      46.435  33.413  26.152  1.00  0.00    -0.206 F 
ATOM     82  C   UNL A   1      47.878  35.395  28.808  1.00  0.00     0.060 A 
BRANCH  82  83
ATOM     83  S   UNL A   1      48.580  37.035  29.081  1.00  0.00     0.124 S 
ATOM     84  O   UNL A   1      48.141  37.321  30.442  1.00  0.00    -0.237 OA
ATOM     85  O   UNL A   1      50.008  36.787  28.909  1.00  0.00    -0.237 OA
ATOM     86  O   UNL A   1      47.962  37.846  28.036  1.00  0.00    -0.744 OA
ENDBRANCH  82  83
ENDBRANCH  50  75
BRANCH  62  87
ATOM     87  C   UNL A   1      49.771  26.934  26.036  1.00  0.00     0.058 A 
ATOM     88  C   UNL A   1      50.143  27.135  24.698  1.00  0.00     0.135 A 
ATOM     89  C   UNL A   1      50.752  26.453  26.920  1.00  0.00     0.135 A 
ATOM     90  F   UNL A   1      49.244  27.586  23.807  1.00  0.00    -0.206 F 
ATOM     91  C   UNL A   1      51.427  26.846  24.246  1.00  0.00     0.059 A 
ATOM     92  C   UNL A   1      52.051  26.186  26.498  1.00  0.00     0.059 A 
ATOM     93  F   UNL A   1      50.455  26.251  28.214  1.00  0.00    -0.206 F 
ATOM     94  C   UNL A   1      52.376  26.375  25.156  1.00  0.00     0.060 A 
BRANCH  94  95
ATOM     95  S   UNL A   1      54.044  26.027  24.560  1.00  0.00     0.124 S 
ATOM     96  O   UNL A   1      54.195  24.618  24.907  1.00  0.00    -0.237 OA
ATOM     97  O   UNL A   1      53.932  26.320  23.135  1.00  0.00    -0.237 OA
ATOM     98  O   UNL A   1      54.879  26.953  25.321  1.00  0.00    -0.744 OA
ENDBRANCH  94  95
ENDBRANCH  62  87
ENDBRANCH  36  37
ENDBRANCH  29  31
ENDBRANCH  28  29
ENDBRANCH  27  28
ENDBRANCH   1  27
TORSDOF 20
ENDMDL
MODEL 3
REMARK VINA RESULT:     -11.1      6.045      8.243
REMARK SMILES CC(C)Cc1cc2c(cc1Cl)C=C(C(=O)OCCOCCOC(=O)c1ccc(-c3c4nc(c(-c5c(F)cc(S(=O)(=O)[O-])cc5F)c5ccc([nH]5)c(-c5c(F)cc(S(=O)(=O)[O-])cc5F)c5nc(c(-c6c(F)cc(S(=O)(=O)[O-])cc6F)c6ccc3[nH]6)C=C5)C=C4)cc1)[C@H](C(F)(F)F)O2
REMARK SMILES IDX 20 1 19 2 18 3 17 4 16 5 14 6 15 7 13 8 5 9 6 10 10 11 7 12
REMARK SMILES IDX 9 13 11 14 8 15 96 16 12 17 91 18 4 19 2 20 1 21 3 22 92 23
REMARK SMILES IDX 93 24 94 25 95 26 21 27 22 28 23 29 24 30 25 31 26 32 90 33
REMARK SMILES IDX 27 34 89 35 28 36 29 37 30 38 83 39 31 40 88 41 82 42 84 43
REMARK SMILES IDX 32 44 87 45 81 46 80 47 33 49 67 50 46 51 66 52 47 53 50 54
REMARK SMILES IDX 65 55 85 56 48 57 49 58 64 60 86 61 51 62 34 63 35 64 44 65
REMARK SMILES IDX 36 66 37 67 43 68 45 69 38 70 39 71 40 72 41 73 42 74 68 75
REMARK SMILES IDX 69 76 78 77 70 78 71 79 77 80 79 81 72 82 73 83 74 84 75 85
REMARK SMILES IDX 76 86 52 87 53 88 62 89 54 90 55 91 61 92 63 93 56 94 57 95
REMARK SMILES IDX 58 96 59 97 60 98
REMARK H PARENT 84 48 50 59
REMARK Flexibility Score: inf
ROOT
ATOM      1  C   UNL A   1      38.859  20.393  25.413  1.00  0.00     0.202 C 
ENDROOT
BRANCH   1   2
ATOM      2  O   UNL A   1      38.795  21.725  25.932  1.00  0.00    -0.374 OA
BRANCH   2   3
ATOM      3  C   UNL A   1      37.722  22.543  25.459  1.00  0.00     0.202 C 
BRANCH   3   4
ATOM      4  C   UNL A   1      36.316  22.076  25.843  1.00  0.00     0.261 C 
BRANCH   4   5
ATOM      5  O   UNL A   1      35.578  23.156  26.440  1.00  0.00    -0.460 OA
BRANCH   5   6
ATOM      6  C   UNL A   1      34.322  22.836  26.811  1.00  0.00     0.338 C 
ATOM      7  O   UNL A   1      34.001  21.932  27.567  1.00  0.00    -0.246 OA
BRANCH   6   8
ATOM      8  C   UNL A   1      33.360  23.809  26.260  1.00  0.00     0.087 C 
ATOM      9  C   UNL A   1      31.425  28.029  24.355  1.00  0.00    -0.025 A 
ATOM     10  C   UNL A   1      30.991  27.080  25.303  1.00  0.00     0.052 A 
ATOM     11  C   UNL A   1      32.681  27.852  23.753  1.00  0.00     0.045 A 
ATOM     12  C   UNL A   1      31.779  25.980  25.628  1.00  0.00     0.128 A 
ATOM     13  C   UNL A   1      33.483  26.762  24.098  1.00  0.00     0.032 A 
ATOM     14  Cl  UNL A   1      33.310  28.962  22.588  1.00  0.00    -0.084 Cl
ATOM     15  C   UNL A   1      33.033  25.829  25.035  1.00  0.00     0.019 A 
ATOM     16  O   UNL A   1      31.293  25.121  26.580  1.00  0.00    -0.475 OA
ATOM     17  C   UNL A   1      33.898  24.756  25.479  1.00  0.00     0.027 C 
ATOM     18  C   UNL A   1      31.898  23.789  26.626  1.00  0.00     0.316 C 
BRANCH   9  19
ATOM     19  C   UNL A   1      30.511  29.185  24.022  1.00  0.00     0.040 C 
BRANCH  19  20
ATOM     20  C   UNL A   1      29.642  28.945  22.771  1.00  0.00    -0.013 C 
ATOM     21  C   UNL A   1      28.147  28.871  23.103  1.00  0.00     0.008 C 
ATOM     22  C   UNL A   1      29.882  30.069  21.760  1.00  0.00     0.008 C 
ENDBRANCH  19  20
ENDBRANCH   9  19
BRANCH  18  23
ATOM     23  C   UNL A   1      31.024  22.816  25.803  1.00  0.00     0.430 C 
ATOM     24  F   UNL A   1      30.057  22.238  26.557  1.00  0.00    -0.167 F 
ATOM     25  F   UNL A   1      30.400  23.409  24.762  1.00  0.00    -0.167 F 
ATOM     26  F   UNL A   1      31.776  21.816  25.282  1.00  0.00    -0.167 F 
ENDBRANCH  18  23
ENDBRANCH   6   8
ENDBRANCH   5   6
ENDBRANCH   4   5
ENDBRANCH   3   4
ENDBRANCH   2   3
ENDBRANCH   1   2
BRANCH   1  27
ATOM     27  C   UNL A   1      39.797  19.421  26.144  1.00  0.00     0.261 C 
BRANCH  27  28
ATOM     28  O   UNL A   1      41.026  19.229  25.422  1.00  0.00    -0.460 OA
BRANCH  28  29
ATOM     29  C   UNL A   1      42.157  19.313  26.165  1.00  0.00     0.338 C 
ATOM     30  O   UNL A   1      42.943  18.410  26.406  1.00  0.00    -0.246 OA
BRANCH  29  31
ATOM     31  C   UNL A   1      42.443  20.736  26.460  1.00  0.00     0.060 A 
ATOM     32  C   UNL A   1      42.567  21.217  27.765  1.00  0.00     0.016 A 
ATOM     33  C   UNL A   1      42.578  21.609  25.372  1.00  0.00     0.016 A 
ATOM     34  C   UNL A   1      42.874  22.567  27.975  1.00  0.00     0.010 A 
ATOM     35  C   UNL A   1      42.879  22.954  25.583  1.00  0.00     0.010 A 
ATOM     36  C   UNL A   1      43.057  23.439  26.886  1.00  0.00    -0.014 A 
BRANCH  36  37
ATOM     37  C   UNL A   1      43.595  24.809  27.090  1.00  0.00     0.031 A 
ATOM     38  C   UNL A   1      45.045  25.132  26.883  1.00  0.00     0.074 A 
ATOM     39  C   UNL A   1      42.749  25.761  27.529  1.00  0.00     0.049 A 
ATOM     40  N   UNL A   1      45.659  26.278  27.035  1.00  0.00    -0.248 NA
ATOM     41  C   UNL A   1      45.921  24.031  26.459  1.00  0.00     0.031 C 
ATOM     42  C   UNL A   1      41.323  25.555  27.800  1.00  0.00     0.029 A 
ATOM     43  N   UNL A   1      42.956  27.083  27.829  1.00  0.00    -0.354 N 
ATOM     44  C   UNL A   1      46.989  26.048  26.707  1.00  0.00     0.074 A 
ATOM     45  C   UNL A   1      47.100  24.637  26.392  1.00  0.00     0.031 C 
ATOM     46  C   UNL A   1      40.782  26.714  28.204  1.00  0.00     0.029 A 
ATOM     47  C   UNL A   1      41.824  27.734  28.258  1.00  0.00     0.049 A 
ATOM     48  H   UNL A   1      43.833  27.523  27.746  1.00  0.00     0.167 HD
ATOM     49  C   UNL A   1      48.014  26.935  26.656  1.00  0.00     0.037 A 
ATOM     50  C   UNL A   1      41.642  29.008  28.654  1.00  0.00     0.037 A 
ATOM     51  C   UNL A   1      47.898  28.333  26.994  1.00  0.00     0.049 A 
ATOM     52  C   UNL A   1      42.806  29.958  28.641  1.00  0.00     0.074 A 
ATOM     53  C   UNL A   1      48.877  29.312  26.952  1.00  0.00     0.029 A 
ATOM     54  N   UNL A   1      46.741  28.954  27.447  1.00  0.00    -0.354 N 
ATOM     55  N   UNL A   1      44.046  29.735  28.277  1.00  0.00    -0.248 NA
ATOM     56  C   UNL A   1      42.546  31.333  29.084  1.00  0.00     0.031 C 
ATOM     57  C   UNL A   1      48.328  30.508  27.427  1.00  0.00     0.029 A 
ATOM     58  C   UNL A   1      46.990  30.293  27.708  1.00  0.00     0.049 A 
ATOM     59  H   UNL A   1      45.871  28.507  27.565  1.00  0.00     0.167 HD
ATOM     60  C   UNL A   1      44.709  30.948  28.421  1.00  0.00     0.074 A 
ATOM     61  C   UNL A   1      43.728  31.905  28.894  1.00  0.00     0.031 C 
ATOM     62  C   UNL A   1      46.011  31.242  28.181  1.00  0.00     0.037 A 
BRANCH  49  63
ATOM     63  C   UNL A   1      49.361  26.430  26.212  1.00  0.00     0.058 A 
ATOM     64  C   UNL A   1      49.833  26.657  24.909  1.00  0.00     0.135 A 
ATOM     65  C   UNL A   1      50.224  25.788  27.116  1.00  0.00     0.135 A 
ATOM     66  F   UNL A   1      49.048  27.257  24.001  1.00  0.00    -0.206 F 
ATOM     67  C   UNL A   1      51.103  26.249  24.513  1.00  0.00     0.059 A 
ATOM     68  C   UNL A   1      51.509  25.395  26.749  1.00  0.00     0.059 A 
ATOM     69  F   UNL A   1      49.828  25.549  28.376  1.00  0.00    -0.206 F 
ATOM     70  C   UNL A   1      51.936  25.622  25.442  1.00  0.00     0.060 A 
BRANCH  70  71
ATOM     71  S   UNL A   1      53.584  25.113  24.909  1.00  0.00     0.124 S 
ATOM     72  O   UNL A   1      53.645  25.686  23.567  1.00  0.00    -0.237 OA
ATOM     73  O   UNL A   1      54.441  25.744  25.906  1.00  0.00    -0.237 OA
ATOM     74  O   UNL A   1      53.527  23.656  24.964  1.00  0.00    -0.744 OA
ENDBRANCH  70  71
ENDBRANCH  49  63
BRANCH  50  75
ATOM     75  C   UNL A   1      40.286  29.462  29.066  1.00  0.00     0.058 A 
ATOM     76  C   UNL A   1      39.988  29.696  30.415  1.00  0.00     0.135 A 
ATOM     77  C   UNL A   1      39.277  29.702  28.120  1.00  0.00     0.135 A 
ATOM     78  F   UNL A   1      40.918  29.473  31.357  1.00  0.00    -0.206 F 
ATOM     79  C   UNL A   1      38.735  30.144  30.816  1.00  0.00     0.059 A 
ATOM     80  C   UNL A   1      38.025  30.178  28.494  1.00  0.00     0.059 A 
ATOM     81  F   UNL A   1      39.520  29.509  26.814  1.00  0.00    -0.206 F 
ATOM     82  C   UNL A   1      37.761  30.389  29.847  1.00  0.00     0.060 A 
BRANCH  82  83
ATOM     83  S   UNL A   1      36.158  31.027  30.377  1.00  0.00     0.124 S 
ATOM     84  O   UNL A   1      35.759  30.033  31.366  1.00  0.00    -0.237 OA
ATOM     85  O   UNL A   1      36.513  32.343  30.900  1.00  0.00    -0.237 OA
ATOM     86  O   UNL A   1      35.376  31.041  29.144  1.00  0.00    -0.744 OA
ENDBRANCH  82  83
ENDBRANCH  50  75
BRANCH  62  87
ATOM     87  C   UNL A   1      46.453  32.666  28.396  1.00  0.00     0.058 A 
ATOM     88  C   UNL A   1      46.416  33.617  27.365  1.00  0.00     0.135 A 
ATOM     89  C   UNL A   1      46.878  33.095  29.664  1.00  0.00     0.135 A 
ATOM     90  F   UNL A   1      46.025  33.261  26.130  1.00  0.00    -0.206 F 
ATOM     91  C   UNL A   1      46.810  34.936  27.575  1.00  0.00     0.059 A 
ATOM     92  C   UNL A   1      47.248  34.415  29.905  1.00  0.00     0.059 A 
ATOM     93  F   UNL A   1      46.924  32.231  30.691  1.00  0.00    -0.206 F 
ATOM     94  C   UNL A   1      47.222  35.326  28.851  1.00  0.00     0.060 A 
BRANCH  94  95
ATOM     95  S   UNL A   1      47.707  37.045  29.112  1.00  0.00     0.124 S 
ATOM     96  O   UNL A   1      49.163  36.948  29.098  1.00  0.00    -0.237 OA
ATOM     97  O   UNL A   1      47.105  37.716  27.964  1.00  0.00    -0.237 OA
ATOM     98  O   UNL A   1      47.114  37.375  30.405  1.00  0.00    -0.744 OA
ENDBRANCH  94  95
ENDBRANCH  62  87
ENDBRANCH  36  37
ENDBRANCH  29  31
ENDBRANCH  28  29
ENDBRANCH  27  28
ENDBRANCH   1  27
TORSDOF 20
ENDMDL
