MODEL 1
REMARK VINA RESULT:     -10.8      0.000      0.000
REMARK SMILES O=C(OCCOCCOC(=O)c1ccncc1-c1ccc(F)cc1F)c1ccc(-c2c3nc(c(-c4c(F)cc(S(=O)(=O)[O-])cc4F)c4ccc([nH]4)c(-c4c(F)cc(S(=O)(=O)[O-])cc4F)c4nc(c(-c5c(F)cc(S(=O)(=O)[O-])cc5F)c5ccc2[nH]5)C=C4)C=C3)cc1
REMARK SMILES IDX 5 1 4 2 3 3 2 4 1 5 26 6 27 7 91 8 28 9 90 10 29 11 30 12
REMARK SMILES IDX 31 13 84 14 32 15 89 16 83 17 85 18 33 19 88 20 82 21 81 22
REMARK SMILES IDX 34 24 68 25 47 26 67 27 48 28 51 29 66 30 86 31 49 32 50 33
REMARK SMILES IDX 65 35 87 36 52 37 35 38 36 39 45 40 37 41 38 42 44 43 46 44
REMARK SMILES IDX 39 45 40 46 41 47 42 48 43 49 69 50 70 51 79 52 71 53 72 54
REMARK SMILES IDX 78 55 80 56 73 57 74 58 75 59 76 60 77 61 53 62 54 63 63 64
REMARK SMILES IDX 55 65 56 66 62 67 64 68 57 69 58 70 59 71 60 72 61 73 6 74
REMARK SMILES IDX 7 75 8 76 9 77 10 78 11 79 12 80 13 81 17 82 14 83 16 84
REMARK SMILES IDX 15 85 18 86 19 87 24 88 20 89 23 90 25 91 21 92 22 93
REMARK H PARENT 85 23 51 34
REMARK Flexibility Score: inf
ROOT
ATOM      1  C   UNL A   1      31.883  28.715  26.133  1.00  0.00     0.202 C 
ENDROOT
BRANCH   1   2
ATOM      2  C   UNL A   1      33.012  29.729  26.307  1.00  0.00     0.261 C 
BRANCH   2   3
ATOM      3  O   UNL A   1      33.605  29.636  27.615  1.00  0.00    -0.460 OA
BRANCH   3   4
ATOM      4  C   UNL A   1      34.552  30.490  28.093  1.00  0.00     0.338 C 
ATOM      5  O   UNL A   1      34.259  31.650  28.361  1.00  0.00    -0.246 OA
BRANCH   4   6
ATOM      6  C   UNL A   1      35.948  30.024  28.306  1.00  0.00     0.060 A 
ATOM      7  C   UNL A   1      36.918  30.167  27.321  1.00  0.00     0.016 A 
ATOM      8  C   UNL A   1      36.337  29.507  29.542  1.00  0.00     0.016 A 
ATOM      9  C   UNL A   1      38.195  29.676  27.463  1.00  0.00     0.010 A 
ATOM     10  C   UNL A   1      37.676  29.151  29.756  1.00  0.00     0.010 A 
ATOM     11  C   UNL A   1      38.609  29.241  28.711  1.00  0.00    -0.014 A 
BRANCH  11  12
ATOM     12  C   UNL A   1      40.039  28.926  28.873  1.00  0.00     0.031 A 
ATOM     13  C   UNL A   1      40.938  29.958  29.466  1.00  0.00     0.074 A 
ATOM     14  C   UNL A   1      40.475  27.684  28.574  1.00  0.00     0.049 A 
ATOM     15  N   UNL A   1      42.238  29.963  29.545  1.00  0.00    -0.248 NA
ATOM     16  C   UNL A   1      40.289  31.149  30.042  1.00  0.00     0.031 C 
ATOM     17  C   UNL A   1      39.627  26.575  28.110  1.00  0.00     0.029 A 
ATOM     18  N   UNL A   1      41.722  27.127  28.640  1.00  0.00    -0.354 N 
ATOM     19  C   UNL A   1      42.569  31.181  30.123  1.00  0.00     0.074 A 
ATOM     20  C   UNL A   1      41.335  31.885  30.385  1.00  0.00     0.031 C 
ATOM     21  C   UNL A   1      40.370  25.467  27.985  1.00  0.00     0.029 A 
ATOM     22  C   UNL A   1      41.759  25.810  28.239  1.00  0.00     0.049 A 
ATOM     23  H   UNL A   1      42.518  27.619  28.946  1.00  0.00     0.167 HD
ATOM     24  C   UNL A   1      43.806  31.656  30.388  1.00  0.00     0.037 A 
ATOM     25  C   UNL A   1      42.811  24.993  28.042  1.00  0.00     0.037 A 
ATOM     26  C   UNL A   1      45.001  30.899  30.125  1.00  0.00     0.049 A 
ATOM     27  C   UNL A   1      44.178  25.572  28.270  1.00  0.00     0.074 A 
ATOM     28  C   UNL A   1      46.319  31.279  30.281  1.00  0.00     0.029 A 
ATOM     29  N   UNL A   1      45.010  29.587  29.660  1.00  0.00    -0.354 N 
ATOM     30  N   UNL A   1      44.497  26.769  28.707  1.00  0.00    -0.248 NA
ATOM     31  C   UNL A   1      45.325  24.716  27.952  1.00  0.00     0.031 C 
ATOM     32  C   UNL A   1      47.126  30.210  29.875  1.00  0.00     0.029 A 
ATOM     33  C   UNL A   1      46.311  29.145  29.513  1.00  0.00     0.049 A 
ATOM     34  H   UNL A   1      44.207  29.053  29.464  1.00  0.00     0.167 HD
ATOM     35  C   UNL A   1      45.884  26.810  28.723  1.00  0.00     0.074 A 
ATOM     36  C   UNL A   1      46.340  25.509  28.272  1.00  0.00     0.031 C 
ATOM     37  C   UNL A   1      46.709  27.830  29.070  1.00  0.00     0.037 A 
BRANCH  24  38
ATOM     38  C   UNL A   1      43.908  33.059  30.909  1.00  0.00     0.058 A 
ATOM     39  C   UNL A   1      43.826  34.146  30.023  1.00  0.00     0.135 A 
ATOM     40  C   UNL A   1      44.055  33.341  32.276  1.00  0.00     0.135 A 
ATOM     41  F   UNL A   1      43.668  33.935  28.707  1.00  0.00    -0.206 F 
ATOM     42  C   UNL A   1      43.880  35.463  30.471  1.00  0.00     0.059 A 
ATOM     43  C   UNL A   1      44.086  34.650  32.750  1.00  0.00     0.059 A 
ATOM     44  F   UNL A   1      44.103  32.341  33.171  1.00  0.00    -0.206 F 
ATOM     45  C   UNL A   1      43.996  35.704  31.839  1.00  0.00     0.060 A 
BRANCH  45  46
ATOM     46  S   UNL A   1      44.019  37.394  32.472  1.00  0.00     0.124 S 
ATOM     47  O   UNL A   1      42.951  37.348  33.467  1.00  0.00    -0.237 OA
ATOM     48  O   UNL A   1      45.373  37.509  33.003  1.00  0.00    -0.237 OA
ATOM     49  O   UNL A   1      43.738  38.205  31.292  1.00  0.00    -0.744 OA
ENDBRANCH  45  46
ENDBRANCH  24  38
BRANCH  25  50
ATOM     50  C   UNL A   1      42.609  23.602  27.547  1.00  0.00     0.058 A 
ATOM     51  C   UNL A   1      42.428  22.527  28.436  1.00  0.00     0.135 A 
ATOM     52  C   UNL A   1      42.617  23.309  26.176  1.00  0.00     0.135 A 
ATOM     53  F   UNL A   1      42.422  22.742  29.761  1.00  0.00    -0.206 F 
ATOM     54  C   UNL A   1      42.285  21.216  27.990  1.00  0.00     0.059 A 
ATOM     55  C   UNL A   1      42.445  22.009  25.703  1.00  0.00     0.059 A 
ATOM     56  F   UNL A   1      42.778  24.296  25.281  1.00  0.00    -0.206 F 
ATOM     57  C   UNL A   1      42.285  20.968  26.619  1.00  0.00     0.060 A 
BRANCH  57  58
ATOM     58  S   UNL A   1      42.099  19.283  25.995  1.00  0.00     0.124 S 
ATOM     59  O   UNL A   1      42.554  18.494  27.134  1.00  0.00    -0.237 OA
ATOM     60  O   UNL A   1      40.670  19.221  25.705  1.00  0.00    -0.237 OA
ATOM     61  O   UNL A   1      42.970  19.258  24.823  1.00  0.00    -0.744 OA
ENDBRANCH  57  58
ENDBRANCH  25  50
BRANCH  37  62
ATOM     62  C   UNL A   1      48.181  27.560  29.004  1.00  0.00     0.058 A 
ATOM     63  C   UNL A   1      48.873  27.149  30.154  1.00  0.00     0.135 A 
ATOM     64  C   UNL A   1      48.916  27.793  27.832  1.00  0.00     0.135 A 
ATOM     65  F   UNL A   1      48.208  26.923  31.298  1.00  0.00    -0.206 F 
ATOM     66  C   UNL A   1      50.252  26.999  30.153  1.00  0.00     0.059 A 
ATOM     67  C   UNL A   1      50.293  27.622  27.802  1.00  0.00     0.059 A 
ATOM     68  F   UNL A   1      48.292  28.176  26.707  1.00  0.00    -0.206 F 
ATOM     69  C   UNL A   1      50.954  27.235  28.970  1.00  0.00     0.060 A 
BRANCH  69  70
ATOM     70  S   UNL A   1      52.750  27.082  28.932  1.00  0.00     0.124 S 
ATOM     71  O   UNL A   1      52.996  26.211  30.075  1.00  0.00    -0.237 OA
ATOM     72  O   UNL A   1      52.980  26.488  27.618  1.00  0.00    -0.237 OA
ATOM     73  O   UNL A   1      53.213  28.459  29.079  1.00  0.00    -0.744 OA
ENDBRANCH  69  70
ENDBRANCH  37  62
ENDBRANCH  11  12
ENDBRANCH   4   6
ENDBRANCH   3   4
ENDBRANCH   2   3
ENDBRANCH   1   2
BRANCH   1  74
ATOM     74  O   UNL A   1      32.043  27.830  25.040  1.00  0.00    -0.374 OA
BRANCH  74  75
ATOM     75  C   UNL A   1      33.228  27.964  24.273  1.00  0.00     0.202 C 
BRANCH  75  76
ATOM     76  C   UNL A   1      33.841  26.576  24.139  1.00  0.00     0.261 C 
BRANCH  76  77
ATOM     77  O   UNL A   1      32.903  25.720  23.458  1.00  0.00    -0.460 OA
BRANCH  77  78
ATOM     78  C   UNL A   1      33.089  24.372  23.545  1.00  0.00     0.338 C 
ATOM     79  O   UNL A   1      33.595  23.640  22.717  1.00  0.00    -0.246 OA
BRANCH  78  80
ATOM     80  C   UNL A   1      32.633  23.957  24.898  1.00  0.00     0.071 A 
ATOM     81  C   UNL A   1      31.312  24.294  25.240  1.00  0.00     0.036 A 
ATOM     82  C   UNL A   1      33.463  23.316  25.839  1.00  0.00     0.017 A 
ATOM     83  C   UNL A   1      30.860  24.015  26.511  1.00  0.00     0.112 A 
ATOM     84  C   UNL A   1      32.872  23.067  27.081  1.00  0.00     0.120 A 
ATOM     85  N   UNL A   1      31.611  23.408  27.443  1.00  0.00    -0.264 NA
BRANCH  82  86
ATOM     86  C   UNL A   1      34.883  22.956  25.684  1.00  0.00     0.020 A 
ATOM     87  C   UNL A   1      35.885  23.925  25.912  1.00  0.00     0.015 A 
ATOM     88  C   UNL A   1      35.302  21.639  25.440  1.00  0.00     0.134 A 
ATOM     89  C   UNL A   1      37.242  23.597  25.836  1.00  0.00     0.040 A 
ATOM     90  C   UNL A   1      36.654  21.297  25.386  1.00  0.00     0.079 A 
ATOM     91  F   UNL A   1      34.393  20.661  25.318  1.00  0.00    -0.206 F 
ATOM     92  C   UNL A   1      37.612  22.284  25.575  1.00  0.00     0.126 A 
ATOM     93  F   UNL A   1      38.912  21.967  25.533  1.00  0.00    -0.207 F 
ENDBRANCH  82  86
ENDBRANCH  78  80
ENDBRANCH  77  78
ENDBRANCH  76  77
ENDBRANCH  75  76
ENDBRANCH  74  75
ENDBRANCH   1  74
TORSDOF 18
ENDMDL
MODEL 2
REMARK VINA RESULT:     -10.3      3.689      9.584
REMARK SMILES O=C(OCCOCCOC(=O)c1ccncc1-c1ccc(F)cc1F)c1ccc(-c2c3nc(c(-c4c(F)cc(S(=O)(=O)[O-])cc4F)c4ccc([nH]4)c(-c4c(F)cc(S(=O)(=O)[O-])cc4F)c4nc(c(-c5c(F)cc(S(=O)(=O)[O-])cc5F)c5ccc2[nH]5)C=C4)C=C3)cc1
REMARK SMILES IDX 5 1 4 2 3 3 2 4 1 5 26 6 27 7 91 8 28 9 90 10 29 11 30 12
REMARK SMILES IDX 31 13 84 14 32 15 89 16 83 17 85 18 33 19 88 20 82 21 81 22
REMARK SMILES IDX 34 24 68 25 47 26 67 27 48 28 51 29 66 30 86 31 49 32 50 33
REMARK SMILES IDX 65 35 87 36 52 37 35 38 36 39 45 40 37 41 38 42 44 43 46 44
REMARK SMILES IDX 39 45 40 46 41 47 42 48 43 49 69 50 70 51 79 52 71 53 72 54
REMARK SMILES IDX 78 55 80 56 73 57 74 58 75 59 76 60 77 61 53 62 54 63 63 64
REMARK SMILES IDX 55 65 56 66 62 67 64 68 57 69 58 70 59 71 60 72 61 73 6 74
REMARK SMILES IDX 7 75 8 76 9 77 10 78 11 79 12 80 13 81 17 82 14 83 16 84
REMARK SMILES IDX 15 85 18 86 19 87 24 88 20 89 23 90 25 91 21 92 22 93
REMARK H PARENT 85 23 51 34
REMARK Flexibility Score: inf
ROOT
ATOM      1  C   UNL A   1      35.273  22.970  25.259  1.00  0.00     0.202 C 
ENDROOT
BRANCH   1   2
ATOM      2  C   UNL A   1      36.691  23.539  25.265  1.00  0.00     0.261 C 
BRANCH   2   3
ATOM      3  O   UNL A   1      37.620  22.626  25.877  1.00  0.00    -0.460 OA
BRANCH   3   4
ATOM      4  C   UNL A   1      38.919  22.924  26.158  1.00  0.00     0.338 C 
ATOM      5  O   UNL A   1      39.817  22.169  25.801  1.00  0.00    -0.246 OA
BRANCH   4   6
ATOM      6  C   UNL A   1      39.265  24.171  26.889  1.00  0.00     0.060 A 
ATOM      7  C   UNL A   1      38.904  24.356  28.219  1.00  0.00     0.016 A 
ATOM      8  C   UNL A   1      40.041  25.155  26.276  1.00  0.00     0.016 A 
ATOM      9  C   UNL A   1      39.144  25.529  28.895  1.00  0.00     0.010 A 
ATOM     10  C   UNL A   1      40.432  26.287  27.006  1.00  0.00     0.010 A 
ATOM     11  C   UNL A   1      39.983  26.471  28.324  1.00  0.00    -0.014 A 
BRANCH  11  12
ATOM     12  C   UNL A   1      40.386  27.612  29.164  1.00  0.00     0.031 A 
ATOM     13  C   UNL A   1      41.731  27.588  29.809  1.00  0.00     0.074 A 
ATOM     14  C   UNL A   1      39.572  28.685  29.247  1.00  0.00     0.049 A 
ATOM     15  N   UNL A   1      42.220  28.388  30.711  1.00  0.00    -0.248 NA
ATOM     16  C   UNL A   1      42.647  26.513  29.388  1.00  0.00     0.031 C 
ATOM     17  C   UNL A   1      38.293  28.838  28.536  1.00  0.00     0.029 A 
ATOM     18  N   UNL A   1      39.700  29.862  29.931  1.00  0.00    -0.354 N 
ATOM     19  C   UNL A   1      43.477  27.883  31.013  1.00  0.00     0.074 A 
ATOM     20  C   UNL A   1      43.681  26.713  30.191  1.00  0.00     0.031 C 
ATOM     21  C   UNL A   1      37.788  30.054  28.783  1.00  0.00     0.029 A 
ATOM     22  C   UNL A   1      38.636  30.719  29.759  1.00  0.00     0.049 A 
ATOM     23  H   UNL A   1      40.480  30.078  30.493  1.00  0.00     0.167 HD
ATOM     24  C   UNL A   1      44.361  28.363  31.915  1.00  0.00     0.037 A 
ATOM     25  C   UNL A   1      38.352  31.883  30.372  1.00  0.00     0.037 A 
ATOM     26  C   UNL A   1      44.113  29.549  32.691  1.00  0.00     0.049 A 
ATOM     27  C   UNL A   1      39.314  32.353  31.424  1.00  0.00     0.074 A 
ATOM     28  C   UNL A   1      44.887  30.112  33.685  1.00  0.00     0.029 A 
ATOM     29  N   UNL A   1      42.995  30.364  32.538  1.00  0.00    -0.354 N 
ATOM     30  N   UNL A   1      40.451  31.810  31.795  1.00  0.00    -0.248 NA
ATOM     31  C   UNL A   1      38.950  33.565  32.166  1.00  0.00     0.031 C 
ATOM     32  C   UNL A   1      44.220  31.246  34.161  1.00  0.00     0.029 A 
ATOM     33  C   UNL A   1      43.053  31.420  33.428  1.00  0.00     0.049 A 
ATOM     34  H   UNL A   1      42.269  30.210  31.892  1.00  0.00     0.167 HD
ATOM     35  C   UNL A   1      40.945  32.617  32.810  1.00  0.00     0.074 A 
ATOM     36  C   UNL A   1      39.990  33.696  32.979  1.00  0.00     0.031 C 
ATOM     37  C   UNL A   1      42.077  32.477  33.544  1.00  0.00     0.037 A 
BRANCH  24  38
ATOM     38  C   UNL A   1      45.612  27.566  32.145  1.00  0.00     0.058 A 
ATOM     39  C   UNL A   1      46.768  27.840  31.396  1.00  0.00     0.135 A 
ATOM     40  C   UNL A   1      45.688  26.558  33.119  1.00  0.00     0.135 A 
ATOM     41  F   UNL A   1      46.757  28.805  30.464  1.00  0.00    -0.206 F 
ATOM     42  C   UNL A   1      47.958  27.147  31.605  1.00  0.00     0.059 A 
ATOM     43  C   UNL A   1      46.873  25.870  33.363  1.00  0.00     0.059 A 
ATOM     44  F   UNL A   1      44.623  26.280  33.888  1.00  0.00    -0.206 F 
ATOM     45  C   UNL A   1      48.004  26.174  32.602  1.00  0.00     0.060 A 
BRANCH  45  46
ATOM     46  S   UNL A   1      49.537  25.286  32.944  1.00  0.00     0.124 S 
ATOM     47  O   UNL A   1      49.047  24.136  33.699  1.00  0.00    -0.237 OA
ATOM     48  O   UNL A   1      50.035  24.996  31.604  1.00  0.00    -0.237 OA
ATOM     49  O   UNL A   1      50.325  26.246  33.710  1.00  0.00    -0.744 OA
ENDBRANCH  45  46
ENDBRANCH  24  38
BRANCH  25  50
ATOM     50  C   UNL A   1      37.095  32.620  30.056  1.00  0.00     0.058 A 
ATOM     51  C   UNL A   1      35.877  32.287  30.674  1.00  0.00     0.135 A 
ATOM     52  C   UNL A   1      37.077  33.656  29.112  1.00  0.00     0.135 A 
ATOM     53  F   UNL A   1      35.828  31.297  31.579  1.00  0.00    -0.206 F 
ATOM     54  C   UNL A   1      34.686  32.935  30.355  1.00  0.00     0.059 A 
ATOM     55  C   UNL A   1      35.905  34.340  28.797  1.00  0.00     0.059 A 
ATOM     56  F   UNL A   1      38.212  34.020  28.495  1.00  0.00    -0.206 F 
ATOM     57  C   UNL A   1      34.712  33.968  29.421  1.00  0.00     0.060 A 
BRANCH  57  58
ATOM     58  S   UNL A   1      33.192  34.839  28.978  1.00  0.00     0.124 S 
ATOM     59  O   UNL A   1      32.614  33.940  27.986  1.00  0.00    -0.237 OA
ATOM     60  O   UNL A   1      32.497  34.908  30.259  1.00  0.00    -0.237 OA
ATOM     61  O   UNL A   1      33.673  36.119  28.465  1.00  0.00    -0.744 OA
ENDBRANCH  57  58
ENDBRANCH  25  50
BRANCH  37  62
ATOM     62  C   UNL A   1      42.354  33.537  34.567  1.00  0.00     0.058 A 
ATOM     63  C   UNL A   1      43.195  34.615  34.253  1.00  0.00     0.135 A 
ATOM     64  C   UNL A   1      41.860  33.436  35.876  1.00  0.00     0.135 A 
ATOM     65  F   UNL A   1      43.695  34.744  33.014  1.00  0.00    -0.206 F 
ATOM     66  C   UNL A   1      43.559  35.551  35.211  1.00  0.00     0.059 A 
ATOM     67  C   UNL A   1      42.190  34.376  36.843  1.00  0.00     0.059 A 
ATOM     68  F   UNL A   1      41.044  32.426  36.216  1.00  0.00    -0.206 F 
ATOM     69  C   UNL A   1      43.049  35.425  36.503  1.00  0.00     0.060 A 
BRANCH  69  70
ATOM     70  S   UNL A   1      43.521  36.600  37.786  1.00  0.00     0.124 S 
ATOM     71  O   UNL A   1      43.830  37.788  36.998  1.00  0.00    -0.237 OA
ATOM     72  O   UNL A   1      42.308  36.674  38.597  1.00  0.00    -0.237 OA
ATOM     73  O   UNL A   1      44.662  35.959  38.433  1.00  0.00    -0.744 OA
ENDBRANCH  69  70
ENDBRANCH  37  62
ENDBRANCH  11  12
ENDBRANCH   4   6
ENDBRANCH   3   4
ENDBRANCH   2   3
ENDBRANCH   1   2
BRANCH   1  74
ATOM     74  O   UNL A   1      34.246  23.935  25.130  1.00  0.00    -0.374 OA
BRANCH  74  75
ATOM     75  C   UNL A   1      33.678  24.432  26.329  1.00  0.00     0.202 C 
BRANCH  75  76
ATOM     76  C   UNL A   1      32.203  24.046  26.326  1.00  0.00     0.261 C 
BRANCH  76  77
ATOM     77  O   UNL A   1      31.656  24.324  25.022  1.00  0.00    -0.460 OA
BRANCH  77  78
ATOM     78  C   UNL A   1      31.238  25.596  24.762  1.00  0.00     0.338 C 
ATOM     79  O   UNL A   1      30.406  26.240  25.370  1.00  0.00    -0.246 OA
BRANCH  78  80
ATOM     80  C   UNL A   1      32.061  26.101  23.631  1.00  0.00     0.071 A 
ATOM     81  C   UNL A   1      32.085  25.301  22.474  1.00  0.00     0.036 A 
ATOM     82  C   UNL A   1      32.837  27.274  23.693  1.00  0.00     0.017 A 
ATOM     83  C   UNL A   1      32.898  25.671  21.425  1.00  0.00     0.112 A 
ATOM     84  C   UNL A   1      33.596  27.547  22.551  1.00  0.00     0.120 A 
ATOM     85  N   UNL A   1      33.657  26.778  21.437  1.00  0.00    -0.264 NA
BRANCH  82  86
ATOM     86  C   UNL A   1      32.992  28.188  24.839  1.00  0.00     0.020 A 
ATOM     87  C   UNL A   1      34.085  28.033  25.721  1.00  0.00     0.015 A 
ATOM     88  C   UNL A   1      32.163  29.304  25.028  1.00  0.00     0.134 A 
ATOM     89  C   UNL A   1      34.294  28.923  26.778  1.00  0.00     0.040 A 
ATOM     90  C   UNL A   1      32.378  30.210  26.066  1.00  0.00     0.079 A 
ATOM     91  F   UNL A   1      31.172  29.554  24.158  1.00  0.00    -0.206 F 
ATOM     92  C   UNL A   1      33.438  30.005  26.939  1.00  0.00     0.126 A 
ATOM     93  F   UNL A   1      33.659  30.872  27.934  1.00  0.00    -0.207 F 
ENDBRANCH  82  86
ENDBRANCH  78  80
ENDBRANCH  77  78
ENDBRANCH  76  77
ENDBRANCH  75  76
ENDBRANCH  74  75
ENDBRANCH   1  74
TORSDOF 18
ENDMDL
MODEL 3
REMARK VINA RESULT:     -10.3      5.278     10.322
REMARK SMILES O=C(OCCOCCOC(=O)c1ccncc1-c1ccc(F)cc1F)c1ccc(-c2c3nc(c(-c4c(F)cc(S(=O)(=O)[O-])cc4F)c4ccc([nH]4)c(-c4c(F)cc(S(=O)(=O)[O-])cc4F)c4nc(c(-c5c(F)cc(S(=O)(=O)[O-])cc5F)c5ccc2[nH]5)C=C4)C=C3)cc1
REMARK SMILES IDX 5 1 4 2 3 3 2 4 1 5 26 6 27 7 91 8 28 9 90 10 29 11 30 12
REMARK SMILES IDX 31 13 84 14 32 15 89 16 83 17 85 18 33 19 88 20 82 21 81 22
REMARK SMILES IDX 34 24 68 25 47 26 67 27 48 28 51 29 66 30 86 31 49 32 50 33
REMARK SMILES IDX 65 35 87 36 52 37 35 38 36 39 45 40 37 41 38 42 44 43 46 44
REMARK SMILES IDX 39 45 40 46 41 47 42 48 43 49 69 50 70 51 79 52 71 53 72 54
REMARK SMILES IDX 78 55 80 56 73 57 74 58 75 59 76 60 77 61 53 62 54 63 63 64
REMARK SMILES IDX 55 65 56 66 62 67 64 68 57 69 58 70 59 71 60 72 61 73 6 74
REMARK SMILES IDX 7 75 8 76 9 77 10 78 11 79 12 80 13 81 17 82 14 83 16 84
REMARK SMILES IDX 15 85 18 86 19 87 24 88 20 89 23 90 25 91 21 92 22 93
REMARK H PARENT 85 23 51 34
REMARK Flexibility Score: inf
ROOT
ATOM      1  C   UNL A   1      32.180  31.113  26.827  1.00  0.00     0.202 C 
ENDROOT
BRANCH   1   2
ATOM      2  C   UNL A   1      33.374  31.863  27.416  1.00  0.00     0.261 C 
BRANCH   2   3
ATOM      3  O   UNL A   1      33.085  33.264  27.580  1.00  0.00    -0.460 OA
BRANCH   3   4
ATOM      4  C   UNL A   1      33.438  33.999  28.670  1.00  0.00     0.338 C 
ATOM      5  O   UNL A   1      32.748  34.949  29.024  1.00  0.00    -0.246 OA
BRANCH   4   6
ATOM      6  C   UNL A   1      34.655  33.653  29.451  1.00  0.00     0.060 A 
ATOM      7  C   UNL A   1      34.605  32.759  30.513  1.00  0.00     0.016 A 
ATOM      8  C   UNL A   1      35.900  34.159  29.075  1.00  0.00     0.016 A 
ATOM      9  C   UNL A   1      35.699  32.480  31.299  1.00  0.00     0.010 A 
ATOM     10  C   UNL A   1      37.051  33.757  29.767  1.00  0.00     0.010 A 
ATOM     11  C   UNL A   1      36.948  32.910  30.883  1.00  0.00    -0.014 A 
BRANCH  11  12
ATOM     12  C   UNL A   1      38.115  32.413  31.632  1.00  0.00     0.031 A 
ATOM     13  C   UNL A   1      38.952  31.337  31.026  1.00  0.00     0.074 A 
ATOM     14  C   UNL A   1      38.450  33.009  32.796  1.00  0.00     0.049 A 
ATOM     15  N   UNL A   1      39.908  30.640  31.568  1.00  0.00    -0.248 NA
ATOM     16  C   UNL A   1      38.669  30.993  29.621  1.00  0.00     0.031 C 
ATOM     17  C   UNL A   1      37.753  34.160  33.392  1.00  0.00     0.029 A 
ATOM     18  N   UNL A   1      39.470  32.764  33.673  1.00  0.00    -0.354 N 
ATOM     19  C   UNL A   1      40.304  29.734  30.595  1.00  0.00     0.074 A 
ATOM     20  C   UNL A   1      39.493  29.974  29.424  1.00  0.00     0.031 C 
ATOM     21  C   UNL A   1      38.396  34.545  34.502  1.00  0.00     0.029 A 
ATOM     22  C   UNL A   1      39.472  33.603  34.765  1.00  0.00     0.049 A 
ATOM     23  H   UNL A   1      40.140  32.055  33.537  1.00  0.00     0.167 HD
ATOM     24  C   UNL A   1      41.256  28.780  30.698  1.00  0.00     0.037 A 
ATOM     25  C   UNL A   1      40.223  33.571  35.881  1.00  0.00     0.037 A 
ATOM     26  C   UNL A   1      42.050  28.601  31.884  1.00  0.00     0.049 A 
ATOM     27  C   UNL A   1      41.220  32.454  36.002  1.00  0.00     0.074 A 
ATOM     28  C   UNL A   1      43.001  27.637  32.153  1.00  0.00     0.029 A 
ATOM     29  N   UNL A   1      41.987  29.430  33.001  1.00  0.00    -0.354 N 
ATOM     30  N   UNL A   1      41.514  31.521  35.126  1.00  0.00    -0.248 NA
ATOM     31  C   UNL A   1      41.962  32.358  37.263  1.00  0.00     0.031 C 
ATOM     32  C   UNL A   1      43.487  27.860  33.447  1.00  0.00     0.029 A 
ATOM     33  C   UNL A   1      42.875  28.993  33.966  1.00  0.00     0.049 A 
ATOM     34  H   UNL A   1      41.396  30.212  33.090  1.00  0.00     0.167 HD
ATOM     35  C   UNL A   1      42.481  30.727  35.725  1.00  0.00     0.074 A 
ATOM     36  C   UNL A   1      42.736  31.306  37.032  1.00  0.00     0.031 C 
ATOM     37  C   UNL A   1      43.097  29.617  35.248  1.00  0.00     0.037 A 
BRANCH  24  38
ATOM     38  C   UNL A   1      41.418  27.840  29.540  1.00  0.00     0.058 A 
ATOM     39  C   UNL A   1      42.561  27.915  28.727  1.00  0.00     0.135 A 
ATOM     40  C   UNL A   1      40.471  26.846  29.245  1.00  0.00     0.135 A 
ATOM     41  F   UNL A   1      43.506  28.835  28.975  1.00  0.00    -0.206 F 
ATOM     42  C   UNL A   1      42.765  27.038  27.666  1.00  0.00     0.059 A 
ATOM     43  C   UNL A   1      40.666  25.942  28.205  1.00  0.00     0.059 A 
ATOM     44  F   UNL A   1      39.378  26.706  30.012  1.00  0.00    -0.206 F 
ATOM     45  C   UNL A   1      41.818  26.045  27.422  1.00  0.00     0.060 A 
BRANCH  45  46
ATOM     46  S   UNL A   1      42.064  24.852  26.090  1.00  0.00     0.124 S 
ATOM     47  O   UNL A   1      43.401  24.349  26.391  1.00  0.00    -0.237 OA
ATOM     48  O   UNL A   1      40.970  23.912  26.308  1.00  0.00    -0.237 OA
ATOM     49  O   UNL A   1      41.960  25.663  24.881  1.00  0.00    -0.744 OA
ENDBRANCH  45  46
ENDBRANCH  24  38
BRANCH  25  50
ATOM     50  C   UNL A   1      40.008  34.567  36.969  1.00  0.00     0.058 A 
ATOM     51  C   UNL A   1      39.114  34.316  38.025  1.00  0.00     0.135 A 
ATOM     52  C   UNL A   1      40.670  35.803  36.965  1.00  0.00     0.135 A 
ATOM     53  F   UNL A   1      38.443  33.155  38.079  1.00  0.00    -0.206 F 
ATOM     54  C   UNL A   1      38.868  35.256  39.023  1.00  0.00     0.059 A 
ATOM     55  C   UNL A   1      40.464  36.748  37.968  1.00  0.00     0.059 A 
ATOM     56  F   UNL A   1      41.539  36.094  35.985  1.00  0.00    -0.206 F 
ATOM     57  C   UNL A   1      39.556  36.467  38.991  1.00  0.00     0.060 A 
BRANCH  57  58
ATOM     58  S   UNL A   1      39.270  37.714  40.266  1.00  0.00     0.124 S 
ATOM     59  O   UNL A   1      40.572  38.367  40.339  1.00  0.00    -0.237 OA
ATOM     60  O   UNL A   1      38.191  38.505  39.684  1.00  0.00    -0.237 OA
ATOM     61  O   UNL A   1      38.896  36.923  41.435  1.00  0.00    -0.744 OA
ENDBRANCH  57  58
ENDBRANCH  25  50
BRANCH  37  62
ATOM     62  C   UNL A   1      44.127  28.984  36.134  1.00  0.00     0.058 A 
ATOM     63  C   UNL A   1      45.442  29.473  36.144  1.00  0.00     0.135 A 
ATOM     64  C   UNL A   1      43.834  27.845  36.898  1.00  0.00     0.135 A 
ATOM     65  F   UNL A   1      45.767  30.556  35.421  1.00  0.00    -0.206 F 
ATOM     66  C   UNL A   1      46.444  28.840  36.867  1.00  0.00     0.059 A 
ATOM     67  C   UNL A   1      44.815  27.212  37.650  1.00  0.00     0.059 A 
ATOM     68  F   UNL A   1      42.586  27.350  36.925  1.00  0.00    -0.206 F 
ATOM     69  C   UNL A   1      46.120  27.711  37.619  1.00  0.00     0.060 A 
BRANCH  69  70
ATOM     70  S   UNL A   1      47.395  26.839  38.549  1.00  0.00     0.124 S 
ATOM     71  O   UNL A   1      47.538  25.612  37.772  1.00  0.00    -0.237 OA
ATOM     72  O   UNL A   1      48.518  27.770  38.478  1.00  0.00    -0.237 OA
ATOM     73  O   UNL A   1      46.803  26.680  39.873  1.00  0.00    -0.744 OA
ENDBRANCH  69  70
ENDBRANCH  37  62
ENDBRANCH  11  12
ENDBRANCH   4   6
ENDBRANCH   3   4
ENDBRANCH   2   3
ENDBRANCH   1   2
BRANCH   1  74
ATOM     74  O   UNL A   1      32.513  30.132  25.863  1.00  0.00    -0.374 OA
BRANCH  74  75
ATOM     75  C   UNL A   1      33.685  29.372  26.098  1.00  0.00     0.202 C 
BRANCH  75  76
ATOM     76  C   UNL A   1      33.295  28.199  26.989  1.00  0.00     0.261 C 
BRANCH  76  77
ATOM     77  O   UNL A   1      32.758  27.149  26.161  1.00  0.00    -0.460 OA
BRANCH  77  78
ATOM     78  C   UNL A   1      31.500  26.699  26.436  1.00  0.00     0.338 C 
ATOM     79  O   UNL A   1      30.724  27.133  27.264  1.00  0.00    -0.246 OA
BRANCH  78  80
ATOM     80  C   UNL A   1      31.205  25.613  25.465  1.00  0.00     0.071 A 
ATOM     81  C   UNL A   1      31.593  24.316  25.844  1.00  0.00     0.036 A 
ATOM     82  C   UNL A   1      30.628  25.834  24.198  1.00  0.00     0.017 A 
ATOM     83  C   UNL A   1      31.426  23.282  24.949  1.00  0.00     0.112 A 
ATOM     84  C   UNL A   1      30.492  24.695  23.400  1.00  0.00     0.120 A 
ATOM     85  N   UNL A   1      30.883  23.441  23.732  1.00  0.00    -0.264 NA
BRANCH  82  86
ATOM     86  C   UNL A   1      30.230  27.124  23.606  1.00  0.00     0.020 A 
ATOM     87  C   UNL A   1      31.203  27.953  23.006  1.00  0.00     0.015 A 
ATOM     88  C   UNL A   1      28.888  27.518  23.495  1.00  0.00     0.134 A 
ATOM     89  C   UNL A   1      30.847  29.151  22.379  1.00  0.00     0.040 A 
ATOM     90  C   UNL A   1      28.522  28.700  22.851  1.00  0.00     0.079 A 
ATOM     91  F   UNL A   1      27.917  26.717  23.959  1.00  0.00    -0.206 F 
ATOM     92  C   UNL A   1      29.508  29.511  22.307  1.00  0.00     0.126 A 
ATOM     93  F   UNL A   1      29.168  30.644  21.680  1.00  0.00    -0.207 F 
ENDBRANCH  82  86
ENDBRANCH  78  80
ENDBRANCH  77  78
ENDBRANCH  76  77
ENDBRANCH  75  76
ENDBRANCH  74  75
ENDBRANCH   1  74
TORSDOF 18
ENDMDL
