MODEL 1
REMARK VINA RESULT:     -11.6      0.000      0.000
REMARK SMILES O=C1O[C@@H](c2ccc(O)c(O)c2)[C@H](C(=O)OCCOCCOC(=O)c2ccc(-c3c4nc(c(-c5c(F)cc(S(=O)(=O)[O-])cc5F)c5ccc([nH]5)c(-c5c(F)cc(S(=O)(=O)[O-])cc5F)c5nc(c(-c6c(F)cc(S(=O)(=O)[O-])cc6F)c6ccc3[nH]6)C=C5)C=C4)cc2)/C1=C\c1ccc(O)c(O)c1
REMARK SMILES IDX 20 1 19 2 18 3 17 4 16 5 14 6 15 7 13 8 1 9 2 10 3 11 91 12
REMARK SMILES IDX 4 13 92 14 5 15 6 16 12 17 7 18 10 19 8 20 11 21 9 23 93 25
REMARK SMILES IDX 94 26 100 27 95 28 98 29 96 30 99 31 97 33 21 35 22 36 23 37
REMARK SMILES IDX 24 38 25 39 26 40 90 41 27 42 89 43 28 44 29 45 30 46 83 47
REMARK SMILES IDX 31 48 88 49 82 50 84 51 32 52 87 53 81 54 80 55 33 57 67 58
REMARK SMILES IDX 46 59 66 60 47 61 50 62 65 63 85 64 48 65 49 66 64 68 86 69
REMARK SMILES IDX 51 70 34 71 35 72 44 73 36 74 37 75 43 76 45 77 38 78 39 79
REMARK SMILES IDX 40 80 41 81 42 82 68 83 69 84 78 85 70 86 71 87 77 88 79 89
REMARK SMILES IDX 72 90 73 91 74 92 75 93 76 94 52 95 53 96 62 97 54 98 55 99
REMARK SMILES IDX 61 100 63 101 56 102 57 103 58 104 59 105 60 106
REMARK H PARENT 11 22 9 24 99 32 97 34 84 56 50 67
REMARK Flexibility Score: inf
ROOT
ATOM      1  C   UNL A   1      31.837  28.212  27.680  1.00  0.00     0.202 C 
ENDROOT
BRANCH   1   2
ATOM      2  O   UNL A   1      30.832  27.276  27.317  1.00  0.00    -0.374 OA
BRANCH   2   3
ATOM      3  C   UNL A   1      30.980  26.541  26.106  1.00  0.00     0.202 C 
BRANCH   3   4
ATOM      4  C   UNL A   1      31.558  25.128  26.182  1.00  0.00     0.261 C 
BRANCH   4   5
ATOM      5  O   UNL A   1      30.640  24.165  25.635  1.00  0.00    -0.463 OA
BRANCH   5   6
ATOM      6  C   UNL A   1      31.116  22.888  25.567  1.00  0.00     0.317 C 
ATOM      7  O   UNL A   1      30.490  21.889  25.888  1.00  0.00    -0.251 OA
BRANCH   6   8
ATOM      8  C   UNL A   1      32.516  22.894  24.973  1.00  0.00     0.182 C 
ATOM      9  O   UNL A   1      32.063  20.792  22.151  1.00  0.00    -0.247 OA
ATOM     10  C   UNL A   1      32.364  21.315  23.211  1.00  0.00     0.335 C 
ATOM     11  O   UNL A   1      32.739  20.655  24.342  1.00  0.00    -0.453 OA
ATOM     12  C   UNL A   1      32.406  22.766  23.494  1.00  0.00     0.056 C 
ATOM     13  C   UNL A   1      33.190  21.588  25.345  1.00  0.00     0.226 C 
ATOM     14  C   UNL A   1      32.346  23.669  22.502  1.00  0.00     0.020 C 
BRANCH  13  15
ATOM     15  C   UNL A   1      34.714  21.652  25.399  1.00  0.00    -0.002 A 
ATOM     16  C   UNL A   1      35.493  20.540  25.014  1.00  0.00     0.012 A 
ATOM     17  C   UNL A   1      35.378  22.835  25.763  1.00  0.00     0.057 A 
ATOM     18  C   UNL A   1      36.893  20.600  25.016  1.00  0.00     0.050 A 
ATOM     19  C   UNL A   1      36.765  22.887  25.761  1.00  0.00     0.157 A 
ATOM     20  C   UNL A   1      37.522  21.780  25.391  1.00  0.00     0.157 A 
BRANCH  19  21
ATOM     21  O   UNL A   1      37.386  24.051  26.111  1.00  0.00    -0.504 OA
ATOM     22  H   UNL A   1      37.428  24.762  25.502  1.00  0.00     0.293 HD
ENDBRANCH  19  21
BRANCH  20  23
ATOM     23  O   UNL A   1      38.882  21.910  25.398  1.00  0.00    -0.504 OA
ATOM     24  H   UNL A   1      39.282  22.625  25.853  1.00  0.00     0.293 HD
ENDBRANCH  20  23
ENDBRANCH  13  15
BRANCH  14  25
ATOM     25  C   UNL A   1      32.419  25.126  22.647  1.00  0.00    -0.021 A 
ATOM     26  C   UNL A   1      33.563  25.741  23.180  1.00  0.00     0.012 A 
ATOM     27  C   UNL A   1      31.365  25.925  22.185  1.00  0.00     0.058 A 
ATOM     28  C   UNL A   1      33.650  27.136  23.276  1.00  0.00     0.051 A 
ATOM     29  C   UNL A   1      31.456  27.310  22.291  1.00  0.00     0.157 A 
ATOM     30  C   UNL A   1      32.584  27.914  22.840  1.00  0.00     0.157 A 
BRANCH  29  31
ATOM     31  O   UNL A   1      30.405  28.080  21.882  1.00  0.00    -0.504 OA
ATOM     32  H   UNL A   1      30.329  28.966  22.181  1.00  0.00     0.293 HD
ENDBRANCH  29  31
BRANCH  30  33
ATOM     33  O   UNL A   1      32.586  29.276  22.949  1.00  0.00    -0.504 OA
ATOM     34  H   UNL A   1      31.810  29.763  22.753  1.00  0.00     0.293 HD
ENDBRANCH  30  33
ENDBRANCH  14  25
ENDBRANCH   6   8
ENDBRANCH   5   6
ENDBRANCH   4   5
ENDBRANCH   3   4
ENDBRANCH   2   3
ENDBRANCH   1   2
BRANCH   1  35
ATOM     35  C   UNL A   1      32.856  28.678  26.631  1.00  0.00     0.261 C 
BRANCH  35  36
ATOM     36  O   UNL A   1      34.209  28.684  27.093  1.00  0.00    -0.460 OA
BRANCH  36  37
ATOM     37  C   UNL A   1      34.573  29.847  27.690  1.00  0.00     0.338 C 
ATOM     38  O   UNL A   1      33.855  30.783  27.993  1.00  0.00    -0.246 OA
BRANCH  37  39
ATOM     39  C   UNL A   1      35.982  29.747  28.096  1.00  0.00     0.060 A 
ATOM     40  C   UNL A   1      36.960  29.978  27.121  1.00  0.00     0.016 A 
ATOM     41  C   UNL A   1      36.329  29.394  29.399  1.00  0.00     0.016 A 
ATOM     42  C   UNL A   1      38.304  29.826  27.441  1.00  0.00     0.010 A 
ATOM     43  C   UNL A   1      37.676  29.225  29.713  1.00  0.00     0.010 A 
ATOM     44  C   UNL A   1      38.664  29.411  28.729  1.00  0.00    -0.014 A 
BRANCH  44  45
ATOM     45  C   UNL A   1      40.059  29.015  29.012  1.00  0.00     0.031 A 
ATOM     46  C   UNL A   1      40.995  30.048  29.572  1.00  0.00     0.074 A 
ATOM     47  C   UNL A   1      40.479  27.763  28.763  1.00  0.00     0.049 A 
ATOM     48  N   UNL A   1      42.280  29.969  29.787  1.00  0.00    -0.248 NA
ATOM     49  C   UNL A   1      40.401  31.347  29.928  1.00  0.00     0.031 C 
ATOM     50  C   UNL A   1      39.639  26.675  28.265  1.00  0.00     0.029 A 
ATOM     51  N   UNL A   1      41.724  27.203  28.880  1.00  0.00    -0.354 N 
ATOM     52  C   UNL A   1      42.654  31.211  30.287  1.00  0.00     0.074 A 
ATOM     53  C   UNL A   1      41.465  32.034  30.317  1.00  0.00     0.031 C 
ATOM     54  C   UNL A   1      40.400  25.579  28.097  1.00  0.00     0.029 A 
ATOM     55  C   UNL A   1      41.785  25.905  28.433  1.00  0.00     0.049 A 
ATOM     56  H   UNL A   1      42.501  27.684  29.247  1.00  0.00     0.167 HD
ATOM     57  C   UNL A   1      43.879  31.621  30.688  1.00  0.00     0.037 A 
ATOM     58  C   UNL A   1      42.846  25.088  28.282  1.00  0.00     0.037 A 
ATOM     59  C   UNL A   1      45.050  30.783  30.653  1.00  0.00     0.049 A 
ATOM     60  C   UNL A   1      44.214  25.589  28.665  1.00  0.00     0.074 A 
ATOM     61  C   UNL A   1      46.337  31.090  31.056  1.00  0.00     0.029 A 
ATOM     62  N   UNL A   1      45.077  29.478  30.183  1.00  0.00    -0.354 N 
ATOM     63  N   UNL A   1      44.556  26.760  29.152  1.00  0.00    -0.248 NA
ATOM     64  C   UNL A   1      45.341  24.665  28.479  1.00  0.00     0.031 C 
ATOM     65  C   UNL A   1      47.154  29.992  30.771  1.00  0.00     0.029 A 
ATOM     66  C   UNL A   1      46.364  28.975  30.257  1.00  0.00     0.049 A 
ATOM     67  H   UNL A   1      44.295  28.983  29.847  1.00  0.00     0.167 HD
ATOM     68  C   UNL A   1      45.930  26.698  29.364  1.00  0.00     0.074 A 
ATOM     69  C   UNL A   1      46.355  25.375  28.954  1.00  0.00     0.031 C 
ATOM     70  C   UNL A   1      46.763  27.647  29.859  1.00  0.00     0.037 A 
BRANCH  57  71
ATOM     71  C   UNL A   1      44.025  33.040  31.163  1.00  0.00     0.058 A 
ATOM     72  C   UNL A   1      44.369  34.085  30.292  1.00  0.00     0.135 A 
ATOM     73  C   UNL A   1      43.784  33.363  32.509  1.00  0.00     0.135 A 
ATOM     74  F   UNL A   1      44.632  33.831  29.000  1.00  0.00    -0.206 F 
ATOM     75  C   UNL A   1      44.490  35.396  30.741  1.00  0.00     0.059 A 
ATOM     76  C   UNL A   1      43.870  34.671  32.974  1.00  0.00     0.059 A 
ATOM     77  F   UNL A   1      43.459  32.401  33.387  1.00  0.00    -0.206 F 
ATOM     78  C   UNL A   1      44.236  35.679  32.084  1.00  0.00     0.060 A 
BRANCH  78  79
ATOM     79  S   UNL A   1      44.392  37.387  32.650  1.00  0.00     0.124 S 
ATOM     80  O   UNL A   1      45.814  37.457  32.971  1.00  0.00    -0.237 OA
ATOM     81  O   UNL A   1      43.969  38.142  31.476  1.00  0.00    -0.237 OA
ATOM     82  O   UNL A   1      43.488  37.451  33.794  1.00  0.00    -0.744 OA
ENDBRANCH  78  79
ENDBRANCH  57  71
BRANCH  58  83
ATOM     83  C   UNL A   1      42.656  23.723  27.724  1.00  0.00     0.058 A 
ATOM     84  C   UNL A   1      42.510  22.611  28.567  1.00  0.00     0.135 A 
ATOM     85  C   UNL A   1      42.609  23.503  26.339  1.00  0.00     0.135 A 
ATOM     86  F   UNL A   1      42.557  22.767  29.898  1.00  0.00    -0.206 F 
ATOM     87  C   UNL A   1      42.337  21.328  28.056  1.00  0.00     0.059 A 
ATOM     88  C   UNL A   1      42.408  22.235  25.804  1.00  0.00     0.059 A 
ATOM     89  F   UNL A   1      42.730  24.534  25.488  1.00  0.00    -0.206 F 
ATOM     90  C   UNL A   1      42.283  21.151  26.672  1.00  0.00     0.060 A 
BRANCH  90  91
ATOM     91  S   UNL A   1      42.009  19.488  26.023  1.00  0.00     0.124 S 
ATOM     92  O   UNL A   1      40.575  19.508  25.763  1.00  0.00    -0.237 OA
ATOM     93  O   UNL A   1      42.874  19.476  24.848  1.00  0.00    -0.237 OA
ATOM     94  O   UNL A   1      42.441  18.627  27.120  1.00  0.00    -0.744 OA
ENDBRANCH  90  91
ENDBRANCH  58  83
BRANCH  70  95
ATOM     95  C   UNL A   1      48.212  27.286  30.039  1.00  0.00     0.058 A 
ATOM     96  C   UNL A   1      49.172  27.559  29.053  1.00  0.00     0.135 A 
ATOM     97  C   UNL A   1      48.657  26.746  31.257  1.00  0.00     0.135 A 
ATOM     98  F   UNL A   1      48.800  28.067  27.868  1.00  0.00    -0.206 F 
ATOM     99  C   UNL A   1      50.523  27.303  29.267  1.00  0.00     0.059 A 
ATOM    100  C   UNL A   1      50.006  26.511  31.504  1.00  0.00     0.059 A 
ATOM    101  F   UNL A   1      47.780  26.475  32.237  1.00  0.00    -0.206 F 
ATOM    102  C   UNL A   1      50.931  26.790  30.500  1.00  0.00     0.060 A 
BRANCH 102 103
ATOM    103  S   UNL A   1      52.694  26.532  30.788  1.00  0.00     0.124 S 
ATOM    104  O   UNL A   1      53.096  27.825  31.332  1.00  0.00    -0.237 OA
ATOM    105  O   UNL A   1      52.695  25.419  31.731  1.00  0.00    -0.237 OA
ATOM    106  O   UNL A   1      53.215  26.222  29.459  1.00  0.00    -0.744 OA
ENDBRANCH 102 103
ENDBRANCH  70  95
ENDBRANCH  44  45
ENDBRANCH  37  39
ENDBRANCH  36  37
ENDBRANCH  35  36
ENDBRANCH   1  35
TORSDOF 23
ENDMDL
MODEL 2
REMARK VINA RESULT:     -11.4      2.623      4.229
REMARK SMILES O=C1O[C@@H](c2ccc(O)c(O)c2)[C@H](C(=O)OCCOCCOC(=O)c2ccc(-c3c4nc(c(-c5c(F)cc(S(=O)(=O)[O-])cc5F)c5ccc([nH]5)c(-c5c(F)cc(S(=O)(=O)[O-])cc5F)c5nc(c(-c6c(F)cc(S(=O)(=O)[O-])cc6F)c6ccc3[nH]6)C=C5)C=C4)cc2)/C1=C\c1ccc(O)c(O)c1
REMARK SMILES IDX 20 1 19 2 18 3 17 4 16 5 14 6 15 7 13 8 1 9 2 10 3 11 91 12
REMARK SMILES IDX 4 13 92 14 5 15 6 16 12 17 7 18 10 19 8 20 11 21 9 23 93 25
REMARK SMILES IDX 94 26 100 27 95 28 98 29 96 30 99 31 97 33 21 35 22 36 23 37
REMARK SMILES IDX 24 38 25 39 26 40 90 41 27 42 89 43 28 44 29 45 30 46 83 47
REMARK SMILES IDX 31 48 88 49 82 50 84 51 32 52 87 53 81 54 80 55 33 57 67 58
REMARK SMILES IDX 46 59 66 60 47 61 50 62 65 63 85 64 48 65 49 66 64 68 86 69
REMARK SMILES IDX 51 70 34 71 35 72 44 73 36 74 37 75 43 76 45 77 38 78 39 79
REMARK SMILES IDX 40 80 41 81 42 82 68 83 69 84 78 85 70 86 71 87 77 88 79 89
REMARK SMILES IDX 72 90 73 91 74 92 75 93 76 94 52 95 53 96 62 97 54 98 55 99
REMARK SMILES IDX 61 100 63 101 56 102 57 103 58 104 59 105 60 106
REMARK H PARENT 11 22 9 24 99 32 97 34 84 56 50 67
REMARK Flexibility Score: inf
ROOT
ATOM      1  C   UNL A   1      31.939  28.197  27.228  1.00  0.00     0.202 C 
ENDROOT
BRANCH   1   2
ATOM      2  O   UNL A   1      31.427  27.640  26.025  1.00  0.00    -0.374 OA
BRANCH   2   3
ATOM      3  C   UNL A   1      30.958  26.296  26.033  1.00  0.00     0.202 C 
BRANCH   3   4
ATOM      4  C   UNL A   1      31.417  25.361  24.915  1.00  0.00     0.261 C 
BRANCH   4   5
ATOM      5  O   UNL A   1      31.904  24.117  25.449  1.00  0.00    -0.463 OA
BRANCH   5   6
ATOM      6  C   UNL A   1      33.262  24.006  25.506  1.00  0.00     0.317 C 
ATOM      7  O   UNL A   1      34.012  24.830  26.008  1.00  0.00    -0.251 OA
BRANCH   6   8
ATOM      8  C   UNL A   1      33.693  22.675  24.909  1.00  0.00     0.182 C 
ATOM      9  O   UNL A   1      33.765  23.474  21.454  1.00  0.00    -0.247 OA
ATOM     10  C   UNL A   1      33.534  23.051  22.574  1.00  0.00     0.335 C 
ATOM     11  O   UNL A   1      32.334  22.579  23.012  1.00  0.00    -0.453 OA
ATOM     12  C   UNL A   1      34.501  22.941  23.687  1.00  0.00     0.056 C 
ATOM     13  C   UNL A   1      32.467  22.001  24.327  1.00  0.00     0.226 C 
ATOM     14  C   UNL A   1      35.820  23.080  23.478  1.00  0.00     0.020 C 
BRANCH  13  15
ATOM     15  C   UNL A   1      32.549  20.479  24.259  1.00  0.00    -0.002 A 
ATOM     16  C   UNL A   1      32.887  19.728  25.404  1.00  0.00     0.012 A 
ATOM     17  C   UNL A   1      32.223  19.787  23.081  1.00  0.00     0.057 A 
ATOM     18  C   UNL A   1      32.922  18.327  25.367  1.00  0.00     0.050 A 
ATOM     19  C   UNL A   1      32.259  18.400  23.053  1.00  0.00     0.157 A 
ATOM     20  C   UNL A   1      32.606  17.670  24.185  1.00  0.00     0.157 A 
BRANCH  19  21
ATOM     21  O   UNL A   1      31.931  17.751  21.898  1.00  0.00    -0.504 OA
ATOM     22  H   UNL A   1      32.332  16.930  21.691  1.00  0.00     0.293 HD
ENDBRANCH  19  21
BRANCH  20  23
ATOM     23  O   UNL A   1      32.605  16.307  24.088  1.00  0.00    -0.504 OA
ATOM     24  H   UNL A   1      32.102  15.794  24.689  1.00  0.00     0.293 HD
ENDBRANCH  20  23
ENDBRANCH  13  15
BRANCH  14  25
ATOM     25  C   UNL A   1      36.879  22.954  24.485  1.00  0.00    -0.021 A 
ATOM     26  C   UNL A   1      37.188  24.021  25.342  1.00  0.00     0.012 A 
ATOM     27  C   UNL A   1      37.544  21.732  24.646  1.00  0.00     0.058 A 
ATOM     28  C   UNL A   1      38.169  23.884  26.335  1.00  0.00     0.051 A 
ATOM     29  C   UNL A   1      38.522  21.606  25.628  1.00  0.00     0.157 A 
ATOM     30  C   UNL A   1      38.841  22.675  26.462  1.00  0.00     0.157 A 
BRANCH  29  31
ATOM     31  O   UNL A   1      39.200  20.427  25.747  1.00  0.00    -0.504 OA
ATOM     32  H   UNL A   1      39.709  20.105  25.029  1.00  0.00     0.293 HD
ENDBRANCH  29  31
BRANCH  30  33
ATOM     33  O   UNL A   1      39.839  22.491  27.377  1.00  0.00    -0.504 OA
ATOM     34  H   UNL A   1      39.896  21.687  27.853  1.00  0.00     0.293 HD
ENDBRANCH  30  33
ENDBRANCH  14  25
ENDBRANCH   6   8
ENDBRANCH   5   6
ENDBRANCH   4   5
ENDBRANCH   3   4
ENDBRANCH   2   3
ENDBRANCH   1   2
BRANCH   1  35
ATOM     35  C   UNL A   1      32.434  29.650  27.242  1.00  0.00     0.261 C 
BRANCH  35  36
ATOM     36  O   UNL A   1      33.801  29.805  26.853  1.00  0.00    -0.460 OA
BRANCH  36  37
ATOM     37  C   UNL A   1      34.467  30.741  27.575  1.00  0.00     0.338 C 
ATOM     38  O   UNL A   1      34.069  31.841  27.914  1.00  0.00    -0.246 OA
BRANCH  37  39
ATOM     39  C   UNL A   1      35.723  30.154  28.062  1.00  0.00     0.060 A 
ATOM     40  C   UNL A   1      35.734  29.613  29.353  1.00  0.00     0.016 A 
ATOM     41  C   UNL A   1      36.875  30.172  27.276  1.00  0.00     0.016 A 
ATOM     42  C   UNL A   1      36.918  29.110  29.882  1.00  0.00     0.010 A 
ATOM     43  C   UNL A   1      38.063  29.683  27.814  1.00  0.00     0.010 A 
ATOM     44  C   UNL A   1      38.095  29.180  29.128  1.00  0.00    -0.014 A 
BRANCH  44  45
ATOM     45  C   UNL A   1      39.394  28.874  29.761  1.00  0.00     0.031 A 
ATOM     46  C   UNL A   1      39.857  29.740  30.897  1.00  0.00     0.074 A 
ATOM     47  C   UNL A   1      40.146  27.850  29.320  1.00  0.00     0.049 A 
ATOM     48  N   UNL A   1      41.001  29.740  31.525  1.00  0.00    -0.248 NA
ATOM     49  C   UNL A   1      38.901  30.749  31.384  1.00  0.00     0.031 C 
ATOM     50  C   UNL A   1      39.767  26.921  28.257  1.00  0.00     0.029 A 
ATOM     51  N   UNL A   1      41.394  27.435  29.704  1.00  0.00    -0.354 N 
ATOM     52  C   UNL A   1      40.912  30.757  32.468  1.00  0.00     0.074 A 
ATOM     53  C   UNL A   1      39.613  31.371  32.312  1.00  0.00     0.031 C 
ATOM     54  C   UNL A   1      40.774  26.054  28.057  1.00  0.00     0.029 A 
ATOM     55  C   UNL A   1      41.882  26.398  28.947  1.00  0.00     0.049 A 
ATOM     56  H   UNL A   1      41.893  27.840  30.450  1.00  0.00     0.167 HD
ATOM     57  C   UNL A   1      41.835  31.136  33.383  1.00  0.00     0.037 A 
ATOM     58  C   UNL A   1      43.098  25.818  28.951  1.00  0.00     0.037 A 
ATOM     59  C   UNL A   1      43.123  30.508  33.524  1.00  0.00     0.049 A 
ATOM     60  C   UNL A   1      44.137  26.305  29.928  1.00  0.00     0.074 A 
ATOM     61  C   UNL A   1      44.124  30.799  34.432  1.00  0.00     0.029 A 
ATOM     62  N   UNL A   1      43.588  29.468  32.731  1.00  0.00    -0.354 N 
ATOM     63  N   UNL A   1      44.039  27.256  30.828  1.00  0.00    -0.248 NA
ATOM     64  C   UNL A   1      45.449  25.645  29.893  1.00  0.00     0.031 C 
ATOM     65  C   UNL A   1      45.219  29.977  34.147  1.00  0.00     0.029 A 
ATOM     66  C   UNL A   1      44.874  29.126  33.108  1.00  0.00     0.049 A 
ATOM     67  H   UNL A   1      43.078  29.039  32.007  1.00  0.00     0.167 HD
ATOM     68  C   UNL A   1      45.263  27.283  31.489  1.00  0.00     0.074 A 
ATOM     69  C   UNL A   1      46.084  26.252  30.887  1.00  0.00     0.031 C 
ATOM     70  C   UNL A   1      45.668  28.083  32.506  1.00  0.00     0.037 A 
BRANCH  57  71
ATOM     71  C   UNL A   1      41.501  32.299  34.276  1.00  0.00     0.058 A 
ATOM     72  C   UNL A   1      41.737  33.628  33.888  1.00  0.00     0.135 A 
ATOM     73  C   UNL A   1      40.904  32.081  35.528  1.00  0.00     0.135 A 
ATOM     74  F   UNL A   1      42.325  33.894  32.710  1.00  0.00    -0.206 F 
ATOM     75  C   UNL A   1      41.415  34.696  34.718  1.00  0.00     0.059 A 
ATOM     76  C   UNL A   1      40.545  33.135  36.362  1.00  0.00     0.059 A 
ATOM     77  F   UNL A   1      40.662  30.830  35.953  1.00  0.00    -0.206 F 
ATOM     78  C   UNL A   1      40.816  34.439  35.953  1.00  0.00     0.060 A 
BRANCH  78  79
ATOM     79  S   UNL A   1      40.398  35.837  37.015  1.00  0.00     0.124 S 
ATOM     80  O   UNL A   1      39.507  35.208  37.985  1.00  0.00    -0.237 OA
ATOM     81  O   UNL A   1      41.703  36.243  37.524  1.00  0.00    -0.237 OA
ATOM     82  O   UNL A   1      39.762  36.781  36.101  1.00  0.00    -0.744 OA
ENDBRANCH  78  79
ENDBRANCH  57  71
BRANCH  58  83
ATOM     83  C   UNL A   1      43.404  24.728  27.985  1.00  0.00     0.058 A 
ATOM     84  C   UNL A   1      43.113  23.390  28.288  1.00  0.00     0.135 A 
ATOM     85  C   UNL A   1      43.984  25.004  26.737  1.00  0.00     0.135 A 
ATOM     86  F   UNL A   1      42.566  23.074  29.472  1.00  0.00    -0.206 F 
ATOM     87  C   UNL A   1      43.398  22.362  27.395  1.00  0.00     0.059 A 
ATOM     88  C   UNL A   1      44.252  23.998  25.815  1.00  0.00     0.059 A 
ATOM     89  F   UNL A   1      44.270  26.269  26.391  1.00  0.00    -0.206 F 
ATOM     90  C   UNL A   1      43.964  22.678  26.157  1.00  0.00     0.060 A 
BRANCH  90  91
ATOM     91  S   UNL A   1      44.285  21.340  24.988  1.00  0.00     0.124 S 
ATOM     92  O   UNL A   1      45.622  20.916  25.388  1.00  0.00    -0.237 OA
ATOM     93  O   UNL A   1      43.202  20.409  25.288  1.00  0.00    -0.237 OA
ATOM     94  O   UNL A   1      44.194  22.002  23.690  1.00  0.00    -0.744 OA
ENDBRANCH  90  91
ENDBRANCH  58  83
BRANCH  70  95
ATOM     95  C   UNL A   1      47.041  27.853  33.077  1.00  0.00     0.058 A 
ATOM     96  C   UNL A   1      48.164  28.558  32.618  1.00  0.00     0.135 A 
ATOM     97  C   UNL A   1      47.213  26.981  34.166  1.00  0.00     0.135 A 
ATOM     98  F   UNL A   1      48.056  29.396  31.575  1.00  0.00    -0.206 F 
ATOM     99  C   UNL A   1      49.411  28.402  33.215  1.00  0.00     0.059 A 
ATOM    100  C   UNL A   1      48.444  26.834  34.797  1.00  0.00     0.059 A 
ATOM    101  F   UNL A   1      46.169  26.289  34.650  1.00  0.00    -0.206 F 
ATOM    102  C   UNL A   1      49.539  27.546  34.311  1.00  0.00     0.060 A 
BRANCH 102 103
ATOM    103  S   UNL A   1      51.147  27.412  35.119  1.00  0.00     0.124 S 
ATOM    104  O   UNL A   1      51.986  28.221  34.242  1.00  0.00    -0.237 OA
ATOM    105  O   UNL A   1      50.879  27.975  36.438  1.00  0.00    -0.237 OA
ATOM    106  O   UNL A   1      51.419  25.977  35.100  1.00  0.00    -0.744 OA
ENDBRANCH 102 103
ENDBRANCH  70  95
ENDBRANCH  44  45
ENDBRANCH  37  39
ENDBRANCH  36  37
ENDBRANCH  35  36
ENDBRANCH   1  35
TORSDOF 23
ENDMDL
MODEL 3
REMARK VINA RESULT:     -11.3      1.301      3.372
REMARK SMILES O=C1O[C@@H](c2ccc(O)c(O)c2)[C@H](C(=O)OCCOCCOC(=O)c2ccc(-c3c4nc(c(-c5c(F)cc(S(=O)(=O)[O-])cc5F)c5ccc([nH]5)c(-c5c(F)cc(S(=O)(=O)[O-])cc5F)c5nc(c(-c6c(F)cc(S(=O)(=O)[O-])cc6F)c6ccc3[nH]6)C=C5)C=C4)cc2)/C1=C\c1ccc(O)c(O)c1
REMARK SMILES IDX 20 1 19 2 18 3 17 4 16 5 14 6 15 7 13 8 1 9 2 10 3 11 91 12
REMARK SMILES IDX 4 13 92 14 5 15 6 16 12 17 7 18 10 19 8 20 11 21 9 23 93 25
REMARK SMILES IDX 94 26 100 27 95 28 98 29 96 30 99 31 97 33 21 35 22 36 23 37
REMARK SMILES IDX 24 38 25 39 26 40 90 41 27 42 89 43 28 44 29 45 30 46 83 47
REMARK SMILES IDX 31 48 88 49 82 50 84 51 32 52 87 53 81 54 80 55 33 57 67 58
REMARK SMILES IDX 46 59 66 60 47 61 50 62 65 63 85 64 48 65 49 66 64 68 86 69
REMARK SMILES IDX 51 70 34 71 35 72 44 73 36 74 37 75 43 76 45 77 38 78 39 79
REMARK SMILES IDX 40 80 41 81 42 82 68 83 69 84 78 85 70 86 71 87 77 88 79 89
REMARK SMILES IDX 72 90 73 91 74 92 75 93 76 94 52 95 53 96 62 97 54 98 55 99
REMARK SMILES IDX 61 100 63 101 56 102 57 103 58 104 59 105 60 106
REMARK H PARENT 11 22 9 24 99 32 97 34 84 56 50 67
REMARK Flexibility Score: inf
ROOT
ATOM      1  C   UNL A   1      32.384  28.939  25.975  1.00  0.00     0.202 C 
ENDROOT
BRANCH   1   2
ATOM      2  O   UNL A   1      33.210  28.499  24.905  1.00  0.00    -0.374 OA
BRANCH   2   3
ATOM      3  C   UNL A   1      33.188  27.123  24.539  1.00  0.00     0.202 C 
BRANCH   3   4
ATOM      4  C   UNL A   1      33.330  26.076  25.643  1.00  0.00     0.261 C 
BRANCH   4   5
ATOM      5  O   UNL A   1      33.701  24.798  25.098  1.00  0.00    -0.463 OA
BRANCH   5   6
ATOM      6  C   UNL A   1      32.954  23.745  25.538  1.00  0.00     0.317 C 
ATOM      7  O   UNL A   1      32.019  23.827  26.321  1.00  0.00    -0.251 OA
BRANCH   6   8
ATOM      8  C   UNL A   1      33.420  22.467  24.859  1.00  0.00     0.182 C 
ATOM      9  O   UNL A   1      33.354  23.448  21.450  1.00  0.00    -0.247 OA
ATOM     10  C   UNL A   1      33.174  22.957  22.553  1.00  0.00     0.335 C 
ATOM     11  O   UNL A   1      32.008  22.413  22.998  1.00  0.00    -0.453 OA
ATOM     12  C   UNL A   1      34.179  22.830  23.630  1.00  0.00     0.056 C 
ATOM     13  C   UNL A   1      32.205  21.773  24.276  1.00  0.00     0.226 C 
ATOM     14  C   UNL A   1      35.484  23.034  23.391  1.00  0.00     0.020 C 
BRANCH  13  15
ATOM     15  C   UNL A   1      32.346  20.262  24.124  1.00  0.00    -0.002 A 
ATOM     16  C   UNL A   1      32.181  19.648  22.865  1.00  0.00     0.012 A 
ATOM     17  C   UNL A   1      32.713  19.455  25.214  1.00  0.00     0.057 A 
ATOM     18  C   UNL A   1      32.353  18.266  22.703  1.00  0.00     0.050 A 
ATOM     19  C   UNL A   1      32.882  18.088  25.046  1.00  0.00     0.157 A 
ATOM     20  C   UNL A   1      32.705  17.493  23.801  1.00  0.00     0.157 A 
BRANCH  19  21
ATOM     21  O   UNL A   1      33.246  17.327  26.119  1.00  0.00    -0.504 OA
ATOM     22  H   UNL A   1      33.677  16.505  25.988  1.00  0.00     0.293 HD
ENDBRANCH  19  21
BRANCH  20  23
ATOM     23  O   UNL A   1      32.903  16.144  23.708  1.00  0.00    -0.504 OA
ATOM     24  H   UNL A   1      33.123  15.758  22.882  1.00  0.00     0.293 HD
ENDBRANCH  20  23
ENDBRANCH  13  15
BRANCH  14  25
ATOM     25  C   UNL A   1      36.577  22.900  24.360  1.00  0.00    -0.021 A 
ATOM     26  C   UNL A   1      36.951  23.977  25.178  1.00  0.00     0.012 A 
ATOM     27  C   UNL A   1      37.213  21.662  24.525  1.00  0.00     0.058 A 
ATOM     28  C   UNL A   1      37.965  23.834  26.135  1.00  0.00     0.051 A 
ATOM     29  C   UNL A   1      38.225  21.530  25.471  1.00  0.00     0.157 A 
ATOM     30  C   UNL A   1      38.606  22.608  26.266  1.00  0.00     0.157 A 
BRANCH  29  31
ATOM     31  O   UNL A   1      38.872  20.334  25.593  1.00  0.00    -0.504 OA
ATOM     32  H   UNL A   1      39.780  20.269  25.371  1.00  0.00     0.293 HD
ENDBRANCH  29  31
BRANCH  30  33
ATOM     33  O   UNL A   1      39.634  22.416  27.146  1.00  0.00    -0.504 OA
ATOM     34  H   UNL A   1      39.998  21.560  27.262  1.00  0.00     0.293 HD
ENDBRANCH  30  33
ENDBRANCH  14  25
ENDBRANCH   6   8
ENDBRANCH   5   6
ENDBRANCH   4   5
ENDBRANCH   3   4
ENDBRANCH   2   3
ENDBRANCH   1   2
BRANCH   1  35
ATOM     35  C   UNL A   1      33.025  29.575  27.217  1.00  0.00     0.261 C 
BRANCH  35  36
ATOM     36  O   UNL A   1      34.271  30.227  26.962  1.00  0.00    -0.460 OA
BRANCH  36  37
ATOM     37  C   UNL A   1      34.840  30.762  28.072  1.00  0.00     0.338 C 
ATOM     38  O   UNL A   1      34.326  31.513  28.882  1.00  0.00    -0.246 OA
BRANCH  37  39
ATOM     39  C   UNL A   1      36.162  30.150  28.265  1.00  0.00     0.060 A 
ATOM     40  C   UNL A   1      36.479  29.672  29.543  1.00  0.00     0.016 A 
ATOM     41  C   UNL A   1      37.082  30.086  27.220  1.00  0.00     0.016 A 
ATOM     42  C   UNL A   1      37.743  29.149  29.790  1.00  0.00     0.010 A 
ATOM     43  C   UNL A   1      38.354  29.577  27.475  1.00  0.00     0.010 A 
ATOM     44  C   UNL A   1      38.698  29.137  28.767  1.00  0.00    -0.014 A 
BRANCH  44  45
ATOM     45  C   UNL A   1      40.105  28.811  29.076  1.00  0.00     0.031 A 
ATOM     46  C   UNL A   1      40.963  29.874  29.702  1.00  0.00     0.074 A 
ATOM     47  C   UNL A   1      40.605  27.596  28.793  1.00  0.00     0.049 A 
ATOM     48  N   UNL A   1      42.244  29.861  29.952  1.00  0.00    -0.248 NA
ATOM     49  C   UNL A   1      40.284  31.122  30.089  1.00  0.00     0.031 C 
ATOM     50  C   UNL A   1      39.844  26.481  28.230  1.00  0.00     0.029 A 
ATOM     51  N   UNL A   1      41.877  27.105  28.925  1.00  0.00    -0.354 N 
ATOM     52  C   UNL A   1      42.530  31.102  30.509  1.00  0.00     0.074 A 
ATOM     53  C   UNL A   1      41.295  31.853  30.534  1.00  0.00     0.031 C 
ATOM     54  C   UNL A   1      40.672  25.439  28.044  1.00  0.00     0.029 A 
ATOM     55  C   UNL A   1      42.026  25.831  28.433  1.00  0.00     0.049 A 
ATOM     56  H   UNL A   1      42.614  27.615  29.333  1.00  0.00     0.167 HD
ATOM     57  C   UNL A   1      43.718  31.565  30.960  1.00  0.00     0.037 A 
ATOM     58  C   UNL A   1      43.137  25.084  28.282  1.00  0.00     0.037 A 
ATOM     59  C   UNL A   1      44.937  30.799  30.930  1.00  0.00     0.049 A 
ATOM     60  C   UNL A   1      44.463  25.647  28.724  1.00  0.00     0.074 A 
ATOM     61  C   UNL A   1      46.192  31.164  31.381  1.00  0.00     0.029 A 
ATOM     62  N   UNL A   1      45.053  29.516  30.412  1.00  0.00    -0.354 N 
ATOM     63  N   UNL A   1      44.722  26.816  29.264  1.00  0.00    -0.248 NA
ATOM     64  C   UNL A   1      45.647  24.797  28.537  1.00  0.00     0.031 C 
ATOM     65  C   UNL A   1      47.080  30.126  31.079  1.00  0.00     0.029 A 
ATOM     66  C   UNL A   1      46.365  29.087  30.505  1.00  0.00     0.049 A 
ATOM     67  H   UNL A   1      44.311  28.991  30.034  1.00  0.00     0.167 HD
ATOM     68  C   UNL A   1      46.090  26.825  29.515  1.00  0.00     0.074 A 
ATOM     69  C   UNL A   1      46.604  25.546  29.068  1.00  0.00     0.031 C 
ATOM     70  C   UNL A   1      46.852  27.801  30.070  1.00  0.00     0.037 A 
BRANCH  57  71
ATOM     71  C   UNL A   1      43.768  32.971  31.493  1.00  0.00     0.058 A 
ATOM     72  C   UNL A   1      43.895  34.084  30.647  1.00  0.00     0.135 A 
ATOM     73  C   UNL A   1      43.651  33.209  32.873  1.00  0.00     0.135 A 
ATOM     74  F   UNL A   1      44.032  33.914  29.322  1.00  0.00    -0.206 F 
ATOM     75  C   UNL A   1      43.929  35.380  31.150  1.00  0.00     0.059 A 
ATOM     76  C   UNL A   1      43.651  34.498  33.395  1.00  0.00     0.059 A 
ATOM     77  F   UNL A   1      43.534  32.181  33.729  1.00  0.00    -0.206 F 
ATOM     78  C   UNL A   1      43.803  35.577  32.527  1.00  0.00     0.060 A 
BRANCH  78  79
ATOM     79  S   UNL A   1      43.842  37.266  33.163  1.00  0.00     0.124 S 
ATOM     80  O   UNL A   1      43.784  38.042  31.928  1.00  0.00    -0.237 OA
ATOM     81  O   UNL A   1      42.646  37.311  33.996  1.00  0.00    -0.237 OA
ATOM     82  O   UNL A   1      45.109  37.329  33.884  1.00  0.00    -0.744 OA
ENDBRANCH  78  79
ENDBRANCH  57  71
BRANCH  58  83
ATOM     83  C   UNL A   1      43.044  23.732  27.668  1.00  0.00     0.058 A 
ATOM     84  C   UNL A   1      43.219  23.549  26.289  1.00  0.00     0.135 A 
ATOM     85  C   UNL A   1      42.787  22.594  28.450  1.00  0.00     0.135 A 
ATOM     86  F   UNL A   1      43.456  24.606  25.497  1.00  0.00    -0.206 F 
ATOM     87  C   UNL A   1      43.129  22.290  25.704  1.00  0.00     0.059 A 
ATOM     88  C   UNL A   1      42.722  21.322  27.894  1.00  0.00     0.059 A 
ATOM     89  F   UNL A   1      42.626  22.712  29.778  1.00  0.00    -0.206 F 
ATOM     90  C   UNL A   1      42.885  21.181  26.516  1.00  0.00     0.060 A 
BRANCH  90  91
ATOM     91  S   UNL A   1      42.819  19.547  25.751  1.00  0.00     0.124 S 
ATOM     92  O   UNL A   1      41.413  19.457  25.375  1.00  0.00    -0.237 OA
ATOM     93  O   UNL A   1      43.768  19.689  24.652  1.00  0.00    -0.237 OA
ATOM     94  O   UNL A   1      43.244  18.657  26.827  1.00  0.00    -0.744 OA
ENDBRANCH  90  91
ENDBRANCH  58  83
BRANCH  70  95
ATOM     95  C   UNL A   1      48.314  27.517  30.278  1.00  0.00     0.058 A 
ATOM     96  C   UNL A   1      48.772  26.718  31.337  1.00  0.00     0.135 A 
ATOM     97  C   UNL A   1      49.260  27.974  29.344  1.00  0.00     0.135 A 
ATOM     98  F   UNL A   1      47.912  26.263  32.261  1.00  0.00    -0.206 F 
ATOM     99  C   UNL A   1      50.118  26.388  31.466  1.00  0.00     0.059 A 
ATOM    100  C   UNL A   1      50.605  27.630  29.437  1.00  0.00     0.059 A 
ATOM    101  F   UNL A   1      48.873  28.734  28.307  1.00  0.00    -0.206 F 
ATOM    102  C   UNL A   1      51.025  26.839  30.505  1.00  0.00     0.060 A 
BRANCH 102 103
ATOM    103  S   UNL A   1      52.753  26.341  30.647  1.00  0.00     0.124 S 
ATOM    104  O   UNL A   1      53.360  27.542  31.211  1.00  0.00    -0.237 OA
ATOM    105  O   UNL A   1      52.672  25.191  31.541  1.00  0.00    -0.237 OA
ATOM    106  O   UNL A   1      53.134  26.033  29.271  1.00  0.00    -0.744 OA
ENDBRANCH 102 103
ENDBRANCH  70  95
ENDBRANCH  44  45
ENDBRANCH  37  39
ENDBRANCH  36  37
ENDBRANCH  35  36
ENDBRANCH   1  35
TORSDOF 23
ENDMDL
