MODEL 1
REMARK VINA RESULT:     -11.6      0.000      0.000
REMARK SMILES CCCc1cc(S(F)(F)(F)(F)F)cc2c1O[C@@H](C(F)(F)F)C(C(=O)OCCOCCOC(=O)c1ccc(-c3c4nc(c(-c5c(F)cc(S(=O)(=O)[O-])cc5F)c5ccc([nH]5)c(-c5c(F)cc(S(=O)(=O)[O-])cc5F)c5nc(c(-c6c(F)cc(S(=O)(=O)[O-])cc6F)c6ccc3[nH]6)C=C5)C=C4)cc1)=C2
REMARK SMILES IDX 29 1 28 2 27 3 26 4 25 5 23 6 24 7 22 8 4 9 5 10 15 11 6 12
REMARK SMILES IDX 14 13 16 14 13 15 100 16 17 17 3 18 2 19 1 20 7 21 8 22 9 23
REMARK SMILES IDX 10 24 11 25 12 26 18 27 19 28 20 29 21 30 30 31 31 32 32 33
REMARK SMILES IDX 33 34 34 35 35 36 99 37 36 38 98 39 37 40 38 41 39 42 92 43
REMARK SMILES IDX 40 44 97 45 91 46 93 47 41 48 96 49 90 50 89 51 42 53 76 54
REMARK SMILES IDX 55 55 75 56 56 57 59 58 74 59 94 60 57 61 58 62 73 64 95 65
REMARK SMILES IDX 60 66 43 67 44 68 53 69 45 70 46 71 52 72 54 73 47 74 48 75
REMARK SMILES IDX 49 76 50 77 51 78 77 79 78 80 87 81 79 82 80 83 86 84 88 85
REMARK SMILES IDX 81 86 82 87 83 88 84 89 85 90 61 91 62 92 71 93 63 94 64 95
REMARK SMILES IDX 70 96 72 97 65 98 66 99 67 100 68 101 69 102
REMARK H PARENT 93 52 59 63
REMARK Flexibility Score: inf
ROOT
ATOM      1  C   UNL A   1      35.083  31.791  28.015  1.00  0.00     0.202 C 
ENDROOT
BRANCH   1   2
ATOM      2  O   UNL A   1      34.513  30.558  27.601  1.00  0.00    -0.374 OA
BRANCH   2   3
ATOM      3  C   UNL A   1      33.149  30.758  27.262  1.00  0.00     0.202 C 
BRANCH   3   4
ATOM      4  C   UNL A   1      32.857  30.105  25.921  1.00  0.00     0.261 C 
BRANCH   4   5
ATOM      5  O   UNL A   1      31.648  29.367  26.008  1.00  0.00    -0.460 OA
BRANCH   5   6
ATOM      6  C   UNL A   1      31.660  28.039  26.511  1.00  0.00     0.338 C 
ATOM      7  O   UNL A   1      31.115  27.779  27.629  1.00  0.00    -0.246 OA
BRANCH   6   8
ATOM      8  C   UNL A   1      32.324  26.930  25.712  1.00  0.00     0.087 C 
ATOM      9  C   UNL A   1      33.778  23.574  23.693  1.00  0.00    -0.004 A 
ATOM     10  C   UNL A   1      34.990  23.019  24.061  1.00  0.00     0.032 A 
ATOM     11  C   UNL A   1      33.298  24.644  24.408  1.00  0.00     0.131 A 
ATOM     12  C   UNL A   1      35.701  23.518  25.120  1.00  0.00     0.108 A 
ATOM     13  C   UNL A   1      33.998  25.187  25.471  1.00  0.00     0.019 A 
ATOM     14  O   UNL A   1      32.043  25.113  24.104  1.00  0.00    -0.475 OA
ATOM     15  C   UNL A   1      35.210  24.602  25.817  1.00  0.00     0.036 A 
ATOM     16  C   UNL A   1      33.387  26.293  26.188  1.00  0.00     0.027 C 
ATOM     17  C   UNL A   1      31.785  26.524  24.347  1.00  0.00     0.316 C 
BRANCH   9  18
ATOM     18  C   UNL A   1      33.067  23.058  22.452  1.00  0.00     0.039 C 
BRANCH  18  19
ATOM     19  C   UNL A   1      31.919  22.151  22.867  1.00  0.00     0.001 C 
ATOM     20  C   UNL A   1      32.476  20.875  23.475  1.00  0.00     0.004 C 
ENDBRANCH  18  19
ENDBRANCH   9  18
BRANCH  12  21
ATOM     21  S   UNL A   1      37.274  22.763  25.600  1.00  0.00     0.310 S 
ATOM     22  F   UNL A   1      37.540  22.055  24.205  1.00  0.00    -0.094 F 
ATOM     23  F   UNL A   1      36.488  21.466  26.028  1.00  0.00    -0.094 F 
ATOM     24  F   UNL A   1      38.613  22.148  26.097  1.00  0.00    -0.094 F 
ATOM     25  F   UNL A   1      38.064  24.009  25.037  1.00  0.00    -0.094 F 
ATOM     26  F   UNL A   1      35.939  23.349  24.989  1.00  0.00    -0.094 F 
ENDBRANCH  12  21
BRANCH  17  27
ATOM     27  C   UNL A   1      30.284  26.766  24.315  1.00  0.00     0.430 C 
ATOM     28  F   UNL A   1      29.750  26.111  23.289  1.00  0.00    -0.167 F 
ATOM     29  F   UNL A   1      29.741  26.330  25.449  1.00  0.00    -0.167 F 
ATOM     30  F   UNL A   1      30.047  28.068  24.182  1.00  0.00    -0.167 F 
ENDBRANCH  17  27
ENDBRANCH   6   8
ENDBRANCH   5   6
ENDBRANCH   4   5
ENDBRANCH   3   4
ENDBRANCH   2   3
ENDBRANCH   1   2
BRANCH   1  31
ATOM     31  C   UNL A   1      34.778  32.021  29.487  1.00  0.00     0.261 C 
BRANCH  31  32
ATOM     32  O   UNL A   1      35.976  31.915  30.241  1.00  0.00    -0.460 OA
BRANCH  32  33
ATOM     33  C   UNL A   1      36.565  30.643  30.465  1.00  0.00     0.338 C 
ATOM     34  O   UNL A   1      35.900  29.728  31.043  1.00  0.00    -0.246 OA
BRANCH  33  35
ATOM     35  C   UNL A   1      37.991  30.375  30.012  1.00  0.00     0.060 A 
ATOM     36  C   UNL A   1      38.949  30.306  31.011  1.00  0.00     0.016 A 
ATOM     37  C   UNL A   1      38.293  30.104  28.748  1.00  0.00     0.016 A 
ATOM     38  C   UNL A   1      40.276  30.220  30.527  1.00  0.00     0.010 A 
ATOM     39  C   UNL A   1      39.597  29.897  28.370  1.00  0.00     0.010 A 
ATOM     40  C   UNL A   1      40.603  29.873  29.296  1.00  0.00    -0.014 A 
BRANCH  40  41
ATOM     41  C   UNL A   1      42.022  29.470  28.927  1.00  0.00     0.031 A 
ATOM     42  C   UNL A   1      43.036  30.427  28.870  1.00  0.00     0.074 A 
ATOM     43  C   UNL A   1      42.181  28.149  28.545  1.00  0.00     0.049 A 
ATOM     44  N   UNL A   1      44.301  30.250  28.487  1.00  0.00    -0.248 NA
ATOM     45  C   UNL A   1      42.860  31.838  29.243  1.00  0.00     0.031 C 
ATOM     46  C   UNL A   1      41.164  27.175  28.608  1.00  0.00     0.029 A 
ATOM     47  N   UNL A   1      43.314  27.544  28.047  1.00  0.00    -0.354 N 
ATOM     48  C   UNL A   1      44.978  31.395  28.586  1.00  0.00     0.074 A 
ATOM     49  C   UNL A   1      44.059  32.435  29.067  1.00  0.00     0.031 C 
ATOM     50  C   UNL A   1      41.674  26.004  28.145  1.00  0.00     0.029 A 
ATOM     51  C   UNL A   1      43.018  26.225  27.785  1.00  0.00     0.049 A 
ATOM     52  H   UNL A   1      44.185  27.979  27.904  1.00  0.00     0.167 HD
ATOM     53  C   UNL A   1      46.325  31.613  28.295  1.00  0.00     0.037 A 
ATOM     54  C   UNL A   1      43.856  25.255  27.259  1.00  0.00     0.037 A 
ATOM     55  C   UNL A   1      47.176  30.632  27.811  1.00  0.00     0.049 A 
ATOM     56  C   UNL A   1      45.189  25.487  26.912  1.00  0.00     0.074 A 
ATOM     57  C   UNL A   1      48.539  30.833  27.519  1.00  0.00     0.029 A 
ATOM     58  N   UNL A   1      46.873  29.320  27.524  1.00  0.00    -0.354 N 
ATOM     59  N   UNL A   1      45.876  26.623  27.049  1.00  0.00    -0.248 NA
ATOM     60  C   UNL A   1      46.078  24.476  26.325  1.00  0.00     0.031 C 
ATOM     61  C   UNL A   1      49.049  29.661  27.056  1.00  0.00     0.029 A 
ATOM     62  C   UNL A   1      48.012  28.709  27.048  1.00  0.00     0.049 A 
ATOM     63  H   UNL A   1      45.993  28.892  27.639  1.00  0.00     0.167 HD
ATOM     64  C   UNL A   1      47.130  26.455  26.627  1.00  0.00     0.074 A 
ATOM     65  C   UNL A   1      47.277  25.074  26.148  1.00  0.00     0.031 C 
ATOM     66  C   UNL A   1      48.161  27.397  26.624  1.00  0.00     0.037 A 
BRANCH  53  67
ATOM     67  C   UNL A   1      46.892  33.005  28.523  1.00  0.00     0.058 A 
ATOM     68  C   UNL A   1      47.452  33.295  29.756  1.00  0.00     0.135 A 
ATOM     69  C   UNL A   1      46.891  33.899  27.541  1.00  0.00     0.135 A 
ATOM     70  F   UNL A   1      47.703  32.366  30.674  1.00  0.00    -0.206 F 
ATOM     71  C   UNL A   1      47.731  34.668  29.952  1.00  0.00     0.059 A 
ATOM     72  C   UNL A   1      47.306  35.189  27.768  1.00  0.00     0.059 A 
ATOM     73  F   UNL A   1      46.484  33.542  26.326  1.00  0.00    -0.206 F 
ATOM     74  C   UNL A   1      47.815  35.560  28.981  1.00  0.00     0.060 A 
BRANCH  74  75
ATOM     75  S   UNL A   1      48.563  37.187  29.245  1.00  0.00     0.124 S 
ATOM     76  O   UNL A   1      48.488  37.549  30.729  1.00  0.00    -0.237 OA
ATOM     77  O   UNL A   1      50.028  37.153  28.801  1.00  0.00    -0.237 OA
ATOM     78  O   UNL A   1      47.718  38.358  28.329  1.00  0.00    -0.744 OA
ENDBRANCH  74  75
ENDBRANCH  53  67
BRANCH  54  79
ATOM     79  C   UNL A   1      43.293  23.858  27.047  1.00  0.00     0.058 A 
ATOM     80  C   UNL A   1      43.276  22.977  28.115  1.00  0.00     0.135 A 
ATOM     81  C   UNL A   1      42.875  23.489  25.843  1.00  0.00     0.135 A 
ATOM     82  F   UNL A   1      43.442  23.364  29.377  1.00  0.00    -0.206 F 
ATOM     83  C   UNL A   1      43.067  21.629  27.743  1.00  0.00     0.059 A 
ATOM     84  C   UNL A   1      42.557  22.177  25.585  1.00  0.00     0.059 A 
ATOM     85  F   UNL A   1      42.762  24.396  24.877  1.00  0.00    -0.206 F 
ATOM     86  C   UNL A   1      42.575  21.240  26.580  1.00  0.00     0.060 A 
BRANCH  86  87
ATOM     87  S   UNL A   1      41.959  19.559  26.319  1.00  0.00     0.124 S 
ATOM     88  O   UNL A   1      42.617  18.961  25.072  1.00  0.00    -0.237 OA
ATOM     89  O   UNL A   1      42.299  18.696  27.537  1.00  0.00    -0.237 OA
ATOM     90  O   UNL A   1      40.264  19.599  26.104  1.00  0.00    -0.744 OA
ENDBRANCH  86  87
ENDBRANCH  54  79
BRANCH  66  91
ATOM     91  C   UNL A   1      49.528  26.958  26.127  1.00  0.00     0.058 A 
ATOM     92  C   UNL A   1      49.754  27.145  24.773  1.00  0.00     0.135 A 
ATOM     93  C   UNL A   1      50.493  26.535  26.935  1.00  0.00     0.135 A 
ATOM     94  F   UNL A   1      48.909  27.797  23.980  1.00  0.00    -0.206 F 
ATOM     95  C   UNL A   1      50.965  26.577  24.311  1.00  0.00     0.059 A 
ATOM     96  C   UNL A   1      51.702  26.124  26.425  1.00  0.00     0.059 A 
ATOM     97  F   UNL A   1      50.290  26.511  28.249  1.00  0.00    -0.206 F 
ATOM     98  C   UNL A   1      51.971  26.224  25.089  1.00  0.00     0.060 A 
BRANCH  98  99
ATOM     99  S   UNL A   1      53.621  25.891  24.422  1.00  0.00     0.124 S 
ATOM    100  O   UNL A   1      53.573  25.942  22.893  1.00  0.00    -0.237 OA
ATOM    101  O   UNL A   1      54.602  26.946  24.936  1.00  0.00    -0.237 OA
ATOM    102  O   UNL A   1      54.136  24.340  24.924  1.00  0.00    -0.744 OA
ENDBRANCH  98  99
ENDBRANCH  66  91
ENDBRANCH  40  41
ENDBRANCH  33  35
ENDBRANCH  32  33
ENDBRANCH  31  32
ENDBRANCH   1  31
TORSDOF 21
ENDMDL
MODEL 2
REMARK VINA RESULT:     -11.4      6.462     11.627
REMARK SMILES CCCc1cc(S(F)(F)(F)(F)F)cc2c1O[C@@H](C(F)(F)F)C(C(=O)OCCOCCOC(=O)c1ccc(-c3c4nc(c(-c5c(F)cc(S(=O)(=O)[O-])cc5F)c5ccc([nH]5)c(-c5c(F)cc(S(=O)(=O)[O-])cc5F)c5nc(c(-c6c(F)cc(S(=O)(=O)[O-])cc6F)c6ccc3[nH]6)C=C5)C=C4)cc1)=C2
REMARK SMILES IDX 29 1 28 2 27 3 26 4 25 5 23 6 24 7 22 8 4 9 5 10 15 11 6 12
REMARK SMILES IDX 14 13 16 14 13 15 100 16 17 17 3 18 2 19 1 20 7 21 8 22 9 23
REMARK SMILES IDX 10 24 11 25 12 26 18 27 19 28 20 29 21 30 30 31 31 32 32 33
REMARK SMILES IDX 33 34 34 35 35 36 99 37 36 38 98 39 37 40 38 41 39 42 92 43
REMARK SMILES IDX 40 44 97 45 91 46 93 47 41 48 96 49 90 50 89 51 42 53 76 54
REMARK SMILES IDX 55 55 75 56 56 57 59 58 74 59 94 60 57 61 58 62 73 64 95 65
REMARK SMILES IDX 60 66 43 67 44 68 53 69 45 70 46 71 52 72 54 73 47 74 48 75
REMARK SMILES IDX 49 76 50 77 51 78 77 79 78 80 87 81 79 82 80 83 86 84 88 85
REMARK SMILES IDX 81 86 82 87 83 88 84 89 85 90 61 91 62 92 71 93 63 94 64 95
REMARK SMILES IDX 70 96 72 97 65 98 66 99 67 100 68 101 69 102
REMARK H PARENT 93 52 59 63
REMARK Flexibility Score: inf
ROOT
ATOM      1  C   UNL A   1      40.246  22.344  25.913  1.00  0.00     0.202 C 
ENDROOT
BRANCH   1   2
ATOM      2  O   UNL A   1      38.876  22.443  26.275  1.00  0.00    -0.374 OA
BRANCH   2   3
ATOM      3  C   UNL A   1      38.177  21.305  25.792  1.00  0.00     0.202 C 
BRANCH   3   4
ATOM      4  C   UNL A   1      37.349  21.696  24.579  1.00  0.00     0.261 C 
BRANCH   4   5
ATOM      5  O   UNL A   1      36.593  22.860  24.877  1.00  0.00    -0.460 OA
BRANCH   5   6
ATOM      6  C   UNL A   1      35.224  22.747  25.236  1.00  0.00     0.338 C 
ATOM      7  O   UNL A   1      34.790  21.669  25.752  1.00  0.00    -0.246 OA
BRANCH   6   8
ATOM      8  C   UNL A   1      34.279  23.914  25.005  1.00  0.00     0.087 C 
ATOM      9  C   UNL A   1      31.957  27.224  23.952  1.00  0.00    -0.004 A 
ATOM     10  C   UNL A   1      31.967  28.355  24.747  1.00  0.00     0.032 A 
ATOM     11  C   UNL A   1      32.771  26.170  24.293  1.00  0.00     0.131 A 
ATOM     12  C   UNL A   1      32.774  28.432  25.852  1.00  0.00     0.108 A 
ATOM     13  C   UNL A   1      33.584  26.205  25.411  1.00  0.00     0.019 A 
ATOM     14  O   UNL A   1      32.834  25.100  23.433  1.00  0.00    -0.475 OA
ATOM     15  C   UNL A   1      33.573  27.359  26.185  1.00  0.00     0.036 A 
ATOM     16  C   UNL A   1      34.436  25.056  25.664  1.00  0.00     0.027 C 
ATOM     17  C   UNL A   1      33.128  23.799  24.014  1.00  0.00     0.316 C 
BRANCH   9  18
ATOM     18  C   UNL A   1      30.977  27.135  22.793  1.00  0.00     0.039 C 
BRANCH  18  19
ATOM     19  C   UNL A   1      29.581  27.483  23.283  1.00  0.00     0.001 C 
ATOM     20  C   UNL A   1      29.021  26.322  24.087  1.00  0.00     0.004 C 
ENDBRANCH  18  19
ENDBRANCH   9  18
BRANCH  12  21
ATOM     21  S   UNL A   1      32.790  29.931  26.866  1.00  0.00     0.310 S 
ATOM     22  F   UNL A   1      31.924  30.806  25.865  1.00  0.00    -0.094 F 
ATOM     23  F   UNL A   1      34.065  30.417  26.078  1.00  0.00    -0.094 F 
ATOM     24  F   UNL A   1      32.858  31.174  27.797  1.00  0.00    -0.094 F 
ATOM     25  F   UNL A   1      31.433  29.502  27.550  1.00  0.00    -0.094 F 
ATOM     26  F   UNL A   1      32.645  28.725  25.854  1.00  0.00    -0.094 F 
ENDBRANCH  12  21
BRANCH  17  27
ATOM     27  C   UNL A   1      33.526  22.839  22.904  1.00  0.00     0.430 C 
ATOM     28  F   UNL A   1      33.301  21.589  23.296  1.00  0.00    -0.167 F 
ATOM     29  F   UNL A   1      32.805  23.098  21.815  1.00  0.00    -0.167 F 
ATOM     30  F   UNL A   1      34.818  22.991  22.626  1.00  0.00    -0.167 F 
ENDBRANCH  17  27
ENDBRANCH   6   8
ENDBRANCH   5   6
ENDBRANCH   4   5
ENDBRANCH   3   4
ENDBRANCH   2   3
ENDBRANCH   1   2
BRANCH   1  31
ATOM     31  C   UNL A   1      41.102  22.989  26.992  1.00  0.00     0.261 C 
BRANCH  31  32
ATOM     32  O   UNL A   1      41.944  23.969  26.404  1.00  0.00    -0.460 OA
BRANCH  32  33
ATOM     33  C   UNL A   1      41.501  25.314  26.295  1.00  0.00     0.338 C 
ATOM     34  O   UNL A   1      41.327  25.835  25.150  1.00  0.00    -0.246 OA
BRANCH  33  35
ATOM     35  C   UNL A   1      41.235  26.130  27.550  1.00  0.00     0.060 A 
ATOM     36  C   UNL A   1      42.152  27.128  27.839  1.00  0.00     0.016 A 
ATOM     37  C   UNL A   1      40.128  25.983  28.268  1.00  0.00     0.016 A 
ATOM     38  C   UNL A   1      41.951  27.744  29.096  1.00  0.00     0.010 A 
ATOM     39  C   UNL A   1      39.935  26.716  29.413  1.00  0.00     0.010 A 
ATOM     40  C   UNL A   1      40.830  27.679  29.792  1.00  0.00    -0.014 A 
BRANCH  40  41
ATOM     41  C   UNL A   1      40.549  28.622  30.951  1.00  0.00     0.031 A 
ATOM     42  C   UNL A   1      39.603  29.639  30.819  1.00  0.00     0.074 A 
ATOM     43  C   UNL A   1      41.370  28.465  32.054  1.00  0.00     0.049 A 
ATOM     44  N   UNL A   1      39.303  30.590  31.706  1.00  0.00    -0.248 NA
ATOM     45  C   UNL A   1      38.754  29.828  29.634  1.00  0.00     0.031 C 
ATOM     46  C   UNL A   1      42.321  27.435  32.198  1.00  0.00     0.029 A 
ATOM     47  N   UNL A   1      41.425  29.250  33.185  1.00  0.00    -0.354 N 
ATOM     48  C   UNL A   1      38.332  31.373  31.231  1.00  0.00     0.074 A 
ATOM     49  C   UNL A   1      37.969  30.897  29.890  1.00  0.00     0.031 C 
ATOM     50  C   UNL A   1      42.947  27.603  33.392  1.00  0.00     0.029 A 
ATOM     51  C   UNL A   1      42.398  28.740  34.016  1.00  0.00     0.049 A 
ATOM     52  H   UNL A   1      40.865  30.039  33.368  1.00  0.00     0.167 HD
ATOM     53  C   UNL A   1      37.734  32.463  31.865  1.00  0.00     0.037 A 
ATOM     54  C   UNL A   1      42.801  29.227  35.250  1.00  0.00     0.037 A 
ATOM     55  C   UNL A   1      38.106  32.922  33.118  1.00  0.00     0.049 A 
ATOM     56  C   UNL A   1      42.243  30.352  35.859  1.00  0.00     0.074 A 
ATOM     57  C   UNL A   1      37.509  34.016  33.775  1.00  0.00     0.029 A 
ATOM     58  N   UNL A   1      39.097  32.428  33.938  1.00  0.00    -0.354 N 
ATOM     59  N   UNL A   1      41.244  31.110  35.402  1.00  0.00    -0.248 NA
ATOM     60  C   UNL A   1      42.682  30.896  37.151  1.00  0.00     0.031 C 
ATOM     61  C   UNL A   1      38.135  34.183  34.970  1.00  0.00     0.029 A 
ATOM     62  C   UNL A   1      39.135  33.199  35.078  1.00  0.00     0.049 A 
ATOM     63  H   UNL A   1      39.677  31.657  33.742  1.00  0.00     0.167 HD
ATOM     64  C   UNL A   1      40.973  32.086  36.270  1.00  0.00     0.074 A 
ATOM     65  C   UNL A   1      41.899  31.966  37.405  1.00  0.00     0.031 C 
ATOM     66  C   UNL A   1      39.988  33.070  36.165  1.00  0.00     0.037 A 
BRANCH  53  67
ATOM     67  C   UNL A   1      36.610  33.186  31.140  1.00  0.00     0.058 A 
ATOM     68  C   UNL A   1      35.307  32.950  31.544  1.00  0.00     0.135 A 
ATOM     69  C   UNL A   1      36.886  34.059  30.178  1.00  0.00     0.135 A 
ATOM     70  F   UNL A   1      35.001  32.288  32.657  1.00  0.00    -0.206 F 
ATOM     71  C   UNL A   1      34.330  33.476  30.667  1.00  0.00     0.059 A 
ATOM     72  C   UNL A   1      35.875  34.639  29.449  1.00  0.00     0.059 A 
ATOM     73  F   UNL A   1      38.151  34.374  29.917  1.00  0.00    -0.206 F 
ATOM     74  C   UNL A   1      34.564  34.404  29.755  1.00  0.00     0.060 A 
BRANCH  74  75
ATOM     75  S   UNL A   1      33.219  35.314  28.956  1.00  0.00     0.124 S 
ATOM     76  O   UNL A   1      33.804  36.418  28.073  1.00  0.00    -0.237 OA
ATOM     77  O   UNL A   1      32.395  34.355  28.093  1.00  0.00    -0.237 OA
ATOM     78  O   UNL A   1      32.214  36.011  30.151  1.00  0.00    -0.744 OA
ENDBRANCH  74  75
ENDBRANCH  53  67
BRANCH  54  79
ATOM     79  C   UNL A   1      43.913  28.493  35.981  1.00  0.00     0.058 A 
ATOM     80  C   UNL A   1      43.575  27.491  36.877  1.00  0.00     0.135 A 
ATOM     81  C   UNL A   1      45.178  28.849  35.792  1.00  0.00     0.135 A 
ATOM     82  F   UNL A   1      42.369  26.930  36.915  1.00  0.00    -0.206 F 
ATOM     83  C   UNL A   1      44.627  27.119  37.745  1.00  0.00     0.059 A 
ATOM     84  C   UNL A   1      46.174  28.341  36.591  1.00  0.00     0.059 A 
ATOM     85  F   UNL A   1      45.483  29.704  34.821  1.00  0.00    -0.206 F 
ATOM     86  C   UNL A   1      45.902  27.392  37.536  1.00  0.00     0.060 A 
BRANCH  86  87
ATOM     87  S   UNL A   1      47.219  26.554  38.453  1.00  0.00     0.124 S 
ATOM     88  O   UNL A   1      48.076  27.593  39.181  1.00  0.00    -0.237 OA
ATOM     89  O   UNL A   1      46.601  25.597  39.474  1.00  0.00    -0.237 OA
ATOM     90  O   UNL A   1      48.198  25.672  37.365  1.00  0.00    -0.744 OA
ENDBRANCH  86  87
ENDBRANCH  54  79
BRANCH  66  91
ATOM     91  C   UNL A   1      39.841  34.058  37.310  1.00  0.00     0.058 A 
ATOM     92  C   UNL A   1      39.084  33.615  38.382  1.00  0.00     0.135 A 
ATOM     93  C   UNL A   1      40.480  35.221  37.351  1.00  0.00     0.135 A 
ATOM     94  F   UNL A   1      38.639  32.367  38.488  1.00  0.00    -0.206 F 
ATOM     95  C   UNL A   1      38.827  34.612  39.353  1.00  0.00     0.059 A 
ATOM     96  C   UNL A   1      40.286  36.089  38.400  1.00  0.00     0.059 A 
ATOM     97  F   UNL A   1      41.318  35.549  36.371  1.00  0.00    -0.206 F 
ATOM     98  C   UNL A   1      39.504  35.740  39.465  1.00  0.00     0.060 A 
BRANCH  98  99
ATOM     99  S   UNL A   1      39.401  36.770  40.950  1.00  0.00     0.124 S 
ATOM    100  O   UNL A   1      40.770  36.818  41.633  1.00  0.00    -0.237 OA
ATOM    101  O   UNL A   1      38.975  38.187  40.561  1.00  0.00    -0.237 OA
ATOM    102  O   UNL A   1      38.251  36.104  42.026  1.00  0.00    -0.744 OA
ENDBRANCH  98  99
ENDBRANCH  66  91
ENDBRANCH  40  41
ENDBRANCH  33  35
ENDBRANCH  32  33
ENDBRANCH  31  32
ENDBRANCH   1  31
TORSDOF 21
ENDMDL
MODEL 3
REMARK VINA RESULT:     -11.3      6.323     11.717
REMARK SMILES CCCc1cc(S(F)(F)(F)(F)F)cc2c1O[C@@H](C(F)(F)F)C(C(=O)OCCOCCOC(=O)c1ccc(-c3c4nc(c(-c5c(F)cc(S(=O)(=O)[O-])cc5F)c5ccc([nH]5)c(-c5c(F)cc(S(=O)(=O)[O-])cc5F)c5nc(c(-c6c(F)cc(S(=O)(=O)[O-])cc6F)c6ccc3[nH]6)C=C5)C=C4)cc1)=C2
REMARK SMILES IDX 29 1 28 2 27 3 26 4 25 5 23 6 24 7 22 8 4 9 5 10 15 11 6 12
REMARK SMILES IDX 14 13 16 14 13 15 100 16 17 17 3 18 2 19 1 20 7 21 8 22 9 23
REMARK SMILES IDX 10 24 11 25 12 26 18 27 19 28 20 29 21 30 30 31 31 32 32 33
REMARK SMILES IDX 33 34 34 35 35 36 99 37 36 38 98 39 37 40 38 41 39 42 92 43
REMARK SMILES IDX 40 44 97 45 91 46 93 47 41 48 96 49 90 50 89 51 42 53 76 54
REMARK SMILES IDX 55 55 75 56 56 57 59 58 74 59 94 60 57 61 58 62 73 64 95 65
REMARK SMILES IDX 60 66 43 67 44 68 53 69 45 70 46 71 52 72 54 73 47 74 48 75
REMARK SMILES IDX 49 76 50 77 51 78 77 79 78 80 87 81 79 82 80 83 86 84 88 85
REMARK SMILES IDX 81 86 82 87 83 88 84 89 85 90 61 91 62 92 71 93 63 94 64 95
REMARK SMILES IDX 70 96 72 97 65 98 66 99 67 100 68 101 69 102
REMARK H PARENT 93 52 59 63
REMARK Flexibility Score: inf
ROOT
ATOM      1  C   UNL A   1      40.243  22.540  26.847  1.00  0.00     0.202 C 
ENDROOT
BRANCH   1   2
ATOM      2  O   UNL A   1      39.572  21.318  26.574  1.00  0.00    -0.374 OA
BRANCH   2   3
ATOM      3  C   UNL A   1      38.787  21.462  25.400  1.00  0.00     0.202 C 
BRANCH   3   4
ATOM      4  C   UNL A   1      37.376  21.880  25.780  1.00  0.00     0.261 C 
BRANCH   4   5
ATOM      5  O   UNL A   1      36.490  21.579  24.713  1.00  0.00    -0.460 OA
BRANCH   5   6
ATOM      6  C   UNL A   1      35.908  22.629  23.954  1.00  0.00     0.338 C 
ATOM      7  O   UNL A   1      36.297  22.843  22.763  1.00  0.00    -0.246 OA
BRANCH   6   8
ATOM      8  C   UNL A   1      34.820  23.495  24.565  1.00  0.00     0.087 C 
ATOM      9  C   UNL A   1      31.625  25.901  25.775  1.00  0.00    -0.004 A 
ATOM     10  C   UNL A   1      31.858  27.198  26.193  1.00  0.00     0.032 A 
ATOM     11  C   UNL A   1      32.687  25.150  25.332  1.00  0.00     0.131 A 
ATOM     12  C   UNL A   1      33.119  27.733  26.163  1.00  0.00     0.108 A 
ATOM     13  C   UNL A   1      33.976  25.649  25.306  1.00  0.00     0.019 A 
ATOM     14  O   UNL A   1      32.425  23.903  24.817  1.00  0.00    -0.475 OA
ATOM     15  C   UNL A   1      34.174  26.958  25.728  1.00  0.00     0.036 A 
ATOM     16  C   UNL A   1      35.024  24.789  24.783  1.00  0.00     0.027 C 
ATOM     17  C   UNL A   1      33.470  22.900  24.943  1.00  0.00     0.316 C 
BRANCH   9  18
ATOM     18  C   UNL A   1      30.232  25.310  25.917  1.00  0.00     0.039 C 
BRANCH  18  19
ATOM     19  C   UNL A   1      29.260  26.089  25.047  1.00  0.00     0.001 C 
ATOM     20  C   UNL A   1      29.656  25.941  23.587  1.00  0.00     0.004 C 
ENDBRANCH  18  19
ENDBRANCH   9  18
BRANCH  12  21
ATOM     21  S   UNL A   1      33.398  29.441  26.690  1.00  0.00     0.310 S 
ATOM     22  F   UNL A   1      31.901  29.713  27.139  1.00  0.00    -0.094 F 
ATOM     23  F   UNL A   1      32.981  29.925  25.250  1.00  0.00    -0.094 F 
ATOM     24  F   UNL A   1      33.725  30.900  27.115  1.00  0.00    -0.094 F 
ATOM     25  F   UNL A   1      33.677  28.956  28.167  1.00  0.00    -0.094 F 
ATOM     26  F   UNL A   1      32.961  27.971  26.305  1.00  0.00    -0.094 F 
ENDBRANCH  12  21
BRANCH  17  27
ATOM     27  C   UNL A   1      33.161  21.742  24.007  1.00  0.00     0.430 C 
ATOM     28  F   UNL A   1      33.921  20.699  24.326  1.00  0.00    -0.167 F 
ATOM     29  F   UNL A   1      31.879  21.408  24.123  1.00  0.00    -0.167 F 
ATOM     30  F   UNL A   1      33.412  22.106  22.752  1.00  0.00    -0.167 F 
ENDBRANCH  17  27
ENDBRANCH   6   8
ENDBRANCH   5   6
ENDBRANCH   4   5
ENDBRANCH   3   4
ENDBRANCH   2   3
ENDBRANCH   1   2
BRANCH   1  31
ATOM     31  C   UNL A   1      41.485  22.641  25.976  1.00  0.00     0.261 C 
BRANCH  31  32
ATOM     32  O   UNL A   1      42.240  23.781  26.360  1.00  0.00    -0.460 OA
BRANCH  32  33
ATOM     33  C   UNL A   1      41.665  25.076  26.271  1.00  0.00     0.338 C 
ATOM     34  O   UNL A   1      41.234  25.504  25.155  1.00  0.00    -0.246 OA
BRANCH  33  35
ATOM     35  C   UNL A   1      41.566  25.950  27.510  1.00  0.00     0.060 A 
ATOM     36  C   UNL A   1      42.539  26.927  27.652  1.00  0.00     0.016 A 
ATOM     37  C   UNL A   1      40.542  25.871  28.352  1.00  0.00     0.016 A 
ATOM     38  C   UNL A   1      42.499  27.599  28.896  1.00  0.00     0.010 A 
ATOM     39  C   UNL A   1      40.501  26.656  29.478  1.00  0.00     0.010 A 
ATOM     40  C   UNL A   1      41.461  27.601  29.713  1.00  0.00    -0.014 A 
BRANCH  40  41
ATOM     41  C   UNL A   1      41.340  28.599  30.854  1.00  0.00     0.031 A 
ATOM     42  C   UNL A   1      42.141  28.473  31.989  1.00  0.00     0.074 A 
ATOM     43  C   UNL A   1      40.321  29.526  30.723  1.00  0.00     0.049 A 
ATOM     44  N   UNL A   1      42.099  29.211  33.100  1.00  0.00    -0.248 NA
ATOM     45  C   UNL A   1      43.202  27.467  32.143  1.00  0.00     0.031 C 
ATOM     46  C   UNL A   1      39.514  29.665  29.576  1.00  0.00     0.029 A 
ATOM     47  N   UNL A   1      39.904  30.459  31.647  1.00  0.00    -0.354 N 
ATOM     48  C   UNL A   1      43.034  28.803  33.960  1.00  0.00     0.074 A 
ATOM     49  C   UNL A   1      43.753  27.672  33.359  1.00  0.00     0.031 C 
ATOM     50  C   UNL A   1      38.617  30.659  29.809  1.00  0.00     0.029 A 
ATOM     51  C   UNL A   1      38.848  31.159  31.106  1.00  0.00     0.049 A 
ATOM     52  H   UNL A   1      40.293  30.601  32.540  1.00  0.00     0.167 HD
ATOM     53  C   UNL A   1      43.317  29.332  35.220  1.00  0.00     0.037 A 
ATOM     54  C   UNL A   1      38.114  32.177  31.694  1.00  0.00     0.037 A 
ATOM     55  C   UNL A   1      42.612  30.380  35.790  1.00  0.00     0.049 A 
ATOM     56  C   UNL A   1      38.359  32.668  32.978  1.00  0.00     0.074 A 
ATOM     57  C   UNL A   1      42.888  30.930  37.057  1.00  0.00     0.029 A 
ATOM     58  N   UNL A   1      41.540  31.063  35.259  1.00  0.00    -0.354 N 
ATOM     59  N   UNL A   1      39.321  32.287  33.821  1.00  0.00    -0.248 NA
ATOM     60  C   UNL A   1      37.568  33.723  33.624  1.00  0.00     0.031 C 
ATOM     61  C   UNL A   1      41.992  31.925  37.290  1.00  0.00     0.029 A 
ATOM     62  C   UNL A   1      41.138  32.011  36.174  1.00  0.00     0.049 A 
ATOM     63  H   UNL A   1      41.131  30.901  34.378  1.00  0.00     0.167 HD
ATOM     64  C   UNL A   1      39.251  32.997  34.949  1.00  0.00     0.074 A 
ATOM     65  C   UNL A   1      38.119  33.927  34.841  1.00  0.00     0.031 C 
ATOM     66  C   UNL A   1      40.089  32.911  36.062  1.00  0.00     0.037 A 
BRANCH  53  67
ATOM     67  C   UNL A   1      44.464  28.725  36.012  1.00  0.00     0.058 A 
ATOM     68  C   UNL A   1      44.188  27.673  36.869  1.00  0.00     0.135 A 
ATOM     69  C   UNL A   1      45.705  29.166  35.841  1.00  0.00     0.135 A 
ATOM     70  F   UNL A   1      43.020  27.037  36.884  1.00  0.00    -0.206 F 
ATOM     71  C   UNL A   1      45.260  27.337  37.729  1.00  0.00     0.059 A 
ATOM     72  C   UNL A   1      46.730  28.694  36.625  1.00  0.00     0.059 A 
ATOM     73  F   UNL A   1      45.958  30.073  34.901  1.00  0.00    -0.206 F 
ATOM     74  C   UNL A   1      46.516  27.697  37.535  1.00  0.00     0.060 A 
BRANCH  74  75
ATOM     75  S   UNL A   1      47.881  26.911  38.428  1.00  0.00     0.124 S 
ATOM     76  O   UNL A   1      48.380  27.850  39.527  1.00  0.00    -0.237 OA
ATOM     77  O   UNL A   1      47.394  25.603  39.056  1.00  0.00    -0.237 OA
ATOM     78  O   UNL A   1      49.157  26.579  37.339  1.00  0.00    -0.744 OA
ENDBRANCH  74  75
ENDBRANCH  53  67
BRANCH  54  79
ATOM     79  C   UNL A   1      36.978  32.795  30.895  1.00  0.00     0.058 A 
ATOM     80  C   UNL A   1      37.271  33.798  29.985  1.00  0.00     0.135 A 
ATOM     81  C   UNL A   1      35.728  32.405  31.111  1.00  0.00     0.135 A 
ATOM     82  F   UNL A   1      38.503  34.045  29.551  1.00  0.00    -0.206 F 
ATOM     83  C   UNL A   1      36.141  34.533  29.559  1.00  0.00     0.059 A 
ATOM     84  C   UNL A   1      34.675  33.090  30.553  1.00  0.00     0.059 A 
ATOM     85  F   UNL A   1      35.492  31.343  31.875  1.00  0.00    -0.206 F 
ATOM     86  C   UNL A   1      34.890  34.129  29.691  1.00  0.00     0.060 A 
BRANCH  86  87
ATOM     87  S   UNL A   1      33.535  34.908  28.779  1.00  0.00     0.124 S 
ATOM     88  O   UNL A   1      34.093  36.012  27.878  1.00  0.00    -0.237 OA
ATOM     89  O   UNL A   1      32.828  33.858  27.919  1.00  0.00    -0.237 OA
ATOM     90  O   UNL A   1      32.419  35.584  29.883  1.00  0.00    -0.744 OA
ENDBRANCH  86  87
ENDBRANCH  54  79
BRANCH  66  91
ATOM     91  C   UNL A   1      39.836  33.860  37.222  1.00  0.00     0.058 A 
ATOM     92  C   UNL A   1      38.964  33.392  38.191  1.00  0.00     0.135 A 
ATOM     93  C   UNL A   1      40.483  35.009  37.374  1.00  0.00     0.135 A 
ATOM     94  F   UNL A   1      38.493  32.148  38.202  1.00  0.00    -0.206 F 
ATOM     95  C   UNL A   1      38.620  34.357  39.167  1.00  0.00     0.059 A 
ATOM     96  C   UNL A   1      40.191  35.841  38.429  1.00  0.00     0.059 A 
ATOM     97  F   UNL A   1      41.424  35.357  36.500  1.00  0.00    -0.206 F 
ATOM     98  C   UNL A   1      39.296  35.468  39.391  1.00  0.00     0.060 A 
BRANCH  98  99
ATOM     99  S   UNL A   1      39.051  36.445  40.896  1.00  0.00     0.124 S 
ATOM    100  O   UNL A   1      40.371  36.534  41.667  1.00  0.00    -0.237 OA
ATOM    101  O   UNL A   1      38.584  37.853  40.520  1.00  0.00    -0.237 OA
ATOM    102  O   UNL A   1      37.868  35.694  41.876  1.00  0.00    -0.744 OA
ENDBRANCH  98  99
ENDBRANCH  66  91
ENDBRANCH  40  41
ENDBRANCH  33  35
ENDBRANCH  32  33
ENDBRANCH  31  32
ENDBRANCH   1  31
TORSDOF 21
ENDMDL
