MODEL 1
REMARK VINA RESULT:     -11.2      0.000      0.000
REMARK SMILES CC(C)CCc1cc2c(cc1Cl)C=C(C(=O)OCCOCCOC(=O)c1ccc(-c3c4nc(c(-c5c(F)cc(S(=O)(=O)[O-])cc5F)c5ccc([nH]5)c(-c5c(F)cc(S(=O)(=O)[O-])cc5F)c5nc(c(-c6c(F)cc(S(=O)(=O)[O-])cc6F)c6ccc3[nH]6)C=C5)C=C4)cc1)[C@H](C(F)(F)F)O2
REMARK SMILES IDX 20 1 19 2 18 3 17 4 15 5 16 6 14 7 6 8 7 9 11 10 8 11 10 12
REMARK SMILES IDX 12 13 9 14 97 15 13 16 92 17 5 18 4 19 2 20 1 21 3 22 93 23
REMARK SMILES IDX 94 24 95 25 96 26 21 27 22 28 23 29 24 30 25 31 26 32 27 33
REMARK SMILES IDX 91 34 28 35 90 36 29 37 30 38 31 39 84 40 32 41 89 42 83 43
REMARK SMILES IDX 85 44 33 45 88 46 82 47 81 48 34 50 68 51 47 52 67 53 48 54
REMARK SMILES IDX 51 55 66 56 86 57 49 58 50 59 65 61 87 62 52 63 35 64 36 65
REMARK SMILES IDX 45 66 37 67 38 68 44 69 46 70 39 71 40 72 41 73 42 74 43 75
REMARK SMILES IDX 69 76 70 77 79 78 71 79 72 80 78 81 80 82 73 83 74 84 75 85
REMARK SMILES IDX 76 86 77 87 53 88 54 89 63 90 55 91 56 92 62 93 64 94 57 95
REMARK SMILES IDX 58 96 59 97 60 98 61 99
REMARK H PARENT 85 49 51 60
REMARK Flexibility Score: inf
ROOT
ATOM      1  O   UNL A   1      34.184  31.153  27.250  1.00  0.00    -0.374 OA
ENDROOT
BRANCH   1   2
ATOM      2  C   UNL A   1      32.994  30.369  27.148  1.00  0.00     0.202 C 
BRANCH   2   3
ATOM      3  C   UNL A   1      32.636  29.861  25.748  1.00  0.00     0.261 C 
BRANCH   3   4
ATOM      4  O   UNL A   1      33.657  28.983  25.247  1.00  0.00    -0.460 OA
BRANCH   4   5
ATOM      5  C   UNL A   1      33.404  28.448  24.036  1.00  0.00     0.338 C 
ATOM      6  O   UNL A   1      33.697  28.931  22.954  1.00  0.00    -0.246 OA
BRANCH   5   7
ATOM      7  C   UNL A   1      32.832  27.097  24.191  1.00  0.00     0.087 C 
ATOM      8  C   UNL A   1      32.490  22.176  25.151  1.00  0.00    -0.026 A 
ATOM      9  C   UNL A   1      31.807  23.076  24.313  1.00  0.00     0.052 A 
ATOM     10  C   UNL A   1      33.384  22.714  26.096  1.00  0.00     0.045 A 
ATOM     11  C   UNL A   1      32.118  24.433  24.304  1.00  0.00     0.128 A 
ATOM     12  C   UNL A   1      33.658  24.085  26.123  1.00  0.00     0.032 A 
ATOM     13  Cl  UNL A   1      34.215  21.719  27.239  1.00  0.00    -0.084 Cl
ATOM     14  C   UNL A   1      33.053  24.939  25.198  1.00  0.00     0.019 A 
ATOM     15  O   UNL A   1      31.537  25.172  23.314  1.00  0.00    -0.475 OA
ATOM     16  C   UNL A   1      33.468  26.322  25.082  1.00  0.00     0.027 C 
ATOM     17  C   UNL A   1      31.658  26.624  23.369  1.00  0.00     0.316 C 
BRANCH   8  18
ATOM     18  C   UNL A   1      32.283  20.680  25.025  1.00  0.00     0.037 C 
BRANCH  18  19
ATOM     19  C   UNL A   1      33.281  19.901  24.147  1.00  0.00     0.008 C 
BRANCH  19  20
ATOM     20  C   UNL A   1      33.045  18.375  24.060  1.00  0.00    -0.017 C 
ATOM     21  C   UNL A   1      32.549  17.935  22.685  1.00  0.00     0.007 C 
ATOM     22  C   UNL A   1      34.333  17.632  24.424  1.00  0.00     0.007 C 
ENDBRANCH  19  20
ENDBRANCH  18  19
ENDBRANCH   8  18
BRANCH  17  23
ATOM     23  C   UNL A   1      30.290  27.202  23.790  1.00  0.00     0.430 C 
ATOM     24  F   UNL A   1      29.984  28.332  23.109  1.00  0.00    -0.167 F 
ATOM     25  F   UNL A   1      29.281  26.323  23.605  1.00  0.00    -0.167 F 
ATOM     26  F   UNL A   1      30.274  27.526  25.108  1.00  0.00    -0.167 F 
ENDBRANCH  17  23
ENDBRANCH   5   7
ENDBRANCH   4   5
ENDBRANCH   3   4
ENDBRANCH   2   3
ENDBRANCH   1   2
BRANCH   1  27
ATOM     27  C   UNL A   1      34.153  32.275  28.135  1.00  0.00     0.202 C 
BRANCH  27  28
ATOM     28  C   UNL A   1      35.000  32.180  29.411  1.00  0.00     0.261 C 
BRANCH  28  29
ATOM     29  O   UNL A   1      35.590  30.879  29.566  1.00  0.00    -0.460 OA
BRANCH  29  30
ATOM     30  C   UNL A   1      36.484  30.764  30.580  1.00  0.00     0.338 C 
ATOM     31  O   UNL A   1      36.257  30.895  31.773  1.00  0.00    -0.246 OA
BRANCH  30  32
ATOM     32  C   UNL A   1      37.764  30.243  30.053  1.00  0.00     0.060 A 
ATOM     33  C   UNL A   1      38.017  30.149  28.683  1.00  0.00     0.016 A 
ATOM     34  C   UNL A   1      38.738  29.846  30.978  1.00  0.00     0.016 A 
ATOM     35  C   UNL A   1      39.263  29.689  28.246  1.00  0.00     0.010 A 
ATOM     36  C   UNL A   1      39.985  29.399  30.540  1.00  0.00     0.010 A 
ATOM     37  C   UNL A   1      40.266  29.334  29.169  1.00  0.00    -0.014 A 
BRANCH  37  38
ATOM     38  C   UNL A   1      41.633  29.003  28.687  1.00  0.00     0.031 A 
ATOM     39  C   UNL A   1      42.731  30.026  28.673  1.00  0.00     0.074 A 
ATOM     40  C   UNL A   1      41.874  27.750  28.253  1.00  0.00     0.049 A 
ATOM     41  N   UNL A   1      43.999  29.861  28.391  1.00  0.00    -0.248 NA
ATOM     42  C   UNL A   1      42.365  31.409  29.009  1.00  0.00     0.031 C 
ATOM     43  C   UNL A   1      40.872  26.687  28.164  1.00  0.00     0.029 A 
ATOM     44  N   UNL A   1      43.033  27.151  27.826  1.00  0.00    -0.354 N 
ATOM     45  C   UNL A   1      44.589  31.110  28.539  1.00  0.00     0.074 A 
ATOM     46  C   UNL A   1      43.527  32.036  28.874  1.00  0.00     0.031 C 
ATOM     47  C   UNL A   1      41.467  25.555  27.758  1.00  0.00     0.029 A 
ATOM     48  C   UNL A   1      42.885  25.816  27.531  1.00  0.00     0.049 A 
ATOM     49  H   UNL A   1      43.888  27.631  27.740  1.00  0.00     0.167 HD
ATOM     50  C   UNL A   1      45.898  31.444  28.436  1.00  0.00     0.037 A 
ATOM     51  C   UNL A   1      43.790  24.899  27.133  1.00  0.00     0.037 A 
ATOM     52  C   UNL A   1      46.947  30.516  28.091  1.00  0.00     0.049 A 
ATOM     53  C   UNL A   1      45.230  25.305  26.982  1.00  0.00     0.074 A 
ATOM     54  C   UNL A   1      48.308  30.751  28.011  1.00  0.00     0.029 A 
ATOM     55  N   UNL A   1      46.752  29.185  27.754  1.00  0.00    -0.354 N 
ATOM     56  N   UNL A   1      45.787  26.467  27.230  1.00  0.00    -0.248 NA
ATOM     57  C   UNL A   1      46.165  24.282  26.495  1.00  0.00     0.031 C 
ATOM     58  C   UNL A   1      48.930  29.580  27.570  1.00  0.00     0.029 A 
ATOM     59  C   UNL A   1      47.964  28.597  27.425  1.00  0.00     0.049 A 
ATOM     60  H   UNL A   1      45.882  28.724  27.748  1.00  0.00     0.167 HD
ATOM     61  C   UNL A   1      47.138  26.311  26.938  1.00  0.00     0.074 A 
ATOM     62  C   UNL A   1      47.319  24.936  26.522  1.00  0.00     0.031 C 
ATOM     63  C   UNL A   1      48.134  27.228  27.002  1.00  0.00     0.037 A 
BRANCH  50  64
ATOM     64  C   UNL A   1      46.284  32.871  28.720  1.00  0.00     0.058 A 
ATOM     65  C   UNL A   1      46.625  33.288  30.017  1.00  0.00     0.135 A 
ATOM     66  C   UNL A   1      46.386  33.812  27.684  1.00  0.00     0.135 A 
ATOM     67  F   UNL A   1      46.538  32.432  31.048  1.00  0.00    -0.206 F 
ATOM     68  C   UNL A   1      47.030  34.592  30.280  1.00  0.00     0.059 A 
ATOM     69  C   UNL A   1      46.815  35.117  27.919  1.00  0.00     0.059 A 
ATOM     70  F   UNL A   1      46.078  33.467  26.424  1.00  0.00    -0.206 F 
ATOM     71  C   UNL A   1      47.124  35.500  29.224  1.00  0.00     0.060 A 
BRANCH  71  72
ATOM     72  S   UNL A   1      47.654  37.185  29.590  1.00  0.00     0.124 S 
ATOM     73  O   UNL A   1      46.944  37.942  28.563  1.00  0.00    -0.237 OA
ATOM     74  O   UNL A   1      47.175  37.369  30.956  1.00  0.00    -0.237 OA
ATOM     75  O   UNL A   1      49.104  37.130  29.436  1.00  0.00    -0.744 OA
ENDBRANCH  71  72
ENDBRANCH  50  64
BRANCH  51  76
ATOM     76  C   UNL A   1      43.360  23.496  26.883  1.00  0.00     0.058 A 
ATOM     77  C   UNL A   1      43.246  23.000  25.577  1.00  0.00     0.135 A 
ATOM     78  C   UNL A   1      43.083  22.619  27.943  1.00  0.00     0.135 A 
ATOM     79  F   UNL A   1      43.494  23.801  24.530  1.00  0.00    -0.206 F 
ATOM     80  C   UNL A   1      42.866  21.685  25.328  1.00  0.00     0.059 A 
ATOM     81  C   UNL A   1      42.727  21.292  27.720  1.00  0.00     0.059 A 
ATOM     82  F   UNL A   1      43.189  23.041  29.212  1.00  0.00    -0.206 F 
ATOM     83  C   UNL A   1      42.615  20.836  26.407  1.00  0.00     0.060 A 
BRANCH  83  84
ATOM     84  S   UNL A   1      42.176  19.118  26.069  1.00  0.00     0.124 S 
ATOM     85  O   UNL A   1      42.499  18.476  27.337  1.00  0.00    -0.237 OA
ATOM     86  O   UNL A   1      40.755  19.226  25.751  1.00  0.00    -0.237 OA
ATOM     87  O   UNL A   1      43.037  18.764  24.945  1.00  0.00    -0.744 OA
ENDBRANCH  83  84
ENDBRANCH  51  76
BRANCH  63  88
ATOM     88  C   UNL A   1      49.516  26.793  26.593  1.00  0.00     0.058 A 
ATOM     89  C   UNL A   1      50.354  26.102  27.482  1.00  0.00     0.135 A 
ATOM     90  C   UNL A   1      49.970  26.979  25.277  1.00  0.00     0.135 A 
ATOM     91  F   UNL A   1      49.974  25.907  28.754  1.00  0.00    -0.206 F 
ATOM     92  C   UNL A   1      51.592  25.612  27.082  1.00  0.00     0.059 A 
ATOM     93  C   UNL A   1      51.193  26.471  24.846  1.00  0.00     0.059 A 
ATOM     94  F   UNL A   1      49.206  27.627  24.383  1.00  0.00    -0.206 F 
ATOM     95  C   UNL A   1      51.998  25.790  25.758  1.00  0.00     0.060 A 
BRANCH  95  96
ATOM     96  S   UNL A   1      53.576  25.082  25.241  1.00  0.00     0.124 S 
ATOM     97  O   UNL A   1      53.305  23.651  25.334  1.00  0.00    -0.237 OA
ATOM     98  O   UNL A   1      53.725  25.613  23.890  1.00  0.00    -0.237 OA
ATOM     99  O   UNL A   1      54.524  25.605  26.222  1.00  0.00    -0.744 OA
ENDBRANCH  95  96
ENDBRANCH  63  88
ENDBRANCH  37  38
ENDBRANCH  30  32
ENDBRANCH  29  30
ENDBRANCH  28  29
ENDBRANCH  27  28
ENDBRANCH   1  27
TORSDOF 21
ENDMDL
MODEL 2
REMARK VINA RESULT:     -11.2      2.534      8.591
REMARK SMILES CC(C)CCc1cc2c(cc1Cl)C=C(C(=O)OCCOCCOC(=O)c1ccc(-c3c4nc(c(-c5c(F)cc(S(=O)(=O)[O-])cc5F)c5ccc([nH]5)c(-c5c(F)cc(S(=O)(=O)[O-])cc5F)c5nc(c(-c6c(F)cc(S(=O)(=O)[O-])cc6F)c6ccc3[nH]6)C=C5)C=C4)cc1)[C@H](C(F)(F)F)O2
REMARK SMILES IDX 20 1 19 2 18 3 17 4 15 5 16 6 14 7 6 8 7 9 11 10 8 11 10 12
REMARK SMILES IDX 12 13 9 14 97 15 13 16 92 17 5 18 4 19 2 20 1 21 3 22 93 23
REMARK SMILES IDX 94 24 95 25 96 26 21 27 22 28 23 29 24 30 25 31 26 32 27 33
REMARK SMILES IDX 91 34 28 35 90 36 29 37 30 38 31 39 84 40 32 41 89 42 83 43
REMARK SMILES IDX 85 44 33 45 88 46 82 47 81 48 34 50 68 51 47 52 67 53 48 54
REMARK SMILES IDX 51 55 66 56 86 57 49 58 50 59 65 61 87 62 52 63 35 64 36 65
REMARK SMILES IDX 45 66 37 67 38 68 44 69 46 70 39 71 40 72 41 73 42 74 43 75
REMARK SMILES IDX 69 76 70 77 79 78 71 79 72 80 78 81 80 82 73 83 74 84 75 85
REMARK SMILES IDX 76 86 77 87 53 88 54 89 63 90 55 91 56 92 62 93 64 94 57 95
REMARK SMILES IDX 58 96 59 97 60 98 61 99
REMARK H PARENT 85 49 51 60
REMARK Flexibility Score: inf
ROOT
ATOM      1  O   UNL A   1      31.086  29.671  24.786  1.00  0.00    -0.374 OA
ENDROOT
BRANCH   1   2
ATOM      2  C   UNL A   1      31.623  28.909  23.703  1.00  0.00     0.202 C 
BRANCH   2   3
ATOM      3  C   UNL A   1      30.661  27.930  23.023  1.00  0.00     0.261 C 
BRANCH   3   4
ATOM      4  O   UNL A   1      31.178  26.589  23.073  1.00  0.00    -0.460 OA
BRANCH   4   5
ATOM      5  C   UNL A   1      30.750  25.852  24.117  1.00  0.00     0.338 C 
ATOM      6  O   UNL A   1      29.725  26.028  24.757  1.00  0.00    -0.246 OA
BRANCH   5   7
ATOM      7  C   UNL A   1      31.634  24.688  24.309  1.00  0.00     0.087 C 
ATOM      8  C   UNL A   1      33.281  19.940  24.341  1.00  0.00    -0.026 A 
ATOM      9  C   UNL A   1      33.554  21.093  25.100  1.00  0.00     0.052 A 
ATOM     10  C   UNL A   1      32.500  20.093  23.180  1.00  0.00     0.045 A 
ATOM     11  C   UNL A   1      32.947  22.311  24.807  1.00  0.00     0.128 A 
ATOM     12  C   UNL A   1      31.931  21.328  22.857  1.00  0.00     0.032 A 
ATOM     13  Cl  UNL A   1      32.169  18.767  22.119  1.00  0.00    -0.084 Cl
ATOM     14  C   UNL A   1      32.123  22.429  23.694  1.00  0.00     0.019 A 
ATOM     15  O   UNL A   1      33.129  23.305  25.725  1.00  0.00    -0.475 OA
ATOM     16  C   UNL A   1      31.388  23.659  23.484  1.00  0.00     0.027 C 
ATOM     17  C   UNL A   1      32.693  24.654  25.384  1.00  0.00     0.316 C 
BRANCH   8  18
ATOM     18  C   UNL A   1      33.795  18.581  24.773  1.00  0.00     0.037 C 
BRANCH  18  19
ATOM     19  C   UNL A   1      32.745  17.501  25.101  1.00  0.00     0.008 C 
BRANCH  19  20
ATOM     20  C   UNL A   1      33.205  16.039  24.900  1.00  0.00    -0.017 C 
ATOM     21  C   UNL A   1      34.691  15.846  25.196  1.00  0.00     0.007 C 
ATOM     22  C   UNL A   1      32.363  15.108  25.775  1.00  0.00     0.007 C 
ENDBRANCH  19  20
ENDBRANCH  18  19
ENDBRANCH   8  18
BRANCH  17  23
ATOM     23  C   UNL A   1      33.949  25.503  25.094  1.00  0.00     0.430 C 
ATOM     24  F   UNL A   1      34.496  25.207  23.891  1.00  0.00    -0.167 F 
ATOM     25  F   UNL A   1      33.689  26.829  25.114  1.00  0.00    -0.167 F 
ATOM     26  F   UNL A   1      34.915  25.291  26.024  1.00  0.00    -0.167 F 
ENDBRANCH  17  23
ENDBRANCH   5   7
ENDBRANCH   4   5
ENDBRANCH   3   4
ENDBRANCH   2   3
ENDBRANCH   1   2
BRANCH   1  27
ATOM     27  C   UNL A   1      31.735  29.551  26.053  1.00  0.00     0.202 C 
BRANCH  27  28
ATOM     28  C   UNL A   1      33.170  30.086  26.156  1.00  0.00     0.261 C 
BRANCH  28  29
ATOM     29  O   UNL A   1      33.831  29.619  27.343  1.00  0.00    -0.460 OA
BRANCH  29  30
ATOM     30  C   UNL A   1      34.554  30.552  28.011  1.00  0.00     0.338 C 
ATOM     31  O   UNL A   1      34.127  31.568  28.538  1.00  0.00    -0.246 OA
BRANCH  30  32
ATOM     32  C   UNL A   1      35.937  30.063  28.200  1.00  0.00     0.060 A 
ATOM     33  C   UNL A   1      36.874  30.073  27.164  1.00  0.00     0.016 A 
ATOM     34  C   UNL A   1      36.294  29.587  29.468  1.00  0.00     0.016 A 
ATOM     35  C   UNL A   1      38.179  29.638  27.416  1.00  0.00     0.010 A 
ATOM     36  C   UNL A   1      37.600  29.165  29.720  1.00  0.00     0.010 A 
ATOM     37  C   UNL A   1      38.560  29.204  28.700  1.00  0.00    -0.014 A 
BRANCH  37  38
ATOM     38  C   UNL A   1      39.987  28.900  28.986  1.00  0.00     0.031 A 
ATOM     39  C   UNL A   1      40.583  27.557  28.680  1.00  0.00     0.074 A 
ATOM     40  C   UNL A   1      40.751  29.866  29.535  1.00  0.00     0.049 A 
ATOM     41  N   UNL A   1      41.833  27.178  28.765  1.00  0.00    -0.248 NA
ATOM     42  C   UNL A   1      39.664  26.503  28.229  1.00  0.00     0.031 C 
ATOM     43  C   UNL A   1      40.269  31.191  29.932  1.00  0.00     0.029 A 
ATOM     44  N   UNL A   1      42.089  29.895  29.838  1.00  0.00    -0.354 N 
ATOM     45  C   UNL A   1      41.857  25.851  28.356  1.00  0.00     0.074 A 
ATOM     46  C   UNL A   1      40.487  25.471  28.083  1.00  0.00     0.031 C 
ATOM     47  C   UNL A   1      41.304  31.918  30.378  1.00  0.00     0.029 A 
ATOM     48  C   UNL A   1      42.516  31.107  30.328  1.00  0.00     0.049 A 
ATOM     49  H   UNL A   1      42.686  29.121  29.715  1.00  0.00     0.167 HD
ATOM     50  C   UNL A   1      42.929  25.036  28.193  1.00  0.00     0.037 A 
ATOM     51  C   UNL A   1      43.747  31.524  30.687  1.00  0.00     0.037 A 
ATOM     52  C   UNL A   1      44.289  25.420  28.477  1.00  0.00     0.049 A 
ATOM     53  C   UNL A   1      44.913  30.586  30.540  1.00  0.00     0.074 A 
ATOM     54  C   UNL A   1      45.445  24.681  28.297  1.00  0.00     0.029 A 
ATOM     55  N   UNL A   1      44.677  26.638  29.016  1.00  0.00    -0.354 N 
ATOM     56  N   UNL A   1      44.933  29.369  30.049  1.00  0.00    -0.248 NA
ATOM     57  C   UNL A   1      46.223  31.073  30.994  1.00  0.00     0.031 C 
ATOM     58  C   UNL A   1      46.524  25.427  28.778  1.00  0.00     0.029 A 
ATOM     59  C   UNL A   1      46.049  26.655  29.212  1.00  0.00     0.049 A 
ATOM     60  H   UNL A   1      44.068  27.382  29.228  1.00  0.00     0.167 HD
ATOM     61  C   UNL A   1      46.257  28.949  30.130  1.00  0.00     0.074 A 
ATOM     62  C   UNL A   1      47.011  30.051  30.688  1.00  0.00     0.031 C 
ATOM     63  C   UNL A   1      46.793  27.754  29.778  1.00  0.00     0.037 A 
BRANCH  50  64
ATOM     64  C   UNL A   1      42.683  23.650  27.662  1.00  0.00     0.058 A 
ATOM     65  C   UNL A   1      42.727  23.380  26.284  1.00  0.00     0.135 A 
ATOM     66  C   UNL A   1      42.475  22.568  28.532  1.00  0.00     0.135 A 
ATOM     67  F   UNL A   1      42.915  24.377  25.405  1.00  0.00    -0.206 F 
ATOM     68  C   UNL A   1      42.549  22.093  25.788  1.00  0.00     0.059 A 
ATOM     69  C   UNL A   1      42.322  21.266  28.060  1.00  0.00     0.059 A 
ATOM     70  F   UNL A   1      42.430  22.767  29.859  1.00  0.00    -0.206 F 
ATOM     71  C   UNL A   1      42.349  21.041  26.684  1.00  0.00     0.060 A 
BRANCH  71  72
ATOM     72  S   UNL A   1      42.125  19.380  26.015  1.00  0.00     0.124 S 
ATOM     73  O   UNL A   1      42.612  18.556  27.117  1.00  0.00    -0.237 OA
ATOM     74  O   UNL A   1      40.685  19.335  25.779  1.00  0.00    -0.237 OA
ATOM     75  O   UNL A   1      42.957  19.378  24.817  1.00  0.00    -0.744 OA
ENDBRANCH  71  72
ENDBRANCH  50  64
BRANCH  51  76
ATOM     76  C   UNL A   1      43.939  32.912  31.189  1.00  0.00     0.058 A 
ATOM     77  C   UNL A   1      44.315  33.946  30.320  1.00  0.00     0.135 A 
ATOM     78  C   UNL A   1      43.723  33.237  32.537  1.00  0.00     0.135 A 
ATOM     79  F   UNL A   1      44.540  33.685  29.024  1.00  0.00    -0.206 F 
ATOM     80  C   UNL A   1      44.478  35.253  30.770  1.00  0.00     0.059 A 
ATOM     81  C   UNL A   1      43.852  34.540  33.005  1.00  0.00     0.059 A 
ATOM     82  F   UNL A   1      43.348  32.286  33.407  1.00  0.00    -0.206 F 
ATOM     83  C   UNL A   1      44.237  35.542  32.114  1.00  0.00     0.060 A 
BRANCH  83  84
ATOM     84  S   UNL A   1      44.400  37.250  32.671  1.00  0.00     0.124 S 
ATOM     85  O   UNL A   1      43.665  37.222  33.930  1.00  0.00    -0.237 OA
ATOM     86  O   UNL A   1      45.848  37.397  32.780  1.00  0.00    -0.237 OA
ATOM     87  O   UNL A   1      43.778  38.017  31.596  1.00  0.00    -0.744 OA
ENDBRANCH  83  84
ENDBRANCH  51  76
BRANCH  63  88
ATOM     88  C   UNL A   1      48.268  27.553  30.004  1.00  0.00     0.058 A 
ATOM     89  C   UNL A   1      48.759  27.087  31.233  1.00  0.00     0.135 A 
ATOM     90  C   UNL A   1      49.187  27.732  28.957  1.00  0.00     0.135 A 
ATOM     91  F   UNL A   1      47.925  26.909  32.269  1.00  0.00    -0.206 F 
ATOM     92  C   UNL A   1      50.108  26.806  31.417  1.00  0.00     0.059 A 
ATOM     93  C   UNL A   1      50.538  27.429  29.110  1.00  0.00     0.059 A 
ATOM     94  F   UNL A   1      48.770  28.170  27.758  1.00  0.00    -0.206 F 
ATOM     95  C   UNL A   1      50.988  26.968  30.346  1.00  0.00     0.060 A 
BRANCH  95  96
ATOM     96  S   UNL A   1      52.723  26.528  30.586  1.00  0.00     0.124 S 
ATOM     97  O   UNL A   1      53.262  27.752  31.168  1.00  0.00    -0.237 OA
ATOM     98  O   UNL A   1      52.630  25.385  31.488  1.00  0.00    -0.237 OA
ATOM     99  O   UNL A   1      53.188  26.219  29.237  1.00  0.00    -0.744 OA
ENDBRANCH  95  96
ENDBRANCH  63  88
ENDBRANCH  37  38
ENDBRANCH  30  32
ENDBRANCH  29  30
ENDBRANCH  28  29
ENDBRANCH  27  28
ENDBRANCH   1  27
TORSDOF 21
ENDMDL
MODEL 3
REMARK VINA RESULT:     -11.1      6.466     12.068
REMARK SMILES CC(C)CCc1cc2c(cc1Cl)C=C(C(=O)OCCOCCOC(=O)c1ccc(-c3c4nc(c(-c5c(F)cc(S(=O)(=O)[O-])cc5F)c5ccc([nH]5)c(-c5c(F)cc(S(=O)(=O)[O-])cc5F)c5nc(c(-c6c(F)cc(S(=O)(=O)[O-])cc6F)c6ccc3[nH]6)C=C5)C=C4)cc1)[C@H](C(F)(F)F)O2
REMARK SMILES IDX 20 1 19 2 18 3 17 4 15 5 16 6 14 7 6 8 7 9 11 10 8 11 10 12
REMARK SMILES IDX 12 13 9 14 97 15 13 16 92 17 5 18 4 19 2 20 1 21 3 22 93 23
REMARK SMILES IDX 94 24 95 25 96 26 21 27 22 28 23 29 24 30 25 31 26 32 27 33
REMARK SMILES IDX 91 34 28 35 90 36 29 37 30 38 31 39 84 40 32 41 89 42 83 43
REMARK SMILES IDX 85 44 33 45 88 46 82 47 81 48 34 50 68 51 47 52 67 53 48 54
REMARK SMILES IDX 51 55 66 56 86 57 49 58 50 59 65 61 87 62 52 63 35 64 36 65
REMARK SMILES IDX 45 66 37 67 38 68 44 69 46 70 39 71 40 72 41 73 42 74 43 75
REMARK SMILES IDX 69 76 70 77 79 78 71 79 72 80 78 81 80 82 73 83 74 84 75 85
REMARK SMILES IDX 76 86 77 87 53 88 54 89 63 90 55 91 56 92 62 93 64 94 57 95
REMARK SMILES IDX 58 96 59 97 60 98 61 99
REMARK H PARENT 85 49 51 60
REMARK Flexibility Score: inf
ROOT
ATOM      1  O   UNL A   1      39.045  22.348  26.036  1.00  0.00    -0.374 OA
ENDROOT
BRANCH   1   2
ATOM      2  C   UNL A   1      38.104  21.387  25.553  1.00  0.00     0.202 C 
BRANCH   2   3
ATOM      3  C   UNL A   1      36.779  21.946  25.025  1.00  0.00     0.261 C 
BRANCH   3   4
ATOM      4  O   UNL A   1      36.177  22.827  25.988  1.00  0.00    -0.460 OA
BRANCH   4   5
ATOM      5  C   UNL A   1      34.903  22.531  26.313  1.00  0.00     0.338 C 
ATOM      6  O   UNL A   1      34.538  21.745  27.173  1.00  0.00    -0.246 OA
BRANCH   5   7
ATOM      7  C   UNL A   1      33.976  23.405  25.570  1.00  0.00     0.087 C 
ATOM      8  C   UNL A   1      31.340  27.468  24.229  1.00  0.00    -0.026 A 
ATOM      9  C   UNL A   1      31.156  26.078  24.109  1.00  0.00     0.052 A 
ATOM     10  C   UNL A   1      32.596  27.924  24.667  1.00  0.00     0.045 A 
ATOM     11  C   UNL A   1      32.121  25.181  24.556  1.00  0.00     0.128 A 
ATOM     12  C   UNL A   1      33.586  27.023  25.069  1.00  0.00     0.032 A 
ATOM     13  Cl  UNL A   1      32.972  29.609  24.772  1.00  0.00    -0.084 Cl
ATOM     14  C   UNL A   1      33.332  25.649  25.050  1.00  0.00     0.019 A 
ATOM     15  O   UNL A   1      31.752  23.866  24.574  1.00  0.00    -0.475 OA
ATOM     16  C   UNL A   1      34.266  24.713  25.641  1.00  0.00     0.027 C 
ATOM     17  C   UNL A   1      32.775  22.861  24.836  1.00  0.00     0.316 C 
BRANCH   8  18
ATOM     18  C   UNL A   1      30.215  28.434  23.917  1.00  0.00     0.037 C 
BRANCH  18  19
ATOM     19  C   UNL A   1      30.016  28.834  22.441  1.00  0.00     0.008 C 
BRANCH  19  20
ATOM     20  C   UNL A   1      29.447  30.252  22.204  1.00  0.00    -0.017 C 
ATOM     21  C   UNL A   1      28.189  30.241  21.337  1.00  0.00     0.007 C 
ATOM     22  C   UNL A   1      29.162  30.925  23.548  1.00  0.00     0.007 C 
ENDBRANCH  19  20
ENDBRANCH  18  19
ENDBRANCH   8  18
BRANCH  17  23
ATOM     23  C   UNL A   1      33.090  22.141  23.508  1.00  0.00     0.430 C 
ATOM     24  F   UNL A   1      33.047  20.794  23.636  1.00  0.00    -0.167 F 
ATOM     25  F   UNL A   1      32.238  22.490  22.519  1.00  0.00    -0.167 F 
ATOM     26  F   UNL A   1      34.335  22.450  23.061  1.00  0.00    -0.167 F 
ENDBRANCH  17  23
ENDBRANCH   5   7
ENDBRANCH   4   5
ENDBRANCH   3   4
ENDBRANCH   2   3
ENDBRANCH   1   2
BRANCH   1  27
ATOM     27  C   UNL A   1      40.298  21.851  26.511  1.00  0.00     0.202 C 
BRANCH  27  28
ATOM     28  C   UNL A   1      41.548  22.678  26.179  1.00  0.00     0.261 C 
BRANCH  28  29
ATOM     29  O   UNL A   1      41.788  23.701  27.160  1.00  0.00    -0.460 OA
BRANCH  29  30
ATOM     30  C   UNL A   1      41.883  24.963  26.671  1.00  0.00     0.338 C 
ATOM     31  O   UNL A   1      42.076  25.284  25.509  1.00  0.00    -0.246 OA
BRANCH  30  32
ATOM     32  C   UNL A   1      41.509  25.930  27.726  1.00  0.00     0.060 A 
ATOM     33  C   UNL A   1      40.335  25.795  28.471  1.00  0.00     0.016 A 
ATOM     34  C   UNL A   1      42.379  27.001  27.969  1.00  0.00     0.016 A 
ATOM     35  C   UNL A   1      40.057  26.718  29.484  1.00  0.00     0.010 A 
ATOM     36  C   UNL A   1      42.105  27.913  28.989  1.00  0.00     0.010 A 
ATOM     37  C   UNL A   1      40.949  27.769  29.769  1.00  0.00    -0.014 A 
BRANCH  37  38
ATOM     38  C   UNL A   1      40.716  28.640  30.951  1.00  0.00     0.031 A 
ATOM     39  C   UNL A   1      41.543  28.513  32.197  1.00  0.00     0.074 A 
ATOM     40  C   UNL A   1      39.732  29.560  30.886  1.00  0.00     0.049 A 
ATOM     41  N   UNL A   1      41.536  29.272  33.264  1.00  0.00    -0.248 NA
ATOM     42  C   UNL A   1      42.491  27.392  32.262  1.00  0.00     0.031 C 
ATOM     43  C   UNL A   1      38.825  29.736  29.751  1.00  0.00     0.029 A 
ATOM     44  N   UNL A   1      39.342  30.527  31.778  1.00  0.00    -0.354 N 
ATOM     45  C   UNL A   1      42.493  28.739  34.117  1.00  0.00     0.074 A 
ATOM     46  C   UNL A   1      43.017  27.554  33.471  1.00  0.00     0.031 C 
ATOM     47  C   UNL A   1      38.017  30.780  29.993  1.00  0.00     0.029 A 
ATOM     48  C   UNL A   1      38.328  31.329  31.309  1.00  0.00     0.049 A 
ATOM     49  H   UNL A   1      39.750  30.637  32.667  1.00  0.00     0.167 HD
ATOM     50  C   UNL A   1      42.917  29.213  35.314  1.00  0.00     0.037 A 
ATOM     51  C   UNL A   1      37.722  32.395  31.870  1.00  0.00     0.037 A 
ATOM     52  C   UNL A   1      42.382  30.389  35.955  1.00  0.00     0.049 A 
ATOM     53  C   UNL A   1      38.179  32.876  33.220  1.00  0.00     0.074 A 
ATOM     54  C   UNL A   1      42.781  30.975  37.144  1.00  0.00     0.029 A 
ATOM     55  N   UNL A   1      41.325  31.147  35.473  1.00  0.00    -0.354 N 
ATOM     56  N   UNL A   1      39.160  32.423  33.965  1.00  0.00    -0.248 NA
ATOM     57  C   UNL A   1      37.451  34.008  33.807  1.00  0.00     0.031 C 
ATOM     58  C   UNL A   1      41.930  32.051  37.410  1.00  0.00     0.029 A 
ATOM     59  C   UNL A   1      41.032  32.171  36.361  1.00  0.00     0.049 A 
ATOM     60  H   UNL A   1      40.852  30.983  34.626  1.00  0.00     0.167 HD
ATOM     61  C   UNL A   1      39.170  33.219  35.105  1.00  0.00     0.074 A 
ATOM     62  C   UNL A   1      38.118  34.200  34.938  1.00  0.00     0.031 C 
ATOM     63  C   UNL A   1      39.975  33.138  36.192  1.00  0.00     0.037 A 
BRANCH  50  64
ATOM     64  C   UNL A   1      44.031  28.477  36.008  1.00  0.00     0.058 A 
ATOM     65  C   UNL A   1      43.767  27.402  36.871  1.00  0.00     0.135 A 
ATOM     66  C   UNL A   1      45.376  28.796  35.757  1.00  0.00     0.135 A 
ATOM     67  F   UNL A   1      42.500  27.057  37.154  1.00  0.00    -0.206 F 
ATOM     68  C   UNL A   1      44.792  26.685  37.478  1.00  0.00     0.059 A 
ATOM     69  C   UNL A   1      46.420  28.076  36.331  1.00  0.00     0.059 A 
ATOM     70  F   UNL A   1      45.687  29.812  34.935  1.00  0.00    -0.206 F 
ATOM     71  C   UNL A   1      46.117  27.028  37.201  1.00  0.00     0.060 A 
BRANCH  71  72
ATOM     72  S   UNL A   1      47.430  26.081  37.998  1.00  0.00     0.124 S 
ATOM     73  O   UNL A   1      47.267  26.478  39.393  1.00  0.00    -0.237 OA
ATOM     74  O   UNL A   1      47.054  24.707  37.683  1.00  0.00    -0.237 OA
ATOM     75  O   UNL A   1      48.644  26.564  37.348  1.00  0.00    -0.744 OA
ENDBRANCH  71  72
ENDBRANCH  50  64
BRANCH  51  76
ATOM     76  C   UNL A   1      36.638  33.100  31.133  1.00  0.00     0.058 A 
ATOM     77  C   UNL A   1      36.933  33.967  30.072  1.00  0.00     0.135 A 
ATOM     78  C   UNL A   1      35.286  32.899  31.456  1.00  0.00     0.135 A 
ATOM     79  F   UNL A   1      38.210  34.198  29.729  1.00  0.00    -0.206 F 
ATOM     80  C   UNL A   1      35.930  34.617  29.360  1.00  0.00     0.059 A 
ATOM     81  C   UNL A   1      34.264  33.515  30.741  1.00  0.00     0.059 A 
ATOM     82  F   UNL A   1      34.949  32.068  32.455  1.00  0.00    -0.206 F 
ATOM     83  C   UNL A   1      34.596  34.378  29.698  1.00  0.00     0.060 A 
BRANCH  83  84
ATOM     84  S   UNL A   1      33.304  35.186  28.731  1.00  0.00     0.124 S 
ATOM     85  O   UNL A   1      32.725  34.058  28.012  1.00  0.00    -0.237 OA
ATOM     86  O   UNL A   1      32.470  35.777  29.773  1.00  0.00    -0.237 OA
ATOM     87  O   UNL A   1      34.043  36.143  27.912  1.00  0.00    -0.744 OA
ENDBRANCH  83  84
ENDBRANCH  51  76
BRANCH  63  88
ATOM     88  C   UNL A   1      39.745  34.120  37.310  1.00  0.00     0.058 A 
ATOM     89  C   UNL A   1      38.994  33.770  38.442  1.00  0.00     0.135 A 
ATOM     90  C   UNL A   1      40.362  35.382  37.298  1.00  0.00     0.135 A 
ATOM     91  F   UNL A   1      38.375  32.581  38.501  1.00  0.00    -0.206 F 
ATOM     92  C   UNL A   1      38.859  34.637  39.522  1.00  0.00     0.059 A 
ATOM     93  C   UNL A   1      40.264  36.254  38.380  1.00  0.00     0.059 A 
ATOM     94  F   UNL A   1      41.098  35.766  36.243  1.00  0.00    -0.206 F 
ATOM     95  C   UNL A   1      39.509  35.871  39.487  1.00  0.00     0.060 A 
BRANCH  95  96
ATOM     96  S   UNL A   1      39.380  36.950  40.929  1.00  0.00     0.124 S 
ATOM     97  O   UNL A   1      40.783  37.136  41.287  1.00  0.00    -0.237 OA
ATOM     98  O   UNL A   1      38.706  38.121  40.380  1.00  0.00    -0.237 OA
ATOM     99  O   UNL A   1      38.592  36.165  41.875  1.00  0.00    -0.744 OA
ENDBRANCH  95  96
ENDBRANCH  63  88
ENDBRANCH  37  38
ENDBRANCH  30  32
ENDBRANCH  29  30
ENDBRANCH  28  29
ENDBRANCH  27  28
ENDBRANCH   1  27
TORSDOF 21
ENDMDL
