MODEL 1
REMARK VINA RESULT:     -11.9      0.000      0.000
REMARK SMILES COc1ccccc1C(=O)N1[C@@H](C(=O)OCCOCCOC(=O)c2ccc(-c3c4nc(c(-c5c(F)cc(S(=O)(=O)[O-])cc5F)c5ccc([nH]5)c(-c5c(F)cc(S(=O)(=O)[O-])cc5F)c5nc(c(-c6c(F)cc(S(=O)(=O)[O-])cc6F)c6ccc3[nH]6)C=C5)C=C4)cc2)COC12CC[NH+](Cc1ccccc1)CC2
REMARK SMILES IDX 18 1 17 2 16 3 15 4 13 5 14 6 12 7 11 8 92 9 90 10 91 11
REMARK SMILES IDX 93 12 104 13 94 14 103 15 95 16 9 18 10 19 8 20 3 21 4 22
REMARK SMILES IDX 5 23 7 24 6 25 2 26 1 27 96 28 97 29 98 30 102 31 99 32
REMARK SMILES IDX 101 33 100 34 19 35 20 36 21 37 22 38 23 39 24 40 25 41
REMARK SMILES IDX 89 42 26 43 88 44 27 45 28 46 29 47 82 48 30 49 87 50 81 51
REMARK SMILES IDX 83 52 31 53 86 54 80 55 79 56 32 58 66 59 45 60 65 61 46 62
REMARK SMILES IDX 49 63 64 64 84 65 47 66 48 67 63 69 85 70 50 71 33 72 34 73
REMARK SMILES IDX 43 74 35 75 36 76 42 77 44 78 37 79 38 80 39 81 40 82 41 83
REMARK SMILES IDX 67 84 68 85 77 86 69 87 70 88 76 89 78 90 71 91 72 92 73 93
REMARK SMILES IDX 74 94 75 95 51 96 52 97 61 98 53 99 54 100 60 101 62 102
REMARK SMILES IDX 55 103 56 104 57 105 58 106 59 107
REMARK H PARENT 95 17 83 57 49 68
REMARK Flexibility Score: inf
ROOT
ATOM      1  O   UNL A   1      34.257  30.576  27.009  1.00  0.00    -0.374 OA
ENDROOT
BRANCH   1   2
ATOM      2  C   UNL A   1      33.174  30.437  26.095  1.00  0.00     0.202 C 
BRANCH   2   3
ATOM      3  C   UNL A   1      31.897  29.821  26.659  1.00  0.00     0.261 C 
BRANCH   3   4
ATOM      4  O   UNL A   1      31.361  28.787  25.814  1.00  0.00    -0.462 OA
BRANCH   4   5
ATOM      5  C   UNL A   1      31.437  27.523  26.317  1.00  0.00     0.331 C 
ATOM      6  O   UNL A   1      30.890  27.163  27.357  1.00  0.00    -0.250 OA
BRANCH   5   7
ATOM      7  C   UNL A   1      32.379  26.614  25.535  1.00  0.00     0.224 C 
ATOM      8  N   UNL A   1      31.807  25.287  25.422  1.00  0.00    -0.293 N 
ATOM      9  C   UNL A   1      32.904  24.313  25.481  1.00  0.00     0.155 C 
ATOM     10  C   UNL A   1      33.768  26.394  26.088  1.00  0.00     0.200 C 
ATOM     11  O   UNL A   1      33.900  24.978  26.303  1.00  0.00    -0.352 OA
ATOM     12  C   UNL A   1      32.524  23.018  26.198  1.00  0.00     0.120 C 
ATOM     13  C   UNL A   1      33.546  24.051  24.102  1.00  0.00     0.120 C 
ATOM     14  C   UNL A   1      33.576  21.929  26.106  1.00  0.00     0.267 C 
ATOM     15  C   UNL A   1      34.501  22.852  24.090  1.00  0.00     0.267 C 
ATOM     16  N   UNL A   1      33.986  21.652  24.735  1.00  0.00    -0.331 N 
ATOM     17  H   UNL A   1      34.795  21.032  24.773  1.00  0.00     0.348 HD
BRANCH   8  18
ATOM     18  C   UNL A   1      30.746  25.161  24.529  1.00  0.00     0.260 C 
ATOM     19  O   UNL A   1      30.302  24.042  24.262  1.00  0.00    -0.269 OA
BRANCH  18  20
ATOM     20  C   UNL A   1      30.260  26.351  23.745  1.00  0.00     0.082 A 
ATOM     21  C   UNL A   1      30.952  27.064  22.756  1.00  0.00     0.131 A 
ATOM     22  C   UNL A   1      30.414  28.240  22.206  1.00  0.00     0.047 A 
ATOM     23  C   UNL A   1      29.138  28.668  22.555  1.00  0.00     0.004 A 
ATOM     24  C   UNL A   1      28.952  26.783  24.050  1.00  0.00     0.018 A 
ATOM     25  C   UNL A   1      28.393  27.921  23.459  1.00  0.00     0.001 A 
BRANCH  21  26
ATOM     26  O   UNL A   1      32.201  26.727  22.326  1.00  0.00    -0.496 OA
ATOM     27  C   UNL A   1      32.139  25.841  21.216  1.00  0.00     0.278 C 
ENDBRANCH  21  26
ENDBRANCH  18  20
ENDBRANCH   8  18
BRANCH  16  28
ATOM     28  C   UNL A   1      33.114  20.750  23.970  1.00  0.00     0.299 C 
BRANCH  28  29
ATOM     29  C   UNL A   1      33.446  19.272  23.907  1.00  0.00     0.006 A 
ATOM     30  C   UNL A   1      32.613  18.366  23.235  1.00  0.00     0.009 A 
ATOM     31  C   UNL A   1      34.589  18.771  24.553  1.00  0.00     0.009 A 
ATOM     32  C   UNL A   1      32.943  17.010  23.172  1.00  0.00     0.001 A 
ATOM     33  C   UNL A   1      34.940  17.423  24.451  1.00  0.00     0.001 A 
ATOM     34  C   UNL A   1      34.119  16.544  23.756  1.00  0.00     0.000 A 
ENDBRANCH  28  29
ENDBRANCH  16  28
ENDBRANCH   5   7
ENDBRANCH   4   5
ENDBRANCH   3   4
ENDBRANCH   2   3
ENDBRANCH   1   2
BRANCH   1  35
ATOM     35  C   UNL A   1      34.176  31.612  27.986  1.00  0.00     0.202 C 
BRANCH  35  36
ATOM     36  C   UNL A   1      35.099  31.491  29.206  1.00  0.00     0.261 C 
BRANCH  36  37
ATOM     37  O   UNL A   1      35.623  30.161  29.403  1.00  0.00    -0.460 OA
BRANCH  37  38
ATOM     38  C   UNL A   1      36.492  30.042  30.434  1.00  0.00     0.338 C 
ATOM     39  O   UNL A   1      36.209  29.774  31.601  1.00  0.00    -0.246 OA
BRANCH  38  40
ATOM     40  C   UNL A   1      37.892  30.153  29.998  1.00  0.00     0.060 A 
ATOM     41  C   UNL A   1      38.183  29.899  28.651  1.00  0.00     0.016 A 
ATOM     42  C   UNL A   1      38.922  30.274  30.933  1.00  0.00     0.016 A 
ATOM     43  C   UNL A   1      39.502  29.690  28.247  1.00  0.00     0.010 A 
ATOM     44  C   UNL A   1      40.245  30.059  30.525  1.00  0.00     0.010 A 
ATOM     45  C   UNL A   1      40.537  29.713  29.193  1.00  0.00    -0.014 A 
BRANCH  45  46
ATOM     46  C   UNL A   1      41.886  29.213  28.821  1.00  0.00     0.031 A 
ATOM     47  C   UNL A   1      43.052  30.168  28.819  1.00  0.00     0.074 A 
ATOM     48  C   UNL A   1      42.084  27.921  28.508  1.00  0.00     0.049 A 
ATOM     49  N   UNL A   1      44.302  29.952  28.499  1.00  0.00    -0.248 NA
ATOM     50  C   UNL A   1      42.768  31.551  29.234  1.00  0.00     0.031 C 
ATOM     51  C   UNL A   1      41.051  26.888  28.499  1.00  0.00     0.029 A 
ATOM     52  N   UNL A   1      43.226  27.262  28.126  1.00  0.00    -0.354 N 
ATOM     53  C   UNL A   1      44.953  31.169  28.662  1.00  0.00     0.074 A 
ATOM     54  C   UNL A   1      43.953  32.126  29.089  1.00  0.00     0.031 C 
ATOM     55  C   UNL A   1      41.604  25.726  28.112  1.00  0.00     0.029 A 
ATOM     56  C   UNL A   1      43.022  25.940  27.821  1.00  0.00     0.049 A 
ATOM     57  H   UNL A   1      44.108  27.698  28.075  1.00  0.00     0.167 HD
ATOM     58  C   UNL A   1      46.262  31.466  28.479  1.00  0.00     0.037 A 
ATOM     59  C   UNL A   1      43.873  25.010  27.341  1.00  0.00     0.037 A 
ATOM     60  C   UNL A   1      47.261  30.519  28.056  1.00  0.00     0.049 A 
ATOM     61  C   UNL A   1      45.314  25.368  27.097  1.00  0.00     0.074 A 
ATOM     62  C   UNL A   1      48.618  30.721  27.870  1.00  0.00     0.029 A 
ATOM     63  N   UNL A   1      47.009  29.193  27.741  1.00  0.00    -0.354 N 
ATOM     64  N   UNL A   1      45.920  26.517  27.282  1.00  0.00    -0.248 NA
ATOM     65  C   UNL A   1      46.188  24.304  26.585  1.00  0.00     0.031 C 
ATOM     66  C   UNL A   1      49.180  29.526  27.406  1.00  0.00     0.029 A 
ATOM     67  C   UNL A   1      48.180  28.569  27.341  1.00  0.00     0.049 A 
ATOM     68  H   UNL A   1      46.128  28.757  27.794  1.00  0.00     0.167 HD
ATOM     69  C   UNL A   1      47.249  26.309  26.924  1.00  0.00     0.074 A 
ATOM     70  C   UNL A   1      47.360  24.923  26.519  1.00  0.00     0.031 C 
ATOM     71  C   UNL A   1      48.281  27.189  26.936  1.00  0.00     0.037 A 
BRANCH  58  72
ATOM     72  C   UNL A   1      46.680  32.892  28.709  1.00  0.00     0.058 A 
ATOM     73  C   UNL A   1      46.650  33.846  27.680  1.00  0.00     0.135 A 
ATOM     74  C   UNL A   1      47.122  33.307  29.976  1.00  0.00     0.135 A 
ATOM     75  F   UNL A   1      46.249  33.497  26.447  1.00  0.00    -0.206 F 
ATOM     76  C   UNL A   1      47.083  35.151  27.887  1.00  0.00     0.059 A 
ATOM     77  C   UNL A   1      47.538  34.613  30.212  1.00  0.00     0.059 A 
ATOM     78  F   UNL A   1      47.167  32.435  30.995  1.00  0.00    -0.206 F 
ATOM     79  C   UNL A   1      47.536  35.523  29.154  1.00  0.00     0.060 A 
BRANCH  79  80
ATOM     80  S   UNL A   1      48.132  37.208  29.405  1.00  0.00     0.124 S 
ATOM     81  O   UNL A   1      46.897  37.975  29.277  1.00  0.00    -0.237 OA
ATOM     82  O   UNL A   1      48.703  37.147  30.747  1.00  0.00    -0.237 OA
ATOM     83  O   UNL A   1      49.098  37.389  28.325  1.00  0.00    -0.744 OA
ENDBRANCH  79  80
ENDBRANCH  58  72
BRANCH  59  84
ATOM     84  C   UNL A   1      43.365  23.646  27.051  1.00  0.00     0.058 A 
ATOM     85  C   UNL A   1      43.135  23.224  25.736  1.00  0.00     0.135 A 
ATOM     86  C   UNL A   1      43.155  22.721  28.086  1.00  0.00     0.135 A 
ATOM     87  F   UNL A   1      43.310  24.079  24.716  1.00  0.00    -0.206 F 
ATOM     88  C   UNL A   1      42.724  21.926  25.451  1.00  0.00     0.059 A 
ATOM     89  C   UNL A   1      42.764  21.412  27.826  1.00  0.00     0.059 A 
ATOM     90  F   UNL A   1      43.372  23.078  29.361  1.00  0.00    -0.206 F 
ATOM     91  C   UNL A   1      42.553  21.023  26.504  1.00  0.00     0.060 A 
BRANCH  91  92
ATOM     92  S   UNL A   1      42.126  19.311  26.118  1.00  0.00     0.124 S 
ATOM     93  O   UNL A   1      42.533  18.624  27.337  1.00  0.00    -0.237 OA
ATOM     94  O   UNL A   1      40.688  19.399  25.883  1.00  0.00    -0.237 OA
ATOM     95  O   UNL A   1      42.927  19.027  24.931  1.00  0.00    -0.744 OA
ENDBRANCH  91  92
ENDBRANCH  59  84
BRANCH  71  96
ATOM     96  C   UNL A   1      49.634  26.681  26.517  1.00  0.00     0.058 A 
ATOM     97  C   UNL A   1      50.454  25.962  27.400  1.00  0.00     0.135 A 
ATOM     98  C   UNL A   1      50.087  26.863  25.201  1.00  0.00     0.135 A 
ATOM     99  F   UNL A   1      50.070  25.764  28.671  1.00  0.00    -0.206 F 
ATOM    100  C   UNL A   1      51.684  25.451  26.995  1.00  0.00     0.059 A 
ATOM    101  C   UNL A   1      51.305  26.345  24.769  1.00  0.00     0.059 A 
ATOM    102  F   UNL A   1      49.336  27.537  24.315  1.00  0.00    -0.206 F 
ATOM    103  C   UNL A   1      52.101  25.647  25.677  1.00  0.00     0.060 A 
BRANCH 103 104
ATOM    104  S   UNL A   1      53.681  24.947  25.149  1.00  0.00     0.124 S 
ATOM    105  O   UNL A   1      54.564  25.368  26.230  1.00  0.00    -0.237 OA
ATOM    106  O   UNL A   1      53.388  23.518  25.090  1.00  0.00    -0.237 OA
ATOM    107  O   UNL A   1      53.918  25.585  23.858  1.00  0.00    -0.744 OA
ENDBRANCH 103 104
ENDBRANCH  71  96
ENDBRANCH  45  46
ENDBRANCH  38  40
ENDBRANCH  37  38
ENDBRANCH  36  37
ENDBRANCH  35  36
ENDBRANCH   1  35
TORSDOF 22
ENDMDL
MODEL 2
REMARK VINA RESULT:     -11.5      1.010      7.926
REMARK SMILES COc1ccccc1C(=O)N1[C@@H](C(=O)OCCOCCOC(=O)c2ccc(-c3c4nc(c(-c5c(F)cc(S(=O)(=O)[O-])cc5F)c5ccc([nH]5)c(-c5c(F)cc(S(=O)(=O)[O-])cc5F)c5nc(c(-c6c(F)cc(S(=O)(=O)[O-])cc6F)c6ccc3[nH]6)C=C5)C=C4)cc2)COC12CC[NH+](Cc1ccccc1)CC2
REMARK SMILES IDX 18 1 17 2 16 3 15 4 13 5 14 6 12 7 11 8 92 9 90 10 91 11
REMARK SMILES IDX 93 12 104 13 94 14 103 15 95 16 9 18 10 19 8 20 3 21 4 22
REMARK SMILES IDX 5 23 7 24 6 25 2 26 1 27 96 28 97 29 98 30 102 31 99 32
REMARK SMILES IDX 101 33 100 34 19 35 20 36 21 37 22 38 23 39 24 40 25 41
REMARK SMILES IDX 89 42 26 43 88 44 27 45 28 46 29 47 82 48 30 49 87 50 81 51
REMARK SMILES IDX 83 52 31 53 86 54 80 55 79 56 32 58 66 59 45 60 65 61 46 62
REMARK SMILES IDX 49 63 64 64 84 65 47 66 48 67 63 69 85 70 50 71 33 72 34 73
REMARK SMILES IDX 43 74 35 75 36 76 42 77 44 78 37 79 38 80 39 81 40 82 41 83
REMARK SMILES IDX 67 84 68 85 77 86 69 87 70 88 76 89 78 90 71 91 72 92 73 93
REMARK SMILES IDX 74 94 75 95 51 96 52 97 61 98 53 99 54 100 60 101 62 102
REMARK SMILES IDX 55 103 56 104 57 105 58 106 59 107
REMARK H PARENT 95 17 83 57 49 68
REMARK Flexibility Score: inf
ROOT
ATOM      1  O   UNL A   1      34.624  32.168  27.668  1.00  0.00    -0.374 OA
ENDROOT
BRANCH   1   2
ATOM      2  C   UNL A   1      33.794  31.010  27.678  1.00  0.00     0.202 C 
BRANCH   2   3
ATOM      3  C   UNL A   1      32.674  30.982  26.643  1.00  0.00     0.261 C 
BRANCH   3   4
ATOM      4  O   UNL A   1      32.998  30.171  25.498  1.00  0.00    -0.462 OA
BRANCH   4   5
ATOM      5  C   UNL A   1      32.245  29.046  25.347  1.00  0.00     0.331 C 
ATOM      6  O   UNL A   1      31.039  28.990  25.576  1.00  0.00    -0.250 OA
BRANCH   5   7
ATOM      7  C   UNL A   1      33.064  27.811  24.988  1.00  0.00     0.224 C 
ATOM      8  N   UNL A   1      32.181  26.707  24.663  1.00  0.00    -0.293 N 
ATOM      9  C   UNL A   1      32.808  25.468  25.141  1.00  0.00     0.155 C 
ATOM     10  C   UNL A   1      34.007  27.261  26.033  1.00  0.00     0.200 C 
ATOM     11  O   UNL A   1      33.592  25.907  26.283  1.00  0.00    -0.352 OA
ATOM     12  C   UNL A   1      31.801  24.442  25.656  1.00  0.00     0.120 C 
ATOM     13  C   UNL A   1      33.789  24.861  24.115  1.00  0.00     0.120 C 
ATOM     14  C   UNL A   1      32.407  23.088  25.976  1.00  0.00     0.267 C 
ATOM     15  C   UNL A   1      34.246  23.443  24.472  1.00  0.00     0.267 C 
ATOM     16  N   UNL A   1      33.177  22.537  24.869  1.00  0.00    -0.331 N 
ATOM     17  H   UNL A   1      33.673  21.715  25.215  1.00  0.00     0.348 HD
BRANCH   8  18
ATOM     18  C   UNL A   1      31.539  26.791  23.431  1.00  0.00     0.260 C 
ATOM     19  O   UNL A   1      32.197  26.695  22.392  1.00  0.00    -0.269 OA
BRANCH  18  20
ATOM     20  C   UNL A   1      30.088  27.182  23.349  1.00  0.00     0.082 A 
ATOM     21  C   UNL A   1      29.537  28.295  22.698  1.00  0.00     0.131 A 
ATOM     22  C   UNL A   1      28.172  28.601  22.823  1.00  0.00     0.047 A 
ATOM     23  C   UNL A   1      27.314  27.750  23.511  1.00  0.00     0.004 A 
ATOM     24  C   UNL A   1      29.189  26.315  24.005  1.00  0.00     0.018 A 
ATOM     25  C   UNL A   1      27.818  26.588  24.080  1.00  0.00     0.001 A 
BRANCH  21  26
ATOM     26  O   UNL A   1      30.281  29.188  21.984  1.00  0.00    -0.496 OA
ATOM     27  C   UNL A   1      29.482  30.275  21.533  1.00  0.00     0.278 C 
ENDBRANCH  21  26
ENDBRANCH  18  20
ENDBRANCH   8  18
BRANCH  16  28
ATOM     28  C   UNL A   1      32.406  21.844  23.827  1.00  0.00     0.299 C 
BRANCH  28  29
ATOM     29  C   UNL A   1      32.619  20.359  23.607  1.00  0.00     0.006 A 
ATOM     30  C   UNL A   1      33.302  19.574  24.546  1.00  0.00     0.009 A 
ATOM     31  C   UNL A   1      32.160  19.741  22.431  1.00  0.00     0.009 A 
ATOM     32  C   UNL A   1      33.474  18.203  24.336  1.00  0.00     0.001 A 
ATOM     33  C   UNL A   1      32.293  18.364  22.243  1.00  0.00     0.001 A 
ATOM     34  C   UNL A   1      32.947  17.594  23.199  1.00  0.00     0.000 A 
ENDBRANCH  28  29
ENDBRANCH  16  28
ENDBRANCH   5   7
ENDBRANCH   4   5
ENDBRANCH   3   4
ENDBRANCH   2   3
ENDBRANCH   1   2
BRANCH   1  35
ATOM     35  C   UNL A   1      34.574  33.034  28.800  1.00  0.00     0.202 C 
BRANCH  35  36
ATOM     36  C   UNL A   1      35.669  32.857  29.860  1.00  0.00     0.261 C 
BRANCH  36  37
ATOM     37  O   UNL A   1      36.130  31.496  29.991  1.00  0.00    -0.460 OA
BRANCH  37  38
ATOM     38  C   UNL A   1      37.139  31.323  30.876  1.00  0.00     0.338 C 
ATOM     39  O   UNL A   1      37.167  31.722  32.041  1.00  0.00    -0.246 OA
BRANCH  38  40
ATOM     40  C   UNL A   1      38.212  30.473  30.340  1.00  0.00     0.060 A 
ATOM     41  C   UNL A   1      39.214  30.045  31.221  1.00  0.00     0.016 A 
ATOM     42  C   UNL A   1      38.358  30.292  28.963  1.00  0.00     0.016 A 
ATOM     43  C   UNL A   1      40.400  29.504  30.723  1.00  0.00     0.010 A 
ATOM     44  C   UNL A   1      39.552  29.752  28.466  1.00  0.00     0.010 A 
ATOM     45  C   UNL A   1      40.599  29.406  29.339  1.00  0.00    -0.014 A 
BRANCH  45  46
ATOM     46  C   UNL A   1      41.954  29.103  28.809  1.00  0.00     0.031 A 
ATOM     47  C   UNL A   1      42.267  27.706  28.337  1.00  0.00     0.074 A 
ATOM     48  C   UNL A   1      42.895  30.060  28.726  1.00  0.00     0.049 A 
ATOM     49  N   UNL A   1      43.387  27.219  27.870  1.00  0.00    -0.248 NA
ATOM     50  C   UNL A   1      41.167  26.731  28.400  1.00  0.00     0.031 C 
ATOM     51  C   UNL A   1      42.716  31.455  29.119  1.00  0.00     0.029 A 
ATOM     52  N   UNL A   1      44.196  29.994  28.290  1.00  0.00    -0.354 N 
ATOM     53  C   UNL A   1      43.135  25.880  27.594  1.00  0.00     0.074 A 
ATOM     54  C   UNL A   1      41.758  25.628  27.967  1.00  0.00     0.031 C 
ATOM     55  C   UNL A   1      43.872  32.112  28.924  1.00  0.00     0.029 A 
ATOM     56  C   UNL A   1      44.878  31.178  28.416  1.00  0.00     0.049 A 
ATOM     57  H   UNL A   1      44.600  29.175  27.923  1.00  0.00     0.167 HD
ATOM     58  C   UNL A   1      43.967  24.946  27.074  1.00  0.00     0.037 A 
ATOM     59  C   UNL A   1      46.171  31.474  28.173  1.00  0.00     0.037 A 
ATOM     60  C   UNL A   1      45.335  25.192  26.700  1.00  0.00     0.049 A 
ATOM     61  C   UNL A   1      47.095  30.413  27.641  1.00  0.00     0.074 A 
ATOM     62  C   UNL A   1      46.247  24.314  26.139  1.00  0.00     0.029 A 
ATOM     63  N   UNL A   1      45.993  26.402  26.860  1.00  0.00    -0.354 N 
ATOM     64  N   UNL A   1      46.834  29.158  27.360  1.00  0.00    -0.248 NA
ATOM     65  C   UNL A   1      48.488  30.808  27.388  1.00  0.00     0.031 C 
ATOM     66  C   UNL A   1      47.469  24.984  25.994  1.00  0.00     0.029 A 
ATOM     67  C   UNL A   1      47.306  26.289  26.430  1.00  0.00     0.049 A 
ATOM     68  H   UNL A   1      45.588  27.221  27.225  1.00  0.00     0.167 HD
ATOM     69  C   UNL A   1      48.024  28.619  26.882  1.00  0.00     0.074 A 
ATOM     70  C   UNL A   1      49.005  29.684  26.905  1.00  0.00     0.031 C 
ATOM     71  C   UNL A   1      48.277  27.355  26.459  1.00  0.00     0.037 A 
BRANCH  58  72
ATOM     72  C   UNL A   1      43.418  23.556  26.908  1.00  0.00     0.058 A 
ATOM     73  C   UNL A   1      43.286  22.680  27.998  1.00  0.00     0.135 A 
ATOM     74  C   UNL A   1      43.026  23.093  25.642  1.00  0.00     0.135 A 
ATOM     75  F   UNL A   1      43.660  23.069  29.227  1.00  0.00    -0.206 F 
ATOM     76  C   UNL A   1      42.823  21.379  27.830  1.00  0.00     0.059 A 
ATOM     77  C   UNL A   1      42.538  21.804  25.456  1.00  0.00     0.059 A 
ATOM     78  F   UNL A   1      43.130  23.892  24.569  1.00  0.00    -0.206 F 
ATOM     79  C   UNL A   1      42.462  20.946  26.553  1.00  0.00     0.060 A 
BRANCH  79  80
ATOM     80  S   UNL A   1      41.898  19.245  26.339  1.00  0.00     0.124 S 
ATOM     81  O   UNL A   1      42.819  18.761  25.316  1.00  0.00    -0.237 OA
ATOM     82  O   UNL A   1      42.080  18.680  27.673  1.00  0.00    -0.237 OA
ATOM     83  O   UNL A   1      40.510  19.399  25.914  1.00  0.00    -0.744 OA
ENDBRANCH  79  80
ENDBRANCH  58  72
BRANCH  59  84
ATOM     84  C   UNL A   1      46.662  32.848  28.447  1.00  0.00     0.058 A 
ATOM     85  C   UNL A   1      47.196  33.190  29.696  1.00  0.00     0.135 A 
ATOM     86  C   UNL A   1      46.657  33.828  27.443  1.00  0.00     0.135 A 
ATOM     87  F   UNL A   1      47.210  32.287  30.690  1.00  0.00    -0.206 F 
ATOM     88  C   UNL A   1      47.721  34.454  29.940  1.00  0.00     0.059 A 
ATOM     89  C   UNL A   1      47.194  35.093  27.656  1.00  0.00     0.059 A 
ATOM     90  F   UNL A   1      46.163  33.543  26.229  1.00  0.00    -0.206 F 
ATOM     91  C   UNL A   1      47.725  35.396  28.908  1.00  0.00     0.060 A 
BRANCH  91  92
ATOM     92  S   UNL A   1      48.507  36.999  29.200  1.00  0.00     0.124 S 
ATOM     93  O   UNL A   1      49.921  36.653  29.137  1.00  0.00    -0.237 OA
ATOM     94  O   UNL A   1      47.992  37.797  28.092  1.00  0.00    -0.237 OA
ATOM     95  O   UNL A   1      48.005  37.379  30.518  1.00  0.00    -0.744 OA
ENDBRANCH  91  92
ENDBRANCH  59  84
BRANCH  71  96
ATOM     96  C   UNL A   1      49.664  27.050  25.964  1.00  0.00     0.058 A 
ATOM     97  C   UNL A   1      50.003  27.170  24.608  1.00  0.00     0.135 A 
ATOM     98  C   UNL A   1      50.680  26.693  26.866  1.00  0.00     0.135 A 
ATOM     99  F   UNL A   1      49.068  27.504  23.704  1.00  0.00    -0.206 F 
ATOM    100  C   UNL A   1      51.300  26.934  24.160  1.00  0.00     0.059 A 
ATOM    101  C   UNL A   1      51.987  26.471  26.443  1.00  0.00     0.059 A 
ATOM    102  F   UNL A   1      50.409  26.573  28.175  1.00  0.00    -0.206 F 
ATOM    103  C   UNL A   1      52.286  26.586  25.085  1.00  0.00     0.060 A 
BRANCH 103 104
ATOM    104  S   UNL A   1      53.975  26.321  24.501  1.00  0.00     0.124 S 
ATOM    105  O   UNL A   1      53.866  26.714  23.101  1.00  0.00    -0.237 OA
ATOM    106  O   UNL A   1      54.748  27.219  25.354  1.00  0.00    -0.237 OA
ATOM    107  O   UNL A   1      54.195  24.898  24.740  1.00  0.00    -0.744 OA
ENDBRANCH 103 104
ENDBRANCH  71  96
ENDBRANCH  45  46
ENDBRANCH  38  40
ENDBRANCH  37  38
ENDBRANCH  36  37
ENDBRANCH  35  36
ENDBRANCH   1  35
TORSDOF 22
ENDMDL
MODEL 3
REMARK VINA RESULT:     -11.2      2.549      3.644
REMARK SMILES COc1ccccc1C(=O)N1[C@@H](C(=O)OCCOCCOC(=O)c2ccc(-c3c4nc(c(-c5c(F)cc(S(=O)(=O)[O-])cc5F)c5ccc([nH]5)c(-c5c(F)cc(S(=O)(=O)[O-])cc5F)c5nc(c(-c6c(F)cc(S(=O)(=O)[O-])cc6F)c6ccc3[nH]6)C=C5)C=C4)cc2)COC12CC[NH+](Cc1ccccc1)CC2
REMARK SMILES IDX 18 1 17 2 16 3 15 4 13 5 14 6 12 7 11 8 92 9 90 10 91 11
REMARK SMILES IDX 93 12 104 13 94 14 103 15 95 16 9 18 10 19 8 20 3 21 4 22
REMARK SMILES IDX 5 23 7 24 6 25 2 26 1 27 96 28 97 29 98 30 102 31 99 32
REMARK SMILES IDX 101 33 100 34 19 35 20 36 21 37 22 38 23 39 24 40 25 41
REMARK SMILES IDX 89 42 26 43 88 44 27 45 28 46 29 47 82 48 30 49 87 50 81 51
REMARK SMILES IDX 83 52 31 53 86 54 80 55 79 56 32 58 66 59 45 60 65 61 46 62
REMARK SMILES IDX 49 63 64 64 84 65 47 66 48 67 63 69 85 70 50 71 33 72 34 73
REMARK SMILES IDX 43 74 35 75 36 76 42 77 44 78 37 79 38 80 39 81 40 82 41 83
REMARK SMILES IDX 67 84 68 85 77 86 69 87 70 88 76 89 78 90 71 91 72 92 73 93
REMARK SMILES IDX 74 94 75 95 51 96 52 97 61 98 53 99 54 100 60 101 62 102
REMARK SMILES IDX 55 103 56 104 57 105 58 106 59 107
REMARK H PARENT 95 17 83 57 49 68
REMARK Flexibility Score: inf
ROOT
ATOM      1  O   UNL A   1      31.915  29.990  25.406  1.00  0.00    -0.374 OA
ENDROOT
BRANCH   1   2
ATOM      2  C   UNL A   1      30.698  30.203  24.699  1.00  0.00     0.202 C 
BRANCH   2   3
ATOM      3  C   UNL A   1      30.626  29.606  23.296  1.00  0.00     0.261 C 
BRANCH   3   4
ATOM      4  O   UNL A   1      31.099  28.248  23.247  1.00  0.00    -0.462 OA
BRANCH   4   5
ATOM      5  C   UNL A   1      30.282  27.323  23.823  1.00  0.00     0.331 C 
ATOM      6  O   UNL A   1      29.087  27.205  23.562  1.00  0.00    -0.250 OA
BRANCH   5   7
ATOM      7  C   UNL A   1      30.958  26.520  24.929  1.00  0.00     0.224 C 
ATOM      8  N   UNL A   1      31.519  25.299  24.383  1.00  0.00    -0.293 N 
ATOM      9  C   UNL A   1      31.380  24.244  25.394  1.00  0.00     0.155 C 
ATOM     10  C   UNL A   1      30.109  26.071  26.095  1.00  0.00     0.200 C 
ATOM     11  O   UNL A   1      30.189  24.635  26.127  1.00  0.00    -0.352 OA
ATOM     12  C   UNL A   1      31.105  22.865  24.795  1.00  0.00     0.120 C 
ATOM     13  C   UNL A   1      32.552  24.221  26.398  1.00  0.00     0.120 C 
ATOM     14  C   UNL A   1      31.146  21.734  25.804  1.00  0.00     0.267 C 
ATOM     15  C   UNL A   1      32.570  22.973  27.288  1.00  0.00     0.267 C 
ATOM     16  N   UNL A   1      32.377  21.714  26.583  1.00  0.00    -0.331 N 
ATOM     17  H   UNL A   1      32.260  21.033  27.333  1.00  0.00     0.348 HD
BRANCH   8  18
ATOM     18  C   UNL A   1      32.673  25.454  23.620  1.00  0.00     0.260 C 
ATOM     19  O   UNL A   1      33.578  26.188  24.024  1.00  0.00    -0.269 OA
BRANCH  18  20
ATOM     20  C   UNL A   1      32.752  24.887  22.227  1.00  0.00     0.082 A 
ATOM     21  C   UNL A   1      33.217  23.621  21.844  1.00  0.00     0.131 A 
ATOM     22  C   UNL A   1      33.356  23.284  20.488  1.00  0.00     0.047 A 
ATOM     23  C   UNL A   1      32.939  24.161  19.492  1.00  0.00     0.004 A 
ATOM     24  C   UNL A   1      32.298  25.741  21.200  1.00  0.00     0.018 A 
ATOM     25  C   UNL A   1      32.382  25.382  19.850  1.00  0.00     0.001 A 
BRANCH  21  26
ATOM     26  O   UNL A   1      33.638  22.678  22.734  1.00  0.00    -0.496 OA
ATOM     27  C   UNL A   1      34.928  22.994  23.244  1.00  0.00     0.278 C 
ENDBRANCH  21  26
ENDBRANCH  18  20
ENDBRANCH   8  18
BRANCH  16  28
ATOM     28  C   UNL A   1      33.535  21.069  25.947  1.00  0.00     0.299 C 
BRANCH  28  29
ATOM     29  C   UNL A   1      33.405  19.650  25.430  1.00  0.00     0.006 A 
ATOM     30  C   UNL A   1      32.757  18.658  26.180  1.00  0.00     0.009 A 
ATOM     31  C   UNL A   1      33.963  19.290  24.191  1.00  0.00     0.009 A 
ATOM     32  C   UNL A   1      32.631  17.359  25.680  1.00  0.00     0.001 A 
ATOM     33  C   UNL A   1      33.796  18.003  23.674  1.00  0.00     0.001 A 
ATOM     34  C   UNL A   1      33.126  17.039  24.418  1.00  0.00     0.000 A 
ENDBRANCH  28  29
ENDBRANCH  16  28
ENDBRANCH   5   7
ENDBRANCH   4   5
ENDBRANCH   3   4
ENDBRANCH   2   3
ENDBRANCH   1   2
BRANCH   1  35
ATOM     35  C   UNL A   1      31.831  29.618  26.781  1.00  0.00     0.202 C 
BRANCH  35  36
ATOM     36  C   UNL A   1      33.123  29.699  27.603  1.00  0.00     0.261 C 
BRANCH  36  37
ATOM     37  O   UNL A   1      33.844  30.937  27.424  1.00  0.00    -0.460 OA
BRANCH  37  38
ATOM     38  C   UNL A   1      34.690  31.250  28.433  1.00  0.00     0.338 C 
ATOM     39  O   UNL A   1      34.504  32.097  29.307  1.00  0.00    -0.246 OA
BRANCH  38  40
ATOM     40  C   UNL A   1      35.867  30.368  28.468  1.00  0.00     0.060 A 
ATOM     41  C   UNL A   1      36.241  29.823  29.704  1.00  0.00     0.016 A 
ATOM     42  C   UNL A   1      36.715  30.266  27.364  1.00  0.00     0.016 A 
ATOM     43  C   UNL A   1      37.499  29.240  29.858  1.00  0.00     0.010 A 
ATOM     44  C   UNL A   1      37.979  29.683  27.524  1.00  0.00     0.010 A 
ATOM     45  C   UNL A   1      38.398  29.216  28.783  1.00  0.00    -0.014 A 
BRANCH  45  46
ATOM     46  C   UNL A   1      39.822  28.862  29.021  1.00  0.00     0.031 A 
ATOM     47  C   UNL A   1      40.752  29.894  29.605  1.00  0.00     0.074 A 
ATOM     48  C   UNL A   1      40.285  27.631  28.743  1.00  0.00     0.049 A 
ATOM     49  N   UNL A   1      42.031  29.808  29.864  1.00  0.00    -0.248 NA
ATOM     50  C   UNL A   1      40.156  31.197  29.941  1.00  0.00     0.031 C 
ATOM     51  C   UNL A   1      39.488  26.532  28.204  1.00  0.00     0.029 A 
ATOM     52  N   UNL A   1      41.547  27.105  28.869  1.00  0.00    -0.354 N 
ATOM     53  C   UNL A   1      42.399  31.044  30.382  1.00  0.00     0.074 A 
ATOM     54  C   UNL A   1      41.210  31.870  30.381  1.00  0.00     0.031 C 
ATOM     55  C   UNL A   1      40.285  25.464  28.027  1.00  0.00     0.029 A 
ATOM     56  C   UNL A   1      41.652  25.813  28.417  1.00  0.00     0.049 A 
ATOM     57  H   UNL A   1      42.305  27.608  29.247  1.00  0.00     0.167 HD
ATOM     58  C   UNL A   1      43.612  31.455  30.824  1.00  0.00     0.037 A 
ATOM     59  C   UNL A   1      42.728  25.009  28.307  1.00  0.00     0.037 A 
ATOM     60  C   UNL A   1      44.797  30.638  30.830  1.00  0.00     0.049 A 
ATOM     61  C   UNL A   1      44.078  25.497  28.758  1.00  0.00     0.074 A 
ATOM     62  C   UNL A   1      46.064  30.959  31.284  1.00  0.00     0.029 A 
ATOM     63  N   UNL A   1      44.864  29.340  30.347  1.00  0.00    -0.354 N 
ATOM     64  N   UNL A   1      44.405  26.659  29.271  1.00  0.00    -0.248 NA
ATOM     65  C   UNL A   1      45.205  24.564  28.620  1.00  0.00     0.031 C 
ATOM     66  C   UNL A   1      46.908  29.868  31.042  1.00  0.00     0.029 A 
ATOM     67  C   UNL A   1      46.155  28.853  30.471  1.00  0.00     0.049 A 
ATOM     68  H   UNL A   1      44.106  28.837  29.971  1.00  0.00     0.167 HD
ATOM     69  C   UNL A   1      45.770  26.592  29.532  1.00  0.00     0.074 A 
ATOM     70  C   UNL A   1      46.207  25.272  29.127  1.00  0.00     0.031 C 
ATOM     71  C   UNL A   1      46.583  27.538  30.063  1.00  0.00     0.037 A 
BRANCH  58  72
ATOM     72  C   UNL A   1      43.718  32.873  31.313  1.00  0.00     0.058 A 
ATOM     73  C   UNL A   1      44.097  33.922  30.459  1.00  0.00     0.135 A 
ATOM     74  C   UNL A   1      43.443  33.185  32.654  1.00  0.00     0.135 A 
ATOM     75  F   UNL A   1      44.384  33.675  29.172  1.00  0.00    -0.206 F 
ATOM     76  C   UNL A   1      44.240  35.223  30.928  1.00  0.00     0.059 A 
ATOM     77  C   UNL A   1      43.558  34.484  33.139  1.00  0.00     0.059 A 
ATOM     78  F   UNL A   1      43.075  32.220  33.510  1.00  0.00    -0.206 F 
ATOM     79  C   UNL A   1      43.979  35.493  32.273  1.00  0.00     0.060 A 
BRANCH  79  80
ATOM     80  S   UNL A   1      44.204  37.178  32.881  1.00  0.00     0.124 S 
ATOM     81  O   UNL A   1      43.857  37.961  31.700  1.00  0.00    -0.237 OA
ATOM     82  O   UNL A   1      43.254  37.246  33.988  1.00  0.00    -0.237 OA
ATOM     83  O   UNL A   1      45.611  37.212  33.267  1.00  0.00    -0.744 OA
ENDBRANCH  79  80
ENDBRANCH  58  72
BRANCH  59  84
ATOM     84  C   UNL A   1      42.561  23.651  27.730  1.00  0.00     0.058 A 
ATOM     85  C   UNL A   1      42.568  23.448  26.344  1.00  0.00     0.135 A 
ATOM     86  C   UNL A   1      42.447  22.525  28.559  1.00  0.00     0.135 A 
ATOM     87  F   UNL A   1      42.662  24.498  25.512  1.00  0.00    -0.206 F 
ATOM     88  C   UNL A   1      42.480  22.173  25.796  1.00  0.00     0.059 A 
ATOM     89  C   UNL A   1      42.377  21.238  28.037  1.00  0.00     0.059 A 
ATOM     90  F   UNL A   1      42.444  22.670  29.893  1.00  0.00    -0.206 F 
ATOM     91  C   UNL A   1      42.396  21.072  26.653  1.00  0.00     0.060 A 
BRANCH  91  92
ATOM     92  S   UNL A   1      42.392  19.414  25.936  1.00  0.00     0.124 S 
ATOM     93  O   UNL A   1      43.330  19.568  24.831  1.00  0.00    -0.237 OA
ATOM     94  O   UNL A   1      42.849  18.595  27.055  1.00  0.00    -0.237 OA
ATOM     95  O   UNL A   1      40.995  19.217  25.561  1.00  0.00    -0.744 OA
ENDBRANCH  91  92
ENDBRANCH  59  84
BRANCH  71  96
ATOM     96  C   UNL A   1      48.031  27.181  30.260  1.00  0.00     0.058 A 
ATOM     97  C   UNL A   1      48.977  27.363  29.240  1.00  0.00     0.135 A 
ATOM     98  C   UNL A   1      48.487  26.709  31.501  1.00  0.00     0.135 A 
ATOM     99  F   UNL A   1      48.593  27.806  28.032  1.00  0.00    -0.206 F 
ATOM    100  C   UNL A   1      50.325  27.077  29.440  1.00  0.00     0.059 A 
ATOM    101  C   UNL A   1      49.832  26.435  31.730  1.00  0.00     0.059 A 
ATOM    102  F   UNL A   1      47.622  26.526  32.512  1.00  0.00    -0.206 F 
ATOM    103  C   UNL A   1      50.743  26.614  30.689  1.00  0.00     0.060 A 
BRANCH 103 104
ATOM    104  S   UNL A   1      52.500  26.284  30.953  1.00  0.00     0.124 S 
ATOM    105  O   UNL A   1      52.995  26.220  29.583  1.00  0.00    -0.237 OA
ATOM    106  O   UNL A   1      52.926  27.446  31.728  1.00  0.00    -0.237 OA
ATOM    107  O   UNL A   1      52.500  25.020  31.682  1.00  0.00    -0.744 OA
ENDBRANCH 103 104
ENDBRANCH  71  96
ENDBRANCH  45  46
ENDBRANCH  38  40
ENDBRANCH  37  38
ENDBRANCH  36  37
ENDBRANCH  35  36
ENDBRANCH   1  35
TORSDOF 22
ENDMDL
