MODEL 1
REMARK VINA RESULT:      -9.6      0.000      0.000
REMARK SMILES O=C(OCCOCCOC(=O)[C@@H]1CS[C@@H](c2ncc(-c3cccc(Br)c3)s2)[NH2+]1)c1ccc(-c2c3nc(c(-c4c(F)cc(S(=O)(=O)[O-])cc4F)c4ccc([nH]4)c(-c4c(F)cc(S(=O)(=O)[O-])cc4F)c4nc(c(-c5c(F)cc(S(=O)(=O)[O-])cc5F)c5ccc2[nH]5)C=C4)C=C3)cc1
REMARK SMILES IDX 5 1 4 2 3 3 2 4 1 5 29 6 30 7 94 8 31 9 93 10 32 11 33 12
REMARK SMILES IDX 34 13 87 14 35 15 92 16 86 17 88 18 36 19 91 20 85 21 84 22
REMARK SMILES IDX 37 24 71 25 50 26 70 27 51 28 54 29 69 30 89 31 52 32 53 33
REMARK SMILES IDX 68 35 90 36 55 37 38 38 39 39 48 40 40 41 41 42 47 43 49 44
REMARK SMILES IDX 42 45 43 46 44 47 45 48 46 49 72 50 73 51 82 52 74 53 75 54
REMARK SMILES IDX 81 55 83 56 76 57 77 58 78 59 79 60 80 61 56 62 57 63 66 64
REMARK SMILES IDX 58 65 59 66 65 67 67 68 60 69 61 70 62 71 63 72 64 73 6 74
REMARK SMILES IDX 7 75 8 76 9 77 10 78 11 79 12 80 13 81 28 82 14 83 15 84
REMARK SMILES IDX 16 87 17 88 27 89 18 90 19 91 20 92 21 93 26 94 22 95 24 96
REMARK SMILES IDX 23 97 25 98
REMARK H PARENT 88 23 54 34 28 85 28 86
REMARK Flexibility Score: inf
ROOT
ATOM      1  C   UNL A   1      35.169  33.660  28.078  1.00  0.00     0.202 C 
ENDROOT
BRANCH   1   2
ATOM      2  C   UNL A   1      34.089  32.579  28.109  1.00  0.00     0.261 C 
BRANCH   2   3
ATOM      3  O   UNL A   1      34.582  31.425  28.806  1.00  0.00    -0.460 OA
BRANCH   3   4
ATOM      4  C   UNL A   1      34.997  30.261  28.252  1.00  0.00     0.338 C 
ATOM      5  O   UNL A   1      34.186  29.582  27.624  1.00  0.00    -0.246 OA
BRANCH   4   6
ATOM      6  C   UNL A   1      36.411  29.790  28.319  1.00  0.00     0.060 A 
ATOM      7  C   UNL A   1      37.330  29.886  27.272  1.00  0.00     0.016 A 
ATOM      8  C   UNL A   1      36.868  29.320  29.559  1.00  0.00     0.016 A 
ATOM      9  C   UNL A   1      38.650  29.516  27.423  1.00  0.00     0.010 A 
ATOM     10  C   UNL A   1      38.212  28.983  29.738  1.00  0.00     0.010 A 
ATOM     11  C   UNL A   1      39.103  29.099  28.666  1.00  0.00    -0.014 A 
BRANCH  11  12
ATOM     12  C   UNL A   1      40.533  28.798  28.791  1.00  0.00     0.031 A 
ATOM     13  C   UNL A   1      41.447  29.869  29.278  1.00  0.00     0.074 A 
ATOM     14  C   UNL A   1      40.942  27.534  28.573  1.00  0.00     0.049 A 
ATOM     15  N   UNL A   1      42.745  29.858  29.365  1.00  0.00    -0.248 NA
ATOM     16  C   UNL A   1      40.816  31.119  29.742  1.00  0.00     0.031 C 
ATOM     17  C   UNL A   1      40.061  26.411  28.226  1.00  0.00     0.029 A 
ATOM     18  N   UNL A   1      42.186  26.972  28.623  1.00  0.00    -0.354 N 
ATOM     19  C   UNL A   1      43.095  31.112  29.845  1.00  0.00     0.074 A 
ATOM     20  C   UNL A   1      41.873  31.851  30.063  1.00  0.00     0.031 C 
ATOM     21  C   UNL A   1      40.797  25.297  28.096  1.00  0.00     0.029 A 
ATOM     22  C   UNL A   1      42.201  25.645  28.263  1.00  0.00     0.049 A 
ATOM     23  H   UNL A   1      42.994  27.468  28.890  1.00  0.00     0.167 HD
ATOM     24  C   UNL A   1      44.340  31.591  30.051  1.00  0.00     0.037 A 
ATOM     25  C   UNL A   1      43.246  24.830  28.030  1.00  0.00     0.037 A 
ATOM     26  C   UNL A   1      45.523  30.804  29.828  1.00  0.00     0.049 A 
ATOM     27  C   UNL A   1      44.622  25.420  28.183  1.00  0.00     0.074 A 
ATOM     28  C   UNL A   1      46.845  31.172  29.970  1.00  0.00     0.029 A 
ATOM     29  N   UNL A   1      45.512  29.480  29.405  1.00  0.00    -0.354 N 
ATOM     30  N   UNL A   1      44.959  26.624  28.591  1.00  0.00    -0.248 NA
ATOM     31  C   UNL A   1      45.758  24.569  27.813  1.00  0.00     0.031 C 
ATOM     32  C   UNL A   1      47.636  30.084  29.586  1.00  0.00     0.029 A 
ATOM     33  C   UNL A   1      46.806  29.023  29.246  1.00  0.00     0.049 A 
ATOM     34  H   UNL A   1      44.701  28.945  29.243  1.00  0.00     0.167 HD
ATOM     35  C   UNL A   1      46.343  26.676  28.522  1.00  0.00     0.074 A 
ATOM     36  C   UNL A   1      46.783  25.371  28.065  1.00  0.00     0.031 C 
ATOM     37  C   UNL A   1      47.181  27.707  28.791  1.00  0.00     0.037 A 
BRANCH  24  38
ATOM     38  C   UNL A   1      44.479  33.030  30.446  1.00  0.00     0.058 A 
ATOM     39  C   UNL A   1      44.575  34.062  29.501  1.00  0.00     0.135 A 
ATOM     40  C   UNL A   1      44.503  33.379  31.806  1.00  0.00     0.135 A 
ATOM     41  F   UNL A   1      44.596  33.780  28.189  1.00  0.00    -0.206 F 
ATOM     42  C   UNL A   1      44.690  35.393  29.893  1.00  0.00     0.059 A 
ATOM     43  C   UNL A   1      44.600  34.703  32.219  1.00  0.00     0.059 A 
ATOM     44  F   UNL A   1      44.439  32.426  32.749  1.00  0.00    -0.206 F 
ATOM     45  C   UNL A   1      44.697  35.704  31.254  1.00  0.00     0.060 A 
BRANCH  45  46
ATOM     46  S   UNL A   1      44.818  37.437  31.748  1.00  0.00     0.124 S 
ATOM     47  O   UNL A   1      44.578  37.349  33.185  1.00  0.00    -0.237 OA
ATOM     48  O   UNL A   1      46.182  37.777  31.354  1.00  0.00    -0.237 OA
ATOM     49  O   UNL A   1      43.765  38.086  30.974  1.00  0.00    -0.744 OA
ENDBRANCH  45  46
ENDBRANCH  24  38
BRANCH  25  50
ATOM     50  C   UNL A   1      43.038  23.446  27.522  1.00  0.00     0.058 A 
ATOM     51  C   UNL A   1      43.012  23.161  26.149  1.00  0.00     0.135 A 
ATOM     52  C   UNL A   1      42.828  22.375  28.409  1.00  0.00     0.135 A 
ATOM     53  F   UNL A   1      43.201  24.146  25.257  1.00  0.00    -0.206 F 
ATOM     54  C   UNL A   1      42.756  21.877  25.673  1.00  0.00     0.059 A 
ATOM     55  C   UNL A   1      42.601  21.078  27.958  1.00  0.00     0.059 A 
ATOM     56  F   UNL A   1      42.850  22.583  29.734  1.00  0.00    -0.206 F 
ATOM     57  C   UNL A   1      42.545  20.843  26.587  1.00  0.00     0.060 A 
BRANCH  57  58
ATOM     58  S   UNL A   1      42.201  19.182  25.968  1.00  0.00     0.124 S 
ATOM     59  O   UNL A   1      43.020  19.146  24.762  1.00  0.00    -0.237 OA
ATOM     60  O   UNL A   1      42.653  18.339  27.071  1.00  0.00    -0.237 OA
ATOM     61  O   UNL A   1      40.757  19.197  25.751  1.00  0.00    -0.744 OA
ENDBRANCH  57  58
ENDBRANCH  25  50
BRANCH  37  62
ATOM     62  C   UNL A   1      48.644  27.454  28.597  1.00  0.00     0.058 A 
ATOM     63  C   UNL A   1      49.277  27.761  27.384  1.00  0.00     0.135 A 
ATOM     64  C   UNL A   1      49.430  26.982  29.659  1.00  0.00     0.135 A 
ATOM     65  F   UNL A   1      48.558  28.204  26.339  1.00  0.00    -0.206 F 
ATOM     66  C   UNL A   1      50.647  27.605  27.227  1.00  0.00     0.059 A 
ATOM     67  C   UNL A   1      50.806  26.843  29.532  1.00  0.00     0.059 A 
ATOM     68  F   UNL A   1      48.865  26.685  30.839  1.00  0.00    -0.206 F 
ATOM     69  C   UNL A   1      51.404  27.152  28.310  1.00  0.00     0.060 A 
BRANCH  69  70
ATOM     70  S   UNL A   1      53.192  27.023  28.117  1.00  0.00     0.124 S 
ATOM     71  O   UNL A   1      53.540  28.375  27.692  1.00  0.00    -0.237 OA
ATOM     72  O   UNL A   1      53.626  26.648  29.459  1.00  0.00    -0.237 OA
ATOM     73  O   UNL A   1      53.348  25.985  27.102  1.00  0.00    -0.744 OA
ENDBRANCH  69  70
ENDBRANCH  37  62
ENDBRANCH  11  12
ENDBRANCH   4   6
ENDBRANCH   3   4
ENDBRANCH   2   3
ENDBRANCH   1   2
BRANCH   1  74
ATOM     74  O   UNL A   1      34.781  34.894  28.673  1.00  0.00    -0.374 OA
BRANCH  74  75
ATOM     75  C   UNL A   1      34.403  35.938  27.778  1.00  0.00     0.202 C 
BRANCH  75  76
ATOM     76  C   UNL A   1      33.608  36.995  28.542  1.00  0.00     0.261 C 
BRANCH  76  77
ATOM     77  O   UNL A   1      32.734  36.346  29.486  1.00  0.00    -0.459 OA
BRANCH  77  78
ATOM     78  C   UNL A   1      32.788  36.852  30.759  1.00  0.00     0.365 C 
ATOM     79  O   UNL A   1      32.907  38.027  31.044  1.00  0.00    -0.245 OA
BRANCH  78  80
ATOM     80  C   UNL A   1      32.640  35.702  31.772  1.00  0.00     0.304 C 
ATOM     81  C   UNL A   1      32.760  36.181  33.218  1.00  0.00     0.153 C 
ATOM     82  N   UNL A   1      33.653  34.650  31.528  1.00  0.00    -0.317 N 
ATOM     83  S   UNL A   1      34.401  35.677  33.800  1.00  0.00    -0.085 SA
ATOM     84  C   UNL A   1      34.907  35.115  32.154  1.00  0.00     0.303 C 
ATOM     85  H   UNL A   1      33.788  34.518  30.525  1.00  0.00     0.348 HD
ATOM     86  H   UNL A   1      33.355  33.756  31.921  1.00  0.00     0.348 HD
BRANCH  84  87
ATOM     87  C   UNL A   1      35.961  34.037  32.079  1.00  0.00     0.162 A 
ATOM     88  N   UNL A   1      35.698  32.813  31.658  1.00  0.00    -0.242 NA
ATOM     89  S   UNL A   1      37.552  34.257  32.695  1.00  0.00    -0.112 S 
ATOM     90  C   UNL A   1      36.767  31.985  31.907  1.00  0.00     0.132 A 
ATOM     91  C   UNL A   1      37.865  32.584  32.492  1.00  0.00     0.055 A 
BRANCH  91  92
ATOM     92  C   UNL A   1      39.132  32.000  32.915  1.00  0.00    -0.006 A 
ATOM     93  C   UNL A   1      40.166  32.822  33.384  1.00  0.00     0.010 A 
ATOM     94  C   UNL A   1      39.346  30.616  32.837  1.00  0.00     0.025 A 
ATOM     95  C   UNL A   1      41.386  32.271  33.779  1.00  0.00     0.002 A 
ATOM     96  C   UNL A   1      40.565  30.071  33.233  1.00  0.00     0.018 A 
ATOM     97  C   UNL A   1      41.585  30.893  33.706  1.00  0.00     0.016 A 
ATOM     98  Br  UNL A   1      40.831  28.203  33.123  1.00  0.00    -0.051 Br
ENDBRANCH  91  92
ENDBRANCH  84  87
ENDBRANCH  78  80
ENDBRANCH  77  78
ENDBRANCH  76  77
ENDBRANCH  75  76
ENDBRANCH  74  75
ENDBRANCH   1  74
TORSDOF 19
ENDMDL
MODEL 2
REMARK VINA RESULT:      -9.3      2.265      3.707
REMARK SMILES O=C(OCCOCCOC(=O)[C@@H]1CS[C@@H](c2ncc(-c3cccc(Br)c3)s2)[NH2+]1)c1ccc(-c2c3nc(c(-c4c(F)cc(S(=O)(=O)[O-])cc4F)c4ccc([nH]4)c(-c4c(F)cc(S(=O)(=O)[O-])cc4F)c4nc(c(-c5c(F)cc(S(=O)(=O)[O-])cc5F)c5ccc2[nH]5)C=C4)C=C3)cc1
REMARK SMILES IDX 5 1 4 2 3 3 2 4 1 5 29 6 30 7 94 8 31 9 93 10 32 11 33 12
REMARK SMILES IDX 34 13 87 14 35 15 92 16 86 17 88 18 36 19 91 20 85 21 84 22
REMARK SMILES IDX 37 24 71 25 50 26 70 27 51 28 54 29 69 30 89 31 52 32 53 33
REMARK SMILES IDX 68 35 90 36 55 37 38 38 39 39 48 40 40 41 41 42 47 43 49 44
REMARK SMILES IDX 42 45 43 46 44 47 45 48 46 49 72 50 73 51 82 52 74 53 75 54
REMARK SMILES IDX 81 55 83 56 76 57 77 58 78 59 79 60 80 61 56 62 57 63 66 64
REMARK SMILES IDX 58 65 59 66 65 67 67 68 60 69 61 70 62 71 63 72 64 73 6 74
REMARK SMILES IDX 7 75 8 76 9 77 10 78 11 79 12 80 13 81 28 82 14 83 15 84
REMARK SMILES IDX 16 87 17 88 27 89 18 90 19 91 20 92 21 93 26 94 22 95 24 96
REMARK SMILES IDX 23 97 25 98
REMARK H PARENT 88 23 54 34 28 85 28 86
REMARK Flexibility Score: inf
ROOT
ATOM      1  C   UNL A   1      34.684  33.813  29.458  1.00  0.00     0.202 C 
ENDROOT
BRANCH   1   2
ATOM      2  C   UNL A   1      34.137  33.006  28.282  1.00  0.00     0.261 C 
BRANCH   2   3
ATOM      3  O   UNL A   1      33.987  31.632  28.669  1.00  0.00    -0.460 OA
BRANCH   3   4
ATOM      4  C   UNL A   1      34.495  30.551  28.031  1.00  0.00     0.338 C 
ATOM      5  O   UNL A   1      33.791  29.961  27.214  1.00  0.00    -0.246 OA
BRANCH   4   6
ATOM      6  C   UNL A   1      35.895  30.076  28.232  1.00  0.00     0.060 A 
ATOM      7  C   UNL A   1      36.891  30.104  27.253  1.00  0.00     0.016 A 
ATOM      8  C   UNL A   1      36.253  29.676  29.528  1.00  0.00     0.016 A 
ATOM      9  C   UNL A   1      38.192  29.735  27.525  1.00  0.00     0.010 A 
ATOM     10  C   UNL A   1      37.576  29.340  29.826  1.00  0.00     0.010 A 
ATOM     11  C   UNL A   1      38.546  29.388  28.820  1.00  0.00    -0.014 A 
BRANCH  11  12
ATOM     12  C   UNL A   1      39.959  29.085  29.071  1.00  0.00     0.031 A 
ATOM     13  C   UNL A   1      40.811  30.131  29.702  1.00  0.00     0.074 A 
ATOM     14  C   UNL A   1      40.398  27.836  28.826  1.00  0.00     0.049 A 
ATOM     15  N   UNL A   1      42.094  30.120  29.917  1.00  0.00    -0.248 NA
ATOM     16  C   UNL A   1      40.126  31.351  30.168  1.00  0.00     0.031 C 
ATOM     17  C   UNL A   1      39.565  26.731  28.334  1.00  0.00     0.029 A 
ATOM     18  N   UNL A   1      41.636  27.276  28.969  1.00  0.00    -0.354 N 
ATOM     19  C   UNL A   1      42.384  31.347  30.496  1.00  0.00     0.074 A 
ATOM     20  C   UNL A   1      41.141  32.069  30.631  1.00  0.00     0.031 C 
ATOM     21  C   UNL A   1      40.320  25.627  28.217  1.00  0.00     0.029 A 
ATOM     22  C   UNL A   1      41.698  25.970  28.542  1.00  0.00     0.049 A 
ATOM     23  H   UNL A   1      42.409  27.759  29.341  1.00  0.00     0.167 HD
ATOM     24  C   UNL A   1      43.599  31.818  30.850  1.00  0.00     0.037 A 
ATOM     25  C   UNL A   1      42.768  25.173  28.370  1.00  0.00     0.037 A 
ATOM     26  C   UNL A   1      44.804  31.048  30.703  1.00  0.00     0.049 A 
ATOM     27  C   UNL A   1      44.117  25.758  28.690  1.00  0.00     0.074 A 
ATOM     28  C   UNL A   1      46.103  31.412  30.995  1.00  0.00     0.029 A 
ATOM     29  N   UNL A   1      44.846  29.749  30.210  1.00  0.00    -0.354 N 
ATOM     30  N   UNL A   1      44.401  26.939  29.194  1.00  0.00    -0.248 NA
ATOM     31  C   UNL A   1      45.291  24.932  28.390  1.00  0.00     0.031 C 
ATOM     32  C   UNL A   1      46.937  30.349  30.633  1.00  0.00     0.029 A 
ATOM     33  C   UNL A   1      46.154  29.306  30.156  1.00  0.00     0.049 A 
ATOM     34  H   UNL A   1      44.061  29.221  29.941  1.00  0.00     0.167 HD
ATOM     35  C   UNL A   1      45.785  26.999  29.265  1.00  0.00     0.074 A 
ATOM     36  C   UNL A   1      46.279  25.723  28.784  1.00  0.00     0.031 C 
ATOM     37  C   UNL A   1      46.584  28.018  29.671  1.00  0.00     0.037 A 
BRANCH  24  38
ATOM     38  C   UNL A   1      43.686  33.234  31.333  1.00  0.00     0.058 A 
ATOM     39  C   UNL A   1      43.700  33.563  32.696  1.00  0.00     0.135 A 
ATOM     40  C   UNL A   1      43.769  34.282  30.402  1.00  0.00     0.135 A 
ATOM     41  F   UNL A   1      43.584  32.603  33.626  1.00  0.00    -0.206 F 
ATOM     42  C   UNL A   1      43.795  34.886  33.120  1.00  0.00     0.059 A 
ATOM     43  C   UNL A   1      43.882  35.609  30.803  1.00  0.00     0.059 A 
ATOM     44  F   UNL A   1      43.734  34.021  29.086  1.00  0.00    -0.206 F 
ATOM     45  C   UNL A   1      43.890  35.901  32.166  1.00  0.00     0.060 A 
BRANCH  45  46
ATOM     46  S   UNL A   1      44.041  37.610  32.730  1.00  0.00     0.124 S 
ATOM     47  O   UNL A   1      42.944  37.700  33.688  1.00  0.00    -0.237 OA
ATOM     48  O   UNL A   1      45.384  37.631  33.302  1.00  0.00    -0.237 OA
ATOM     49  O   UNL A   1      43.872  38.389  31.508  1.00  0.00    -0.744 OA
ENDBRANCH  45  46
ENDBRANCH  24  38
BRANCH  25  50
ATOM     50  C   UNL A   1      42.623  23.817  27.770  1.00  0.00     0.058 A 
ATOM     51  C   UNL A   1      42.520  22.668  28.566  1.00  0.00     0.135 A 
ATOM     52  C   UNL A   1      42.617  23.642  26.375  1.00  0.00     0.135 A 
ATOM     53  F   UNL A   1      42.526  22.775  29.903  1.00  0.00    -0.206 F 
ATOM     54  C   UNL A   1      42.447  21.395  28.005  1.00  0.00     0.059 A 
ATOM     55  C   UNL A   1      42.513  22.384  25.790  1.00  0.00     0.059 A 
ATOM     56  F   UNL A   1      42.704  24.706  25.561  1.00  0.00    -0.206 F 
ATOM     57  C   UNL A   1      42.451  21.263  26.614  1.00  0.00     0.060 A 
BRANCH  57  58
ATOM     58  S   UNL A   1      42.369  19.612  25.890  1.00  0.00     0.124 S 
ATOM     59  O   UNL A   1      43.391  19.696  24.854  1.00  0.00    -0.237 OA
ATOM     60  O   UNL A   1      42.684  18.755  27.029  1.00  0.00    -0.237 OA
ATOM     61  O   UNL A   1      40.991  19.523  25.412  1.00  0.00    -0.744 OA
ENDBRANCH  57  58
ENDBRANCH  25  50
BRANCH  37  62
ATOM     62  C   UNL A   1      48.061  27.780  29.610  1.00  0.00     0.058 A 
ATOM     63  C   UNL A   1      48.759  27.275  30.716  1.00  0.00     0.135 A 
ATOM     64  C   UNL A   1      48.763  27.980  28.412  1.00  0.00     0.135 A 
ATOM     65  F   UNL A   1      48.126  27.081  31.885  1.00  0.00    -0.206 F 
ATOM     66  C   UNL A   1      50.112  26.976  30.637  1.00  0.00     0.059 A 
ATOM     67  C   UNL A   1      50.111  27.662  28.303  1.00  0.00     0.059 A 
ATOM     68  F   UNL A   1      48.130  28.453  27.327  1.00  0.00    -0.206 F 
ATOM     69  C   UNL A   1      50.777  27.166  29.424  1.00  0.00     0.060 A 
BRANCH  69  70
ATOM     70  S   UNL A   1      52.517  26.705  29.314  1.00  0.00     0.124 S 
ATOM     71  O   UNL A   1      53.167  28.011  29.316  1.00  0.00    -0.237 OA
ATOM     72  O   UNL A   1      52.704  25.900  30.517  1.00  0.00    -0.237 OA
ATOM     73  O   UNL A   1      52.593  25.967  28.057  1.00  0.00    -0.744 OA
ENDBRANCH  69  70
ENDBRANCH  37  62
ENDBRANCH  11  12
ENDBRANCH   4   6
ENDBRANCH   3   4
ENDBRANCH   2   3
ENDBRANCH   1   2
BRANCH   1  74
ATOM     74  O   UNL A   1      34.679  33.116  30.701  1.00  0.00    -0.374 OA
BRANCH  74  75
ATOM     75  C   UNL A   1      34.392  33.893  31.862  1.00  0.00     0.202 C 
BRANCH  75  76
ATOM     76  C   UNL A   1      34.719  33.075  33.110  1.00  0.00     0.261 C 
BRANCH  76  77
ATOM     77  O   UNL A   1      36.134  33.150  33.373  1.00  0.00    -0.459 OA
BRANCH  77  78
ATOM     78  C   UNL A   1      36.745  31.939  33.574  1.00  0.00     0.365 C 
ATOM     79  O   UNL A   1      36.677  30.984  32.825  1.00  0.00    -0.245 OA
BRANCH  78  80
ATOM     80  C   UNL A   1      37.560  31.987  34.880  1.00  0.00     0.304 C 
ATOM     81  C   UNL A   1      38.578  33.125  34.889  1.00  0.00     0.153 C 
ATOM     82  N   UNL A   1      38.267  30.706  35.107  1.00  0.00    -0.317 N 
ATOM     83  S   UNL A   1      40.204  32.373  34.611  1.00  0.00    -0.085 SA
ATOM     84  C   UNL A   1      39.489  30.743  34.277  1.00  0.00     0.303 C 
ATOM     85  H   UNL A   1      37.676  29.923  34.828  1.00  0.00     0.348 HD
ATOM     86  H   UNL A   1      38.496  30.584  36.094  1.00  0.00     0.348 HD
BRANCH  84  87
ATOM     87  C   UNL A   1      40.348  29.535  34.556  1.00  0.00     0.162 A 
ATOM     88  N   UNL A   1      40.692  29.173  35.778  1.00  0.00    -0.242 NA
ATOM     89  S   UNL A   1      41.096  28.625  33.302  1.00  0.00    -0.112 S 
ATOM     90  C   UNL A   1      41.652  28.190  35.731  1.00  0.00     0.132 A 
ATOM     91  C   UNL A   1      42.023  27.775  34.468  1.00  0.00     0.055 A 
BRANCH  91  92
ATOM     92  C   UNL A   1      43.021  26.793  34.063  1.00  0.00    -0.006 A 
ATOM     93  C   UNL A   1      43.820  27.023  32.934  1.00  0.00     0.010 A 
ATOM     94  C   UNL A   1      43.181  25.597  34.777  1.00  0.00     0.025 A 
ATOM     95  C   UNL A   1      44.769  26.081  32.535  1.00  0.00     0.002 A 
ATOM     96  C   UNL A   1      44.130  24.660  34.374  1.00  0.00     0.018 A 
ATOM     97  C   UNL A   1      44.926  24.898  33.256  1.00  0.00     0.016 A 
ATOM     98  Br  UNL A   1      44.331  23.056  35.353  1.00  0.00    -0.051 Br
ENDBRANCH  91  92
ENDBRANCH  84  87
ENDBRANCH  78  80
ENDBRANCH  77  78
ENDBRANCH  76  77
ENDBRANCH  75  76
ENDBRANCH  74  75
ENDBRANCH   1  74
TORSDOF 19
ENDMDL
MODEL 3
REMARK VINA RESULT:      -8.9      6.117     12.342
REMARK SMILES O=C(OCCOCCOC(=O)[C@@H]1CS[C@@H](c2ncc(-c3cccc(Br)c3)s2)[NH2+]1)c1ccc(-c2c3nc(c(-c4c(F)cc(S(=O)(=O)[O-])cc4F)c4ccc([nH]4)c(-c4c(F)cc(S(=O)(=O)[O-])cc4F)c4nc(c(-c5c(F)cc(S(=O)(=O)[O-])cc5F)c5ccc2[nH]5)C=C4)C=C3)cc1
REMARK SMILES IDX 5 1 4 2 3 3 2 4 1 5 29 6 30 7 94 8 31 9 93 10 32 11 33 12
REMARK SMILES IDX 34 13 87 14 35 15 92 16 86 17 88 18 36 19 91 20 85 21 84 22
REMARK SMILES IDX 37 24 71 25 50 26 70 27 51 28 54 29 69 30 89 31 52 32 53 33
REMARK SMILES IDX 68 35 90 36 55 37 38 38 39 39 48 40 40 41 41 42 47 43 49 44
REMARK SMILES IDX 42 45 43 46 44 47 45 48 46 49 72 50 73 51 82 52 74 53 75 54
REMARK SMILES IDX 81 55 83 56 76 57 77 58 78 59 79 60 80 61 56 62 57 63 66 64
REMARK SMILES IDX 58 65 59 66 65 67 67 68 60 69 61 70 62 71 63 72 64 73 6 74
REMARK SMILES IDX 7 75 8 76 9 77 10 78 11 79 12 80 13 81 28 82 14 83 15 84
REMARK SMILES IDX 16 87 17 88 27 89 18 90 19 91 20 92 21 93 26 94 22 95 24 96
REMARK SMILES IDX 23 97 25 98
REMARK H PARENT 88 23 54 34 28 85 28 86
REMARK Flexibility Score: inf
ROOT
ATOM      1  C   UNL A   1      39.796  22.092  26.914  1.00  0.00     0.202 C 
ENDROOT
BRANCH   1   2
ATOM      2  C   UNL A   1      41.006  22.968  26.592  1.00  0.00     0.261 C 
BRANCH   2   3
ATOM      3  O   UNL A   1      40.567  24.289  26.245  1.00  0.00    -0.460 OA
BRANCH   3   4
ATOM      4  C   UNL A   1      41.242  25.445  26.443  1.00  0.00     0.338 C 
ATOM      5  O   UNL A   1      42.104  25.775  25.630  1.00  0.00    -0.246 OA
BRANCH   4   6
ATOM      6  C   UNL A   1      40.949  26.372  27.575  1.00  0.00     0.060 A 
ATOM      7  C   UNL A   1      39.952  26.167  28.531  1.00  0.00     0.016 A 
ATOM      8  C   UNL A   1      41.811  27.467  27.743  1.00  0.00     0.016 A 
ATOM      9  C   UNL A   1      39.788  27.014  29.608  1.00  0.00     0.010 A 
ATOM     10  C   UNL A   1      41.682  28.307  28.851  1.00  0.00     0.010 A 
ATOM     11  C   UNL A   1      40.675  28.064  29.791  1.00  0.00    -0.014 A 
BRANCH  11  12
ATOM     12  C   UNL A   1      40.505  28.883  30.996  1.00  0.00     0.031 A 
ATOM     13  C   UNL A   1      39.414  29.898  31.019  1.00  0.00     0.074 A 
ATOM     14  C   UNL A   1      41.264  28.604  32.071  1.00  0.00     0.049 A 
ATOM     15  N   UNL A   1      39.150  30.793  31.926  1.00  0.00    -0.248 NA
ATOM     16  C   UNL A   1      38.486  29.900  29.873  1.00  0.00     0.031 C 
ATOM     17  C   UNL A   1      42.256  27.523  32.145  1.00  0.00     0.029 A 
ATOM     18  N   UNL A   1      41.317  29.183  33.308  1.00  0.00    -0.354 N 
ATOM     19  C   UNL A   1      38.059  31.500  31.442  1.00  0.00     0.074 A 
ATOM     20  C   UNL A   1      37.686  30.913  30.177  1.00  0.00     0.031 C 
ATOM     21  C   UNL A   1      42.817  27.521  33.365  1.00  0.00     0.029 A 
ATOM     22  C   UNL A   1      42.288  28.647  34.121  1.00  0.00     0.049 A 
ATOM     23  H   UNL A   1      40.719  29.912  33.589  1.00  0.00     0.167 HD
ATOM     24  C   UNL A   1      37.455  32.564  32.013  1.00  0.00     0.037 A 
ATOM     25  C   UNL A   1      42.739  29.073  35.315  1.00  0.00     0.037 A 
ATOM     26  C   UNL A   1      37.863  33.100  33.284  1.00  0.00     0.049 A 
ATOM     27  C   UNL A   1      42.105  30.315  35.884  1.00  0.00     0.074 A 
ATOM     28  C   UNL A   1      37.359  34.189  33.965  1.00  0.00     0.029 A 
ATOM     29  N   UNL A   1      38.891  32.575  34.060  1.00  0.00    -0.354 N 
ATOM     30  N   UNL A   1      41.102  31.017  35.405  1.00  0.00    -0.248 NA
ATOM     31  C   UNL A   1      42.676  30.847  37.125  1.00  0.00     0.031 C 
ATOM     32  C   UNL A   1      38.113  34.352  35.131  1.00  0.00     0.029 A 
ATOM     33  C   UNL A   1      39.060  33.339  35.199  1.00  0.00     0.049 A 
ATOM     34  H   UNL A   1      39.419  31.776  33.833  1.00  0.00     0.167 HD
ATOM     35  C   UNL A   1      40.926  32.077  36.283  1.00  0.00     0.074 A 
ATOM     36  C   UNL A   1      41.905  31.904  37.340  1.00  0.00     0.031 C 
ATOM     37  C   UNL A   1      40.052  33.112  36.220  1.00  0.00     0.037 A 
BRANCH  24  38
ATOM     38  C   UNL A   1      36.376  33.255  31.237  1.00  0.00     0.058 A 
ATOM     39  C   UNL A   1      35.023  33.173  31.597  1.00  0.00     0.135 A 
ATOM     40  C   UNL A   1      36.712  34.026  30.114  1.00  0.00     0.135 A 
ATOM     41  F   UNL A   1      34.643  32.419  32.640  1.00  0.00    -0.206 F 
ATOM     42  C   UNL A   1      34.039  33.836  30.867  1.00  0.00     0.059 A 
ATOM     43  C   UNL A   1      35.748  34.710  29.381  1.00  0.00     0.059 A 
ATOM     44  F   UNL A   1      37.991  34.115  29.713  1.00  0.00    -0.206 F 
ATOM     45  C   UNL A   1      34.412  34.605  29.764  1.00  0.00     0.060 A 
BRANCH  45  46
ATOM     46  S   UNL A   1      33.129  35.481  28.843  1.00  0.00     0.124 S 
ATOM     47  O   UNL A   1      33.924  36.412  28.047  1.00  0.00    -0.237 OA
ATOM     48  O   UNL A   1      32.488  34.401  28.100  1.00  0.00    -0.237 OA
ATOM     49  O   UNL A   1      32.313  36.089  29.889  1.00  0.00    -0.744 OA
ENDBRANCH  45  46
ENDBRANCH  24  38
BRANCH  25  50
ATOM     50  C   UNL A   1      43.898  28.412  35.975  1.00  0.00     0.058 A 
ATOM     51  C   UNL A   1      43.727  27.337  36.860  1.00  0.00     0.135 A 
ATOM     52  C   UNL A   1      45.210  28.868  35.756  1.00  0.00     0.135 A 
ATOM     53  F   UNL A   1      42.497  26.865  37.110  1.00  0.00    -0.206 F 
ATOM     54  C   UNL A   1      44.806  26.759  37.524  1.00  0.00     0.059 A 
ATOM     55  C   UNL A   1      46.307  28.286  36.384  1.00  0.00     0.059 A 
ATOM     56  F   UNL A   1      45.438  29.887  34.914  1.00  0.00    -0.206 F 
ATOM     57  C   UNL A   1      46.093  27.246  37.285  1.00  0.00     0.060 A 
BRANCH  57  58
ATOM     58  S   UNL A   1      47.488  26.503  38.157  1.00  0.00     0.124 S 
ATOM     59  O   UNL A   1      48.389  27.641  38.288  1.00  0.00    -0.237 OA
ATOM     60  O   UNL A   1      46.869  26.034  39.393  1.00  0.00    -0.237 OA
ATOM     61  O   UNL A   1      47.930  25.449  37.247  1.00  0.00    -0.744 OA
ENDBRANCH  57  58
ENDBRANCH  25  50
BRANCH  37  62
ATOM     62  C   UNL A   1      40.125  34.121  37.324  1.00  0.00     0.058 A 
ATOM     63  C   UNL A   1      40.941  35.256  37.214  1.00  0.00     0.135 A 
ATOM     64  C   UNL A   1      39.309  33.993  38.458  1.00  0.00     0.135 A 
ATOM     65  F   UNL A   1      41.746  35.411  36.150  1.00  0.00    -0.206 F 
ATOM     66  C   UNL A   1      40.949  36.235  38.198  1.00  0.00     0.059 A 
ATOM     67  C   UNL A   1      39.282  34.973  39.442  1.00  0.00     0.059 A 
ATOM     68  F   UNL A   1      38.507  32.926  38.598  1.00  0.00    -0.206 F 
ATOM     69  C   UNL A   1      40.109  36.087  39.305  1.00  0.00     0.060 A 
BRANCH  69  70
ATOM     70  S   UNL A   1      40.074  37.401  40.540  1.00  0.00     0.124 S 
ATOM     71  O   UNL A   1      39.396  38.469  39.814  1.00  0.00    -0.237 OA
ATOM     72  O   UNL A   1      39.315  36.789  41.627  1.00  0.00    -0.237 OA
ATOM     73  O   UNL A   1      41.487  37.633  40.826  1.00  0.00    -0.744 OA
ENDBRANCH  69  70
ENDBRANCH  37  62
ENDBRANCH  11  12
ENDBRANCH   4   6
ENDBRANCH   3   4
ENDBRANCH   2   3
ENDBRANCH   1   2
BRANCH   1  74
ATOM     74  O   UNL A   1      39.100  21.609  25.769  1.00  0.00    -0.374 OA
BRANCH  74  75
ATOM     75  C   UNL A   1      37.885  22.278  25.436  1.00  0.00     0.202 C 
BRANCH  75  76
ATOM     76  C   UNL A   1      36.738  21.271  25.437  1.00  0.00     0.261 C 
BRANCH  76  77
ATOM     77  O   UNL A   1      35.583  21.860  24.806  1.00  0.00    -0.459 OA
BRANCH  77  78
ATOM     78  C   UNL A   1      34.730  22.507  25.660  1.00  0.00     0.365 C 
ATOM     79  O   UNL A   1      35.051  23.039  26.705  1.00  0.00    -0.245 OA
BRANCH  78  80
ATOM     80  C   UNL A   1      33.306  22.488  25.074  1.00  0.00     0.304 C 
ATOM     81  C   UNL A   1      33.291  22.110  23.594  1.00  0.00     0.153 C 
ATOM     82  N   UNL A   1      32.650  23.805  25.241  1.00  0.00    -0.317 N 
ATOM     83  S   UNL A   1      33.002  23.641  22.667  1.00  0.00    -0.085 SA
ATOM     84  C   UNL A   1      33.148  24.669  24.152  1.00  0.00     0.303 C 
ATOM     85  H   UNL A   1      32.892  24.206  26.147  1.00  0.00     0.348 HD
ATOM     86  H   UNL A   1      31.634  23.715  25.204  1.00  0.00     0.348 HD
BRANCH  84  87
ATOM     87  C   UNL A   1      32.421  25.991  24.158  1.00  0.00     0.162 A 
ATOM     88  N   UNL A   1      32.622  26.909  25.085  1.00  0.00    -0.242 NA
ATOM     89  S   UNL A   1      31.145  26.348  23.061  1.00  0.00    -0.112 S 
ATOM     90  C   UNL A   1      31.677  27.902  24.984  1.00  0.00     0.132 A 
ATOM     91  C   UNL A   1      30.766  27.761  23.956  1.00  0.00     0.055 A 
BRANCH  91  92
ATOM     92  C   UNL A   1      29.632  28.601  23.592  1.00  0.00    -0.006 A 
ATOM     93  C   UNL A   1      28.380  28.023  23.336  1.00  0.00     0.010 A 
ATOM     94  C   UNL A   1      29.778  29.989  23.467  1.00  0.00     0.025 A 
ATOM     95  C   UNL A   1      27.293  28.819  22.976  1.00  0.00     0.002 A 
ATOM     96  C   UNL A   1      28.689  30.780  23.107  1.00  0.00     0.018 A 
ATOM     97  C   UNL A   1      27.446  30.200  22.862  1.00  0.00     0.016 A 
ATOM     98  Br  UNL A   1      28.907  32.651  22.948  1.00  0.00    -0.051 Br
ENDBRANCH  91  92
ENDBRANCH  84  87
ENDBRANCH  78  80
ENDBRANCH  77  78
ENDBRANCH  76  77
ENDBRANCH  75  76
ENDBRANCH  74  75
ENDBRANCH   1  74
TORSDOF 19
ENDMDL
