MODEL 1
REMARK VINA RESULT:     -10.7      0.000      0.000
REMARK SMILES CC[C@@](C)(NC(=O)Nc1c(C)cccc1Cl)C(=O)OCCOCCOC(=O)c1ccc(-c2c3nc(c(-c4c(F)cc(S(=O)(=O)[O-])cc4F)c4ccc([nH]4)c(-c4c(F)cc(S(=O)(=O)[O-])cc4F)c4nc(c(-c5c(F)cc(S(=O)(=O)[O-])cc5F)c5ccc2[nH]5)C=C4)C=C3)cc1
REMARK SMILES IDX 23 1 22 2 21 3 20 4 19 5 17 6 18 7 3 8 4 9 2 10 1 11 5 12
REMARK SMILES IDX 6 13 7 15 8 16 9 18 10 19 15 20 11 21 12 22 14 23 16 24
REMARK SMILES IDX 13 25 24 26 25 27 26 28 27 29 28 30 29 31 93 32 30 33 92 34
REMARK SMILES IDX 31 35 32 36 33 37 86 38 34 39 91 40 85 41 87 42 35 43 90 44
REMARK SMILES IDX 84 45 83 46 36 48 70 49 49 50 69 51 50 52 53 53 68 54 88 55
REMARK SMILES IDX 51 56 52 57 67 59 89 60 54 61 37 62 38 63 47 64 39 65 40 66
REMARK SMILES IDX 46 67 48 68 41 69 42 70 43 71 44 72 45 73 71 74 72 75 81 76
REMARK SMILES IDX 73 77 74 78 80 79 82 80 75 81 76 82 77 83 78 84 79 85 55 86
REMARK SMILES IDX 56 87 65 88 57 89 58 90 64 91 66 92 59 93 60 94 61 95 62 96
REMARK SMILES IDX 63 97
REMARK H PARENT 5 14 8 17 87 47 53 58
REMARK Flexibility Score: inf
ROOT
ATOM      1  C   UNL A   1      38.887  22.375  26.137  1.00  0.00     0.202 C 
ENDROOT
BRANCH   1   2
ATOM      2  O   UNL A   1      37.479  22.364  25.918  1.00  0.00    -0.374 OA
BRANCH   2   3
ATOM      3  C   UNL A   1      36.847  21.502  24.991  1.00  0.00     0.202 C 
BRANCH   3   4
ATOM      4  C   UNL A   1      35.287  21.648  25.232  1.00  0.00     0.261 C 
BRANCH   4   5
ATOM      5  O   UNL A   1      34.527  21.878  23.966  1.00  0.00    -0.462 OA
BRANCH   5   6
ATOM      6  C   UNL A   1      34.245  22.965  23.148  1.00  0.00     0.331 C 
ATOM      7  O   UNL A   1      35.108  23.740  22.745  1.00  0.00    -0.249 OA
BRANCH   6   8
ATOM      8  C   UNL A   1      32.638  23.131  22.758  1.00  0.00     0.136 C 
ATOM      9  C   UNL A   1      32.084  21.689  22.713  1.00  0.00     0.047 C 
BRANCH   8  10
ATOM     10  C   UNL A   1      31.360  23.982  23.194  1.00  0.00     0.037 C 
ATOM     11  C   UNL A   1      30.593  23.856  24.488  1.00  0.00     0.007 C 
ENDBRANCH   8  10
BRANCH   8  12
ATOM     12  N   UNL A   1      32.900  23.725  21.479  1.00  0.00    -0.322 N 
ATOM     13  C   UNL A   1      33.037  25.068  21.346  1.00  0.00     0.320 C 
ATOM     14  H   UNL A   1      32.981  23.149  20.684  1.00  0.00     0.166 HD
ATOM     15  O   UNL A   1      33.197  25.498  20.209  1.00  0.00    -0.248 OA
ATOM     16  N   UNL A   1      32.875  25.953  22.386  1.00  0.00    -0.306 N 
ATOM     17  H   UNL A   1      32.788  26.824  21.937  1.00  0.00     0.171 HD
BRANCH  16  18
ATOM     18  C   UNL A   1      32.761  26.291  23.820  1.00  0.00     0.064 A 
ATOM     19  C   UNL A   1      33.469  26.026  25.071  1.00  0.00    -0.026 A 
ATOM     20  C   UNL A   1      31.707  27.257  23.952  1.00  0.00     0.064 A 
ATOM     21  C   UNL A   1      34.692  25.245  25.537  1.00  0.00     0.046 C 
ATOM     22  C   UNL A   1      33.049  26.711  26.259  1.00  0.00     0.005 A 
ATOM     23  C   UNL A   1      31.438  27.989  25.111  1.00  0.00     0.023 A 
ATOM     24  Cl  UNL A   1      30.620  27.602  22.620  1.00  0.00    -0.082 Cl
ATOM     25  C   UNL A   1      32.112  27.716  26.273  1.00  0.00     0.002 A 
ENDBRANCH  16  18
ENDBRANCH   8  12
ENDBRANCH   6   8
ENDBRANCH   5   6
ENDBRANCH   4   5
ENDBRANCH   3   4
ENDBRANCH   2   3
ENDBRANCH   1   2
BRANCH   1  26
ATOM     26  C   UNL A   1      39.339  20.945  25.738  1.00  0.00     0.261 C 
BRANCH  26  27
ATOM     27  O   UNL A   1      40.068  20.359  26.842  1.00  0.00    -0.460 OA
BRANCH  27  28
ATOM     28  C   UNL A   1      41.293  19.964  26.459  1.00  0.00     0.338 C 
ATOM     29  O   UNL A   1      41.513  18.963  25.759  1.00  0.00    -0.246 OA
BRANCH  28  30
ATOM     30  C   UNL A   1      42.307  21.025  26.640  1.00  0.00     0.060 A 
ATOM     31  C   UNL A   1      42.523  21.438  27.963  1.00  0.00     0.016 A 
ATOM     32  C   UNL A   1      42.986  21.653  25.594  1.00  0.00     0.016 A 
ATOM     33  C   UNL A   1      43.290  22.563  28.237  1.00  0.00     0.010 A 
ATOM     34  C   UNL A   1      43.749  22.804  25.869  1.00  0.00     0.010 A 
ATOM     35  C   UNL A   1      43.833  23.307  27.184  1.00  0.00    -0.014 A 
BRANCH  35  36
ATOM     36  C   UNL A   1      44.198  24.721  27.476  1.00  0.00     0.031 A 
ATOM     37  C   UNL A   1      45.633  25.143  27.265  1.00  0.00     0.074 A 
ATOM     38  C   UNL A   1      43.267  25.655  27.750  1.00  0.00     0.049 A 
ATOM     39  N   UNL A   1      46.168  26.337  27.325  1.00  0.00    -0.248 NA
ATOM     40  C   UNL A   1      46.591  24.078  26.924  1.00  0.00     0.031 C 
ATOM     41  C   UNL A   1      41.839  25.403  27.921  1.00  0.00     0.029 A 
ATOM     42  N   UNL A   1      43.392  27.014  27.911  1.00  0.00    -0.354 N 
ATOM     43  C   UNL A   1      47.513  26.167  27.016  1.00  0.00     0.074 A 
ATOM     44  C   UNL A   1      47.726  24.750  26.817  1.00  0.00     0.031 C 
ATOM     45  C   UNL A   1      41.219  26.570  28.173  1.00  0.00     0.029 A 
ATOM     46  C   UNL A   1      42.207  27.649  28.192  1.00  0.00     0.049 A 
ATOM     47  H   UNL A   1      44.251  27.488  27.834  1.00  0.00     0.167 HD
ATOM     48  C   UNL A   1      48.485  27.101  26.885  1.00  0.00     0.037 A 
ATOM     49  C   UNL A   1      41.948  28.950  28.446  1.00  0.00     0.037 A 
ATOM     50  C   UNL A   1      48.289  28.513  27.086  1.00  0.00     0.049 A 
ATOM     51  C   UNL A   1      43.063  29.964  28.373  1.00  0.00     0.074 A 
ATOM     52  C   UNL A   1      49.222  29.532  26.991  1.00  0.00     0.029 A 
ATOM     53  N   UNL A   1      47.085  29.109  27.427  1.00  0.00    -0.354 N 
ATOM     54  N   UNL A   1      44.327  29.787  28.071  1.00  0.00    -0.248 NA
ATOM     55  C   UNL A   1      42.709  31.362  28.664  1.00  0.00     0.031 C 
ATOM     56  C   UNL A   1      48.593  30.736  27.322  1.00  0.00     0.029 A 
ATOM     57  C   UNL A   1      47.255  30.477  27.566  1.00  0.00     0.049 A 
ATOM     58  H   UNL A   1      46.234  28.630  27.551  1.00  0.00     0.167 HD
ATOM     59  C   UNL A   1      44.911  31.052  28.113  1.00  0.00     0.074 A 
ATOM     60  C   UNL A   1      43.857  31.987  28.443  1.00  0.00     0.031 C 
ATOM     61  C   UNL A   1      46.204  31.406  27.900  1.00  0.00     0.037 A 
BRANCH  48  62
ATOM     62  C   UNL A   1      49.862  26.621  26.517  1.00  0.00     0.058 A 
ATOM     63  C   UNL A   1      50.772  26.174  27.490  1.00  0.00     0.135 A 
ATOM     64  C   UNL A   1      50.263  26.566  25.173  1.00  0.00     0.135 A 
ATOM     65  F   UNL A   1      50.448  26.224  28.792  1.00  0.00    -0.206 F 
ATOM     66  C   UNL A   1      52.036  25.708  27.144  1.00  0.00     0.059 A 
ATOM     67  C   UNL A   1      51.511  26.077  24.801  1.00  0.00     0.059 A 
ATOM     68  F   UNL A   1      49.435  26.984  24.203  1.00  0.00    -0.206 F 
ATOM     69  C   UNL A   1      52.395  25.660  25.796  1.00  0.00     0.060 A 
BRANCH  69  70
ATOM     70  S   UNL A   1      54.031  25.030  25.362  1.00  0.00     0.124 S 
ATOM     71  O   UNL A   1      54.399  25.910  24.257  1.00  0.00    -0.237 OA
ATOM     72  O   UNL A   1      54.778  25.223  26.601  1.00  0.00    -0.237 OA
ATOM     73  O   UNL A   1      53.775  23.640  24.998  1.00  0.00    -0.744 OA
ENDBRANCH  69  70
ENDBRANCH  48  62
BRANCH  49  74
ATOM     74  C   UNL A   1      40.571  29.374  28.826  1.00  0.00     0.058 A 
ATOM     75  C   UNL A   1      40.212  29.603  30.162  1.00  0.00     0.135 A 
ATOM     76  C   UNL A   1      39.574  29.523  27.848  1.00  0.00     0.135 A 
ATOM     77  F   UNL A   1      41.122  29.459  31.136  1.00  0.00    -0.206 F 
ATOM     78  C   UNL A   1      38.910  29.943  30.519  1.00  0.00     0.059 A 
ATOM     79  C   UNL A   1      38.275  29.892  28.175  1.00  0.00     0.059 A 
ATOM     80  F   UNL A   1      39.867  29.320  26.553  1.00  0.00    -0.206 F 
ATOM     81  C   UNL A   1      37.949  30.087  29.516  1.00  0.00     0.060 A 
BRANCH  81  82
ATOM     82  S   UNL A   1      36.272  30.570  29.983  1.00  0.00     0.124 S 
ATOM     83  O   UNL A   1      35.529  30.276  28.764  1.00  0.00    -0.237 OA
ATOM     84  O   UNL A   1      36.008  29.694  31.121  1.00  0.00    -0.237 OA
ATOM     85  O   UNL A   1      36.411  31.986  30.312  1.00  0.00    -0.744 OA
ENDBRANCH  81  82
ENDBRANCH  49  74
BRANCH  61  86
ATOM     86  C   UNL A   1      46.550  32.872  27.988  1.00  0.00     0.058 A 
ATOM     87  C   UNL A   1      46.358  33.746  26.906  1.00  0.00     0.135 A 
ATOM     88  C   UNL A   1      47.065  33.413  29.177  1.00  0.00     0.135 A 
ATOM     89  F   UNL A   1      45.867  33.284  25.744  1.00  0.00    -0.206 F 
ATOM     90  C   UNL A   1      46.711  35.090  26.982  1.00  0.00     0.059 A 
ATOM     91  C   UNL A   1      47.395  34.762  29.287  1.00  0.00     0.059 A 
ATOM     92  F   UNL A   1      47.253  32.632  30.253  1.00  0.00    -0.206 F 
ATOM     93  C   UNL A   1      47.235  35.589  28.176  1.00  0.00     0.060 A 
BRANCH  93  94
ATOM     94  S   UNL A   1      47.702  37.330  28.258  1.00  0.00     0.124 S 
ATOM     95  O   UNL A   1      49.155  37.251  28.153  1.00  0.00    -0.237 OA
ATOM     96  O   UNL A   1      47.013  37.896  27.101  1.00  0.00    -0.237 OA
ATOM     97  O   UNL A   1      47.189  37.760  29.556  1.00  0.00    -0.744 OA
ENDBRANCH  93  94
ENDBRANCH  61  86
ENDBRANCH  35  36
ENDBRANCH  28  30
ENDBRANCH  27  28
ENDBRANCH  26  27
ENDBRANCH   1  26
TORSDOF 20
ENDMDL
MODEL 2
REMARK VINA RESULT:     -10.6      6.450     11.834
REMARK SMILES CC[C@@](C)(NC(=O)Nc1c(C)cccc1Cl)C(=O)OCCOCCOC(=O)c1ccc(-c2c3nc(c(-c4c(F)cc(S(=O)(=O)[O-])cc4F)c4ccc([nH]4)c(-c4c(F)cc(S(=O)(=O)[O-])cc4F)c4nc(c(-c5c(F)cc(S(=O)(=O)[O-])cc5F)c5ccc2[nH]5)C=C4)C=C3)cc1
REMARK SMILES IDX 23 1 22 2 21 3 20 4 19 5 17 6 18 7 3 8 4 9 2 10 1 11 5 12
REMARK SMILES IDX 6 13 7 15 8 16 9 18 10 19 15 20 11 21 12 22 14 23 16 24
REMARK SMILES IDX 13 25 24 26 25 27 26 28 27 29 28 30 29 31 93 32 30 33 92 34
REMARK SMILES IDX 31 35 32 36 33 37 86 38 34 39 91 40 85 41 87 42 35 43 90 44
REMARK SMILES IDX 84 45 83 46 36 48 70 49 49 50 69 51 50 52 53 53 68 54 88 55
REMARK SMILES IDX 51 56 52 57 67 59 89 60 54 61 37 62 38 63 47 64 39 65 40 66
REMARK SMILES IDX 46 67 48 68 41 69 42 70 43 71 44 72 45 73 71 74 72 75 81 76
REMARK SMILES IDX 73 77 74 78 80 79 82 80 75 81 76 82 77 83 78 84 79 85 55 86
REMARK SMILES IDX 56 87 65 88 57 89 58 90 64 91 66 92 59 93 60 94 61 95 62 96
REMARK SMILES IDX 63 97
REMARK H PARENT 5 14 8 17 87 47 53 58
REMARK Flexibility Score: inf
ROOT
ATOM      1  C   UNL A   1      32.258  30.952  26.852  1.00  0.00     0.202 C 
ENDROOT
BRANCH   1   2
ATOM      2  O   UNL A   1      31.345  30.830  25.765  1.00  0.00    -0.374 OA
BRANCH   2   3
ATOM      3  C   UNL A   1      31.325  29.717  24.891  1.00  0.00     0.202 C 
BRANCH   3   4
ATOM      4  C   UNL A   1      32.469  28.736  25.385  1.00  0.00     0.261 C 
BRANCH   4   5
ATOM      5  O   UNL A   1      32.103  27.297  25.227  1.00  0.00    -0.462 OA
BRANCH   5   6
ATOM      6  C   UNL A   1      31.344  26.371  25.932  1.00  0.00     0.331 C 
ATOM      7  O   UNL A   1      31.315  26.326  27.159  1.00  0.00    -0.249 OA
BRANCH   6   8
ATOM      8  C   UNL A   1      30.473  25.328  24.976  1.00  0.00     0.136 C 
ATOM      9  C   UNL A   1      29.526  26.230  24.153  1.00  0.00     0.047 C 
BRANCH   8  10
ATOM     10  C   UNL A   1      30.708  24.087  23.998  1.00  0.00     0.037 C 
ATOM     11  C   UNL A   1      31.419  24.112  22.667  1.00  0.00     0.007 C 
ENDBRANCH   8  10
BRANCH   8  12
ATOM     12  N   UNL A   1      29.863  24.651  26.084  1.00  0.00    -0.322 N 
ATOM     13  C   UNL A   1      30.502  23.639  26.723  1.00  0.00     0.320 C 
ATOM     14  H   UNL A   1      28.966  24.924  26.384  1.00  0.00     0.166 HD
ATOM     15  O   UNL A   1      29.886  23.074  27.619  1.00  0.00    -0.248 OA
ATOM     16  N   UNL A   1      31.726  23.149  26.332  1.00  0.00    -0.306 N 
ATOM     17  H   UNL A   1      31.796  22.294  26.814  1.00  0.00     0.171 HD
BRANCH  16  18
ATOM     18  C   UNL A   1      32.991  23.222  25.572  1.00  0.00     0.064 A 
ATOM     19  C   UNL A   1      34.089  24.161  25.355  1.00  0.00    -0.026 A 
ATOM     20  C   UNL A   1      33.222  21.927  24.995  1.00  0.00     0.064 A 
ATOM     21  C   UNL A   1      34.483  25.565  25.798  1.00  0.00     0.046 C 
ATOM     22  C   UNL A   1      35.230  23.726  24.603  1.00  0.00     0.005 A 
ATOM     23  C   UNL A   1      34.416  21.526  24.391  1.00  0.00     0.023 A 
ATOM     24  Cl  UNL A   1      31.969  20.700  24.988  1.00  0.00    -0.082 Cl
ATOM     25  C   UNL A   1      35.428  22.429  24.193  1.00  0.00     0.002 A 
ENDBRANCH  16  18
ENDBRANCH   8  12
ENDBRANCH   6   8
ENDBRANCH   5   6
ENDBRANCH   4   5
ENDBRANCH   3   4
ENDBRANCH   2   3
ENDBRANCH   1   2
BRANCH   1  26
ATOM     26  C   UNL A   1      32.156  32.445  27.260  1.00  0.00     0.261 C 
BRANCH  26  27
ATOM     27  O   UNL A   1      33.490  32.963  27.477  1.00  0.00    -0.460 OA
BRANCH  27  28
ATOM     28  C   UNL A   1      33.469  34.029  28.293  1.00  0.00     0.338 C 
ATOM     29  O   UNL A   1      32.499  34.795  28.412  1.00  0.00    -0.246 OA
BRANCH  28  30
ATOM     30  C   UNL A   1      34.557  33.992  29.293  1.00  0.00     0.060 A 
ATOM     31  C   UNL A   1      35.845  34.240  28.797  1.00  0.00     0.016 A 
ATOM     32  C   UNL A   1      34.379  33.671  30.641  1.00  0.00     0.016 A 
ATOM     33  C   UNL A   1      36.963  34.027  29.592  1.00  0.00     0.010 A 
ATOM     34  C   UNL A   1      35.512  33.438  31.442  1.00  0.00     0.010 A 
ATOM     35  C   UNL A   1      36.807  33.536  30.893  1.00  0.00    -0.014 A 
BRANCH  35  36
ATOM     36  C   UNL A   1      37.988  32.865  31.506  1.00  0.00     0.031 A 
ATOM     37  C   UNL A   1      38.456  33.347  32.860  1.00  0.00     0.074 A 
ATOM     38  C   UNL A   1      38.529  31.752  30.977  1.00  0.00     0.049 A 
ATOM     39  N   UNL A   1      39.370  32.847  33.652  1.00  0.00    -0.248 NA
ATOM     40  C   UNL A   1      37.790  34.545  33.400  1.00  0.00     0.031 C 
ATOM     41  C   UNL A   1      38.138  31.139  29.710  1.00  0.00     0.029 A 
ATOM     42  N   UNL A   1      39.517  30.928  31.460  1.00  0.00    -0.354 N 
ATOM     43  C   UNL A   1      39.378  33.656  34.783  1.00  0.00     0.074 A 
ATOM     44  C   UNL A   1      38.413  34.709  34.556  1.00  0.00     0.031 C 
ATOM     45  C   UNL A   1      38.885  30.038  29.511  1.00  0.00     0.029 A 
ATOM     46  C   UNL A   1      39.815  29.875  30.629  1.00  0.00     0.049 A 
ATOM     47  H   UNL A   1      39.969  31.078  32.322  1.00  0.00     0.167 HD
ATOM     48  C   UNL A   1      40.102  33.528  35.920  1.00  0.00     0.037 A 
ATOM     49  C   UNL A   1      40.738  28.897  30.750  1.00  0.00     0.037 A 
ATOM     50  C   UNL A   1      41.070  32.490  36.157  1.00  0.00     0.049 A 
ATOM     51  C   UNL A   1      41.592  28.820  31.993  1.00  0.00     0.074 A 
ATOM     52  C   UNL A   1      41.864  32.293  37.275  1.00  0.00     0.029 A 
ATOM     53  N   UNL A   1      41.384  31.476  35.265  1.00  0.00    -0.354 N 
ATOM     54  N   UNL A   1      41.579  29.589  33.056  1.00  0.00    -0.248 NA
ATOM     55  C   UNL A   1      42.577  27.730  32.055  1.00  0.00     0.031 C 
ATOM     56  C   UNL A   1      42.691  31.190  37.039  1.00  0.00     0.029 A 
ATOM     57  C   UNL A   1      42.372  30.664  35.798  1.00  0.00     0.049 A 
ATOM     58  H   UNL A   1      40.966  31.352  34.382  1.00  0.00     0.167 HD
ATOM     59  C   UNL A   1      42.536  29.061  33.920  1.00  0.00     0.074 A 
ATOM     60  C   UNL A   1      43.089  27.894  33.267  1.00  0.00     0.031 C 
ATOM     61  C   UNL A   1      42.924  29.504  35.143  1.00  0.00     0.037 A 
BRANCH  48  62
ATOM     62  C   UNL A   1      39.884  34.554  36.999  1.00  0.00     0.058 A 
ATOM     63  C   UNL A   1      38.946  34.357  38.026  1.00  0.00     0.135 A 
ATOM     64  C   UNL A   1      40.652  35.730  37.030  1.00  0.00     0.135 A 
ATOM     65  F   UNL A   1      38.172  33.261  38.034  1.00  0.00    -0.206 F 
ATOM     66  C   UNL A   1      38.765  35.298  39.035  1.00  0.00     0.059 A 
ATOM     67  C   UNL A   1      40.507  36.670  38.045  1.00  0.00     0.059 A 
ATOM     68  F   UNL A   1      41.558  35.970  36.070  1.00  0.00    -0.206 F 
ATOM     69  C   UNL A   1      39.553  36.450  39.038  1.00  0.00     0.060 A 
BRANCH  69  70
ATOM     70  S   UNL A   1      39.321  37.649  40.367  1.00  0.00     0.124 S 
ATOM     71  O   UNL A   1      40.561  38.415  40.290  1.00  0.00    -0.237 OA
ATOM     72  O   UNL A   1      38.114  38.353  39.945  1.00  0.00    -0.237 OA
ATOM     73  O   UNL A   1      39.173  36.815  41.556  1.00  0.00    -0.744 OA
ENDBRANCH  69  70
ENDBRANCH  48  62
BRANCH  49  74
ATOM     74  C   UNL A   1      40.931  27.916  29.646  1.00  0.00     0.058 A 
ATOM     75  C   UNL A   1      40.042  26.850  29.442  1.00  0.00     0.135 A 
ATOM     76  C   UNL A   1      42.041  28.012  28.790  1.00  0.00     0.135 A 
ATOM     77  F   UNL A   1      38.976  26.703  30.242  1.00  0.00    -0.206 F 
ATOM     78  C   UNL A   1      40.257  25.902  28.445  1.00  0.00     0.059 A 
ATOM     79  C   UNL A   1      42.260  27.097  27.768  1.00  0.00     0.059 A 
ATOM     80  F   UNL A   1      42.919  29.017  28.938  1.00  0.00    -0.206 F 
ATOM     81  C   UNL A   1      41.369  26.036  27.611  1.00  0.00     0.060 A 
BRANCH  81  82
ATOM     82  S   UNL A   1      41.617  24.826  26.293  1.00  0.00     0.124 S 
ATOM     83  O   UNL A   1      41.542  25.666  25.104  1.00  0.00    -0.237 OA
ATOM     84  O   UNL A   1      42.936  24.290  26.616  1.00  0.00    -0.237 OA
ATOM     85  O   UNL A   1      40.508  23.895  26.481  1.00  0.00    -0.744 OA
ENDBRANCH  81  82
ENDBRANCH  49  74
BRANCH  61  86
ATOM     86  C   UNL A   1      43.980  28.709  35.871  1.00  0.00     0.058 A 
ATOM     87  C   UNL A   1      43.652  27.615  36.689  1.00  0.00     0.135 A 
ATOM     88  C   UNL A   1      45.339  29.036  35.738  1.00  0.00     0.135 A 
ATOM     89  F   UNL A   1      42.368  27.256  36.853  1.00  0.00    -0.206 F 
ATOM     90  C   UNL A   1      44.626  26.907  37.386  1.00  0.00     0.059 A 
ATOM     91  C   UNL A   1      46.335  28.320  36.399  1.00  0.00     0.059 A 
ATOM     92  F   UNL A   1      45.717  30.060  34.954  1.00  0.00    -0.206 F 
ATOM     93  C   UNL A   1      45.966  27.271  37.239  1.00  0.00     0.060 A 
BRANCH  93  94
ATOM     94  S   UNL A   1      47.220  26.354  38.159  1.00  0.00     0.124 S 
ATOM     95  O   UNL A   1      47.370  25.157  37.338  1.00  0.00    -0.237 OA
ATOM     96  O   UNL A   1      48.354  27.275  38.149  1.00  0.00    -0.237 OA
ATOM     97  O   UNL A   1      46.601  26.146  39.464  1.00  0.00    -0.744 OA
ENDBRANCH  93  94
ENDBRANCH  61  86
ENDBRANCH  35  36
ENDBRANCH  28  30
ENDBRANCH  27  28
ENDBRANCH  26  27
ENDBRANCH   1  26
TORSDOF 20
ENDMDL
MODEL 3
REMARK VINA RESULT:     -10.5      3.538      8.028
REMARK SMILES CC[C@@](C)(NC(=O)Nc1c(C)cccc1Cl)C(=O)OCCOCCOC(=O)c1ccc(-c2c3nc(c(-c4c(F)cc(S(=O)(=O)[O-])cc4F)c4ccc([nH]4)c(-c4c(F)cc(S(=O)(=O)[O-])cc4F)c4nc(c(-c5c(F)cc(S(=O)(=O)[O-])cc5F)c5ccc2[nH]5)C=C4)C=C3)cc1
REMARK SMILES IDX 23 1 22 2 21 3 20 4 19 5 17 6 18 7 3 8 4 9 2 10 1 11 5 12
REMARK SMILES IDX 6 13 7 15 8 16 9 18 10 19 15 20 11 21 12 22 14 23 16 24
REMARK SMILES IDX 13 25 24 26 25 27 26 28 27 29 28 30 29 31 93 32 30 33 92 34
REMARK SMILES IDX 31 35 32 36 33 37 86 38 34 39 91 40 85 41 87 42 35 43 90 44
REMARK SMILES IDX 84 45 83 46 36 48 70 49 49 50 69 51 50 52 53 53 68 54 88 55
REMARK SMILES IDX 51 56 52 57 67 59 89 60 54 61 37 62 38 63 47 64 39 65 40 66
REMARK SMILES IDX 46 67 48 68 41 69 42 70 43 71 44 72 45 73 71 74 72 75 81 76
REMARK SMILES IDX 73 77 74 78 80 79 82 80 75 81 76 82 77 83 78 84 79 85 55 86
REMARK SMILES IDX 56 87 65 88 57 89 58 90 64 91 66 92 59 93 60 94 61 95 62 96
REMARK SMILES IDX 63 97
REMARK H PARENT 5 14 8 17 87 47 53 58
REMARK Flexibility Score: inf
ROOT
ATOM      1  C   UNL A   1      31.782  30.575  25.964  1.00  0.00     0.202 C 
ENDROOT
BRANCH   1   2
ATOM      2  O   UNL A   1      32.483  29.567  25.241  1.00  0.00    -0.374 OA
BRANCH   2   3
ATOM      3  C   UNL A   1      32.102  28.204  25.247  1.00  0.00     0.202 C 
BRANCH   3   4
ATOM      4  C   UNL A   1      33.373  27.380  24.779  1.00  0.00     0.261 C 
BRANCH   4   5
ATOM      5  O   UNL A   1      33.255  25.921  25.076  1.00  0.00    -0.462 OA
BRANCH   5   6
ATOM      6  C   UNL A   1      32.242  25.056  25.474  1.00  0.00     0.331 C 
ATOM      7  O   UNL A   1      31.844  24.983  26.633  1.00  0.00    -0.249 OA
BRANCH   6   8
ATOM      8  C   UNL A   1      31.612  24.128  24.249  1.00  0.00     0.136 C 
ATOM      9  C   UNL A   1      31.158  25.138  23.170  1.00  0.00     0.047 C 
BRANCH   8  10
ATOM     10  C   UNL A   1      31.982  22.838  23.384  1.00  0.00     0.037 C 
ATOM     11  C   UNL A   1      32.960  22.773  22.236  1.00  0.00     0.007 C 
ENDBRANCH   8  10
BRANCH   8  12
ATOM     12  N   UNL A   1      30.559  23.584  25.057  1.00  0.00    -0.322 N 
ATOM     13  C   UNL A   1      30.776  22.512  25.860  1.00  0.00     0.320 C 
ATOM     14  H   UNL A   1      29.665  23.994  25.029  1.00  0.00     0.166 HD
ATOM     15  O   UNL A   1      29.808  22.073  26.471  1.00  0.00    -0.248 OA
ATOM     16  N   UNL A   1      31.973  21.836  25.914  1.00  0.00    -0.306 N 
ATOM     17  H   UNL A   1      31.742  20.996  26.372  1.00  0.00     0.171 HD
BRANCH  16  18
ATOM     18  C   UNL A   1      33.420  21.699  25.649  1.00  0.00     0.064 A 
ATOM     19  C   UNL A   1      34.662  22.411  25.943  1.00  0.00    -0.026 A 
ATOM     20  C   UNL A   1      33.624  20.421  25.026  1.00  0.00     0.064 A 
ATOM     21  C   UNL A   1      35.098  23.678  26.668  1.00  0.00     0.046 C 
ATOM     22  C   UNL A   1      35.908  21.801  25.578  1.00  0.00     0.005 A 
ATOM     23  C   UNL A   1      34.871  19.826  24.822  1.00  0.00     0.023 A 
ATOM     24  Cl  UNL A   1      32.273  19.474  24.435  1.00  0.00    -0.082 Cl
ATOM     25  C   UNL A   1      36.022  20.518  25.099  1.00  0.00     0.002 A 
ENDBRANCH  16  18
ENDBRANCH   8  12
ENDBRANCH   6   8
ENDBRANCH   5   6
ENDBRANCH   4   5
ENDBRANCH   3   4
ENDBRANCH   2   3
ENDBRANCH   1   2
BRANCH   1  26
ATOM     26  C   UNL A   1      32.601  30.735  27.272  1.00  0.00     0.261 C 
BRANCH  26  27
ATOM     27  O   UNL A   1      34.008  30.594  26.965  1.00  0.00    -0.460 OA
BRANCH  27  28
ATOM     28  C   UNL A   1      34.771  30.963  28.006  1.00  0.00     0.338 C 
ATOM     29  O   UNL A   1      34.374  31.678  28.940  1.00  0.00    -0.246 OA
BRANCH  28  30
ATOM     30  C   UNL A   1      35.999  30.149  28.118  1.00  0.00     0.060 A 
ATOM     31  C   UNL A   1      36.299  29.677  29.406  1.00  0.00     0.016 A 
ATOM     32  C   UNL A   1      36.874  29.889  27.061  1.00  0.00     0.016 A 
ATOM     33  C   UNL A   1      37.525  29.084  29.675  1.00  0.00     0.010 A 
ATOM     34  C   UNL A   1      38.124  29.304  27.336  1.00  0.00     0.010 A 
ATOM     35  C   UNL A   1      38.482  28.977  28.660  1.00  0.00    -0.014 A 
BRANCH  35  36
ATOM     36  C   UNL A   1      39.900  28.813  29.086  1.00  0.00     0.031 A 
ATOM     37  C   UNL A   1      40.590  27.504  28.776  1.00  0.00     0.074 A 
ATOM     38  C   UNL A   1      40.621  29.841  29.573  1.00  0.00     0.049 A 
ATOM     39  N   UNL A   1      41.846  27.169  28.927  1.00  0.00    -0.248 NA
ATOM     40  C   UNL A   1      39.752  26.437  28.204  1.00  0.00     0.031 C 
ATOM     41  C   UNL A   1      40.104  31.176  29.864  1.00  0.00     0.029 A 
ATOM     42  N   UNL A   1      41.956  29.920  29.889  1.00  0.00    -0.354 N 
ATOM     43  C   UNL A   1      41.950  25.864  28.457  1.00  0.00     0.074 A 
ATOM     44  C   UNL A   1      40.622  25.450  28.061  1.00  0.00     0.031 C 
ATOM     45  C   UNL A   1      41.110  31.941  30.325  1.00  0.00     0.029 A 
ATOM     46  C   UNL A   1      42.338  31.147  30.374  1.00  0.00     0.049 A 
ATOM     47  H   UNL A   1      42.580  29.166  29.780  1.00  0.00     0.167 HD
ATOM     48  C   UNL A   1      43.050  25.083  28.340  1.00  0.00     0.037 A 
ATOM     49  C   UNL A   1      43.539  31.581  30.815  1.00  0.00     0.037 A 
ATOM     50  C   UNL A   1      44.376  25.478  28.736  1.00  0.00     0.049 A 
ATOM     51  C   UNL A   1      44.737  30.665  30.750  1.00  0.00     0.074 A 
ATOM     52  C   UNL A   1      45.548  24.744  28.671  1.00  0.00     0.029 A 
ATOM     53  N   UNL A   1      44.710  26.711  29.277  1.00  0.00    -0.354 N 
ATOM     54  N   UNL A   1      44.819  29.437  30.294  1.00  0.00    -0.248 NA
ATOM     55  C   UNL A   1      46.012  31.202  31.249  1.00  0.00     0.031 C 
ATOM     56  C   UNL A   1      46.581  25.514  29.215  1.00  0.00     0.029 A 
ATOM     57  C   UNL A   1      46.065  26.750  29.567  1.00  0.00     0.049 A 
ATOM     58  H   UNL A   1      44.078  27.449  29.431  1.00  0.00     0.167 HD
ATOM     59  C   UNL A   1      46.155  29.067  30.430  1.00  0.00     0.074 A 
ATOM     60  C   UNL A   1      46.849  30.208  30.986  1.00  0.00     0.031 C 
ATOM     61  C   UNL A   1      46.753  27.887  30.125  1.00  0.00     0.037 A 
BRANCH  48  62
ATOM     62  C   UNL A   1      42.862  23.703  27.770  1.00  0.00     0.058 A 
ATOM     63  C   UNL A   1      42.522  22.609  28.582  1.00  0.00     0.135 A 
ATOM     64  C   UNL A   1      42.981  23.481  26.388  1.00  0.00     0.135 A 
ATOM     65  F   UNL A   1      42.414  22.761  29.911  1.00  0.00    -0.206 F 
ATOM     66  C   UNL A   1      42.325  21.339  28.047  1.00  0.00     0.059 A 
ATOM     67  C   UNL A   1      42.761  22.226  25.828  1.00  0.00     0.059 A 
ATOM     68  F   UNL A   1      43.309  24.491  25.567  1.00  0.00    -0.206 F 
ATOM     69  C   UNL A   1      42.443  21.159  26.668  1.00  0.00     0.060 A 
BRANCH  69  70
ATOM     70  S   UNL A   1      42.162  19.511  25.987  1.00  0.00     0.124 S 
ATOM     71  O   UNL A   1      40.716  19.520  25.788  1.00  0.00    -0.237 OA
ATOM     72  O   UNL A   1      42.969  19.534  24.771  1.00  0.00    -0.237 OA
ATOM     73  O   UNL A   1      42.644  18.621  27.039  1.00  0.00    -0.744 OA
ENDBRANCH  69  70
ENDBRANCH  48  62
BRANCH  49  74
ATOM     74  C   UNL A   1      43.670  32.948  31.390  1.00  0.00     0.058 A 
ATOM     75  C   UNL A   1      43.539  33.186  32.766  1.00  0.00     0.135 A 
ATOM     76  C   UNL A   1      43.898  34.055  30.556  1.00  0.00     0.135 A 
ATOM     77  F   UNL A   1      43.305  32.165  33.604  1.00  0.00    -0.206 F 
ATOM     78  C   UNL A   1      43.605  34.472  33.294  1.00  0.00     0.059 A 
ATOM     79  C   UNL A   1      43.999  35.346  31.062  1.00  0.00     0.059 A 
ATOM     80  F   UNL A   1      44.037  33.883  29.232  1.00  0.00    -0.206 F 
ATOM     81  C   UNL A   1      43.838  35.546  32.432  1.00  0.00     0.060 A 
BRANCH  81  82
ATOM     82  S   UNL A   1      43.965  37.208  33.129  1.00  0.00     0.124 S 
ATOM     83  O   UNL A   1      45.253  37.145  33.808  1.00  0.00    -0.237 OA
ATOM     84  O   UNL A   1      43.910  38.045  31.935  1.00  0.00    -0.237 OA
ATOM     85  O   UNL A   1      42.796  37.296  34.000  1.00  0.00    -0.744 OA
ENDBRANCH  81  82
ENDBRANCH  49  74
BRANCH  61  86
ATOM     86  C   UNL A   1      48.239  27.777  30.359  1.00  0.00     0.058 A 
ATOM     87  C   UNL A   1      49.172  28.064  29.350  1.00  0.00     0.135 A 
ATOM     88  C   UNL A   1      48.738  27.393  31.615  1.00  0.00     0.135 A 
ATOM     89  F   UNL A   1      48.753  28.438  28.130  1.00  0.00    -0.206 F 
ATOM     90  C   UNL A   1      50.541  27.927  29.561  1.00  0.00     0.059 A 
ATOM     91  C   UNL A   1      50.105  27.281  31.859  1.00  0.00     0.059 A 
ATOM     92  F   UNL A   1      47.896  27.123  32.626  1.00  0.00    -0.206 F 
ATOM     93  C   UNL A   1      50.998  27.529  30.818  1.00  0.00     0.060 A 
BRANCH  93  94
ATOM     94  S   UNL A   1      52.775  27.341  31.076  1.00  0.00     0.124 S 
ATOM     95  O   UNL A   1      53.316  28.234  30.056  1.00  0.00    -0.237 OA
ATOM     96  O   UNL A   1      52.941  27.784  32.457  1.00  0.00    -0.237 OA
ATOM     97  O   UNL A   1      53.004  25.918  30.849  1.00  0.00    -0.744 OA
ENDBRANCH  93  94
ENDBRANCH  61  86
ENDBRANCH  35  36
ENDBRANCH  28  30
ENDBRANCH  27  28
ENDBRANCH  26  27
ENDBRANCH   1  26
TORSDOF 20
ENDMDL
