MODEL 1
REMARK VINA RESULT:     -10.4      0.000      0.000
REMARK SMILES COC(=O)c1nc(C)cc(N[C@@H]2C=C[C@H](C(=O)OCCOCCOC(=O)c3ccc(-c4c5nc(c(-c6c(F)cc(S(=O)(=O)[O-])cc6F)c6ccc([nH]6)c(-c6c(F)cc(S(=O)(=O)[O-])cc6F)c6nc(c(-c7c(F)cc(S(=O)(=O)[O-])cc7F)c7ccc4[nH]7)C=C6)C=C5)cc3)C2)n1
REMARK SMILES IDX 20 1 19 2 18 3 16 4 17 5 15 6 12 7 13 8 93 9 14 10 11 11
REMARK SMILES IDX 10 13 5 14 6 15 94 16 7 17 8 18 9 19 3 20 4 21 2 22 1 23
REMARK SMILES IDX 21 24 22 25 23 26 24 27 25 28 26 29 27 30 28 31 92 32 29 33
REMARK SMILES IDX 91 34 30 35 31 36 32 37 85 38 33 39 90 40 84 41 86 42 34 43
REMARK SMILES IDX 89 44 83 45 82 46 35 48 69 49 48 50 68 51 49 52 52 53 67 54
REMARK SMILES IDX 87 55 50 56 51 57 66 59 88 60 53 61 36 62 37 63 46 64 38 65
REMARK SMILES IDX 39 66 45 67 47 68 40 69 41 70 42 71 43 72 44 73 70 74 71 75
REMARK SMILES IDX 80 76 72 77 73 78 79 79 81 80 74 81 75 82 76 83 77 84 78 85
REMARK SMILES IDX 54 86 55 87 64 88 56 89 57 90 63 91 65 92 58 93 59 94 60 95
REMARK SMILES IDX 61 96 62 97
REMARK H PARENT 11 12 86 47 52 58
REMARK Flexibility Score: inf
ROOT
ATOM      1  C   UNL A   1      32.114  30.454  26.823  1.00  0.00     0.202 C 
ENDROOT
BRANCH   1   2
ATOM      2  C   UNL A   1      31.820  29.001  26.430  1.00  0.00     0.261 C 
BRANCH   2   3
ATOM      3  O   UNL A   1      31.362  28.871  25.077  1.00  0.00    -0.463 OA
BRANCH   3   4
ATOM      4  C   UNL A   1      31.529  27.639  24.517  1.00  0.00     0.312 C 
ATOM      5  O   UNL A   1      31.512  26.582  25.139  1.00  0.00    -0.252 OA
BRANCH   4   6
ATOM      6  C   UNL A   1      31.942  27.746  23.051  1.00  0.00     0.124 C 
ATOM      7  C   UNL A   1      32.403  25.765  21.660  1.00  0.00     0.104 C 
ATOM      8  C   UNL A   1      33.653  26.349  22.201  1.00  0.00    -0.006 C 
ATOM      9  C   UNL A   1      31.304  26.744  22.078  1.00  0.00     0.048 C 
ATOM     10  C   UNL A   1      33.411  27.456  22.912  1.00  0.00    -0.014 C 
BRANCH   7  11
ATOM     11  N   UNL A   1      32.201  24.372  22.003  1.00  0.00    -0.364 N 
ATOM     12  H   UNL A   1      31.375  23.981  21.638  1.00  0.00     0.162 HD
BRANCH  11  13
ATOM     13  C   UNL A   1      32.967  23.492  22.755  1.00  0.00     0.131 A 
ATOM     14  C   UNL A   1      34.881  22.738  23.769  1.00  0.00     0.241 A 
ATOM     15  N   UNL A   1      34.279  21.674  24.347  1.00  0.00    -0.227 NA
ATOM     16  N   UNL A   1      34.279  23.663  22.971  1.00  0.00    -0.205 NA
ATOM     17  C   UNL A   1      32.963  21.561  24.165  1.00  0.00     0.044 A 
ATOM     18  C   UNL A   1      32.273  20.461  24.911  1.00  0.00     0.067 C 
ATOM     19  C   UNL A   1      32.269  22.455  23.378  1.00  0.00     0.070 A 
BRANCH  14  20
ATOM     20  C   UNL A   1      36.350  22.819  24.057  1.00  0.00     0.376 C 
ATOM     21  O   UNL A   1      37.134  21.899  23.853  1.00  0.00    -0.242 OA
BRANCH  20  22
ATOM     22  O   UNL A   1      36.658  23.976  24.699  1.00  0.00    -0.463 OA
ATOM     23  C   UNL A   1      37.286  23.772  25.966  1.00  0.00     0.282 C 
ENDBRANCH  20  22
ENDBRANCH  14  20
ENDBRANCH  11  13
ENDBRANCH   7  11
ENDBRANCH   4   6
ENDBRANCH   3   4
ENDBRANCH   2   3
ENDBRANCH   1   2
BRANCH   1  24
ATOM     24  O   UNL A   1      33.436  30.930  26.572  1.00  0.00    -0.374 OA
BRANCH  24  25
ATOM     25  C   UNL A   1      34.392  30.497  27.539  1.00  0.00     0.202 C 
BRANCH  25  26
ATOM     26  C   UNL A   1      34.737  31.565  28.569  1.00  0.00     0.261 C 
BRANCH  26  27
ATOM     27  O   UNL A   1      36.148  31.789  28.491  1.00  0.00    -0.460 OA
BRANCH  27  28
ATOM     28  C   UNL A   1      36.796  31.503  29.646  1.00  0.00     0.338 C 
ATOM     29  O   UNL A   1      36.402  31.727  30.772  1.00  0.00    -0.246 OA
BRANCH  28  30
ATOM     30  C   UNL A   1      37.981  30.673  29.325  1.00  0.00     0.060 A 
ATOM     31  C   UNL A   1      38.877  30.414  30.370  1.00  0.00     0.016 A 
ATOM     32  C   UNL A   1      38.183  30.099  28.062  1.00  0.00     0.016 A 
ATOM     33  C   UNL A   1      40.018  29.655  30.136  1.00  0.00     0.010 A 
ATOM     34  C   UNL A   1      39.325  29.333  27.828  1.00  0.00     0.010 A 
ATOM     35  C   UNL A   1      40.270  29.160  28.850  1.00  0.00    -0.014 A 
BRANCH  35  36
ATOM     36  C   UNL A   1      41.636  28.704  28.513  1.00  0.00     0.031 A 
ATOM     37  C   UNL A   1      42.732  29.735  28.533  1.00  0.00     0.074 A 
ATOM     38  C   UNL A   1      41.897  27.413  28.244  1.00  0.00     0.049 A 
ATOM     39  N   UNL A   1      43.996  29.608  28.236  1.00  0.00    -0.248 NA
ATOM     40  C   UNL A   1      42.345  31.098  28.941  1.00  0.00     0.031 C 
ATOM     41  C   UNL A   1      40.913  26.331  28.239  1.00  0.00     0.029 A 
ATOM     42  N   UNL A   1      43.077  26.798  27.915  1.00  0.00    -0.354 N 
ATOM     43  C   UNL A   1      44.553  30.868  28.422  1.00  0.00     0.074 A 
ATOM     44  C   UNL A   1      43.486  31.757  28.817  1.00  0.00     0.031 C 
ATOM     45  C   UNL A   1      41.531  25.184  27.907  1.00  0.00     0.029 A 
ATOM     46  C   UNL A   1      42.943  25.456  27.648  1.00  0.00     0.049 A 
ATOM     47  H   UNL A   1      43.938  27.273  27.873  1.00  0.00     0.167 HD
ATOM     48  C   UNL A   1      45.845  31.244  28.294  1.00  0.00     0.037 A 
ATOM     49  C   UNL A   1      43.859  24.565  27.222  1.00  0.00     0.037 A 
ATOM     50  C   UNL A   1      46.899  30.348  27.905  1.00  0.00     0.049 A 
ATOM     51  C   UNL A   1      45.282  25.026  27.019  1.00  0.00     0.074 A 
ATOM     52  C   UNL A   1      48.243  30.621  27.735  1.00  0.00     0.029 A 
ATOM     53  N   UNL A   1      46.722  29.000  27.629  1.00  0.00    -0.354 N 
ATOM     54  N   UNL A   1      45.799  26.219  27.205  1.00  0.00    -0.248 NA
ATOM     55  C   UNL A   1      46.248  24.021  26.553  1.00  0.00     0.031 C 
ATOM     56  C   UNL A   1      48.874  29.446  27.315  1.00  0.00     0.029 A 
ATOM     57  C   UNL A   1      47.932  28.430  27.274  1.00  0.00     0.049 A 
ATOM     58  H   UNL A   1      45.865  28.520  27.677  1.00  0.00     0.167 HD
ATOM     59  C   UNL A   1      47.154  26.099  26.909  1.00  0.00     0.074 A 
ATOM     60  C   UNL A   1      47.378  24.715  26.543  1.00  0.00     0.031 C 
ATOM     61  C   UNL A   1      48.126  27.044  26.933  1.00  0.00     0.037 A 
BRANCH  48  62
ATOM     62  C   UNL A   1      46.186  32.682  28.565  1.00  0.00     0.058 A 
ATOM     63  C   UNL A   1      46.599  33.112  29.835  1.00  0.00     0.135 A 
ATOM     64  C   UNL A   1      46.140  33.633  27.533  1.00  0.00     0.135 A 
ATOM     65  F   UNL A   1      46.632  32.251  30.865  1.00  0.00    -0.206 F 
ATOM     66  C   UNL A   1      46.949  34.437  30.075  1.00  0.00     0.059 A 
ATOM     67  C   UNL A   1      46.510  34.956  27.744  1.00  0.00     0.059 A 
ATOM     68  F   UNL A   1      45.737  33.275  26.304  1.00  0.00    -0.206 F 
ATOM     69  C   UNL A   1      46.907  35.351  29.021  1.00  0.00     0.060 A 
BRANCH  69  70
ATOM     70  S   UNL A   1      47.402  37.057  29.340  1.00  0.00     0.124 S 
ATOM     71  O   UNL A   1      47.007  37.714  28.097  1.00  0.00    -0.237 OA
ATOM     72  O   UNL A   1      46.608  37.396  30.516  1.00  0.00    -0.237 OA
ATOM     73  O   UNL A   1      48.841  36.958  29.565  1.00  0.00    -0.744 OA
ENDBRANCH  69  70
ENDBRANCH  48  62
BRANCH  49  74
ATOM     74  C   UNL A   1      43.466  23.159  26.930  1.00  0.00     0.058 A 
ATOM     75  C   UNL A   1      43.135  22.264  27.959  1.00  0.00     0.135 A 
ATOM     76  C   UNL A   1      43.450  22.672  25.613  1.00  0.00     0.135 A 
ATOM     77  F   UNL A   1      43.142  22.677  29.235  1.00  0.00    -0.206 F 
ATOM     78  C   UNL A   1      42.833  20.931  27.697  1.00  0.00     0.059 A 
ATOM     79  C   UNL A   1      43.124  21.351  25.324  1.00  0.00     0.059 A 
ATOM     80  F   UNL A   1      43.745  23.489  24.590  1.00  0.00    -0.206 F 
ATOM     81  C   UNL A   1      42.834  20.482  26.376  1.00  0.00     0.060 A 
BRANCH  81  82
ATOM     82  S   UNL A   1      42.434  18.753  26.043  1.00  0.00     0.124 S 
ATOM     83  O   UNL A   1      42.731  18.131  27.327  1.00  0.00    -0.237 OA
ATOM     84  O   UNL A   1      41.022  18.830  25.679  1.00  0.00    -0.237 OA
ATOM     85  O   UNL A   1      43.337  18.405  24.948  1.00  0.00    -0.744 OA
ENDBRANCH  81  82
ENDBRANCH  49  74
BRANCH  61  86
ATOM     86  C   UNL A   1      49.525  26.607  26.601  1.00  0.00     0.058 A 
ATOM     87  C   UNL A   1      50.407  26.143  27.587  1.00  0.00     0.135 A 
ATOM     88  C   UNL A   1      49.963  26.593  25.266  1.00  0.00     0.135 A 
ATOM     89  F   UNL A   1      50.036  26.139  28.878  1.00  0.00    -0.206 F 
ATOM     90  C   UNL A   1      51.685  25.701  27.266  1.00  0.00     0.059 A 
ATOM     91  C   UNL A   1      51.227  26.128  24.919  1.00  0.00     0.059 A 
ATOM     92  F   UNL A   1      49.152  27.013  24.283  1.00  0.00    -0.206 F 
ATOM     93  C   UNL A   1      52.086  25.696  25.928  1.00  0.00     0.060 A 
BRANCH  93  94
ATOM     94  S   UNL A   1      53.735  25.085  25.522  1.00  0.00     0.124 S 
ATOM     95  O   UNL A   1      54.298  26.221  24.799  1.00  0.00    -0.237 OA
ATOM     96  O   UNL A   1      54.306  24.825  26.840  1.00  0.00    -0.237 OA
ATOM     97  O   UNL A   1      53.468  23.897  24.716  1.00  0.00    -0.744 OA
ENDBRANCH  93  94
ENDBRANCH  61  86
ENDBRANCH  35  36
ENDBRANCH  28  30
ENDBRANCH  27  28
ENDBRANCH  26  27
ENDBRANCH  25  26
ENDBRANCH  24  25
ENDBRANCH   1  24
TORSDOF 21
ENDMDL
MODEL 2
REMARK VINA RESULT:     -10.4      6.489     11.749
REMARK SMILES COC(=O)c1nc(C)cc(N[C@@H]2C=C[C@H](C(=O)OCCOCCOC(=O)c3ccc(-c4c5nc(c(-c6c(F)cc(S(=O)(=O)[O-])cc6F)c6ccc([nH]6)c(-c6c(F)cc(S(=O)(=O)[O-])cc6F)c6nc(c(-c7c(F)cc(S(=O)(=O)[O-])cc7F)c7ccc4[nH]7)C=C6)C=C5)cc3)C2)n1
REMARK SMILES IDX 20 1 19 2 18 3 16 4 17 5 15 6 12 7 13 8 93 9 14 10 11 11
REMARK SMILES IDX 10 13 5 14 6 15 94 16 7 17 8 18 9 19 3 20 4 21 2 22 1 23
REMARK SMILES IDX 21 24 22 25 23 26 24 27 25 28 26 29 27 30 28 31 92 32 29 33
REMARK SMILES IDX 91 34 30 35 31 36 32 37 85 38 33 39 90 40 84 41 86 42 34 43
REMARK SMILES IDX 89 44 83 45 82 46 35 48 69 49 48 50 68 51 49 52 52 53 67 54
REMARK SMILES IDX 87 55 50 56 51 57 66 59 88 60 53 61 36 62 37 63 46 64 38 65
REMARK SMILES IDX 39 66 45 67 47 68 40 69 41 70 42 71 43 72 44 73 70 74 71 75
REMARK SMILES IDX 80 76 72 77 73 78 79 79 81 80 74 81 75 82 76 83 77 84 78 85
REMARK SMILES IDX 54 86 55 87 64 88 56 89 57 90 63 91 65 92 58 93 59 94 60 95
REMARK SMILES IDX 61 96 62 97
REMARK H PARENT 11 12 86 47 52 58
REMARK Flexibility Score: inf
ROOT
ATOM      1  C   UNL A   1      39.218  21.365  25.918  1.00  0.00     0.202 C 
ENDROOT
BRANCH   1   2
ATOM      2  C   UNL A   1      38.039  22.322  25.709  1.00  0.00     0.261 C 
BRANCH   2   3
ATOM      3  O   UNL A   1      37.220  21.960  24.587  1.00  0.00    -0.463 OA
BRANCH   3   4
ATOM      4  C   UNL A   1      36.017  22.599  24.510  1.00  0.00     0.312 C 
ATOM      5  O   UNL A   1      35.876  23.816  24.450  1.00  0.00    -0.252 OA
BRANCH   4   6
ATOM      6  C   UNL A   1      34.857  21.627  24.710  1.00  0.00     0.124 C 
ATOM      7  C   UNL A   1      32.699  22.324  25.672  1.00  0.00     0.104 C 
ATOM      8  C   UNL A   1      33.576  21.710  26.697  1.00  0.00    -0.006 C 
ATOM      9  C   UNL A   1      33.455  22.140  24.355  1.00  0.00     0.048 C 
ATOM     10  C   UNL A   1      34.726  21.281  26.167  1.00  0.00    -0.014 C 
BRANCH   7  11
ATOM     11  N   UNL A   1      32.262  23.668  25.993  1.00  0.00    -0.364 N 
ATOM     12  H   UNL A   1      31.799  23.747  26.857  1.00  0.00     0.162 HD
BRANCH  11  13
ATOM     13  C   UNL A   1      32.382  24.862  25.296  1.00  0.00     0.131 A 
ATOM     14  C   UNL A   1      31.934  26.337  23.598  1.00  0.00     0.241 A 
ATOM     15  N   UNL A   1      32.688  27.330  24.122  1.00  0.00    -0.227 NA
ATOM     16  N   UNL A   1      31.753  25.099  24.135  1.00  0.00    -0.205 NA
ATOM     17  C   UNL A   1      33.253  27.089  25.305  1.00  0.00     0.044 A 
ATOM     18  C   UNL A   1      33.979  28.229  25.949  1.00  0.00     0.067 C 
ATOM     19  C   UNL A   1      33.119  25.866  25.928  1.00  0.00     0.070 A 
BRANCH  14  20
ATOM     20  C   UNL A   1      31.297  26.702  22.290  1.00  0.00     0.376 C 
ATOM     21  O   UNL A   1      30.586  27.688  22.132  1.00  0.00    -0.242 OA
BRANCH  20  22
ATOM     22  O   UNL A   1      31.492  25.727  21.365  1.00  0.00    -0.463 OA
ATOM     23  C   UNL A   1      32.785  25.773  20.757  1.00  0.00     0.282 C 
ENDBRANCH  20  22
ENDBRANCH  14  20
ENDBRANCH  11  13
ENDBRANCH   7  11
ENDBRANCH   4   6
ENDBRANCH   3   4
ENDBRANCH   2   3
ENDBRANCH   1   2
BRANCH   1  24
ATOM     24  O   UNL A   1      39.991  21.549  27.104  1.00  0.00    -0.374 OA
BRANCH  24  25
ATOM     25  C   UNL A   1      41.386  21.311  26.920  1.00  0.00     0.202 C 
BRANCH  25  26
ATOM     26  C   UNL A   1      42.230  22.578  26.982  1.00  0.00     0.261 C 
BRANCH  26  27
ATOM     27  O   UNL A   1      41.442  23.580  27.632  1.00  0.00    -0.460 OA
BRANCH  27  28
ATOM     28  C   UNL A   1      41.434  24.762  26.969  1.00  0.00     0.338 C 
ATOM     29  O   UNL A   1      41.515  24.919  25.767  1.00  0.00    -0.246 OA
BRANCH  28  30
ATOM     30  C   UNL A   1      41.094  25.836  27.930  1.00  0.00     0.060 A 
ATOM     31  C   UNL A   1      41.967  26.930  27.996  1.00  0.00     0.016 A 
ATOM     32  C   UNL A   1      39.922  25.821  28.699  1.00  0.00     0.016 A 
ATOM     33  C   UNL A   1      41.718  27.967  28.888  1.00  0.00     0.010 A 
ATOM     34  C   UNL A   1      39.669  26.863  29.590  1.00  0.00     0.010 A 
ATOM     35  C   UNL A   1      40.597  27.908  29.725  1.00  0.00    -0.014 A 
BRANCH  35  36
ATOM     36  C   UNL A   1      40.543  28.784  30.914  1.00  0.00     0.031 A 
ATOM     37  C   UNL A   1      39.529  29.896  30.907  1.00  0.00     0.074 A 
ATOM     38  C   UNL A   1      41.336  28.570  31.978  1.00  0.00     0.049 A 
ATOM     39  N   UNL A   1      39.309  30.824  31.797  1.00  0.00    -0.248 NA
ATOM     40  C   UNL A   1      38.645  29.972  29.729  1.00  0.00     0.031 C 
ATOM     41  C   UNL A   1      42.321  27.496  32.101  1.00  0.00     0.029 A 
ATOM     42  N   UNL A   1      41.437  29.258  33.160  1.00  0.00    -0.354 N 
ATOM     43  C   UNL A   1      38.265  31.589  31.290  1.00  0.00     0.074 A 
ATOM     44  C   UNL A   1      37.922  31.047  29.996  1.00  0.00     0.031 C 
ATOM     45  C   UNL A   1      42.939  27.607  33.290  1.00  0.00     0.029 A 
ATOM     46  C   UNL A   1      42.415  28.774  33.997  1.00  0.00     0.049 A 
ATOM     47  H   UNL A   1      40.864  30.025  33.387  1.00  0.00     0.167 HD
ATOM     48  C   UNL A   1      37.636  32.640  31.863  1.00  0.00     0.037 A 
ATOM     49  C   UNL A   1      42.843  29.242  35.185  1.00  0.00     0.037 A 
ATOM     50  C   UNL A   1      37.984  33.168  33.153  1.00  0.00     0.049 A 
ATOM     51  C   UNL A   1      42.171  30.459  35.772  1.00  0.00     0.074 A 
ATOM     52  C   UNL A   1      37.422  34.234  33.828  1.00  0.00     0.029 A 
ATOM     53  N   UNL A   1      38.989  32.661  33.964  1.00  0.00    -0.354 N 
ATOM     54  N   UNL A   1      41.180  31.170  35.286  1.00  0.00    -0.248 NA
ATOM     55  C   UNL A   1      42.670  30.936  37.070  1.00  0.00     0.031 C 
ATOM     56  C   UNL A   1      38.114  34.399  35.032  1.00  0.00     0.029 A 
ATOM     57  C   UNL A   1      39.073  33.403  35.128  1.00  0.00     0.049 A 
ATOM     58  H   UNL A   1      39.559  31.888  33.744  1.00  0.00     0.167 HD
ATOM     59  C   UNL A   1      40.918  32.158  36.233  1.00  0.00     0.074 A 
ATOM     60  C   UNL A   1      41.848  31.944  37.323  1.00  0.00     0.031 C 
ATOM     61  C   UNL A   1      39.997  33.153  36.205  1.00  0.00     0.037 A 
BRANCH  48  62
ATOM     62  C   UNL A   1      36.520  33.292  31.096  1.00  0.00     0.058 A 
ATOM     63  C   UNL A   1      35.181  33.160  31.494  1.00  0.00     0.135 A 
ATOM     64  C   UNL A   1      36.796  34.090  29.975  1.00  0.00     0.135 A 
ATOM     65  F   UNL A   1      34.858  32.383  32.540  1.00  0.00    -0.206 F 
ATOM     66  C   UNL A   1      34.152  33.793  30.803  1.00  0.00     0.059 A 
ATOM     67  C   UNL A   1      35.787  34.754  29.286  1.00  0.00     0.059 A 
ATOM     68  F   UNL A   1      38.059  34.237  29.545  1.00  0.00    -0.206 F 
ATOM     69  C   UNL A   1      34.467  34.594  29.704  1.00  0.00     0.060 A 
BRANCH  69  70
ATOM     70  S   UNL A   1      33.124  35.440  28.844  1.00  0.00     0.124 S 
ATOM     71  O   UNL A   1      32.546  34.351  28.062  1.00  0.00    -0.237 OA
ATOM     72  O   UNL A   1      32.308  35.931  29.949  1.00  0.00    -0.237 OA
ATOM     73  O   UNL A   1      33.812  36.470  28.070  1.00  0.00    -0.744 OA
ENDBRANCH  69  70
ENDBRANCH  48  62
BRANCH  49  74
ATOM     74  C   UNL A   1      43.978  28.585  35.890  1.00  0.00     0.058 A 
ATOM     75  C   UNL A   1      45.306  28.977  35.662  1.00  0.00     0.135 A 
ATOM     76  C   UNL A   1      43.757  27.523  36.782  1.00  0.00     0.135 A 
ATOM     77  F   UNL A   1      45.572  29.982  34.814  1.00  0.00    -0.206 F 
ATOM     78  C   UNL A   1      46.375  28.321  36.266  1.00  0.00     0.059 A 
ATOM     79  C   UNL A   1      44.808  26.870  37.419  1.00  0.00     0.059 A 
ATOM     80  F   UNL A   1      42.507  27.116  37.047  1.00  0.00    -0.206 F 
ATOM     81  C   UNL A   1      46.115  27.265  37.140  1.00  0.00     0.060 A 
BRANCH  81  82
ATOM     82  S   UNL A   1      47.507  26.425  37.927  1.00  0.00     0.124 S 
ATOM     83  O   UNL A   1      47.409  26.915  39.296  1.00  0.00    -0.237 OA
ATOM     84  O   UNL A   1      47.170  25.019  37.725  1.00  0.00    -0.237 OA
ATOM     85  O   UNL A   1      48.659  26.901  37.166  1.00  0.00    -0.744 OA
ENDBRANCH  81  82
ENDBRANCH  49  74
BRANCH  61  86
ATOM     86  C   UNL A   1      39.916  34.055  37.404  1.00  0.00     0.058 A 
ATOM     87  C   UNL A   1      40.571  35.294  37.441  1.00  0.00     0.135 A 
ATOM     88  C   UNL A   1      39.116  33.699  38.503  1.00  0.00     0.135 A 
ATOM     89  F   UNL A   1      41.350  35.678  36.416  1.00  0.00    -0.206 F 
ATOM     90  C   UNL A   1      40.457  36.142  38.537  1.00  0.00     0.059 A 
ATOM     91  C   UNL A   1      38.964  34.545  39.598  1.00  0.00     0.059 A 
ATOM     92  F   UNL A   1      38.456  32.531  38.511  1.00  0.00    -0.206 F 
ATOM     93  C   UNL A   1      39.649  35.759  39.610  1.00  0.00     0.060 A 
BRANCH  93  94
ATOM     94  S   UNL A   1      39.480  36.886  41.010  1.00  0.00     0.124 S 
ATOM     95  O   UNL A   1      38.704  37.971  40.420  1.00  0.00    -0.237 OA
ATOM     96  O   UNL A   1      38.777  36.064  41.990  1.00  0.00    -0.237 OA
ATOM     97  O   UNL A   1      40.861  37.213  41.351  1.00  0.00    -0.744 OA
ENDBRANCH  93  94
ENDBRANCH  61  86
ENDBRANCH  35  36
ENDBRANCH  28  30
ENDBRANCH  27  28
ENDBRANCH  26  27
ENDBRANCH  25  26
ENDBRANCH  24  25
ENDBRANCH   1  24
TORSDOF 21
ENDMDL
MODEL 3
REMARK VINA RESULT:     -10.1      2.416      8.813
REMARK SMILES COC(=O)c1nc(C)cc(N[C@@H]2C=C[C@H](C(=O)OCCOCCOC(=O)c3ccc(-c4c5nc(c(-c6c(F)cc(S(=O)(=O)[O-])cc6F)c6ccc([nH]6)c(-c6c(F)cc(S(=O)(=O)[O-])cc6F)c6nc(c(-c7c(F)cc(S(=O)(=O)[O-])cc7F)c7ccc4[nH]7)C=C6)C=C5)cc3)C2)n1
REMARK SMILES IDX 20 1 19 2 18 3 16 4 17 5 15 6 12 7 13 8 93 9 14 10 11 11
REMARK SMILES IDX 10 13 5 14 6 15 94 16 7 17 8 18 9 19 3 20 4 21 2 22 1 23
REMARK SMILES IDX 21 24 22 25 23 26 24 27 25 28 26 29 27 30 28 31 92 32 29 33
REMARK SMILES IDX 91 34 30 35 31 36 32 37 85 38 33 39 90 40 84 41 86 42 34 43
REMARK SMILES IDX 89 44 83 45 82 46 35 48 69 49 48 50 68 51 49 52 52 53 67 54
REMARK SMILES IDX 87 55 50 56 51 57 66 59 88 60 53 61 36 62 37 63 46 64 38 65
REMARK SMILES IDX 39 66 45 67 47 68 40 69 41 70 42 71 43 72 44 73 70 74 71 75
REMARK SMILES IDX 80 76 72 77 73 78 79 79 81 80 74 81 75 82 76 83 77 84 78 85
REMARK SMILES IDX 54 86 55 87 64 88 56 89 57 90 63 91 65 92 58 93 59 94 60 95
REMARK SMILES IDX 61 96 62 97
REMARK H PARENT 11 12 86 47 52 58
REMARK Flexibility Score: inf
ROOT
ATOM      1  C   UNL A   1      36.250  21.089  24.911  1.00  0.00     0.202 C 
ENDROOT
BRANCH   1   2
ATOM      2  C   UNL A   1      34.885  21.414  25.530  1.00  0.00     0.261 C 
BRANCH   2   3
ATOM      3  O   UNL A   1      33.821  21.411  24.567  1.00  0.00    -0.463 OA
BRANCH   3   4
ATOM      4  C   UNL A   1      33.112  22.572  24.474  1.00  0.00     0.312 C 
ATOM      5  O   UNL A   1      31.939  22.703  24.810  1.00  0.00    -0.252 OA
BRANCH   4   6
ATOM      6  C   UNL A   1      33.892  23.640  23.711  1.00  0.00     0.124 C 
ATOM      7  C   UNL A   1      33.023  25.920  23.369  1.00  0.00     0.104 C 
ATOM      8  C   UNL A   1      32.770  25.061  22.188  1.00  0.00    -0.006 C 
ATOM      9  C   UNL A   1      33.880  25.058  24.299  1.00  0.00     0.048 C 
ATOM     10  C   UNL A   1      33.288  23.839  22.349  1.00  0.00    -0.014 C 
BRANCH   7  11
ATOM     11  N   UNL A   1      31.831  26.511  23.941  1.00  0.00    -0.364 N 
ATOM     12  H   UNL A   1      31.127  25.863  24.168  1.00  0.00     0.162 HD
BRANCH  11  13
ATOM     13  C   UNL A   1      31.507  27.830  24.224  1.00  0.00     0.131 A 
ATOM     14  C   UNL A   1      30.270  29.755  24.056  1.00  0.00     0.241 A 
ATOM     15  N   UNL A   1      30.983  30.418  24.995  1.00  0.00    -0.227 NA
ATOM     16  N   UNL A   1      30.490  28.478  23.636  1.00  0.00    -0.205 NA
ATOM     17  C   UNL A   1      31.949  29.732  25.606  1.00  0.00     0.044 A 
ATOM     18  C   UNL A   1      32.652  30.419  26.735  1.00  0.00     0.067 C 
ATOM     19  C   UNL A   1      32.239  28.431  25.251  1.00  0.00     0.070 A 
BRANCH  14  20
ATOM     20  C   UNL A   1      29.175  30.579  23.449  1.00  0.00     0.376 C 
ATOM     21  O   UNL A   1      28.923  31.730  23.789  1.00  0.00    -0.242 OA
BRANCH  20  22
ATOM     22  O   UNL A   1      28.423  29.838  22.595  1.00  0.00    -0.463 OA
ATOM     23  C   UNL A   1      28.250  30.450  21.315  1.00  0.00     0.282 C 
ENDBRANCH  20  22
ENDBRANCH  14  20
ENDBRANCH  11  13
ENDBRANCH   7  11
ENDBRANCH   4   6
ENDBRANCH   3   4
ENDBRANCH   2   3
ENDBRANCH   1   2
BRANCH   1  24
ATOM     24  O   UNL A   1      36.690  19.734  25.004  1.00  0.00    -0.374 OA
BRANCH  24  25
ATOM     25  C   UNL A   1      38.106  19.586  24.916  1.00  0.00     0.202 C 
BRANCH  25  26
ATOM     26  C   UNL A   1      38.874  20.580  25.779  1.00  0.00     0.261 C 
BRANCH  26  27
ATOM     27  O   UNL A   1      40.251  20.194  25.746  1.00  0.00    -0.460 OA
BRANCH  27  28
ATOM     28  C   UNL A   1      40.849  20.253  26.961  1.00  0.00     0.338 C 
ATOM     29  O   UNL A   1      40.776  19.423  27.844  1.00  0.00    -0.246 OA
BRANCH  28  30
ATOM     30  C   UNL A   1      41.787  21.400  26.967  1.00  0.00     0.060 A 
ATOM     31  C   UNL A   1      42.345  21.758  28.200  1.00  0.00     0.016 A 
ATOM     32  C   UNL A   1      42.172  22.068  25.796  1.00  0.00     0.016 A 
ATOM     33  C   UNL A   1      43.221  22.834  28.282  1.00  0.00     0.010 A 
ATOM     34  C   UNL A   1      43.055  23.144  25.877  1.00  0.00     0.010 A 
ATOM     35  C   UNL A   1      43.534  23.562  27.128  1.00  0.00    -0.014 A 
BRANCH  35  36
ATOM     36  C   UNL A   1      44.132  24.907  27.270  1.00  0.00     0.031 A 
ATOM     37  C   UNL A   1      43.218  26.029  27.681  1.00  0.00     0.074 A 
ATOM     38  C   UNL A   1      45.447  25.112  27.083  1.00  0.00     0.049 A 
ATOM     39  N   UNL A   1      43.477  27.299  27.832  1.00  0.00    -0.248 NA
ATOM     40  C   UNL A   1      41.814  25.667  27.956  1.00  0.00     0.031 C 
ATOM     41  C   UNL A   1      46.424  24.084  26.724  1.00  0.00     0.029 A 
ATOM     42  N   UNL A   1      46.185  26.265  27.166  1.00  0.00    -0.354 N 
ATOM     43  C   UNL A   1      42.277  27.884  28.219  1.00  0.00     0.074 A 
ATOM     44  C   UNL A   1      41.277  26.842  28.240  1.00  0.00     0.031 C 
ATOM     45  C   UNL A   1      47.634  24.659  26.602  1.00  0.00     0.029 A 
ATOM     46  C   UNL A   1      47.511  26.095  26.846  1.00  0.00     0.049 A 
ATOM     47  H   UNL A   1      45.801  27.132  27.430  1.00  0.00     0.167 HD
ATOM     48  C   UNL A   1      42.036  29.173  28.546  1.00  0.00     0.037 A 
ATOM     49  C   UNL A   1      48.498  27.005  26.743  1.00  0.00     0.037 A 
ATOM     50  C   UNL A   1      43.041  30.199  28.525  1.00  0.00     0.049 A 
ATOM     51  C   UNL A   1      48.187  28.451  27.047  1.00  0.00     0.074 A 
ATOM     52  C   UNL A   1      42.909  31.541  28.829  1.00  0.00     0.029 A 
ATOM     53  N   UNL A   1      44.369  29.992  28.181  1.00  0.00    -0.354 N 
ATOM     54  N   UNL A   1      47.050  28.991  27.419  1.00  0.00    -0.248 NA
ATOM     55  C   UNL A   1      49.293  29.411  26.922  1.00  0.00     0.031 C 
ATOM     56  C   UNL A   1      44.149  32.155  28.629  1.00  0.00     0.029 A 
ATOM     57  C   UNL A   1      45.065  31.186  28.251  1.00  0.00     0.049 A 
ATOM     58  H   UNL A   1      44.759  29.125  27.926  1.00  0.00     0.167 HD
ATOM     59  C   UNL A   1      47.312  30.346  27.601  1.00  0.00     0.074 A 
ATOM     60  C   UNL A   1      48.718  30.540  27.310  1.00  0.00     0.031 C 
ATOM     61  C   UNL A   1      46.471  31.343  27.973  1.00  0.00     0.037 A 
BRANCH  48  62
ATOM     62  C   UNL A   1      40.636  29.545  28.942  1.00  0.00     0.058 A 
ATOM     63  C   UNL A   1      39.618  29.698  27.988  1.00  0.00     0.135 A 
ATOM     64  C   UNL A   1      40.297  29.711  30.294  1.00  0.00     0.135 A 
ATOM     65  F   UNL A   1      39.894  29.581  26.679  1.00  0.00    -0.206 F 
ATOM     66  C   UNL A   1      38.314  30.008  28.359  1.00  0.00     0.059 A 
ATOM     67  C   UNL A   1      38.995  29.994  30.691  1.00  0.00     0.059 A 
ATOM     68  F   UNL A   1      41.236  29.590  31.246  1.00  0.00    -0.206 F 
ATOM     69  C   UNL A   1      38.011  30.147  29.715  1.00  0.00     0.060 A 
BRANCH  69  70
ATOM     70  S   UNL A   1      36.305  30.510  30.182  1.00  0.00     0.124 S 
ATOM     71  O   UNL A   1      35.561  29.829  29.127  1.00  0.00    -0.237 OA
ATOM     72  O   UNL A   1      36.213  29.912  31.510  1.00  0.00    -0.237 OA
ATOM     73  O   UNL A   1      36.246  31.969  30.150  1.00  0.00    -0.744 OA
ENDBRANCH  69  70
ENDBRANCH  48  62
BRANCH  49  74
ATOM     74  C   UNL A   1      49.862  26.595  26.310  1.00  0.00     0.058 A 
ATOM     75  C   UNL A   1      50.798  26.088  27.225  1.00  0.00     0.135 A 
ATOM     76  C   UNL A   1      50.268  26.737  24.973  1.00  0.00     0.135 A 
ATOM     77  F   UNL A   1      50.462  25.939  28.515  1.00  0.00    -0.206 F 
ATOM     78  C   UNL A   1      52.096  25.767  26.838  1.00  0.00     0.059 A 
ATOM     79  C   UNL A   1      51.552  26.396  24.557  1.00  0.00     0.059 A 
ATOM     80  F   UNL A   1      49.409  27.204  24.055  1.00  0.00    -0.206 F 
ATOM     81  C   UNL A   1      52.465  25.929  25.502  1.00  0.00     0.060 A 
BRANCH  81  82
ATOM     82  S   UNL A   1      54.148  25.503  25.006  1.00  0.00     0.124 S 
ATOM     83  O   UNL A   1      54.932  26.118  26.070  1.00  0.00    -0.237 OA
ATOM     84  O   UNL A   1      54.107  24.044  25.002  1.00  0.00    -0.237 OA
ATOM     85  O   UNL A   1      54.276  26.123  23.689  1.00  0.00    -0.744 OA
ENDBRANCH  81  82
ENDBRANCH  49  74
BRANCH  61  86
ATOM     86  C   UNL A   1      47.053  32.719  28.131  1.00  0.00     0.058 A 
ATOM     87  C   UNL A   1      46.981  33.673  27.107  1.00  0.00     0.135 A 
ATOM     88  C   UNL A   1      47.632  33.105  29.352  1.00  0.00     0.135 A 
ATOM     89  F   UNL A   1      46.439  33.352  25.921  1.00  0.00    -0.206 F 
ATOM     90  C   UNL A   1      47.484  34.958  27.276  1.00  0.00     0.059 A 
ATOM     91  C   UNL A   1      48.116  34.394  29.553  1.00  0.00     0.059 A 
ATOM     92  F   UNL A   1      47.711  32.234  30.370  1.00  0.00    -0.206 F 
ATOM     93  C   UNL A   1      48.048  35.309  28.504  1.00  0.00     0.060 A 
BRANCH  93  94
ATOM     94  S   UNL A   1      48.664  36.991  28.723  1.00  0.00     0.124 S 
ATOM     95  O   UNL A   1      49.376  37.208  27.467  1.00  0.00    -0.237 OA
ATOM     96  O   UNL A   1      47.433  37.756  28.895  1.00  0.00    -0.237 OA
ATOM     97  O   UNL A   1      49.505  36.894  29.912  1.00  0.00    -0.744 OA
ENDBRANCH  93  94
ENDBRANCH  61  86
ENDBRANCH  35  36
ENDBRANCH  28  30
ENDBRANCH  27  28
ENDBRANCH  26  27
ENDBRANCH  25  26
ENDBRANCH  24  25
ENDBRANCH   1  24
TORSDOF 21
ENDMDL
