MODEL 1
REMARK VINA RESULT:      -9.4      0.000      0.000
REMARK SMILES Cc1cscc1C(=O)N[C@H](C(=O)OCCOCCOC(=O)c1ccc(-c2c3nc(c(-c4c(F)cc(S(=O)(=O)[O-])cc4F)c4ccc([nH]4)c(-c4c(F)cc(S(=O)(=O)[O-])cc4F)c4nc(c(-c5c(F)cc(S(=O)(=O)[O-])cc5F)c5ccc2[nH]5)C=C4)C=C3)cc1)c1ccccc1
REMARK SMILES IDX 17 1 16 2 15 3 14 4 13 5 11 6 12 7 10 8 9 9 7 10 8 11 6 13
REMARK SMILES IDX 1 14 2 15 3 16 4 17 5 18 88 19 89 20 93 21 90 22 92 23 91 24
REMARK SMILES IDX 18 25 19 26 20 27 21 28 22 29 23 30 87 31 24 32 86 33 25 34
REMARK SMILES IDX 26 35 27 36 80 37 28 38 85 39 79 40 81 41 29 42 84 43 78 44
REMARK SMILES IDX 77 45 30 47 64 48 43 49 63 50 44 51 47 52 62 53 82 54 45 55
REMARK SMILES IDX 46 56 61 58 83 59 48 60 31 61 32 62 41 63 33 64 34 65 40 66
REMARK SMILES IDX 42 67 35 68 36 69 37 70 38 71 39 72 65 73 66 74 75 75 67 76
REMARK SMILES IDX 68 77 74 78 76 79 69 80 70 81 71 82 72 83 73 84 49 85 50 86
REMARK SMILES IDX 59 87 51 88 52 89 58 90 60 91 53 92 54 93 55 94 56 95 57 96
REMARK H PARENT 9 12 81 46 47 57
REMARK Flexibility Score: inf
ROOT
ATOM      1  C   UNL A   1      40.073  21.562  26.105  1.00  0.00     0.202 C 
ENDROOT
BRANCH   1   2
ATOM      2  O   UNL A   1      40.618  20.256  26.223  1.00  0.00    -0.374 OA
BRANCH   2   3
ATOM      3  C   UNL A   1      41.958  20.132  26.686  1.00  0.00     0.202 C 
BRANCH   3   4
ATOM      4  C   UNL A   1      43.108  20.531  25.759  1.00  0.00     0.261 C 
BRANCH   4   5
ATOM      5  O   UNL A   1      43.900  21.648  26.217  1.00  0.00    -0.461 OA
BRANCH   5   6
ATOM      6  C   UNL A   1      43.657  22.765  25.482  1.00  0.00     0.333 C 
ATOM      7  O   UNL A   1      43.088  22.725  24.391  1.00  0.00    -0.249 OA
BRANCH   6   8
ATOM      8  C   UNL A   1      44.143  24.094  26.074  1.00  0.00     0.223 C 
BRANCH   8   9
ATOM      9  N   UNL A   1      43.354  25.198  25.519  1.00  0.00    -0.335 N 
ATOM     10  C   UNL A   1      43.573  26.514  25.223  1.00  0.00     0.253 C 
ATOM     11  O   UNL A   1      42.631  27.062  24.639  1.00  0.00    -0.269 OA
ATOM     12  H   UNL A   1      42.434  24.922  25.308  1.00  0.00     0.165 HD
BRANCH  10  13
ATOM     13  C   UNL A   1      44.741  27.323  25.626  1.00  0.00     0.053 A 
ATOM     14  C   UNL A   1      44.156  28.728  27.807  1.00  0.00     0.046 C 
ATOM     15  C   UNL A   1      45.032  28.260  26.707  1.00  0.00    -0.028 A 
ATOM     16  C   UNL A   1      46.352  28.686  26.679  1.00  0.00     0.069 A 
ATOM     17  S   UNL A   1      47.272  27.957  25.459  1.00  0.00    -0.151 S 
ATOM     18  C   UNL A   1      45.921  27.078  24.925  1.00  0.00     0.079 A 
ENDBRANCH  10  13
ENDBRANCH   8   9
BRANCH   8  19
ATOM     19  C   UNL A   1      44.479  24.335  27.551  1.00  0.00    -0.014 A 
ATOM     20  C   UNL A   1      45.732  24.833  27.944  1.00  0.00     0.006 A 
ATOM     21  C   UNL A   1      43.498  24.234  28.560  1.00  0.00     0.006 A 
ATOM     22  C   UNL A   1      45.992  25.166  29.284  1.00  0.00     0.000 A 
ATOM     23  C   UNL A   1      43.771  24.502  29.903  1.00  0.00     0.000 A 
ATOM     24  C   UNL A   1      45.022  24.976  30.267  1.00  0.00     0.000 A 
ENDBRANCH   8  19
ENDBRANCH   6   8
ENDBRANCH   5   6
ENDBRANCH   4   5
ENDBRANCH   3   4
ENDBRANCH   2   3
ENDBRANCH   1   2
BRANCH   1  25
ATOM     25  C   UNL A   1      40.466  22.654  27.111  1.00  0.00     0.261 C 
BRANCH  25  26
ATOM     26  O   UNL A   1      40.695  23.946  26.537  1.00  0.00    -0.460 OA
BRANCH  26  27
ATOM     27  C   UNL A   1      39.660  24.810  26.703  1.00  0.00     0.338 C 
ATOM     28  O   UNL A   1      38.593  24.803  26.118  1.00  0.00    -0.246 OA
BRANCH  27  29
ATOM     29  C   UNL A   1      39.930  25.680  27.861  1.00  0.00     0.060 A 
ATOM     30  C   UNL A   1      39.109  25.526  28.987  1.00  0.00     0.016 A 
ATOM     31  C   UNL A   1      40.919  26.663  27.824  1.00  0.00     0.016 A 
ATOM     32  C   UNL A   1      39.254  26.378  30.073  1.00  0.00     0.010 A 
ATOM     33  C   UNL A   1      41.045  27.539  28.905  1.00  0.00     0.010 A 
ATOM     34  C   UNL A   1      40.188  27.419  30.015  1.00  0.00    -0.014 A 
BRANCH  34  35
ATOM     35  C   UNL A   1      40.110  28.495  31.027  1.00  0.00     0.031 A 
ATOM     36  C   UNL A   1      41.026  28.416  32.215  1.00  0.00     0.074 A 
ATOM     37  C   UNL A   1      39.290  29.545  30.849  1.00  0.00     0.049 A 
ATOM     38  N   UNL A   1      41.133  29.227  33.233  1.00  0.00    -0.248 NA
ATOM     39  C   UNL A   1      41.948  27.268  32.258  1.00  0.00     0.031 C 
ATOM     40  C   UNL A   1      38.409  29.743  29.700  1.00  0.00     0.029 A 
ATOM     41  N   UNL A   1      39.067  30.643  31.640  1.00  0.00    -0.354 N 
ATOM     42  C   UNL A   1      42.127  28.685  34.042  1.00  0.00     0.074 A 
ATOM     43  C   UNL A   1      42.572  27.463  33.411  1.00  0.00     0.031 C 
ATOM     44  C   UNL A   1      37.728  30.890  29.866  1.00  0.00     0.029 A 
ATOM     45  C   UNL A   1      38.100  31.486  31.147  1.00  0.00     0.049 A 
ATOM     46  H   UNL A   1      39.553  30.811  32.479  1.00  0.00     0.167 HD
ATOM     47  C   UNL A   1      42.623  29.170  35.204  1.00  0.00     0.037 A 
ATOM     48  C   UNL A   1      37.562  32.596  31.689  1.00  0.00     0.037 A 
ATOM     49  C   UNL A   1      42.164  30.389  35.816  1.00  0.00     0.049 A 
ATOM     50  C   UNL A   1      38.079  33.077  33.022  1.00  0.00     0.074 A 
ATOM     51  C   UNL A   1      42.601  30.981  36.988  1.00  0.00     0.029 A 
ATOM     52  N   UNL A   1      41.156  31.197  35.310  1.00  0.00    -0.354 N 
ATOM     53  N   UNL A   1      39.027  32.565  33.772  1.00  0.00    -0.248 NA
ATOM     54  C   UNL A   1      37.458  34.285  33.580  1.00  0.00     0.031 C 
ATOM     55  C   UNL A   1      41.816  32.113  37.220  1.00  0.00     0.029 A 
ATOM     56  C   UNL A   1      40.935  32.266  36.160  1.00  0.00     0.049 A 
ATOM     57  H   UNL A   1      40.670  31.035  34.469  1.00  0.00     0.167 HD
ATOM     58  C   UNL A   1      39.136  33.405  34.876  1.00  0.00     0.074 A 
ATOM     59  C   UNL A   1      38.164  34.464  34.688  1.00  0.00     0.031 C 
ATOM     60  C   UNL A   1      39.964  33.313  35.947  1.00  0.00     0.037 A 
BRANCH  47  61
ATOM     61  C   UNL A   1      43.681  28.363  35.905  1.00  0.00     0.058 A 
ATOM     62  C   UNL A   1      45.052  28.604  35.715  1.00  0.00     0.135 A 
ATOM     63  C   UNL A   1      43.315  27.346  36.803  1.00  0.00     0.135 A 
ATOM     64  F   UNL A   1      45.460  29.547  34.851  1.00  0.00    -0.206 F 
ATOM     65  C   UNL A   1      46.020  27.852  36.374  1.00  0.00     0.059 A 
ATOM     66  C   UNL A   1      44.266  26.603  37.494  1.00  0.00     0.059 A 
ATOM     67  F   UNL A   1      42.019  27.067  37.016  1.00  0.00    -0.206 F 
ATOM     68  C   UNL A   1      45.616  26.855  37.264  1.00  0.00     0.060 A 
BRANCH  68  69
ATOM     69  S   UNL A   1      46.886  25.897  38.119  1.00  0.00     0.124 S 
ATOM     70  O   UNL A   1      48.106  26.546  37.651  1.00  0.00    -0.237 OA
ATOM     71  O   UNL A   1      46.549  26.117  39.522  1.00  0.00    -0.237 OA
ATOM     72  O   UNL A   1      46.673  24.538  37.631  1.00  0.00    -0.744 OA
ENDBRANCH  68  69
ENDBRANCH  47  61
BRANCH  48  73
ATOM     73  C   UNL A   1      36.463  33.310  30.986  1.00  0.00     0.058 A 
ATOM     74  C   UNL A   1      35.141  33.258  31.451  1.00  0.00     0.135 A 
ATOM     75  C   UNL A   1      36.715  34.064  29.828  1.00  0.00     0.135 A 
ATOM     76  F   UNL A   1      34.843  32.543  32.547  1.00  0.00    -0.206 F 
ATOM     77  C   UNL A   1      34.108  33.913  30.787  1.00  0.00     0.059 A 
ATOM     78  C   UNL A   1      35.705  34.751  29.163  1.00  0.00     0.059 A 
ATOM     79  F   UNL A   1      37.965  34.155  29.344  1.00  0.00    -0.206 F 
ATOM     80  C   UNL A   1      34.401  34.660  29.645  1.00  0.00     0.060 A 
BRANCH  80  81
ATOM     81  S   UNL A   1      33.058  35.539  28.816  1.00  0.00     0.124 S 
ATOM     82  O   UNL A   1      33.789  36.560  28.075  1.00  0.00    -0.237 OA
ATOM     83  O   UNL A   1      32.450  34.481  28.015  1.00  0.00    -0.237 OA
ATOM     84  O   UNL A   1      32.241  36.026  29.923  1.00  0.00    -0.744 OA
ENDBRANCH  80  81
ENDBRANCH  48  73
BRANCH  60  85
ATOM     85  C   UNL A   1      39.886  34.405  36.979  1.00  0.00     0.058 A 
ATOM     86  C   UNL A   1      40.645  35.579  36.875  1.00  0.00     0.135 A 
ATOM     87  C   UNL A   1      38.989  34.297  38.055  1.00  0.00     0.135 A 
ATOM     88  F   UNL A   1      41.520  35.731  35.868  1.00  0.00    -0.206 F 
ATOM     89  C   UNL A   1      40.538  36.599  37.814  1.00  0.00     0.059 A 
ATOM     90  C   UNL A   1      38.842  35.318  38.989  1.00  0.00     0.059 A 
ATOM     91  F   UNL A   1      38.228  33.200  38.196  1.00  0.00    -0.206 F 
ATOM     92  C   UNL A   1      39.630  36.460  38.865  1.00  0.00     0.060 A 
BRANCH  92  93
ATOM     93  S   UNL A   1      39.475  37.807  40.057  1.00  0.00     0.124 S 
ATOM     94  O   UNL A   1      40.718  38.539  39.836  1.00  0.00    -0.237 OA
ATOM     95  O   UNL A   1      38.257  38.477  39.614  1.00  0.00    -0.237 OA
ATOM     96  O   UNL A   1      39.374  37.117  41.340  1.00  0.00    -0.744 OA
ENDBRANCH  92  93
ENDBRANCH  60  85
ENDBRANCH  34  35
ENDBRANCH  27  29
ENDBRANCH  26  27
ENDBRANCH  25  26
ENDBRANCH   1  25
TORSDOF 20
ENDMDL
MODEL 2
REMARK VINA RESULT:      -9.4      6.872     13.265
REMARK SMILES Cc1cscc1C(=O)N[C@H](C(=O)OCCOCCOC(=O)c1ccc(-c2c3nc(c(-c4c(F)cc(S(=O)(=O)[O-])cc4F)c4ccc([nH]4)c(-c4c(F)cc(S(=O)(=O)[O-])cc4F)c4nc(c(-c5c(F)cc(S(=O)(=O)[O-])cc5F)c5ccc2[nH]5)C=C4)C=C3)cc1)c1ccccc1
REMARK SMILES IDX 17 1 16 2 15 3 14 4 13 5 11 6 12 7 10 8 9 9 7 10 8 11 6 13
REMARK SMILES IDX 1 14 2 15 3 16 4 17 5 18 88 19 89 20 93 21 90 22 92 23 91 24
REMARK SMILES IDX 18 25 19 26 20 27 21 28 22 29 23 30 87 31 24 32 86 33 25 34
REMARK SMILES IDX 26 35 27 36 80 37 28 38 85 39 79 40 81 41 29 42 84 43 78 44
REMARK SMILES IDX 77 45 30 47 64 48 43 49 63 50 44 51 47 52 62 53 82 54 45 55
REMARK SMILES IDX 46 56 61 58 83 59 48 60 31 61 32 62 41 63 33 64 34 65 40 66
REMARK SMILES IDX 42 67 35 68 36 69 37 70 38 71 39 72 65 73 66 74 75 75 67 76
REMARK SMILES IDX 68 77 74 78 76 79 69 80 70 81 71 82 72 83 73 84 49 85 50 86
REMARK SMILES IDX 59 87 51 88 52 89 58 90 60 91 53 92 54 93 55 94 56 95 57 96
REMARK H PARENT 9 12 81 46 47 57
REMARK Flexibility Score: inf
ROOT
ATOM      1  C   UNL A   1      33.924  30.351  27.028  1.00  0.00     0.202 C 
ENDROOT
BRANCH   1   2
ATOM      2  O   UNL A   1      32.765  29.617  26.660  1.00  0.00    -0.374 OA
BRANCH   2   3
ATOM      3  C   UNL A   1      32.370  29.634  25.293  1.00  0.00     0.202 C 
BRANCH   3   4
ATOM      4  C   UNL A   1      32.895  28.549  24.351  1.00  0.00     0.261 C 
BRANCH   4   5
ATOM      5  O   UNL A   1      33.719  27.543  24.978  1.00  0.00    -0.461 OA
BRANCH   5   6
ATOM      6  C   UNL A   1      33.115  26.326  24.966  1.00  0.00     0.333 C 
ATOM      7  O   UNL A   1      32.052  26.124  24.378  1.00  0.00    -0.249 OA
BRANCH   6   8
ATOM      8  C   UNL A   1      33.820  25.204  25.739  1.00  0.00     0.223 C 
BRANCH   8   9
ATOM      9  N   UNL A   1      32.845  24.497  26.577  1.00  0.00    -0.335 N 
ATOM     10  C   UNL A   1      32.304  23.243  26.613  1.00  0.00     0.253 C 
ATOM     11  O   UNL A   1      31.583  23.034  27.596  1.00  0.00    -0.269 OA
ATOM     12  H   UNL A   1      32.492  25.071  27.293  1.00  0.00     0.165 HD
BRANCH  10  13
ATOM     13  C   UNL A   1      32.412  22.208  25.565  1.00  0.00     0.053 A 
ATOM     14  C   UNL A   1      31.291  23.081  23.316  1.00  0.00     0.046 C 
ATOM     15  C   UNL A   1      32.008  22.101  24.167  1.00  0.00    -0.028 A 
ATOM     16  C   UNL A   1      32.442  20.914  23.594  1.00  0.00     0.069 A 
ATOM     17  S   UNL A   1      33.373  19.961  24.638  1.00  0.00    -0.151 S 
ATOM     18  C   UNL A   1      33.192  21.098  25.886  1.00  0.00     0.079 A 
ENDBRANCH  10  13
ENDBRANCH   8   9
BRANCH   8  19
ATOM     19  C   UNL A   1      34.854  24.237  25.150  1.00  0.00    -0.014 A 
ATOM     20  C   UNL A   1      34.917  23.986  23.769  1.00  0.00     0.006 A 
ATOM     21  C   UNL A   1      35.892  23.694  25.936  1.00  0.00     0.006 A 
ATOM     22  C   UNL A   1      35.942  23.194  23.223  1.00  0.00     0.000 A 
ATOM     23  C   UNL A   1      36.875  22.856  25.407  1.00  0.00     0.000 A 
ATOM     24  C   UNL A   1      36.904  22.609  24.043  1.00  0.00     0.000 A 
ENDBRANCH   8  19
ENDBRANCH   6   8
ENDBRANCH   5   6
ENDBRANCH   4   5
ENDBRANCH   3   4
ENDBRANCH   2   3
ENDBRANCH   1   2
BRANCH   1  25
ATOM     25  C   UNL A   1      35.037  29.674  27.840  1.00  0.00     0.261 C 
BRANCH  25  26
ATOM     26  O   UNL A   1      35.875  30.573  28.576  1.00  0.00    -0.460 OA
BRANCH  26  27
ATOM     27  C   UNL A   1      36.513  29.992  29.626  1.00  0.00     0.338 C 
ATOM     28  O   UNL A   1      36.003  29.459  30.593  1.00  0.00    -0.246 OA
BRANCH  27  29
ATOM     29  C   UNL A   1      37.957  29.919  29.341  1.00  0.00     0.060 A 
ATOM     30  C   UNL A   1      38.341  29.763  28.003  1.00  0.00     0.016 A 
ATOM     31  C   UNL A   1      38.906  29.940  30.363  1.00  0.00     0.016 A 
ATOM     32  C   UNL A   1      39.681  29.595  27.681  1.00  0.00     0.010 A 
ATOM     33  C   UNL A   1      40.252  29.742  30.041  1.00  0.00     0.010 A 
ATOM     34  C   UNL A   1      40.634  29.533  28.703  1.00  0.00    -0.014 A 
BRANCH  34  35
ATOM     35  C   UNL A   1      41.990  29.040  28.375  1.00  0.00     0.031 A 
ATOM     36  C   UNL A   1      43.124  30.028  28.386  1.00  0.00     0.074 A 
ATOM     37  C   UNL A   1      42.208  27.735  28.142  1.00  0.00     0.049 A 
ATOM     38  N   UNL A   1      44.388  29.840  28.122  1.00  0.00    -0.248 NA
ATOM     39  C   UNL A   1      42.782  31.414  28.747  1.00  0.00     0.031 C 
ATOM     40  C   UNL A   1      41.186  26.691  28.169  1.00  0.00     0.029 A 
ATOM     41  N   UNL A   1      43.366  27.068  27.833  1.00  0.00    -0.354 N 
ATOM     42  C   UNL A   1      44.993  31.083  28.276  1.00  0.00     0.074 A 
ATOM     43  C   UNL A   1      43.953  32.023  28.631  1.00  0.00     0.031 C 
ATOM     44  C   UNL A   1      41.760  25.511  27.875  1.00  0.00     0.029 A 
ATOM     45  C   UNL A   1      43.180  25.725  27.605  1.00  0.00     0.049 A 
ATOM     46  H   UNL A   1      44.244  27.508  27.781  1.00  0.00     0.167 HD
ATOM     47  C   UNL A   1      46.300  31.404  28.139  1.00  0.00     0.037 A 
ATOM     48  C   UNL A   1      44.058  24.788  27.199  1.00  0.00     0.037 A 
ATOM     49  C   UNL A   1      47.320  30.453  27.784  1.00  0.00     0.049 A 
ATOM     50  C   UNL A   1      45.496  25.185  26.979  1.00  0.00     0.074 A 
ATOM     51  C   UNL A   1      48.678  30.665  27.626  1.00  0.00     0.029 A 
ATOM     52  N   UNL A   1      47.091  29.109  27.522  1.00  0.00    -0.354 N 
ATOM     53  N   UNL A   1      46.060  26.360  27.140  1.00  0.00    -0.248 NA
ATOM     54  C   UNL A   1      46.416  24.134  26.527  1.00  0.00     0.031 C 
ATOM     55  C   UNL A   1      49.258  29.464  27.210  1.00  0.00     0.029 A 
ATOM     56  C   UNL A   1      48.276  28.486  27.174  1.00  0.00     0.049 A 
ATOM     57  H   UNL A   1      46.214  28.664  27.578  1.00  0.00     0.167 HD
ATOM     58  C   UNL A   1      47.407  26.182  26.837  1.00  0.00     0.074 A 
ATOM     59  C   UNL A   1      47.572  24.783  26.495  1.00  0.00     0.031 C 
ATOM     60  C   UNL A   1      48.416  27.089  26.843  1.00  0.00     0.037 A 
BRANCH  47  61
ATOM     61  C   UNL A   1      46.691  32.845  28.329  1.00  0.00     0.058 A 
ATOM     62  C   UNL A   1      47.108  33.347  29.572  1.00  0.00     0.135 A 
ATOM     63  C   UNL A   1      46.671  33.732  27.240  1.00  0.00     0.135 A 
ATOM     64  F   UNL A   1      47.123  32.552  30.653  1.00  0.00    -0.206 F 
ATOM     65  C   UNL A   1      47.470  34.681  29.733  1.00  0.00     0.059 A 
ATOM     66  C   UNL A   1      47.058  35.062  27.371  1.00  0.00     0.059 A 
ATOM     67  F   UNL A   1      46.273  33.307  26.030  1.00  0.00    -0.206 F 
ATOM     68  C   UNL A   1      47.444  35.530  28.625  1.00  0.00     0.060 A 
BRANCH  68  69
ATOM     69  S   UNL A   1      47.930  37.255  28.847  1.00  0.00     0.124 S 
ATOM     70  O   UNL A   1      47.360  37.875  27.655  1.00  0.00    -0.237 OA
ATOM     71  O   UNL A   1      47.285  37.599  30.111  1.00  0.00    -0.237 OA
ATOM     72  O   UNL A   1      49.388  37.196  28.886  1.00  0.00    -0.744 OA
ENDBRANCH  68  69
ENDBRANCH  47  61
BRANCH  48  73
ATOM     73  C   UNL A   1      43.598  23.394  26.952  1.00  0.00     0.058 A 
ATOM     74  C   UNL A   1      43.316  22.519  28.012  1.00  0.00     0.135 A 
ATOM     75  C   UNL A   1      43.431  22.908  25.645  1.00  0.00     0.135 A 
ATOM     76  F   UNL A   1      43.470  22.929  29.280  1.00  0.00    -0.206 F 
ATOM     77  C   UNL A   1      42.900  21.210  27.785  1.00  0.00     0.059 A 
ATOM     78  C   UNL A   1      42.988  21.614  25.393  1.00  0.00     0.059 A 
ATOM     79  F   UNL A   1      43.678  23.707  24.594  1.00  0.00    -0.206 F 
ATOM     80  C   UNL A   1      42.736  20.768  26.471  1.00  0.00     0.060 A 
BRANCH  80  81
ATOM     81  S   UNL A   1      42.156  19.081  26.190  1.00  0.00     0.124 S 
ATOM     82  O   UNL A   1      42.375  18.473  27.498  1.00  0.00    -0.237 OA
ATOM     83  O   UNL A   1      40.763  19.296  25.810  1.00  0.00    -0.237 OA
ATOM     84  O   UNL A   1      43.024  18.602  25.118  1.00  0.00    -0.744 OA
ENDBRANCH  80  81
ENDBRANCH  48  73
BRANCH  60  85
ATOM     85  C   UNL A   1      49.796  26.592  26.508  1.00  0.00     0.058 A 
ATOM     86  C   UNL A   1      50.655  26.074  27.488  1.00  0.00     0.135 A 
ATOM     87  C   UNL A   1      50.237  26.578  25.174  1.00  0.00     0.135 A 
ATOM     88  F   UNL A   1      50.284  26.068  28.778  1.00  0.00    -0.206 F 
ATOM     89  C   UNL A   1      51.915  25.582  27.162  1.00  0.00     0.059 A 
ATOM     90  C   UNL A   1      51.480  26.062  24.821  1.00  0.00     0.059 A 
ATOM     91  F   UNL A   1      49.449  27.049  24.195  1.00  0.00    -0.206 F 
ATOM     92  C   UNL A   1      52.316  25.577  25.825  1.00  0.00     0.060 A 
BRANCH  92  93
ATOM     93  S   UNL A   1      53.939  24.903  25.413  1.00  0.00     0.124 S 
ATOM     94  O   UNL A   1      53.585  23.595  24.872  1.00  0.00    -0.237 OA
ATOM     95  O   UNL A   1      54.444  25.874  24.447  1.00  0.00    -0.237 OA
ATOM     96  O   UNL A   1      54.636  24.882  26.696  1.00  0.00    -0.744 OA
ENDBRANCH  92  93
ENDBRANCH  60  85
ENDBRANCH  34  35
ENDBRANCH  27  29
ENDBRANCH  26  27
ENDBRANCH  25  26
ENDBRANCH   1  25
TORSDOF 20
ENDMDL
MODEL 3
REMARK VINA RESULT:      -9.2      4.480     10.780
REMARK SMILES Cc1cscc1C(=O)N[C@H](C(=O)OCCOCCOC(=O)c1ccc(-c2c3nc(c(-c4c(F)cc(S(=O)(=O)[O-])cc4F)c4ccc([nH]4)c(-c4c(F)cc(S(=O)(=O)[O-])cc4F)c4nc(c(-c5c(F)cc(S(=O)(=O)[O-])cc5F)c5ccc2[nH]5)C=C4)C=C3)cc1)c1ccccc1
REMARK SMILES IDX 17 1 16 2 15 3 14 4 13 5 11 6 12 7 10 8 9 9 7 10 8 11 6 13
REMARK SMILES IDX 1 14 2 15 3 16 4 17 5 18 88 19 89 20 93 21 90 22 92 23 91 24
REMARK SMILES IDX 18 25 19 26 20 27 21 28 22 29 23 30 87 31 24 32 86 33 25 34
REMARK SMILES IDX 26 35 27 36 80 37 28 38 85 39 79 40 81 41 29 42 84 43 78 44
REMARK SMILES IDX 77 45 30 47 64 48 43 49 63 50 44 51 47 52 62 53 82 54 45 55
REMARK SMILES IDX 46 56 61 58 83 59 48 60 31 61 32 62 41 63 33 64 34 65 40 66
REMARK SMILES IDX 42 67 35 68 36 69 37 70 38 71 39 72 65 73 66 74 75 75 67 76
REMARK SMILES IDX 68 77 74 78 76 79 69 80 70 81 71 82 72 83 73 84 49 85 50 86
REMARK SMILES IDX 59 87 51 88 52 89 58 90 60 91 53 92 54 93 55 94 56 95 57 96
REMARK H PARENT 9 12 81 46 47 57
REMARK Flexibility Score: inf
ROOT
ATOM      1  C   UNL A   1      32.981  29.379  25.802  1.00  0.00     0.202 C 
ENDROOT
BRANCH   1   2
ATOM      2  O   UNL A   1      32.296  29.400  24.558  1.00  0.00    -0.374 OA
BRANCH   2   3
ATOM      3  C   UNL A   1      33.054  29.176  23.375  1.00  0.00     0.202 C 
BRANCH   3   4
ATOM      4  C   UNL A   1      34.030  27.998  23.325  1.00  0.00     0.261 C 
BRANCH   4   5
ATOM      5  O   UNL A   1      33.483  26.776  22.784  1.00  0.00    -0.461 OA
BRANCH   5   6
ATOM      6  C   UNL A   1      32.810  26.071  23.729  1.00  0.00     0.333 C 
ATOM      7  O   UNL A   1      31.586  25.931  23.700  1.00  0.00    -0.249 OA
BRANCH   6   8
ATOM      8  C   UNL A   1      33.650  25.461  24.858  1.00  0.00     0.223 C 
BRANCH   8   9
ATOM      9  N   UNL A   1      32.767  24.983  25.927  1.00  0.00    -0.335 N 
ATOM     10  C   UNL A   1      32.316  23.769  26.362  1.00  0.00     0.253 C 
ATOM     11  O   UNL A   1      31.658  23.821  27.407  1.00  0.00    -0.269 OA
ATOM     12  H   UNL A   1      32.407  25.723  26.465  1.00  0.00     0.165 HD
BRANCH  10  13
ATOM     13  C   UNL A   1      32.449  22.477  25.657  1.00  0.00     0.053 A 
ATOM     14  C   UNL A   1      31.378  22.661  23.229  1.00  0.00     0.046 C 
ATOM     15  C   UNL A   1      32.075  21.971  24.340  1.00  0.00    -0.028 A 
ATOM     16  C   UNL A   1      32.524  20.673  24.141  1.00  0.00     0.069 A 
ATOM     17  S   UNL A   1      33.431  20.065  25.434  1.00  0.00    -0.151 S 
ATOM     18  C   UNL A   1      33.222  21.511  26.299  1.00  0.00     0.079 A 
ENDBRANCH  10  13
ENDBRANCH   8   9
BRANCH   8  19
ATOM     19  C   UNL A   1      34.848  24.524  24.663  1.00  0.00    -0.014 A 
ATOM     20  C   UNL A   1      35.750  24.261  25.708  1.00  0.00     0.006 A 
ATOM     21  C   UNL A   1      35.002  23.753  23.491  1.00  0.00     0.006 A 
ATOM     22  C   UNL A   1      36.773  23.310  25.560  1.00  0.00     0.000 A 
ATOM     23  C   UNL A   1      36.056  22.853  23.317  1.00  0.00     0.000 A 
ATOM     24  C   UNL A   1      36.943  22.626  24.358  1.00  0.00     0.000 A 
ENDBRANCH   8  19
ENDBRANCH   6   8
ENDBRANCH   5   6
ENDBRANCH   4   5
ENDBRANCH   3   4
ENDBRANCH   2   3
ENDBRANCH   1   2
BRANCH   1  25
ATOM     25  C   UNL A   1      32.704  30.467  26.850  1.00  0.00     0.261 C 
BRANCH  25  26
ATOM     26  O   UNL A   1      33.609  30.475  27.960  1.00  0.00    -0.460 OA
BRANCH  26  27
ATOM     27  C   UNL A   1      34.493  31.507  27.938  1.00  0.00     0.338 C 
ATOM     28  O   UNL A   1      34.239  32.692  27.830  1.00  0.00    -0.246 OA
BRANCH  27  29
ATOM     29  C   UNL A   1      35.839  31.005  28.265  1.00  0.00     0.060 A 
ATOM     30  C   UNL A   1      35.959  29.644  28.576  1.00  0.00     0.016 A 
ATOM     31  C   UNL A   1      36.943  31.855  28.327  1.00  0.00     0.016 A 
ATOM     32  C   UNL A   1      37.184  29.130  28.982  1.00  0.00     0.010 A 
ATOM     33  C   UNL A   1      38.168  31.344  28.764  1.00  0.00     0.010 A 
ATOM     34  C   UNL A   1      38.279  29.989  29.126  1.00  0.00    -0.014 A 
BRANCH  34  35
ATOM     35  C   UNL A   1      39.469  29.498  29.854  1.00  0.00     0.031 A 
ATOM     36  C   UNL A   1      39.829  30.164  31.153  1.00  0.00     0.074 A 
ATOM     37  C   UNL A   1      40.166  28.443  29.398  1.00  0.00     0.049 A 
ATOM     38  N   UNL A   1      40.826  29.921  31.959  1.00  0.00    -0.248 NA
ATOM     39  C   UNL A   1      38.939  31.249  31.602  1.00  0.00     0.031 C 
ATOM     40  C   UNL A   1      39.859  27.692  28.182  1.00  0.00     0.029 A 
ATOM     41  N   UNL A   1      41.278  27.824  29.907  1.00  0.00    -0.354 N 
ATOM     42  C   UNL A   1      40.691  30.826  33.007  1.00  0.00     0.074 A 
ATOM     43  C   UNL A   1      39.531  31.641  32.721  1.00  0.00     0.031 C 
ATOM     44  C   UNL A   1      40.773  26.717  28.031  1.00  0.00     0.029 A 
ATOM     45  C   UNL A   1      41.745  26.799  29.119  1.00  0.00     0.049 A 
ATOM     46  H   UNL A   1      41.701  28.088  30.756  1.00  0.00     0.167 HD
ATOM     47  C   UNL A   1      41.465  30.958  34.109  1.00  0.00     0.037 A 
ATOM     48  C   UNL A   1      42.848  26.038  29.254  1.00  0.00     0.037 A 
ATOM     49  C   UNL A   1      42.616  30.137  34.375  1.00  0.00     0.049 A 
ATOM     50  C   UNL A   1      43.737  26.253  30.452  1.00  0.00     0.074 A 
ATOM     51  C   UNL A   1      43.469  30.176  35.464  1.00  0.00     0.029 A 
ATOM     52  N   UNL A   1      43.084  29.135  33.535  1.00  0.00    -0.354 N 
ATOM     53  N   UNL A   1      43.594  27.102  31.443  1.00  0.00    -0.248 NA
ATOM     54  C   UNL A   1      44.934  25.408  30.554  1.00  0.00     0.031 C 
ATOM     55  C   UNL A   1      44.484  29.239  35.253  1.00  0.00     0.029 A 
ATOM     56  C   UNL A   1      44.229  28.568  34.066  1.00  0.00     0.049 A 
ATOM     57  H   UNL A   1      42.661  28.866  32.687  1.00  0.00     0.167 HD
ATOM     58  C   UNL A   1      44.666  26.873  32.301  1.00  0.00     0.074 A 
ATOM     59  C   UNL A   1      45.441  25.798  31.715  1.00  0.00     0.031 C 
ATOM     60  C   UNL A   1      44.980  27.493  33.466  1.00  0.00     0.037 A 
BRANCH  47  61
ATOM     61  C   UNL A   1      41.117  32.052  35.082  1.00  0.00     0.058 A 
ATOM     62  C   UNL A   1      41.744  33.308  35.048  1.00  0.00     0.135 A 
ATOM     63  C   UNL A   1      40.120  31.846  36.050  1.00  0.00     0.135 A 
ATOM     64  F   UNL A   1      42.721  33.553  34.162  1.00  0.00    -0.206 F 
ATOM     65  C   UNL A   1      41.410  34.312  35.952  1.00  0.00     0.059 A 
ATOM     66  C   UNL A   1      39.748  32.845  36.943  1.00  0.00     0.059 A 
ATOM     67  F   UNL A   1      39.493  30.661  36.132  1.00  0.00    -0.206 F 
ATOM     68  C   UNL A   1      40.408  34.071  36.895  1.00  0.00     0.060 A 
BRANCH  68  69
ATOM     69  S   UNL A   1      39.978  35.388  38.052  1.00  0.00     0.124 S 
ATOM     70  O   UNL A   1      38.805  34.825  38.713  1.00  0.00    -0.237 OA
ATOM     71  O   UNL A   1      41.181  35.489  38.871  1.00  0.00    -0.237 OA
ATOM     72  O   UNL A   1      39.716  36.532  37.183  1.00  0.00    -0.744 OA
ENDBRANCH  68  69
ENDBRANCH  47  61
BRANCH  48  73
ATOM     73  C   UNL A   1      43.183  25.023  28.218  1.00  0.00     0.058 A 
ATOM     74  C   UNL A   1      42.828  23.675  28.374  1.00  0.00     0.135 A 
ATOM     75  C   UNL A   1      43.867  25.384  27.047  1.00  0.00     0.135 A 
ATOM     76  F   UNL A   1      42.183  23.274  29.481  1.00  0.00    -0.206 F 
ATOM     77  C   UNL A   1      43.153  22.720  27.416  1.00  0.00     0.059 A 
ATOM     78  C   UNL A   1      44.177  24.454  26.060  1.00  0.00     0.059 A 
ATOM     79  F   UNL A   1      44.223  26.663  26.842  1.00  0.00    -0.206 F 
ATOM     80  C   UNL A   1      43.825  23.120  26.259  1.00  0.00     0.060 A 
BRANCH  80  81
ATOM     81  S   UNL A   1      44.205  21.879  25.003  1.00  0.00     0.124 S 
ATOM     82  O   UNL A   1      44.012  22.637  23.773  1.00  0.00    -0.237 OA
ATOM     83  O   UNL A   1      45.584  21.529  25.329  1.00  0.00    -0.237 OA
ATOM     84  O   UNL A   1      43.222  20.831  25.259  1.00  0.00    -0.744 OA
ENDBRANCH  80  81
ENDBRANCH  48  73
BRANCH  60  85
ATOM     85  C   UNL A   1      46.192  26.997  34.209  1.00  0.00     0.058 A 
ATOM     86  C   UNL A   1      46.117  25.944  35.131  1.00  0.00     0.135 A 
ATOM     87  C   UNL A   1      47.457  27.547  33.942  1.00  0.00     0.135 A 
ATOM     88  F   UNL A   1      44.931  25.386  35.425  1.00  0.00    -0.206 F 
ATOM     89  C   UNL A   1      47.249  25.468  35.784  1.00  0.00     0.059 A 
ATOM     90  C   UNL A   1      48.607  27.066  34.560  1.00  0.00     0.059 A 
ATOM     91  F   UNL A   1      47.588  28.549  33.058  1.00  0.00    -0.206 F 
ATOM     92  C   UNL A   1      48.490  26.034  35.488  1.00  0.00     0.060 A 
BRANCH  92  93
ATOM     93  S   UNL A   1      49.956  25.382  36.317  1.00  0.00     0.124 S 
ATOM     94  O   UNL A   1      50.548  26.598  36.865  1.00  0.00    -0.237 OA
ATOM     95  O   UNL A   1      49.380  24.462  37.291  1.00  0.00    -0.237 OA
ATOM     96  O   UNL A   1      50.707  24.752  35.235  1.00  0.00    -0.744 OA
ENDBRANCH  92  93
ENDBRANCH  60  85
ENDBRANCH  34  35
ENDBRANCH  27  29
ENDBRANCH  26  27
ENDBRANCH  25  26
ENDBRANCH   1  25
TORSDOF 20
ENDMDL
