MODEL 1
REMARK VINA RESULT:     -10.7      0.000      0.000
REMARK SMILES Cc1cc(N2N=C(C(=O)OCCOCCOC(=O)c3ccc(-c4c5nc(c(-c6c(F)cc(S(=O)(=O)[O-])cc6F)c6ccc([nH]6)c(-c6c(F)cc(S(=O)(=O)[O-])cc6F)c6nc(c(-c7c(F)cc(S(=O)(=O)[O-])cc7F)c7ccc4[nH]7)C=C6)C=C5)cc3)C[C@H]2c2ccccc2)c([N+](=O)[O-])cc1C
REMARK SMILES IDX 14 1 13 2 12 3 11 4 10 5 8 6 9 7 7 8 5 9 6 10 86 11 85 12
REMARK SMILES IDX 4 13 1 14 2 15 3 16 98 17 97 18 99 19 93 20 94 21 95 22
REMARK SMILES IDX 96 23 87 24 88 25 92 26 89 27 91 28 90 29 15 30 16 31 17 32
REMARK SMILES IDX 18 33 19 34 20 35 84 36 21 37 83 38 22 39 23 40 24 41 77 42
REMARK SMILES IDX 25 43 82 44 76 45 78 46 26 47 81 48 75 49 74 50 27 52 61 53
REMARK SMILES IDX 40 54 60 55 41 56 44 57 59 58 79 59 42 60 43 61 58 63 80 64
REMARK SMILES IDX 45 65 28 66 29 67 38 68 30 69 31 70 37 71 39 72 32 73 33 74
REMARK SMILES IDX 34 75 35 76 36 77 62 78 63 79 72 80 64 81 65 82 71 83 73 84
REMARK SMILES IDX 66 85 67 86 68 87 69 88 70 89 46 90 47 91 56 92 48 93 49 94
REMARK SMILES IDX 55 95 57 96 50 97 51 98 52 99 53 100 54 101
REMARK H PARENT 78 51 44 62
REMARK Flexibility Score: inf
ROOT
ATOM      1  C   UNL A   1      31.668  29.118  26.563  1.00  0.00     0.202 C 
ENDROOT
BRANCH   1   2
ATOM      2  O   UNL A   1      31.150  28.916  25.243  1.00  0.00    -0.374 OA
BRANCH   2   3
ATOM      3  C   UNL A   1      31.955  29.385  24.158  1.00  0.00     0.202 C 
BRANCH   3   4
ATOM      4  C   UNL A   1      31.620  28.746  22.810  1.00  0.00     0.261 C 
BRANCH   4   5
ATOM      5  O   UNL A   1      32.056  27.378  22.815  1.00  0.00    -0.459 OA
BRANCH   5   6
ATOM      6  C   UNL A   1      33.382  27.202  22.681  1.00  0.00     0.354 C 
ATOM      7  O   UNL A   1      34.138  27.751  21.902  1.00  0.00    -0.245 OA
BRANCH   6   8
ATOM      8  C   UNL A   1      33.866  26.256  23.752  1.00  0.00     0.148 C 
ATOM      9  N   UNL A   1      34.656  24.535  24.675  1.00  0.00    -0.250 N 
ATOM     10  N   UNL A   1      34.432  25.121  23.471  1.00  0.00    -0.169 NA
ATOM     11  C   UNL A   1      33.969  25.205  25.791  1.00  0.00     0.144 C 
ATOM     12  C   UNL A   1      33.806  26.616  25.208  1.00  0.00     0.098 C 
BRANCH   9  13
ATOM     13  C   UNL A   1      35.374  23.357  24.737  1.00  0.00     0.138 A 
ATOM     14  C   UNL A   1      38.836  22.354  25.995  1.00  0.00     0.045 C 
ATOM     15  C   UNL A   1      37.460  22.217  25.405  1.00  0.00    -0.046 A 
ATOM     16  C   UNL A   1      36.657  23.369  25.307  1.00  0.00     0.039 A 
ATOM     17  C   UNL A   1      36.951  20.985  24.960  1.00  0.00    -0.041 A 
ATOM     18  C   UNL A   1      35.653  20.943  24.426  1.00  0.00     0.091 A 
ATOM     19  C   UNL A   1      37.713  19.693  25.075  1.00  0.00     0.045 C 
ATOM     20  C   UNL A   1      34.886  22.118  24.315  1.00  0.00     0.294 A 
BRANCH  20  21
ATOM     21  N   UNL A   1      33.541  21.995  23.761  1.00  0.00     0.065 N 
ATOM     22  O   UNL A   1      32.702  21.384  24.442  1.00  0.00    -0.258 OA
ATOM     23  O   UNL A   1      33.332  22.434  22.620  1.00  0.00    -0.258 OA
ENDBRANCH  20  21
ENDBRANCH   9  13
BRANCH  11  24
ATOM     24  C   UNL A   1      32.666  24.492  26.150  1.00  0.00    -0.023 A 
ATOM     25  C   UNL A   1      31.437  24.763  25.525  1.00  0.00     0.006 A 
ATOM     26  C   UNL A   1      32.689  23.483  27.132  1.00  0.00     0.006 A 
ATOM     27  C   UNL A   1      30.282  24.051  25.860  1.00  0.00     0.000 A 
ATOM     28  C   UNL A   1      31.543  22.750  27.444  1.00  0.00     0.000 A 
ATOM     29  C   UNL A   1      30.338  23.036  26.809  1.00  0.00     0.000 A 
ENDBRANCH  11  24
ENDBRANCH   6   8
ENDBRANCH   5   6
ENDBRANCH   4   5
ENDBRANCH   3   4
ENDBRANCH   2   3
ENDBRANCH   1   2
BRANCH   1  30
ATOM     30  C   UNL A   1      32.887  30.044  26.654  1.00  0.00     0.261 C 
BRANCH  30  31
ATOM     31  O   UNL A   1      33.858  29.547  27.596  1.00  0.00    -0.460 OA
BRANCH  31  32
ATOM     32  C   UNL A   1      34.656  30.493  28.152  1.00  0.00     0.338 C 
ATOM     33  O   UNL A   1      34.310  31.565  28.620  1.00  0.00    -0.246 OA
BRANCH  32  34
ATOM     34  C   UNL A   1      36.031  29.969  28.292  1.00  0.00     0.060 A 
ATOM     35  C   UNL A   1      36.418  29.504  29.555  1.00  0.00     0.016 A 
ATOM     36  C   UNL A   1      36.940  29.968  27.231  1.00  0.00     0.016 A 
ATOM     37  C   UNL A   1      37.725  29.065  29.770  1.00  0.00     0.010 A 
ATOM     38  C   UNL A   1      38.253  29.538  27.451  1.00  0.00     0.010 A 
ATOM     39  C   UNL A   1      38.660  29.106  28.727  1.00  0.00    -0.014 A 
BRANCH  39  40
ATOM     40  C   UNL A   1      40.082  28.785  28.998  1.00  0.00     0.031 A 
ATOM     41  C   UNL A   1      40.977  29.838  29.592  1.00  0.00     0.074 A 
ATOM     42  C   UNL A   1      40.569  27.560  28.726  1.00  0.00     0.049 A 
ATOM     43  N   UNL A   1      42.252  29.774  29.878  1.00  0.00    -0.248 NA
ATOM     44  C   UNL A   1      40.353  31.134  29.904  1.00  0.00     0.031 C 
ATOM     45  C   UNL A   1      39.798  26.450  28.169  1.00  0.00     0.029 A 
ATOM     46  N   UNL A   1      41.836  27.052  28.870  1.00  0.00    -0.354 N 
ATOM     47  C   UNL A   1      42.586  31.019  30.398  1.00  0.00     0.074 A 
ATOM     48  C   UNL A   1      41.385  31.825  30.369  1.00  0.00     0.031 C 
ATOM     49  C   UNL A   1      40.613  25.396  27.998  1.00  0.00     0.029 A 
ATOM     50  C   UNL A   1      41.966  25.763  28.410  1.00  0.00     0.049 A 
ATOM     51  H   UNL A   1      42.580  27.561  29.265  1.00  0.00     0.167 HD
ATOM     52  C   UNL A   1      43.783  31.447  30.863  1.00  0.00     0.037 A 
ATOM     53  C   UNL A   1      43.058  24.978  28.309  1.00  0.00     0.037 A 
ATOM     54  C   UNL A   1      44.977  30.642  30.896  1.00  0.00     0.049 A 
ATOM     55  C   UNL A   1      44.390  25.495  28.782  1.00  0.00     0.074 A 
ATOM     56  C   UNL A   1      46.225  30.973  31.396  1.00  0.00     0.029 A 
ATOM     57  N   UNL A   1      45.075  29.351  30.399  1.00  0.00    -0.354 N 
ATOM     58  N   UNL A   1      44.680  26.658  29.316  1.00  0.00    -0.248 NA
ATOM     59  C   UNL A   1      45.545  24.596  28.638  1.00  0.00     0.031 C 
ATOM     60  C   UNL A   1      47.090  29.899  31.159  1.00  0.00     0.029 A 
ATOM     61  C   UNL A   1      46.372  28.884  30.549  1.00  0.00     0.049 A 
ATOM     62  H   UNL A   1      44.334  28.842  29.998  1.00  0.00     0.167 HD
ATOM     63  C   UNL A   1      46.046  26.625  29.581  1.00  0.00     0.074 A 
ATOM     64  C   UNL A   1      46.521  25.323  29.165  1.00  0.00     0.031 C 
ATOM     65  C   UNL A   1      46.834  27.588  30.122  1.00  0.00     0.037 A 
BRANCH  52  66
ATOM     66  C   UNL A   1      43.871  32.862  31.360  1.00  0.00     0.058 A 
ATOM     67  C   UNL A   1      43.721  33.175  32.719  1.00  0.00     0.135 A 
ATOM     68  C   UNL A   1      44.150  33.911  30.470  1.00  0.00     0.135 A 
ATOM     69  F   UNL A   1      43.438  32.210  33.609  1.00  0.00    -0.206 F 
ATOM     70  C   UNL A   1      43.827  34.484  33.178  1.00  0.00     0.059 A 
ATOM     71  C   UNL A   1      44.279  35.225  30.909  1.00  0.00     0.059 A 
ATOM     72  F   UNL A   1      44.299  33.663  29.159  1.00  0.00    -0.206 F 
ATOM     73  C   UNL A   1      44.104  35.503  32.264  1.00  0.00     0.060 A 
BRANCH  73  74
ATOM     74  S   UNL A   1      44.246  37.196  32.873  1.00  0.00     0.124 S 
ATOM     75  O   UNL A   1      45.537  37.154  33.552  1.00  0.00    -0.237 OA
ATOM     76  O   UNL A   1      44.205  37.977  31.640  1.00  0.00    -0.237 OA
ATOM     77  O   UNL A   1      43.083  37.344  33.742  1.00  0.00    -0.744 OA
ENDBRANCH  73  74
ENDBRANCH  52  66
BRANCH  53  78
ATOM     78  C   UNL A   1      42.941  23.625  27.707  1.00  0.00     0.058 A 
ATOM     79  C   UNL A   1      42.555  22.518  28.474  1.00  0.00     0.135 A 
ATOM     80  C   UNL A   1      43.213  23.417  26.346  1.00  0.00     0.135 A 
ATOM     81  F   UNL A   1      42.297  22.666  29.783  1.00  0.00    -0.206 F 
ATOM     82  C   UNL A   1      42.450  21.248  27.917  1.00  0.00     0.059 A 
ATOM     83  C   UNL A   1      43.094  22.162  25.760  1.00  0.00     0.059 A 
ATOM     84  F   UNL A   1      43.576  24.448  25.567  1.00  0.00    -0.206 F 
ATOM     85  C   UNL A   1      42.719  21.081  26.557  1.00  0.00     0.060 A 
BRANCH  85  86
ATOM     86  S   UNL A   1      42.522  19.441  25.824  1.00  0.00     0.124 S 
ATOM     87  O   UNL A   1      43.323  19.565  24.611  1.00  0.00    -0.237 OA
ATOM     88  O   UNL A   1      43.063  18.571  26.863  1.00  0.00    -0.237 OA
ATOM     89  O   UNL A   1      41.080  19.339  25.621  1.00  0.00    -0.744 OA
ENDBRANCH  85  86
ENDBRANCH  53  78
BRANCH  65  90
ATOM     90  C   UNL A   1      48.292  27.269  30.300  1.00  0.00     0.058 A 
ATOM     91  C   UNL A   1      49.249  27.674  29.359  1.00  0.00     0.135 A 
ATOM     92  C   UNL A   1      48.743  26.602  31.450  1.00  0.00     0.135 A 
ATOM     93  F   UNL A   1      48.868  28.309  28.238  1.00  0.00    -0.206 F 
ATOM     94  C   UNL A   1      50.604  27.414  29.541  1.00  0.00     0.059 A 
ATOM     95  C   UNL A   1      50.094  26.351  31.665  1.00  0.00     0.059 A 
ATOM     96  F   UNL A   1      47.867  26.202  32.387  1.00  0.00    -0.206 F 
ATOM     97  C   UNL A   1      51.017  26.752  30.699  1.00  0.00     0.060 A 
BRANCH  97  98
ATOM     98  S   UNL A   1      52.781  26.452  30.945  1.00  0.00     0.124 S 
ATOM     99  O   UNL A   1      53.232  26.218  29.578  1.00  0.00    -0.237 OA
ATOM    100  O   UNL A   1      53.230  27.699  31.556  1.00  0.00    -0.237 OA
ATOM    101  O   UNL A   1      52.806  25.287  31.824  1.00  0.00    -0.744 OA
ENDBRANCH  97  98
ENDBRANCH  65  90
ENDBRANCH  39  40
ENDBRANCH  32  34
ENDBRANCH  31  32
ENDBRANCH  30  31
ENDBRANCH   1  30
TORSDOF 20
ENDMDL
MODEL 2
REMARK VINA RESULT:     -10.5      1.150      8.153
REMARK SMILES Cc1cc(N2N=C(C(=O)OCCOCCOC(=O)c3ccc(-c4c5nc(c(-c6c(F)cc(S(=O)(=O)[O-])cc6F)c6ccc([nH]6)c(-c6c(F)cc(S(=O)(=O)[O-])cc6F)c6nc(c(-c7c(F)cc(S(=O)(=O)[O-])cc7F)c7ccc4[nH]7)C=C6)C=C5)cc3)C[C@H]2c2ccccc2)c([N+](=O)[O-])cc1C
REMARK SMILES IDX 14 1 13 2 12 3 11 4 10 5 8 6 9 7 7 8 5 9 6 10 86 11 85 12
REMARK SMILES IDX 4 13 1 14 2 15 3 16 98 17 97 18 99 19 93 20 94 21 95 22
REMARK SMILES IDX 96 23 87 24 88 25 92 26 89 27 91 28 90 29 15 30 16 31 17 32
REMARK SMILES IDX 18 33 19 34 20 35 84 36 21 37 83 38 22 39 23 40 24 41 77 42
REMARK SMILES IDX 25 43 82 44 76 45 78 46 26 47 81 48 75 49 74 50 27 52 61 53
REMARK SMILES IDX 40 54 60 55 41 56 44 57 59 58 79 59 42 60 43 61 58 63 80 64
REMARK SMILES IDX 45 65 28 66 29 67 38 68 30 69 31 70 37 71 39 72 32 73 33 74
REMARK SMILES IDX 34 75 35 76 36 77 62 78 63 79 72 80 64 81 65 82 71 83 73 84
REMARK SMILES IDX 66 85 67 86 68 87 69 88 70 89 46 90 47 91 56 92 48 93 49 94
REMARK SMILES IDX 55 95 57 96 50 97 51 98 52 99 53 100 54 101
REMARK H PARENT 78 51 44 62
REMARK Flexibility Score: inf
ROOT
ATOM      1  C   UNL A   1      31.882  29.260  26.186  1.00  0.00     0.202 C 
ENDROOT
BRANCH   1   2
ATOM      2  O   UNL A   1      31.485  29.145  24.815  1.00  0.00    -0.374 OA
BRANCH   2   3
ATOM      3  C   UNL A   1      32.533  29.024  23.850  1.00  0.00     0.202 C 
BRANCH   3   4
ATOM      4  C   UNL A   1      32.295  27.937  22.800  1.00  0.00     0.261 C 
BRANCH   4   5
ATOM      5  O   UNL A   1      33.543  27.303  22.486  1.00  0.00    -0.459 OA
BRANCH   5   6
ATOM      6  C   UNL A   1      33.443  26.043  22.028  1.00  0.00     0.354 C 
ATOM      7  O   UNL A   1      33.277  25.672  20.882  1.00  0.00    -0.245 OA
BRANCH   6   8
ATOM      8  C   UNL A   1      33.681  25.083  23.166  1.00  0.00     0.148 C 
ATOM      9  N   UNL A   1      33.915  23.279  24.230  1.00  0.00    -0.250 N 
ATOM     10  N   UNL A   1      33.777  23.799  22.984  1.00  0.00    -0.169 NA
ATOM     11  C   UNL A   1      33.637  24.245  25.304  1.00  0.00     0.144 C 
ATOM     12  C   UNL A   1      33.915  25.564  24.569  1.00  0.00     0.098 C 
BRANCH   9  13
ATOM     13  C   UNL A   1      34.176  21.931  24.380  1.00  0.00     0.138 A 
ATOM     14  C   UNL A   1      32.156  18.716  23.983  1.00  0.00     0.045 C 
ATOM     15  C   UNL A   1      33.333  19.614  24.250  1.00  0.00    -0.046 A 
ATOM     16  C   UNL A   1      33.156  21.004  24.117  1.00  0.00     0.039 A 
ATOM     17  C   UNL A   1      34.594  19.114  24.617  1.00  0.00    -0.041 A 
ATOM     18  C   UNL A   1      35.641  20.022  24.843  1.00  0.00     0.091 A 
ATOM     19  C   UNL A   1      34.893  17.644  24.730  1.00  0.00     0.045 C 
ATOM     20  C   UNL A   1      35.424  21.408  24.729  1.00  0.00     0.294 A 
BRANCH  20  21
ATOM     21  N   UNL A   1      36.562  22.290  24.967  1.00  0.00     0.065 N 
ATOM     22  O   UNL A   1      36.715  22.718  26.122  1.00  0.00    -0.258 OA
ATOM     23  O   UNL A   1      37.263  22.623  23.998  1.00  0.00    -0.258 OA
ENDBRANCH  20  21
ENDBRANCH   9  13
BRANCH  11  24
ATOM     24  C   UNL A   1      32.216  24.085  25.842  1.00  0.00    -0.023 A 
ATOM     25  C   UNL A   1      31.819  23.029  26.681  1.00  0.00     0.006 A 
ATOM     26  C   UNL A   1      31.251  25.058  25.519  1.00  0.00     0.006 A 
ATOM     27  C   UNL A   1      30.517  22.953  27.182  1.00  0.00     0.000 A 
ATOM     28  C   UNL A   1      29.959  25.000  26.046  1.00  0.00     0.000 A 
ATOM     29  C   UNL A   1      29.591  23.944  26.875  1.00  0.00     0.000 A 
ENDBRANCH  11  24
ENDBRANCH   6   8
ENDBRANCH   5   6
ENDBRANCH   4   5
ENDBRANCH   3   4
ENDBRANCH   2   3
ENDBRANCH   1   2
BRANCH   1  30
ATOM     30  C   UNL A   1      33.305  28.781  26.497  1.00  0.00     0.261 C 
BRANCH  30  31
ATOM     31  O   UNL A   1      33.687  29.105  27.849  1.00  0.00    -0.460 OA
BRANCH  31  32
ATOM     32  C   UNL A   1      34.480  30.198  27.976  1.00  0.00     0.338 C 
ATOM     33  O   UNL A   1      34.122  31.356  28.111  1.00  0.00    -0.246 OA
BRANCH  32  34
ATOM     34  C   UNL A   1      35.891  29.779  28.118  1.00  0.00     0.060 A 
ATOM     35  C   UNL A   1      36.307  29.332  29.379  1.00  0.00     0.016 A 
ATOM     36  C   UNL A   1      36.802  29.858  27.062  1.00  0.00     0.016 A 
ATOM     37  C   UNL A   1      37.642  28.992  29.596  1.00  0.00     0.010 A 
ATOM     38  C   UNL A   1      38.143  29.527  27.285  1.00  0.00     0.010 A 
ATOM     39  C   UNL A   1      38.576  29.115  28.558  1.00  0.00    -0.014 A 
BRANCH  39  40
ATOM     40  C   UNL A   1      40.017  28.901  28.834  1.00  0.00     0.031 A 
ATOM     41  C   UNL A   1      40.643  27.572  28.508  1.00  0.00     0.074 A 
ATOM     42  C   UNL A   1      40.765  29.887  29.361  1.00  0.00     0.049 A 
ATOM     43  N   UNL A   1      41.872  27.168  28.697  1.00  0.00    -0.248 NA
ATOM     44  C   UNL A   1      39.765  26.565  27.889  1.00  0.00     0.031 C 
ATOM     45  C   UNL A   1      40.281  31.224  29.701  1.00  0.00     0.029 A 
ATOM     46  N   UNL A   1      42.091  29.909  29.716  1.00  0.00    -0.354 N 
ATOM     47  C   UNL A   1      41.918  25.862  28.226  1.00  0.00     0.074 A 
ATOM     48  C   UNL A   1      40.588  25.533  27.761  1.00  0.00     0.031 C 
ATOM     49  C   UNL A   1      41.291  31.931  30.235  1.00  0.00     0.029 A 
ATOM     50  C   UNL A   1      42.485  31.091  30.298  1.00  0.00     0.049 A 
ATOM     51  H   UNL A   1      42.702  29.152  29.568  1.00  0.00     0.167 HD
ATOM     52  C   UNL A   1      42.975  25.017  28.179  1.00  0.00     0.037 A 
ATOM     53  C   UNL A   1      43.666  31.445  30.842  1.00  0.00     0.037 A 
ATOM     54  C   UNL A   1      44.300  25.347  28.635  1.00  0.00     0.049 A 
ATOM     55  C   UNL A   1      44.813  30.468  30.828  1.00  0.00     0.074 A 
ATOM     56  C   UNL A   1      45.447  24.573  28.582  1.00  0.00     0.029 A 
ATOM     57  N   UNL A   1      44.653  26.543  29.241  1.00  0.00    -0.354 N 
ATOM     58  N   UNL A   1      44.853  29.253  30.336  1.00  0.00    -0.248 NA
ATOM     59  C   UNL A   1      46.073  30.910  31.445  1.00  0.00     0.031 C 
ATOM     60  C   UNL A   1      46.483  25.284  29.197  1.00  0.00     0.029 A 
ATOM     61  C   UNL A   1      45.993  26.516  29.598  1.00  0.00     0.049 A 
ATOM     62  H   UNL A   1      44.043  27.300  29.397  1.00  0.00     0.167 HD
ATOM     63  C   UNL A   1      46.144  28.790  30.573  1.00  0.00     0.074 A 
ATOM     64  C   UNL A   1      46.857  29.860  31.238  1.00  0.00     0.031 C 
ATOM     65  C   UNL A   1      46.688  27.586  30.267  1.00  0.00     0.037 A 
BRANCH  52  66
ATOM     66  C   UNL A   1      42.740  23.639  27.629  1.00  0.00     0.058 A 
ATOM     67  C   UNL A   1      42.832  23.369  26.255  1.00  0.00     0.135 A 
ATOM     68  C   UNL A   1      42.461  22.567  28.492  1.00  0.00     0.135 A 
ATOM     69  F   UNL A   1      43.081  24.362  25.386  1.00  0.00    -0.206 F 
ATOM     70  C   UNL A   1      42.637  22.087  25.752  1.00  0.00     0.059 A 
ATOM     71  C   UNL A   1      42.282  21.273  28.014  1.00  0.00     0.059 A 
ATOM     72  F   UNL A   1      42.360  22.775  29.814  1.00  0.00    -0.206 F 
ATOM     73  C   UNL A   1      42.360  21.045  26.640  1.00  0.00     0.060 A 
BRANCH  73  74
ATOM     74  S   UNL A   1      42.116  19.384  25.977  1.00  0.00     0.124 S 
ATOM     75  O   UNL A   1      42.939  19.429  24.772  1.00  0.00    -0.237 OA
ATOM     76  O   UNL A   1      42.619  18.539  27.056  1.00  0.00    -0.237 OA
ATOM     77  O   UNL A   1      40.675  19.316  25.751  1.00  0.00    -0.744 OA
ENDBRANCH  73  74
ENDBRANCH  52  66
BRANCH  53  78
ATOM     78  C   UNL A   1      43.817  32.781  31.475  1.00  0.00     0.058 A 
ATOM     79  C   UNL A   1      44.214  33.898  30.730  1.00  0.00     0.135 A 
ATOM     80  C   UNL A   1      43.561  32.961  32.844  1.00  0.00     0.135 A 
ATOM     81  F   UNL A   1      44.481  33.771  29.421  1.00  0.00    -0.206 F 
ATOM     82  C   UNL A   1      44.362  35.150  31.318  1.00  0.00     0.059 A 
ATOM     83  C   UNL A   1      43.681  34.206  33.451  1.00  0.00     0.059 A 
ATOM     84  F   UNL A   1      43.169  31.923  33.598  1.00  0.00    -0.206 F 
ATOM     85  C   UNL A   1      44.091  35.294  32.681  1.00  0.00     0.060 A 
BRANCH  85  86
ATOM     86  S   UNL A   1      44.225  36.933  33.428  1.00  0.00     0.124 S 
ATOM     87  O   UNL A   1      43.136  36.903  34.398  1.00  0.00    -0.237 OA
ATOM     88  O   UNL A   1      45.576  36.910  33.981  1.00  0.00    -0.237 OA
ATOM     89  O   UNL A   1      44.038  37.832  32.293  1.00  0.00    -0.744 OA
ENDBRANCH  85  86
ENDBRANCH  53  78
BRANCH  65  90
ATOM     90  C   UNL A   1      48.126  27.361  30.641  1.00  0.00     0.058 A 
ATOM     91  C   UNL A   1      48.478  26.686  31.819  1.00  0.00     0.135 A 
ATOM     92  C   UNL A   1      49.161  27.775  29.787  1.00  0.00     0.135 A 
ATOM     93  F   UNL A   1      47.526  26.277  32.673  1.00  0.00    -0.206 F 
ATOM     94  C   UNL A   1      49.808  26.443  32.148  1.00  0.00     0.059 A 
ATOM     95  C   UNL A   1      50.497  27.523  30.084  1.00  0.00     0.059 A 
ATOM     96  F   UNL A   1      48.877  28.417  28.642  1.00  0.00    -0.206 F 
ATOM     97  C   UNL A   1      50.811  26.865  31.273  1.00  0.00     0.060 A 
BRANCH  97  98
ATOM     98  S   UNL A   1      52.532  26.512  31.690  1.00  0.00     0.124 S 
ATOM     99  O   UNL A   1      52.806  27.533  32.695  1.00  0.00    -0.237 OA
ATOM    100  O   UNL A   1      52.462  25.140  32.183  1.00  0.00    -0.237 OA
ATOM    101  O   UNL A   1      53.229  26.679  30.418  1.00  0.00    -0.744 OA
ENDBRANCH  97  98
ENDBRANCH  65  90
ENDBRANCH  39  40
ENDBRANCH  32  34
ENDBRANCH  31  32
ENDBRANCH  30  31
ENDBRANCH   1  30
TORSDOF 20
ENDMDL
MODEL 3
REMARK VINA RESULT:     -10.5      0.461      7.909
REMARK SMILES Cc1cc(N2N=C(C(=O)OCCOCCOC(=O)c3ccc(-c4c5nc(c(-c6c(F)cc(S(=O)(=O)[O-])cc6F)c6ccc([nH]6)c(-c6c(F)cc(S(=O)(=O)[O-])cc6F)c6nc(c(-c7c(F)cc(S(=O)(=O)[O-])cc7F)c7ccc4[nH]7)C=C6)C=C5)cc3)C[C@H]2c2ccccc2)c([N+](=O)[O-])cc1C
REMARK SMILES IDX 14 1 13 2 12 3 11 4 10 5 8 6 9 7 7 8 5 9 6 10 86 11 85 12
REMARK SMILES IDX 4 13 1 14 2 15 3 16 98 17 97 18 99 19 93 20 94 21 95 22
REMARK SMILES IDX 96 23 87 24 88 25 92 26 89 27 91 28 90 29 15 30 16 31 17 32
REMARK SMILES IDX 18 33 19 34 20 35 84 36 21 37 83 38 22 39 23 40 24 41 77 42
REMARK SMILES IDX 25 43 82 44 76 45 78 46 26 47 81 48 75 49 74 50 27 52 61 53
REMARK SMILES IDX 40 54 60 55 41 56 44 57 59 58 79 59 42 60 43 61 58 63 80 64
REMARK SMILES IDX 45 65 28 66 29 67 38 68 30 69 31 70 37 71 39 72 32 73 33 74
REMARK SMILES IDX 34 75 35 76 36 77 62 78 63 79 72 80 64 81 65 82 71 83 73 84
REMARK SMILES IDX 66 85 67 86 68 87 69 88 70 89 46 90 47 91 56 92 48 93 49 94
REMARK SMILES IDX 55 95 57 96 50 97 51 98 52 99 53 100 54 101
REMARK H PARENT 78 51 44 62
REMARK Flexibility Score: inf
ROOT
ATOM      1  C   UNL A   1      31.751  28.894  26.537  1.00  0.00     0.202 C 
ENDROOT
BRANCH   1   2
ATOM      2  O   UNL A   1      31.216  28.758  25.216  1.00  0.00    -0.374 OA
BRANCH   2   3
ATOM      3  C   UNL A   1      31.855  29.514  24.183  1.00  0.00     0.202 C 
BRANCH   3   4
ATOM      4  C   UNL A   1      31.659  28.942  22.778  1.00  0.00     0.261 C 
BRANCH   4   5
ATOM      5  O   UNL A   1      32.007  27.550  22.783  1.00  0.00    -0.459 OA
BRANCH   5   6
ATOM      6  C   UNL A   1      33.311  27.288  22.582  1.00  0.00     0.354 C 
ATOM      7  O   UNL A   1      34.053  27.765  21.744  1.00  0.00    -0.245 OA
BRANCH   6   8
ATOM      8  C   UNL A   1      33.798  26.348  23.657  1.00  0.00     0.148 C 
ATOM      9  N   UNL A   1      34.557  24.619  24.591  1.00  0.00    -0.250 N 
ATOM     10  N   UNL A   1      34.312  25.186  23.382  1.00  0.00    -0.169 NA
ATOM     11  C   UNL A   1      33.936  25.338  25.714  1.00  0.00     0.144 C 
ATOM     12  C   UNL A   1      33.803  26.742  25.105  1.00  0.00     0.098 C 
BRANCH   9  13
ATOM     13  C   UNL A   1      35.234  23.417  24.655  1.00  0.00     0.138 A 
ATOM     14  C   UNL A   1      38.632  22.283  25.974  1.00  0.00     0.045 C 
ATOM     15  C   UNL A   1      37.264  22.198  25.353  1.00  0.00    -0.046 A 
ATOM     16  C   UNL A   1      36.503  23.378  25.251  1.00  0.00     0.039 A 
ATOM     17  C   UNL A   1      36.723  20.989  24.884  1.00  0.00    -0.041 A 
ATOM     18  C   UNL A   1      35.437  20.997  24.323  1.00  0.00     0.091 A 
ATOM     19  C   UNL A   1      37.438  19.671  25.000  1.00  0.00     0.045 C 
ATOM     20  C   UNL A   1      34.712  22.199  24.209  1.00  0.00     0.294 A 
BRANCH  20  21
ATOM     21  N   UNL A   1      33.376  22.128  23.625  1.00  0.00     0.065 N 
ATOM     22  O   UNL A   1      32.500  21.548  24.285  1.00  0.00    -0.258 OA
ATOM     23  O   UNL A   1      33.208  22.578  22.481  1.00  0.00    -0.258 OA
ENDBRANCH  20  21
ENDBRANCH   9  13
BRANCH  11  24
ATOM     24  C   UNL A   1      32.621  24.683  26.135  1.00  0.00    -0.023 A 
ATOM     25  C   UNL A   1      31.358  25.150  25.732  1.00  0.00     0.006 A 
ATOM     26  C   UNL A   1      32.662  23.528  26.940  1.00  0.00     0.006 A 
ATOM     27  C   UNL A   1      30.187  24.486  26.109  1.00  0.00     0.000 A 
ATOM     28  C   UNL A   1      31.494  22.847  27.290  1.00  0.00     0.000 A 
ATOM     29  C   UNL A   1      30.256  23.329  26.876  1.00  0.00     0.000 A 
ENDBRANCH  11  24
ENDBRANCH   6   8
ENDBRANCH   5   6
ENDBRANCH   4   5
ENDBRANCH   3   4
ENDBRANCH   2   3
ENDBRANCH   1   2
BRANCH   1  30
ATOM     30  C   UNL A   1      32.822  29.979  26.702  1.00  0.00     0.261 C 
BRANCH  30  31
ATOM     31  O   UNL A   1      34.008  29.459  27.336  1.00  0.00    -0.460 OA
BRANCH  31  32
ATOM     32  C   UNL A   1      34.703  30.355  28.078  1.00  0.00     0.338 C 
ATOM     33  O   UNL A   1      34.255  31.314  28.685  1.00  0.00    -0.246 OA
BRANCH  32  34
ATOM     34  C   UNL A   1      36.106  29.910  28.218  1.00  0.00     0.060 A 
ATOM     35  C   UNL A   1      36.506  29.420  29.468  1.00  0.00     0.016 A 
ATOM     36  C   UNL A   1      37.026  30.004  27.170  1.00  0.00     0.016 A 
ATOM     37  C   UNL A   1      37.834  29.053  29.684  1.00  0.00     0.010 A 
ATOM     38  C   UNL A   1      38.360  29.645  27.392  1.00  0.00     0.010 A 
ATOM     39  C   UNL A   1      38.777  29.190  28.657  1.00  0.00    -0.014 A 
BRANCH  39  40
ATOM     40  C   UNL A   1      40.212  28.944  28.936  1.00  0.00     0.031 A 
ATOM     41  C   UNL A   1      40.815  27.610  28.592  1.00  0.00     0.074 A 
ATOM     42  C   UNL A   1      40.976  29.909  29.482  1.00  0.00     0.049 A 
ATOM     43  N   UNL A   1      42.036  27.180  28.780  1.00  0.00    -0.248 NA
ATOM     44  C   UNL A   1      39.922  26.629  27.952  1.00  0.00     0.031 C 
ATOM     45  C   UNL A   1      40.515  31.248  29.841  1.00  0.00     0.029 A 
ATOM     46  N   UNL A   1      42.300  29.900  29.844  1.00  0.00    -0.354 N 
ATOM     47  C   UNL A   1      42.060  25.881  28.288  1.00  0.00     0.074 A 
ATOM     48  C   UNL A   1      40.726  25.584  27.812  1.00  0.00     0.031 C 
ATOM     49  C   UNL A   1      41.535  31.928  30.392  1.00  0.00     0.029 A 
ATOM     50  C   UNL A   1      42.713  31.064  30.447  1.00  0.00     0.049 A 
ATOM     51  H   UNL A   1      42.897  29.134  29.687  1.00  0.00     0.167 HD
ATOM     52  C   UNL A   1      43.101  25.017  28.233  1.00  0.00     0.037 A 
ATOM     53  C   UNL A   1      43.898  31.388  31.002  1.00  0.00     0.037 A 
ATOM     54  C   UNL A   1      44.430  25.315  28.701  1.00  0.00     0.049 A 
ATOM     55  C   UNL A   1      45.026  30.390  30.979  1.00  0.00     0.074 A 
ATOM     56  C   UNL A   1      45.562  24.521  28.641  1.00  0.00     0.029 A 
ATOM     57  N   UNL A   1      44.802  26.495  29.328  1.00  0.00    -0.354 N 
ATOM     58  N   UNL A   1      45.046  29.182  30.467  1.00  0.00    -0.248 NA
ATOM     59  C   UNL A   1      46.291  30.798  31.608  1.00  0.00     0.031 C 
ATOM     60  C   UNL A   1      46.609  25.202  29.273  1.00  0.00     0.029 A 
ATOM     61  C   UNL A   1      46.139  26.437  29.690  1.00  0.00     0.049 A 
ATOM     62  H   UNL A   1      44.205  27.260  29.492  1.00  0.00     0.167 HD
ATOM     63  C   UNL A   1      46.327  28.691  30.703  1.00  0.00     0.074 A 
ATOM     64  C   UNL A   1      47.057  29.738  31.388  1.00  0.00     0.031 C 
ATOM     65  C   UNL A   1      46.850  27.483  30.380  1.00  0.00     0.037 A 
BRANCH  52  66
ATOM     66  C   UNL A   1      42.843  23.653  27.659  1.00  0.00     0.058 A 
ATOM     67  C   UNL A   1      42.945  23.402  26.283  1.00  0.00     0.135 A 
ATOM     68  C   UNL A   1      42.532  22.575  28.503  1.00  0.00     0.135 A 
ATOM     69  F   UNL A   1      43.226  24.401  25.432  1.00  0.00    -0.206 F 
ATOM     70  C   UNL A   1      42.729  22.131  25.759  1.00  0.00     0.059 A 
ATOM     71  C   UNL A   1      42.331  21.292  28.004  1.00  0.00     0.059 A 
ATOM     72  F   UNL A   1      42.420  22.765  29.827  1.00  0.00    -0.206 F 
ATOM     73  C   UNL A   1      42.420  21.082  26.628  1.00  0.00     0.060 A 
BRANCH  73  74
ATOM     74  S   UNL A   1      42.149  19.437  25.937  1.00  0.00     0.124 S 
ATOM     75  O   UNL A   1      42.635  18.584  27.017  1.00  0.00    -0.237 OA
ATOM     76  O   UNL A   1      40.705  19.422  25.720  1.00  0.00    -0.237 OA
ATOM     77  O   UNL A   1      42.962  19.439  24.724  1.00  0.00    -0.744 OA
ENDBRANCH  73  74
ENDBRANCH  52  66
BRANCH  53  78
ATOM     78  C   UNL A   1      44.070  32.710  31.658  1.00  0.00     0.058 A 
ATOM     79  C   UNL A   1      43.794  32.889  33.020  1.00  0.00     0.135 A 
ATOM     80  C   UNL A   1      44.519  33.822  30.927  1.00  0.00     0.135 A 
ATOM     81  F   UNL A   1      43.351  31.857  33.755  1.00  0.00    -0.206 F 
ATOM     82  C   UNL A   1      43.948  34.126  33.637  1.00  0.00     0.059 A 
ATOM     83  C   UNL A   1      44.701  35.063  31.526  1.00  0.00     0.059 A 
ATOM     84  F   UNL A   1      44.805  33.699  29.622  1.00  0.00    -0.206 F 
ATOM     85  C   UNL A   1      44.405  35.207  32.881  1.00  0.00     0.060 A 
BRANCH  85  86
ATOM     86  S   UNL A   1      44.662  36.797  33.700  1.00  0.00     0.124 S 
ATOM     87  O   UNL A   1      43.391  37.466  33.446  1.00  0.00    -0.237 OA
ATOM     88  O   UNL A   1      44.911  36.396  35.081  1.00  0.00    -0.237 OA
ATOM     89  O   UNL A   1      45.818  37.349  32.999  1.00  0.00    -0.744 OA
ENDBRANCH  85  86
ENDBRANCH  53  78
BRANCH  65  90
ATOM     90  C   UNL A   1      48.282  27.225  30.757  1.00  0.00     0.058 A 
ATOM     91  C   UNL A   1      49.333  27.505  29.871  1.00  0.00     0.135 A 
ATOM     92  C   UNL A   1      48.610  26.746  32.035  1.00  0.00     0.135 A 
ATOM     93  F   UNL A   1      49.072  27.957  28.634  1.00  0.00    -0.206 F 
ATOM     94  C   UNL A   1      50.661  27.304  30.233  1.00  0.00     0.059 A 
ATOM     95  C   UNL A   1      49.932  26.559  32.427  1.00  0.00     0.059 A 
ATOM     96  F   UNL A   1      47.642  26.472  32.924  1.00  0.00    -0.206 F 
ATOM     97  C   UNL A   1      50.951  26.831  31.515  1.00  0.00     0.060 A 
BRANCH  97  98
ATOM     98  S   UNL A   1      52.680  26.608  31.987  1.00  0.00     0.124 S 
ATOM     99  O   UNL A   1      53.365  26.868  30.726  1.00  0.00    -0.237 OA
ATOM    100  O   UNL A   1      52.856  27.620  33.024  1.00  0.00    -0.237 OA
ATOM    101  O   UNL A   1      52.727  25.226  32.456  1.00  0.00    -0.744 OA
ENDBRANCH  97  98
ENDBRANCH  65  90
ENDBRANCH  39  40
ENDBRANCH  32  34
ENDBRANCH  31  32
ENDBRANCH  30  31
ENDBRANCH   1  30
TORSDOF 20
ENDMDL
