MODEL 1
REMARK VINA RESULT:     -11.7      0.000      0.000
REMARK SMILES COc1ccc(-n2ccnc2C[N@@H+]2Cc3[nH]cnc3C[C@H]2C(=O)OCCOCCOC(=O)c2ccc(-c3c4nc(c(-c5c(F)cc(S(=O)(=O)[O-])cc5F)c5ccc([nH]5)c(-c5c(F)cc(S(=O)(=O)[O-])cc5F)c5nc(c(-c6c(F)cc(S(=O)(=O)[O-])cc6F)c6ccc3[nH]6)C=C5)C=C4)cc2)cc1
REMARK SMILES IDX 26 1 25 2 24 3 22 4 23 5 21 6 13 7 14 8 15 10 20 11 16 12
REMARK SMILES IDX 19 13 17 14 18 16 12 17 11 18 7 19 8 20 9 21 10 22 6 23 3 24
REMARK SMILES IDX 4 25 100 26 5 27 99 28 2 29 1 30 27 31 28 32 29 33 30 34
REMARK SMILES IDX 31 35 32 36 33 37 34 38 98 39 35 40 97 41 36 42 37 43 38 44
REMARK SMILES IDX 91 45 39 46 96 47 90 48 92 49 40 50 95 51 89 52 88 53 41 55
REMARK SMILES IDX 75 56 54 57 74 58 55 59 58 60 73 61 93 62 56 63 57 64 72 66
REMARK SMILES IDX 94 67 59 68 42 69 43 70 52 71 44 72 45 73 51 74 53 75 46 76
REMARK SMILES IDX 47 77 48 78 49 79 50 80 76 81 77 82 86 83 78 84 79 85 85 86
REMARK SMILES IDX 87 87 80 88 81 89 82 90 83 91 84 92 60 93 61 94 70 95 62 96
REMARK SMILES IDX 63 97 69 98 71 99 64 100 65 101 66 102 67 103 68 104
REMARK H PARENT 13 9 16 15 92 54 58 65
REMARK Flexibility Score: inf
ROOT
ATOM      1  C   UNL A   1      33.176  28.518  25.357  1.00  0.00     0.202 C 
ENDROOT
BRANCH   1   2
ATOM      2  C   UNL A   1      33.268  28.505  23.834  1.00  0.00     0.261 C 
BRANCH   2   3
ATOM      3  O   UNL A   1      32.512  27.447  23.227  1.00  0.00    -0.459 OA
BRANCH   3   4
ATOM      4  C   UNL A   1      33.245  26.506  22.571  1.00  0.00     0.365 C 
ATOM      5  O   UNL A   1      33.890  26.712  21.546  1.00  0.00    -0.245 OA
BRANCH   4   6
ATOM      6  C   UNL A   1      33.066  25.107  23.142  1.00  0.00     0.301 C 
ATOM      7  N   UNL A   1      34.279  24.629  23.937  1.00  0.00    -0.312 N 
ATOM      8  C   UNL A   1      34.104  24.826  25.395  1.00  0.00     0.320 C 
ATOM      9  H   UNL A   1      35.086  25.195  23.673  1.00  0.00     0.349 HD
ATOM     10  C   UNL A   1      32.795  24.284  25.800  1.00  0.00     0.093 A 
ATOM     11  C   UNL A   1      31.644  25.143  23.792  1.00  0.00     0.136 C 
ATOM     12  N   UNL A   1      32.462  23.495  26.855  1.00  0.00    -0.344 N 
ATOM     13  C   UNL A   1      31.650  24.411  25.064  1.00  0.00     0.074 A 
ATOM     14  C   UNL A   1      31.136  23.178  26.699  1.00  0.00     0.197 A 
ATOM     15  H   UNL A   1      33.056  23.207  27.587  1.00  0.00     0.167 HD
ATOM     16  N   UNL A   1      30.613  23.729  25.623  1.00  0.00    -0.241 NA
BRANCH   7  17
ATOM     17  C   UNL A   1      34.550  23.197  23.602  1.00  0.00     0.340 C 
BRANCH  17  18
ATOM     18  C   UNL A   1      35.822  22.614  24.187  1.00  0.00     0.168 A 
ATOM     19  N   UNL A   1      35.900  21.394  24.868  1.00  0.00    -0.299 N 
ATOM     20  C   UNL A   1      37.121  21.387  25.505  1.00  0.00     0.113 A 
ATOM     21  C   UNL A   1      37.786  22.502  25.060  1.00  0.00     0.132 A 
ATOM     22  N   UNL A   1      36.980  23.254  24.252  1.00  0.00    -0.236 NA
BRANCH  19  23
ATOM     23  C   UNL A   1      34.918  20.374  24.974  1.00  0.00     0.047 A 
ATOM     24  C   UNL A   1      32.914  18.428  24.941  1.00  0.00     0.119 A 
ATOM     25  C   UNL A   1      34.212  18.097  24.563  1.00  0.00     0.048 A 
ATOM     26  C   UNL A   1      32.634  19.705  25.430  1.00  0.00     0.048 A 
ATOM     27  C   UNL A   1      35.215  19.068  24.571  1.00  0.00     0.030 A 
ATOM     28  C   UNL A   1      33.642  20.677  25.469  1.00  0.00     0.030 A 
BRANCH  24  29
ATOM     29  O   UNL A   1      31.982  17.426  24.899  1.00  0.00    -0.497 OA
ATOM     30  C   UNL A   1      32.390  16.254  25.603  1.00  0.00     0.278 C 
ENDBRANCH  24  29
ENDBRANCH  19  23
ENDBRANCH  17  18
ENDBRANCH   7  17
ENDBRANCH   4   6
ENDBRANCH   3   4
ENDBRANCH   2   3
ENDBRANCH   1   2
BRANCH   1  31
ATOM     31  O   UNL A   1      33.398  29.754  26.030  1.00  0.00    -0.374 OA
BRANCH  31  32
ATOM     32  C   UNL A   1      32.296  30.467  26.584  1.00  0.00     0.202 C 
BRANCH  32  33
ATOM     33  C   UNL A   1      32.584  31.616  27.538  1.00  0.00     0.261 C 
BRANCH  33  34
ATOM     34  O   UNL A   1      33.914  32.099  27.427  1.00  0.00    -0.460 OA
BRANCH  34  35
ATOM     35  C   UNL A   1      34.599  32.031  28.589  1.00  0.00     0.338 C 
ATOM     36  O   UNL A   1      34.195  32.312  29.702  1.00  0.00    -0.246 OA
BRANCH  35  37
ATOM     37  C   UNL A   1      36.001  31.741  28.294  1.00  0.00     0.060 A 
ATOM     38  C   UNL A   1      36.262  30.475  27.768  1.00  0.00     0.016 A 
ATOM     39  C   UNL A   1      37.005  32.545  28.855  1.00  0.00     0.016 A 
ATOM     40  C   UNL A   1      37.491  29.918  28.020  1.00  0.00     0.010 A 
ATOM     41  C   UNL A   1      38.235  31.988  29.100  1.00  0.00     0.010 A 
ATOM     42  C   UNL A   1      38.424  30.652  28.762  1.00  0.00    -0.014 A 
BRANCH  42  43
ATOM     43  C   UNL A   1      39.687  30.015  29.058  1.00  0.00     0.031 A 
ATOM     44  C   UNL A   1      39.918  29.978  30.515  1.00  0.00     0.074 A 
ATOM     45  C   UNL A   1      40.469  29.468  28.109  1.00  0.00     0.049 A 
ATOM     46  N   UNL A   1      40.702  30.741  31.201  1.00  0.00    -0.248 NA
ATOM     47  C   UNL A   1      38.973  29.200  31.337  1.00  0.00     0.031 C 
ATOM     48  C   UNL A   1      40.138  29.240  26.698  1.00  0.00     0.029 A 
ATOM     49  N   UNL A   1      41.703  28.903  28.227  1.00  0.00    -0.354 N 
ATOM     50  C   UNL A   1      40.565  30.299  32.511  1.00  0.00     0.074 A 
ATOM     51  C   UNL A   1      39.321  29.582  32.567  1.00  0.00     0.031 C 
ATOM     52  C   UNL A   1      41.035  28.382  26.161  1.00  0.00     0.029 A 
ATOM     53  C   UNL A   1      42.077  28.117  27.140  1.00  0.00     0.049 A 
ATOM     54  H   UNL A   1      42.280  29.039  29.012  1.00  0.00     0.167 HD
ATOM     55  C   UNL A   1      41.661  30.218  33.312  1.00  0.00     0.037 A 
ATOM     56  C   UNL A   1      43.136  27.269  27.098  1.00  0.00     0.037 A 
ATOM     57  C   UNL A   1      42.743  30.995  32.760  1.00  0.00     0.049 A 
ATOM     58  C   UNL A   1      44.083  27.709  28.154  1.00  0.00     0.074 A 
ATOM     59  C   UNL A   1      43.013  32.332  32.565  1.00  0.00     0.029 A 
ATOM     60  N   UNL A   1      43.555  30.284  31.913  1.00  0.00    -0.354 N 
ATOM     61  N   UNL A   1      44.718  28.850  28.121  1.00  0.00    -0.248 NA
ATOM     62  C   UNL A   1      44.042  27.059  29.458  1.00  0.00     0.031 C 
ATOM     63  C   UNL A   1      43.870  32.399  31.426  1.00  0.00     0.029 A 
ATOM     64  C   UNL A   1      44.147  31.103  30.991  1.00  0.00     0.049 A 
ATOM     65  H   UNL A   1      43.694  29.311  31.963  1.00  0.00     0.167 HD
ATOM     66  C   UNL A   1      44.773  29.257  29.442  1.00  0.00     0.074 A 
ATOM     67  C   UNL A   1      44.499  28.056  30.222  1.00  0.00     0.031 C 
ATOM     68  C   UNL A   1      44.712  30.582  29.762  1.00  0.00     0.037 A 
BRANCH  55  69
ATOM     69  C   UNL A   1      41.932  29.049  34.243  1.00  0.00     0.058 A 
ATOM     70  C   UNL A   1      41.983  27.748  33.701  1.00  0.00     0.135 A 
ATOM     71  C   UNL A   1      41.845  29.111  35.652  1.00  0.00     0.135 A 
ATOM     72  F   UNL A   1      42.040  27.565  32.372  1.00  0.00    -0.206 F 
ATOM     73  C   UNL A   1      41.905  26.602  34.496  1.00  0.00     0.059 A 
ATOM     74  C   UNL A   1      41.820  27.985  36.465  1.00  0.00     0.059 A 
ATOM     75  F   UNL A   1      41.681  30.255  36.324  1.00  0.00    -0.206 F 
ATOM     76  C   UNL A   1      41.818  26.734  35.879  1.00  0.00     0.060 A 
BRANCH  76  77
ATOM     77  S   UNL A   1      41.670  25.269  36.913  1.00  0.00     0.124 S 
ATOM     78  O   UNL A   1      40.329  25.431  37.459  1.00  0.00    -0.237 OA
ATOM     79  O   UNL A   1      41.845  24.197  35.939  1.00  0.00    -0.237 OA
ATOM     80  O   UNL A   1      42.765  25.424  37.867  1.00  0.00    -0.744 OA
ENDBRANCH  76  77
ENDBRANCH  55  69
BRANCH  56  81
ATOM     81  C   UNL A   1      43.230  25.926  26.462  1.00  0.00     0.058 A 
ATOM     82  C   UNL A   1      44.107  25.691  25.385  1.00  0.00     0.135 A 
ATOM     83  C   UNL A   1      42.702  24.781  27.091  1.00  0.00     0.135 A 
ATOM     84  F   UNL A   1      44.667  26.722  24.735  1.00  0.00    -0.206 F 
ATOM     85  C   UNL A   1      44.492  24.401  25.000  1.00  0.00     0.059 A 
ATOM     86  C   UNL A   1      43.065  23.486  26.719  1.00  0.00     0.059 A 
ATOM     87  F   UNL A   1      41.893  24.887  28.154  1.00  0.00    -0.206 F 
ATOM     88  C   UNL A   1      43.983  23.303  25.692  1.00  0.00     0.060 A 
BRANCH  88  89
ATOM     89  S   UNL A   1      44.623  21.647  25.335  1.00  0.00     0.124 S 
ATOM     90  O   UNL A   1      43.631  20.795  25.979  1.00  0.00    -0.237 OA
ATOM     91  O   UNL A   1      44.632  21.628  23.877  1.00  0.00    -0.237 OA
ATOM     92  O   UNL A   1      45.943  21.653  25.963  1.00  0.00    -0.744 OA
ENDBRANCH  88  89
ENDBRANCH  56  81
BRANCH  68  93
ATOM     93  C   UNL A   1      45.166  31.570  28.728  1.00  0.00     0.058 A 
ATOM     94  C   UNL A   1      44.327  32.357  27.920  1.00  0.00     0.135 A 
ATOM     95  C   UNL A   1      46.549  31.777  28.614  1.00  0.00     0.135 A 
ATOM     96  F   UNL A   1      42.992  32.281  28.031  1.00  0.00    -0.206 F 
ATOM     97  C   UNL A   1      44.851  33.277  27.005  1.00  0.00     0.059 A 
ATOM     98  C   UNL A   1      47.090  32.709  27.739  1.00  0.00     0.059 A 
ATOM     99  F   UNL A   1      47.399  31.086  29.394  1.00  0.00    -0.206 F 
ATOM    100  C   UNL A   1      46.235  33.443  26.922  1.00  0.00     0.060 A 
BRANCH 100 101
ATOM    101  S   UNL A   1      46.921  34.653  25.771  1.00  0.00     0.124 S 
ATOM    102  O   UNL A   1      45.984  34.578  24.655  1.00  0.00    -0.237 OA
ATOM    103  O   UNL A   1      46.883  35.887  26.551  1.00  0.00    -0.237 OA
ATOM    104  O   UNL A   1      48.261  34.141  25.496  1.00  0.00    -0.744 OA
ENDBRANCH 100 101
ENDBRANCH  68  93
ENDBRANCH  42  43
ENDBRANCH  35  37
ENDBRANCH  34  35
ENDBRANCH  33  34
ENDBRANCH  32  33
ENDBRANCH  31  32
ENDBRANCH   1  31
TORSDOF 21
ENDMDL
MODEL 2
REMARK VINA RESULT:     -11.5      2.716      9.266
REMARK SMILES COc1ccc(-n2ccnc2C[N@@H+]2Cc3[nH]cnc3C[C@H]2C(=O)OCCOCCOC(=O)c2ccc(-c3c4nc(c(-c5c(F)cc(S(=O)(=O)[O-])cc5F)c5ccc([nH]5)c(-c5c(F)cc(S(=O)(=O)[O-])cc5F)c5nc(c(-c6c(F)cc(S(=O)(=O)[O-])cc6F)c6ccc3[nH]6)C=C5)C=C4)cc2)cc1
REMARK SMILES IDX 26 1 25 2 24 3 22 4 23 5 21 6 13 7 14 8 15 10 20 11 16 12
REMARK SMILES IDX 19 13 17 14 18 16 12 17 11 18 7 19 8 20 9 21 10 22 6 23 3 24
REMARK SMILES IDX 4 25 100 26 5 27 99 28 2 29 1 30 27 31 28 32 29 33 30 34
REMARK SMILES IDX 31 35 32 36 33 37 34 38 98 39 35 40 97 41 36 42 37 43 38 44
REMARK SMILES IDX 91 45 39 46 96 47 90 48 92 49 40 50 95 51 89 52 88 53 41 55
REMARK SMILES IDX 75 56 54 57 74 58 55 59 58 60 73 61 93 62 56 63 57 64 72 66
REMARK SMILES IDX 94 67 59 68 42 69 43 70 52 71 44 72 45 73 51 74 53 75 46 76
REMARK SMILES IDX 47 77 48 78 49 79 50 80 76 81 77 82 86 83 78 84 79 85 85 86
REMARK SMILES IDX 87 87 80 88 81 89 82 90 83 91 84 92 60 93 61 94 70 95 62 96
REMARK SMILES IDX 63 97 69 98 71 99 64 100 65 101 66 102 67 103 68 104
REMARK H PARENT 13 9 16 15 92 54 58 65
REMARK Flexibility Score: inf
ROOT
ATOM      1  C   UNL A   1      38.460  23.910  26.096  1.00  0.00     0.202 C 
ENDROOT
BRANCH   1   2
ATOM      2  C   UNL A   1      37.170  23.766  25.295  1.00  0.00     0.261 C 
BRANCH   2   3
ATOM      3  O   UNL A   1      35.996  23.682  26.117  1.00  0.00    -0.459 OA
BRANCH   3   4
ATOM      4  C   UNL A   1      34.931  23.049  25.553  1.00  0.00     0.365 C 
ATOM      5  O   UNL A   1      34.882  21.846  25.309  1.00  0.00    -0.245 OA
BRANCH   4   6
ATOM      6  C   UNL A   1      33.843  24.008  25.095  1.00  0.00     0.301 C 
ATOM      7  N   UNL A   1      32.434  23.478  25.355  1.00  0.00    -0.312 N 
ATOM      8  C   UNL A   1      31.852  24.025  26.602  1.00  0.00     0.320 C 
ATOM      9  H   UNL A   1      32.486  22.468  25.489  1.00  0.00     0.349 HD
ATOM     10  C   UNL A   1      32.016  25.489  26.607  1.00  0.00     0.093 A 
ATOM     11  C   UNL A   1      34.295  25.394  25.663  1.00  0.00     0.136 C 
ATOM     12  N   UNL A   1      31.127  26.470  26.917  1.00  0.00    -0.344 N 
ATOM     13  C   UNL A   1      33.135  26.139  26.165  1.00  0.00     0.074 A 
ATOM     14  C   UNL A   1      31.750  27.660  26.639  1.00  0.00     0.197 A 
ATOM     15  H   UNL A   1      30.216  26.349  27.272  1.00  0.00     0.167 HD
ATOM     16  N   UNL A   1      32.975  27.491  26.188  1.00  0.00    -0.241 NA
BRANCH   7  17
ATOM     17  C   UNL A   1      31.574  23.773  24.168  1.00  0.00     0.340 C 
BRANCH  17  18
ATOM     18  C   UNL A   1      32.312  24.074  22.879  1.00  0.00     0.168 A 
ATOM     19  N   UNL A   1      32.233  25.282  22.178  1.00  0.00    -0.299 N 
ATOM     20  C   UNL A   1      32.772  25.041  20.934  1.00  0.00     0.113 A 
ATOM     21  C   UNL A   1      33.294  23.773  20.987  1.00  0.00     0.132 A 
ATOM     22  N   UNL A   1      33.005  23.182  22.186  1.00  0.00    -0.236 NA
BRANCH  19  23
ATOM     23  C   UNL A   1      31.657  26.511  22.593  1.00  0.00     0.047 A 
ATOM     24  C   UNL A   1      30.615  28.880  23.647  1.00  0.00     0.119 A 
ATOM     25  C   UNL A   1      31.876  28.876  23.056  1.00  0.00     0.048 A 
ATOM     26  C   UNL A   1      29.831  27.725  23.625  1.00  0.00     0.048 A 
ATOM     27  C   UNL A   1      32.403  27.693  22.535  1.00  0.00     0.030 A 
ATOM     28  C   UNL A   1      30.342  26.542  23.077  1.00  0.00     0.030 A 
BRANCH  24  29
ATOM     29  O   UNL A   1      30.168  30.074  24.145  1.00  0.00    -0.497 OA
ATOM     30  C   UNL A   1      29.254  30.737  23.272  1.00  0.00     0.278 C 
ENDBRANCH  24  29
ENDBRANCH  19  23
ENDBRANCH  17  18
ENDBRANCH   7  17
ENDBRANCH   4   6
ENDBRANCH   3   4
ENDBRANCH   2   3
ENDBRANCH   1   2
BRANCH   1  31
ATOM     31  O   UNL A   1      39.003  22.742  26.707  1.00  0.00    -0.374 OA
BRANCH  31  32
ATOM     32  C   UNL A   1      38.912  21.487  26.041  1.00  0.00     0.202 C 
BRANCH  32  33
ATOM     33  C   UNL A   1      40.044  20.489  26.220  1.00  0.00     0.261 C 
BRANCH  33  34
ATOM     34  O   UNL A   1      41.233  20.883  25.553  1.00  0.00    -0.460 OA
BRANCH  34  35
ATOM     35  C   UNL A   1      42.330  20.811  26.339  1.00  0.00     0.338 C 
ATOM     36  O   UNL A   1      42.777  19.824  26.892  1.00  0.00    -0.246 OA
BRANCH  35  37
ATOM     37  C   UNL A   1      42.815  22.165  26.597  1.00  0.00     0.060 A 
ATOM     38  C   UNL A   1      43.212  22.429  27.908  1.00  0.00     0.016 A 
ATOM     39  C   UNL A   1      42.536  23.185  25.674  1.00  0.00     0.016 A 
ATOM     40  C   UNL A   1      43.098  23.719  28.364  1.00  0.00     0.010 A 
ATOM     41  C   UNL A   1      42.431  24.475  26.131  1.00  0.00     0.010 A 
ATOM     42  C   UNL A   1      42.622  24.703  27.490  1.00  0.00    -0.014 A 
BRANCH  42  43
ATOM     43  C   UNL A   1      42.462  26.039  28.017  1.00  0.00     0.031 A 
ATOM     44  C   UNL A   1      43.616  26.881  27.649  1.00  0.00     0.074 A 
ATOM     45  C   UNL A   1      41.355  26.438  28.672  1.00  0.00     0.049 A 
ATOM     46  N   UNL A   1      44.601  27.230  28.407  1.00  0.00    -0.248 NA
ATOM     47  C   UNL A   1      43.847  27.134  26.216  1.00  0.00     0.031 C 
ATOM     48  C   UNL A   1      40.086  25.715  28.807  1.00  0.00     0.029 A 
ATOM     49  N   UNL A   1      41.094  27.628  29.279  1.00  0.00    -0.354 N 
ATOM     50  C   UNL A   1      45.408  28.018  27.595  1.00  0.00     0.074 A 
ATOM     51  C   UNL A   1      45.060  27.689  26.241  1.00  0.00     0.031 C 
ATOM     52  C   UNL A   1      39.129  26.570  29.237  1.00  0.00     0.029 A 
ATOM     53  C   UNL A   1      39.745  27.850  29.544  1.00  0.00     0.049 A 
ATOM     54  H   UNL A   1      41.797  28.276  29.511  1.00  0.00     0.167 HD
ATOM     55  C   UNL A   1      45.986  29.138  28.106  1.00  0.00     0.037 A 
ATOM     56  C   UNL A   1      39.192  29.030  29.926  1.00  0.00     0.037 A 
ATOM     57  C   UNL A   1      45.970  29.097  29.547  1.00  0.00     0.049 A 
ATOM     58  C   UNL A   1      40.285  29.852  30.504  1.00  0.00     0.074 A 
ATOM     59  C   UNL A   1      46.590  28.357  30.531  1.00  0.00     0.029 A 
ATOM     60  N   UNL A   1      44.851  29.663  30.101  1.00  0.00    -0.354 N 
ATOM     61  N   UNL A   1      40.912  29.540  31.607  1.00  0.00    -0.248 NA
ATOM     62  C   UNL A   1      40.963  30.827  29.659  1.00  0.00     0.031 C 
ATOM     63  C   UNL A   1      45.687  28.339  31.636  1.00  0.00     0.029 A 
ATOM     64  C   UNL A   1      44.570  29.113  31.322  1.00  0.00     0.049 A 
ATOM     65  H   UNL A   1      44.319  30.374  29.677  1.00  0.00     0.167 HD
ATOM     66  C   UNL A   1      42.220  29.934  31.388  1.00  0.00     0.074 A 
ATOM     67  C   UNL A   1      42.155  30.857  30.260  1.00  0.00     0.031 C 
ATOM     68  C   UNL A   1      43.257  29.228  31.925  1.00  0.00     0.037 A 
BRANCH  55  69
ATOM     69  C   UNL A   1      46.050  30.459  27.360  1.00  0.00     0.058 A 
ATOM     70  C   UNL A   1      47.271  31.166  27.335  1.00  0.00     0.135 A 
ATOM     71  C   UNL A   1      44.920  31.196  26.937  1.00  0.00     0.135 A 
ATOM     72  F   UNL A   1      48.407  30.578  27.740  1.00  0.00    -0.206 F 
ATOM     73  C   UNL A   1      47.351  32.510  26.963  1.00  0.00     0.059 A 
ATOM     74  C   UNL A   1      44.985  32.516  26.512  1.00  0.00     0.059 A 
ATOM     75  F   UNL A   1      43.673  30.717  26.998  1.00  0.00    -0.206 F 
ATOM     76  C   UNL A   1      46.198  33.177  26.558  1.00  0.00     0.060 A 
BRANCH  76  77
ATOM     77  S   UNL A   1      46.275  34.920  26.121  1.00  0.00     0.124 S 
ATOM     78  O   UNL A   1      47.056  35.464  27.225  1.00  0.00    -0.237 OA
ATOM     79  O   UNL A   1      46.940  34.874  24.822  1.00  0.00    -0.237 OA
ATOM     80  O   UNL A   1      44.870  35.316  26.083  1.00  0.00    -0.744 OA
ENDBRANCH  76  77
ENDBRANCH  55  69
BRANCH  56  81
ATOM     81  C   UNL A   1      37.888  29.623  29.518  1.00  0.00     0.058 A 
ATOM     82  C   UNL A   1      36.971  30.092  30.478  1.00  0.00     0.135 A 
ATOM     83  C   UNL A   1      37.652  30.025  28.189  1.00  0.00     0.135 A 
ATOM     84  F   UNL A   1      37.125  29.771  31.772  1.00  0.00    -0.206 F 
ATOM     85  C   UNL A   1      35.925  30.964  30.152  1.00  0.00     0.059 A 
ATOM     86  C   UNL A   1      36.611  30.886  27.839  1.00  0.00     0.059 A 
ATOM     87  F   UNL A   1      38.487  29.672  27.201  1.00  0.00    -0.206 F 
ATOM     88  C   UNL A   1      35.769  31.376  28.829  1.00  0.00     0.060 A 
BRANCH  88  89
ATOM     89  S   UNL A   1      34.548  32.652  28.429  1.00  0.00     0.124 S 
ATOM     90  O   UNL A   1      34.148  33.113  29.754  1.00  0.00    -0.237 OA
ATOM     91  O   UNL A   1      35.333  33.592  27.636  1.00  0.00    -0.237 OA
ATOM     92  O   UNL A   1      33.525  31.919  27.687  1.00  0.00    -0.744 OA
ENDBRANCH  88  89
ENDBRANCH  56  81
BRANCH  68  93
ATOM     93  C   UNL A   1      42.987  28.433  33.169  1.00  0.00     0.058 A 
ATOM     94  C   UNL A   1      42.953  27.031  33.256  1.00  0.00     0.135 A 
ATOM     95  C   UNL A   1      42.830  29.158  34.360  1.00  0.00     0.135 A 
ATOM     96  F   UNL A   1      43.180  26.266  32.178  1.00  0.00    -0.206 F 
ATOM     97  C   UNL A   1      42.725  26.383  34.475  1.00  0.00     0.059 A 
ATOM     98  C   UNL A   1      42.638  28.534  35.586  1.00  0.00     0.059 A 
ATOM     99  F   UNL A   1      42.900  30.500  34.346  1.00  0.00    -0.206 F 
ATOM    100  C   UNL A   1      42.567  27.146  35.634  1.00  0.00     0.060 A 
BRANCH 100 101
ATOM    101  S   UNL A   1      42.309  26.319  37.218  1.00  0.00     0.124 S 
ATOM    102  O   UNL A   1      40.940  26.702  37.544  1.00  0.00    -0.237 OA
ATOM    103  O   UNL A   1      42.512  24.914  36.876  1.00  0.00    -0.237 OA
ATOM    104  O   UNL A   1      43.340  26.897  38.077  1.00  0.00    -0.744 OA
ENDBRANCH 100 101
ENDBRANCH  68  93
ENDBRANCH  42  43
ENDBRANCH  35  37
ENDBRANCH  34  35
ENDBRANCH  33  34
ENDBRANCH  32  33
ENDBRANCH  31  32
ENDBRANCH   1  31
TORSDOF 21
ENDMDL
MODEL 3
REMARK VINA RESULT:     -11.3      2.444      9.331
REMARK SMILES COc1ccc(-n2ccnc2C[N@@H+]2Cc3[nH]cnc3C[C@H]2C(=O)OCCOCCOC(=O)c2ccc(-c3c4nc(c(-c5c(F)cc(S(=O)(=O)[O-])cc5F)c5ccc([nH]5)c(-c5c(F)cc(S(=O)(=O)[O-])cc5F)c5nc(c(-c6c(F)cc(S(=O)(=O)[O-])cc6F)c6ccc3[nH]6)C=C5)C=C4)cc2)cc1
REMARK SMILES IDX 26 1 25 2 24 3 22 4 23 5 21 6 13 7 14 8 15 10 20 11 16 12
REMARK SMILES IDX 19 13 17 14 18 16 12 17 11 18 7 19 8 20 9 21 10 22 6 23 3 24
REMARK SMILES IDX 4 25 100 26 5 27 99 28 2 29 1 30 27 31 28 32 29 33 30 34
REMARK SMILES IDX 31 35 32 36 33 37 34 38 98 39 35 40 97 41 36 42 37 43 38 44
REMARK SMILES IDX 91 45 39 46 96 47 90 48 92 49 40 50 95 51 89 52 88 53 41 55
REMARK SMILES IDX 75 56 54 57 74 58 55 59 58 60 73 61 93 62 56 63 57 64 72 66
REMARK SMILES IDX 94 67 59 68 42 69 43 70 52 71 44 72 45 73 51 74 53 75 46 76
REMARK SMILES IDX 47 77 48 78 49 79 50 80 76 81 77 82 86 83 78 84 79 85 85 86
REMARK SMILES IDX 87 87 80 88 81 89 82 90 83 91 84 92 60 93 61 94 70 95 62 96
REMARK SMILES IDX 63 97 69 98 71 99 64 100 65 101 66 102 67 103 68 104
REMARK H PARENT 13 9 16 15 92 54 58 65
REMARK Flexibility Score: inf
ROOT
ATOM      1  C   UNL A   1      40.406  19.224  25.496  1.00  0.00     0.202 C 
ENDROOT
BRANCH   1   2
ATOM      2  C   UNL A   1      38.902  19.220  25.751  1.00  0.00     0.261 C 
BRANCH   2   3
ATOM      3  O   UNL A   1      38.163  20.016  24.813  1.00  0.00    -0.459 OA
BRANCH   3   4
ATOM      4  C   UNL A   1      37.916  21.297  25.200  1.00  0.00     0.365 C 
ATOM      5  O   UNL A   1      38.744  22.044  25.714  1.00  0.00    -0.245 OA
BRANCH   4   6
ATOM      6  C   UNL A   1      36.449  21.682  25.083  1.00  0.00     0.301 C 
ATOM      7  N   UNL A   1      35.867  22.216  26.390  1.00  0.00    -0.312 N 
ATOM      8  C   UNL A   1      35.852  23.697  26.431  1.00  0.00     0.320 C 
ATOM      9  H   UNL A   1      36.469  21.921  27.159  1.00  0.00     0.349 HD
ATOM     10  C   UNL A   1      35.250  24.206  25.186  1.00  0.00     0.093 A 
ATOM     11  C   UNL A   1      36.383  22.530  23.770  1.00  0.00     0.136 C 
ATOM     12  N   UNL A   1      34.316  25.175  24.996  1.00  0.00    -0.344 N 
ATOM     13  C   UNL A   1      35.476  23.671  23.948  1.00  0.00     0.074 A 
ATOM     14  C   UNL A   1      34.019  25.170  23.657  1.00  0.00     0.197 A 
ATOM     15  H   UNL A   1      33.929  25.764  25.685  1.00  0.00     0.167 HD
ATOM     16  N   UNL A   1      34.715  24.271  22.993  1.00  0.00    -0.241 NA
BRANCH   7  17
ATOM     17  C   UNL A   1      34.499  21.644  26.587  1.00  0.00     0.340 C 
BRANCH  17  18
ATOM     18  C   UNL A   1      33.971  20.797  25.447  1.00  0.00     0.168 A 
ATOM     19  N   UNL A   1      32.787  21.052  24.746  1.00  0.00    -0.299 N 
ATOM     20  C   UNL A   1      32.505  19.906  24.037  1.00  0.00     0.113 A 
ATOM     21  C   UNL A   1      33.591  19.083  24.201  1.00  0.00     0.132 A 
ATOM     22  N   UNL A   1      34.488  19.636  25.073  1.00  0.00    -0.236 NA
BRANCH  19  23
ATOM     23  C   UNL A   1      31.967  22.210  24.785  1.00  0.00     0.047 A 
ATOM     24  C   UNL A   1      30.568  24.629  24.834  1.00  0.00     0.119 A 
ATOM     25  C   UNL A   1      30.749  23.953  23.630  1.00  0.00     0.048 A 
ATOM     26  C   UNL A   1      30.999  24.051  26.029  1.00  0.00     0.048 A 
ATOM     27  C   UNL A   1      31.454  22.748  23.600  1.00  0.00     0.030 A 
ATOM     28  C   UNL A   1      31.680  22.827  26.010  1.00  0.00     0.030 A 
BRANCH  24  29
ATOM     29  O   UNL A   1      29.876  25.809  24.784  1.00  0.00    -0.497 OA
ATOM     30  C   UNL A   1      29.940  26.439  23.506  1.00  0.00     0.278 C 
ENDBRANCH  24  29
ENDBRANCH  19  23
ENDBRANCH  17  18
ENDBRANCH   7  17
ENDBRANCH   4   6
ENDBRANCH   3   4
ENDBRANCH   2   3
ENDBRANCH   1   2
BRANCH   1  31
ATOM     31  O   UNL A   1      41.268  19.552  26.582  1.00  0.00    -0.374 OA
BRANCH  31  32
ATOM     32  C   UNL A   1      42.517  18.882  26.723  1.00  0.00     0.202 C 
BRANCH  32  33
ATOM     33  C   UNL A   1      43.564  19.070  25.638  1.00  0.00     0.261 C 
BRANCH  33  34
ATOM     34  O   UNL A   1      43.405  20.288  24.927  1.00  0.00    -0.460 OA
BRANCH  34  35
ATOM     35  C   UNL A   1      44.289  21.238  25.303  1.00  0.00     0.338 C 
ATOM     36  O   UNL A   1      45.488  21.257  25.091  1.00  0.00    -0.246 OA
BRANCH  35  37
ATOM     37  C   UNL A   1      43.617  22.182  26.194  1.00  0.00     0.060 A 
ATOM     38  C   UNL A   1      42.687  23.029  25.591  1.00  0.00     0.016 A 
ATOM     39  C   UNL A   1      44.160  22.440  27.462  1.00  0.00     0.016 A 
ATOM     40  C   UNL A   1      42.479  24.261  26.161  1.00  0.00     0.010 A 
ATOM     41  C   UNL A   1      43.945  23.669  28.033  1.00  0.00     0.010 A 
ATOM     42  C   UNL A   1      43.184  24.593  27.324  1.00  0.00    -0.014 A 
BRANCH  42  43
ATOM     43  C   UNL A   1      42.985  25.917  27.866  1.00  0.00     0.031 A 
ATOM     44  C   UNL A   1      44.112  26.798  27.506  1.00  0.00     0.074 A 
ATOM     45  C   UNL A   1      41.868  26.276  28.527  1.00  0.00     0.049 A 
ATOM     46  N   UNL A   1      45.088  27.168  28.266  1.00  0.00    -0.248 NA
ATOM     47  C   UNL A   1      44.333  27.074  26.075  1.00  0.00     0.031 C 
ATOM     48  C   UNL A   1      40.621  25.514  28.656  1.00  0.00     0.029 A 
ATOM     49  N   UNL A   1      41.572  27.451  29.148  1.00  0.00    -0.354 N 
ATOM     50  C   UNL A   1      45.869  27.989  27.462  1.00  0.00     0.074 A 
ATOM     51  C   UNL A   1      45.529  27.665  26.105  1.00  0.00     0.031 C 
ATOM     52  C   UNL A   1      39.639  26.334  29.097  1.00  0.00     0.029 A 
ATOM     53  C   UNL A   1      40.217  27.629  29.418  1.00  0.00     0.049 A 
ATOM     54  H   UNL A   1      42.256  28.117  29.386  1.00  0.00     0.167 HD
ATOM     55  C   UNL A   1      46.415  29.120  27.984  1.00  0.00     0.037 A 
ATOM     56  C   UNL A   1      39.630  28.787  29.813  1.00  0.00     0.037 A 
ATOM     57  C   UNL A   1      46.402  29.063  29.425  1.00  0.00     0.049 A 
ATOM     58  C   UNL A   1      40.699  29.635  30.399  1.00  0.00     0.074 A 
ATOM     59  C   UNL A   1      47.046  28.331  30.400  1.00  0.00     0.029 A 
ATOM     60  N   UNL A   1      45.268  29.588  29.987  1.00  0.00    -0.354 N 
ATOM     61  N   UNL A   1      41.337  29.330  31.497  1.00  0.00    -0.248 NA
ATOM     62  C   UNL A   1      41.345  30.639  29.564  1.00  0.00     0.031 C 
ATOM     63  C   UNL A   1      46.146  28.273  31.506  1.00  0.00     0.029 A 
ATOM     64  C   UNL A   1      45.006  29.017  31.202  1.00  0.00     0.049 A 
ATOM     65  H   UNL A   1      44.713  30.287  29.572  1.00  0.00     0.167 HD
ATOM     66  C   UNL A   1      42.632  29.766  31.281  1.00  0.00     0.074 A 
ATOM     67  C   UNL A   1      42.537  30.699  30.164  1.00  0.00     0.031 C 
ATOM     68  C   UNL A   1      43.691  29.085  31.808  1.00  0.00     0.037 A 
BRANCH  55  69
ATOM     69  C   UNL A   1      46.438  30.451  27.254  1.00  0.00     0.058 A 
ATOM     70  C   UNL A   1      47.639  31.189  27.226  1.00  0.00     0.135 A 
ATOM     71  C   UNL A   1      45.285  31.162  26.848  1.00  0.00     0.135 A 
ATOM     72  F   UNL A   1      48.793  30.627  27.615  1.00  0.00    -0.206 F 
ATOM     73  C   UNL A   1      47.680  32.540  26.869  1.00  0.00     0.059 A 
ATOM     74  C   UNL A   1      45.311  32.488  26.438  1.00  0.00     0.059 A 
ATOM     75  F   UNL A   1      44.051  30.651  26.915  1.00  0.00    -0.206 F 
ATOM     76  C   UNL A   1      46.506  33.180  26.481  1.00  0.00     0.060 A 
BRANCH  76  77
ATOM     77  S   UNL A   1      46.535  34.930  26.064  1.00  0.00     0.124 S 
ATOM     78  O   UNL A   1      47.361  34.931  24.864  1.00  0.00    -0.237 OA
ATOM     79  O   UNL A   1      45.116  35.214  25.870  1.00  0.00    -0.237 OA
ATOM     80  O   UNL A   1      47.133  35.544  27.247  1.00  0.00    -0.744 OA
ENDBRANCH  76  77
ENDBRANCH  55  69
BRANCH  56  81
ATOM     81  C   UNL A   1      38.308  29.345  29.415  1.00  0.00     0.058 A 
ATOM     82  C   UNL A   1      37.383  29.785  30.381  1.00  0.00     0.135 A 
ATOM     83  C   UNL A   1      38.054  29.746  28.088  1.00  0.00     0.135 A 
ATOM     84  F   UNL A   1      37.552  29.463  31.673  1.00  0.00    -0.206 F 
ATOM     85  C   UNL A   1      36.311  30.629  30.064  1.00  0.00     0.059 A 
ATOM     86  C   UNL A   1      36.988  30.579  27.747  1.00  0.00     0.059 A 
ATOM     87  F   UNL A   1      38.894  29.421  27.095  1.00  0.00    -0.206 F 
ATOM     88  C   UNL A   1      36.138  31.041  28.743  1.00  0.00     0.060 A 
BRANCH  88  89
ATOM     89  S   UNL A   1      34.880  32.285  28.354  1.00  0.00     0.124 S 
ATOM     90  O   UNL A   1      34.421  32.675  29.682  1.00  0.00    -0.237 OA
ATOM     91  O   UNL A   1      35.650  33.285  27.625  1.00  0.00    -0.237 OA
ATOM     92  O   UNL A   1      33.910  31.543  27.551  1.00  0.00    -0.744 OA
ENDBRANCH  88  89
ENDBRANCH  56  81
BRANCH  68  93
ATOM     93  C   UNL A   1      43.448  28.268  33.044  1.00  0.00     0.058 A 
ATOM     94  C   UNL A   1      43.234  28.777  34.336  1.00  0.00     0.135 A 
ATOM     95  C   UNL A   1      43.353  26.878  32.874  1.00  0.00     0.135 A 
ATOM     96  F   UNL A   1      43.222  30.099  34.564  1.00  0.00    -0.206 F 
ATOM     97  C   UNL A   1      42.981  27.929  35.419  1.00  0.00     0.059 A 
ATOM     98  C   UNL A   1      43.069  26.021  33.928  1.00  0.00     0.059 A 
ATOM     99  F   UNL A   1      43.503  26.338  31.652  1.00  0.00    -0.206 F 
ATOM    100  C   UNL A   1      42.903  26.552  35.204  1.00  0.00     0.060 A 
BRANCH 100 101
ATOM    101  S   UNL A   1      42.542  25.451  36.589  1.00  0.00     0.124 S 
ATOM    102  O   UNL A   1      41.666  24.461  35.973  1.00  0.00    -0.237 OA
ATOM    103  O   UNL A   1      43.870  24.978  36.969  1.00  0.00    -0.237 OA
ATOM    104  O   UNL A   1      41.900  26.330  37.564  1.00  0.00    -0.744 OA
ENDBRANCH 100 101
ENDBRANCH  68  93
ENDBRANCH  42  43
ENDBRANCH  35  37
ENDBRANCH  34  35
ENDBRANCH  33  34
ENDBRANCH  32  33
ENDBRANCH  31  32
ENDBRANCH   1  31
TORSDOF 21
ENDMDL
