MODEL 1
REMARK VINA RESULT:     -11.9      0.000      0.000
REMARK SMILES O=C(OCCOCCOC(=O)c1cccn1CC(=O)N1CC[C@H]2CCCC[C@H]2C1)c1ccc(-c2c3nc(c(-c4c(F)cc(S(=O)(=O)[O-])cc4F)c4ccc([nH]4)c(-c4c(F)cc(S(=O)(=O)[O-])cc4F)c4nc(c(-c5c(F)cc(S(=O)(=O)[O-])cc5F)c5ccc2[nH]5)C=C4)C=C3)cc1
REMARK SMILES IDX 6 1 5 2 4 3 3 4 2 5 1 6 30 7 31 8 95 9 32 10 94 11 33 12
REMARK SMILES IDX 34 13 35 14 88 15 36 16 93 17 87 18 89 19 37 20 92 21 86 22
REMARK SMILES IDX 85 23 38 25 72 26 51 27 71 28 52 29 55 30 70 31 90 32 53 33
REMARK SMILES IDX 54 34 69 36 91 37 56 38 39 39 40 40 49 41 41 42 42 43 48 44
REMARK SMILES IDX 50 45 43 46 44 47 45 48 46 49 47 50 73 51 74 52 83 53 75 54
REMARK SMILES IDX 76 55 82 56 84 57 77 58 78 59 79 60 80 61 81 62 57 63 58 64
REMARK SMILES IDX 67 65 59 66 60 67 66 68 68 69 61 70 62 71 63 72 64 73 65 74
REMARK SMILES IDX 7 75 8 76 9 77 10 78 11 79 12 80 13 81 16 82 14 83 15 84
REMARK SMILES IDX 17 85 18 86 19 87 20 88 21 89 29 90 22 91 28 92 23 93 27 94
REMARK SMILES IDX 24 95 26 96 25 97
REMARK H PARENT 89 24 55 35
REMARK Flexibility Score: inf
ROOT
ATOM      1  O   UNL A   1      32.203  31.060  26.881  1.00  0.00    -0.374 OA
ENDROOT
BRANCH   1   2
ATOM      2  C   UNL A   1      31.794  32.407  27.029  1.00  0.00     0.202 C 
BRANCH   2   3
ATOM      3  C   UNL A   1      32.872  33.420  27.353  1.00  0.00     0.261 C 
BRANCH   3   4
ATOM      4  O   UNL A   1      32.399  34.452  28.241  1.00  0.00    -0.460 OA
BRANCH   4   5
ATOM      5  C   UNL A   1      33.143  35.342  28.949  1.00  0.00     0.338 C 
ATOM      6  O   UNL A   1      32.740  36.460  29.246  1.00  0.00    -0.246 OA
BRANCH   5   7
ATOM      7  C   UNL A   1      34.214  34.703  29.692  1.00  0.00     0.060 A 
ATOM      8  C   UNL A   1      35.497  34.689  29.165  1.00  0.00     0.016 A 
ATOM      9  C   UNL A   1      33.850  33.930  30.798  1.00  0.00     0.016 A 
ATOM     10  C   UNL A   1      36.309  33.637  29.478  1.00  0.00     0.010 A 
ATOM     11  C   UNL A   1      34.759  33.019  31.289  1.00  0.00     0.010 A 
ATOM     12  C   UNL A   1      35.964  32.859  30.592  1.00  0.00    -0.014 A 
BRANCH  12  13
ATOM     13  C   UNL A   1      37.135  32.309  31.274  1.00  0.00     0.031 A 
ATOM     14  C   UNL A   1      37.474  30.959  30.534  1.00  0.00     0.074 A 
ATOM     15  C   UNL A   1      37.576  33.006  32.366  1.00  0.00     0.049 A 
ATOM     16  N   UNL A   1      37.902  29.825  30.995  1.00  0.00    -0.248 NA
ATOM     17  C   UNL A   1      37.098  30.797  29.079  1.00  0.00     0.031 C 
ATOM     18  C   UNL A   1      37.045  34.302  32.858  1.00  0.00     0.029 A 
ATOM     19  N   UNL A   1      38.562  32.780  33.290  1.00  0.00    -0.354 N 
ATOM     20  C   UNL A   1      38.141  28.997  29.869  1.00  0.00     0.074 A 
ATOM     21  C   UNL A   1      37.362  29.520  28.803  1.00  0.00     0.031 C 
ATOM     22  C   UNL A   1      37.635  34.679  34.019  1.00  0.00     0.029 A 
ATOM     23  C   UNL A   1      38.656  33.712  34.368  1.00  0.00     0.049 A 
ATOM     24  H   UNL A   1      39.176  32.014  33.215  1.00  0.00     0.167 HD
ATOM     25  C   UNL A   1      39.200  28.136  29.786  1.00  0.00     0.037 A 
ATOM     26  C   UNL A   1      39.505  33.662  35.448  1.00  0.00     0.037 A 
ATOM     27  C   UNL A   1      39.943  28.220  31.000  1.00  0.00     0.049 A 
ATOM     28  C   UNL A   1      40.467  32.623  35.055  1.00  0.00     0.074 A 
ATOM     29  C   UNL A   1      39.614  27.854  32.278  1.00  0.00     0.029 A 
ATOM     30  N   UNL A   1      40.936  29.179  31.031  1.00  0.00    -0.354 N 
ATOM     31  N   UNL A   1      41.337  32.757  34.098  1.00  0.00    -0.248 NA
ATOM     32  C   UNL A   1      40.357  31.297  35.668  1.00  0.00     0.031 C 
ATOM     33  C   UNL A   1      40.011  28.982  33.019  1.00  0.00     0.029 A 
ATOM     34  C   UNL A   1      40.879  29.780  32.261  1.00  0.00     0.049 A 
ATOM     35  H   UNL A   1      41.565  29.391  30.305  1.00  0.00     0.167 HD
ATOM     36  C   UNL A   1      41.602  31.455  33.763  1.00  0.00     0.074 A 
ATOM     37  C   UNL A   1      41.258  30.656  34.927  1.00  0.00     0.031 C 
ATOM     38  C   UNL A   1      41.513  31.066  32.461  1.00  0.00     0.037 A 
BRANCH  25  39
ATOM     39  C   UNL A   1      39.878  27.459  28.624  1.00  0.00     0.058 A 
ATOM     40  C   UNL A   1      39.839  26.042  28.601  1.00  0.00     0.135 A 
ATOM     41  C   UNL A   1      40.819  28.063  27.776  1.00  0.00     0.135 A 
ATOM     42  F   UNL A   1      38.924  25.369  29.320  1.00  0.00    -0.206 F 
ATOM     43  C   UNL A   1      40.779  25.278  27.923  1.00  0.00     0.059 A 
ATOM     44  C   UNL A   1      41.741  27.311  27.042  1.00  0.00     0.059 A 
ATOM     45  F   UNL A   1      40.934  29.393  27.688  1.00  0.00    -0.206 F 
ATOM     46  C   UNL A   1      41.751  25.925  27.173  1.00  0.00     0.060 A 
BRANCH  46  47
ATOM     47  S   UNL A   1      43.042  24.923  26.411  1.00  0.00     0.124 S 
ATOM     48  O   UNL A   1      43.209  25.584  25.122  1.00  0.00    -0.237 OA
ATOM     49  O   UNL A   1      44.146  25.083  27.353  1.00  0.00    -0.237 OA
ATOM     50  O   UNL A   1      42.452  23.589  26.370  1.00  0.00    -0.744 OA
ENDBRANCH  46  47
ENDBRANCH  25  39
BRANCH  26  51
ATOM     51  C   UNL A   1      39.719  34.243  36.839  1.00  0.00     0.058 A 
ATOM     52  C   UNL A   1      40.481  35.368  37.175  1.00  0.00     0.135 A 
ATOM     53  C   UNL A   1      38.922  33.747  37.918  1.00  0.00     0.135 A 
ATOM     54  F   UNL A   1      41.381  35.863  36.315  1.00  0.00    -0.206 F 
ATOM     55  C   UNL A   1      40.321  36.043  38.409  1.00  0.00     0.059 A 
ATOM     56  C   UNL A   1      38.692  34.429  39.107  1.00  0.00     0.059 A 
ATOM     57  F   UNL A   1      38.274  32.575  37.836  1.00  0.00    -0.206 F 
ATOM     58  C   UNL A   1      39.368  35.607  39.335  1.00  0.00     0.060 A 
BRANCH  58  59
ATOM     59  S   UNL A   1      38.890  36.628  40.753  1.00  0.00     0.124 S 
ATOM     60  O   UNL A   1      37.946  35.763  41.451  1.00  0.00    -0.237 OA
ATOM     61  O   UNL A   1      40.169  36.849  41.423  1.00  0.00    -0.237 OA
ATOM     62  O   UNL A   1      38.312  37.818  40.134  1.00  0.00    -0.744 OA
ENDBRANCH  58  59
ENDBRANCH  26  51
BRANCH  38  63
ATOM     63  C   UNL A   1      41.761  32.156  31.415  1.00  0.00     0.058 A 
ATOM     64  C   UNL A   1      42.989  32.840  31.385  1.00  0.00     0.135 A 
ATOM     65  C   UNL A   1      40.821  32.597  30.467  1.00  0.00     0.135 A 
ATOM     66  F   UNL A   1      43.978  32.472  32.216  1.00  0.00    -0.206 F 
ATOM     67  C   UNL A   1      43.254  33.892  30.496  1.00  0.00     0.059 A 
ATOM     68  C   UNL A   1      41.045  33.656  29.576  1.00  0.00     0.059 A 
ATOM     69  F   UNL A   1      39.649  31.981  30.349  1.00  0.00    -0.206 F 
ATOM     70  C   UNL A   1      42.276  34.297  29.591  1.00  0.00     0.060 A 
BRANCH  70  71
ATOM     71  S   UNL A   1      42.658  35.610  28.408  1.00  0.00     0.124 S 
ATOM     72  O   UNL A   1      41.395  35.772  27.695  1.00  0.00    -0.237 OA
ATOM     73  O   UNL A   1      43.032  36.713  29.287  1.00  0.00    -0.237 OA
ATOM     74  O   UNL A   1      43.749  35.051  27.611  1.00  0.00    -0.744 OA
ENDBRANCH  70  71
ENDBRANCH  38  63
ENDBRANCH  12  13
ENDBRANCH   5   7
ENDBRANCH   4   5
ENDBRANCH   3   4
ENDBRANCH   2   3
ENDBRANCH   1   2
BRANCH   1  75
ATOM     75  C   UNL A   1      33.547  30.764  27.290  1.00  0.00     0.202 C 
BRANCH  75  76
ATOM     76  C   UNL A   1      34.123  29.415  26.861  1.00  0.00     0.261 C 
BRANCH  76  77
ATOM     77  O   UNL A   1      33.400  28.859  25.733  1.00  0.00    -0.459 OA
BRANCH  77  78
ATOM     78  C   UNL A   1      32.769  27.663  25.911  1.00  0.00     0.355 C 
ATOM     79  O   UNL A   1      31.802  27.473  26.626  1.00  0.00    -0.244 OA
BRANCH  78  80
ATOM     80  C   UNL A   1      33.403  26.649  25.093  1.00  0.00     0.128 A 
ATOM     81  C   UNL A   1      34.086  25.539  25.568  1.00  0.00     0.035 A 
ATOM     82  N   UNL A   1      33.390  26.533  23.708  1.00  0.00    -0.333 N 
ATOM     83  C   UNL A   1      34.285  24.651  24.489  1.00  0.00     0.020 A 
ATOM     84  C   UNL A   1      33.796  25.263  23.361  1.00  0.00     0.087 A 
BRANCH  82  85
ATOM     85  C   UNL A   1      32.950  27.509  22.721  1.00  0.00     0.222 C 
BRANCH  85  86
ATOM     86  C   UNL A   1      31.534  27.417  22.120  1.00  0.00     0.242 C 
ATOM     87  O   UNL A   1      31.324  26.472  21.344  1.00  0.00    -0.273 OA
BRANCH  86  88
ATOM     88  N   UNL A   1      30.464  28.184  22.568  1.00  0.00    -0.341 N 
ATOM     89  C   UNL A   1      29.542  27.844  23.643  1.00  0.00     0.120 C 
ATOM     90  C   UNL A   1      30.323  29.583  22.116  1.00  0.00     0.123 C 
ATOM     91  C   UNL A   1      28.090  28.027  23.227  1.00  0.00     0.025 C 
ATOM     92  C   UNL A   1      28.892  29.824  21.595  1.00  0.00     0.012 C 
ATOM     93  C   UNL A   1      27.806  29.410  22.606  1.00  0.00    -0.005 C 
ATOM     94  C   UNL A   1      28.631  31.241  21.097  1.00  0.00     0.006 C 
ATOM     95  C   UNL A   1      27.586  30.442  23.725  1.00  0.00     0.004 C 
ATOM     96  C   UNL A   1      28.614  32.274  22.205  1.00  0.00     0.000 C 
ATOM     97  C   UNL A   1      27.656  31.917  23.333  1.00  0.00     0.000 C 
ENDBRANCH  86  88
ENDBRANCH  85  86
ENDBRANCH  82  85
ENDBRANCH  78  80
ENDBRANCH  77  78
ENDBRANCH  76  77
ENDBRANCH  75  76
ENDBRANCH   1  75
TORSDOF 20
ENDMDL
MODEL 2
REMARK VINA RESULT:     -11.8      1.292      3.381
REMARK SMILES O=C(OCCOCCOC(=O)c1cccn1CC(=O)N1CC[C@H]2CCCC[C@H]2C1)c1ccc(-c2c3nc(c(-c4c(F)cc(S(=O)(=O)[O-])cc4F)c4ccc([nH]4)c(-c4c(F)cc(S(=O)(=O)[O-])cc4F)c4nc(c(-c5c(F)cc(S(=O)(=O)[O-])cc5F)c5ccc2[nH]5)C=C4)C=C3)cc1
REMARK SMILES IDX 6 1 5 2 4 3 3 4 2 5 1 6 30 7 31 8 95 9 32 10 94 11 33 12
REMARK SMILES IDX 34 13 35 14 88 15 36 16 93 17 87 18 89 19 37 20 92 21 86 22
REMARK SMILES IDX 85 23 38 25 72 26 51 27 71 28 52 29 55 30 70 31 90 32 53 33
REMARK SMILES IDX 54 34 69 36 91 37 56 38 39 39 40 40 49 41 41 42 42 43 48 44
REMARK SMILES IDX 50 45 43 46 44 47 45 48 46 49 47 50 73 51 74 52 83 53 75 54
REMARK SMILES IDX 76 55 82 56 84 57 77 58 78 59 79 60 80 61 81 62 57 63 58 64
REMARK SMILES IDX 67 65 59 66 60 67 66 68 68 69 61 70 62 71 63 72 64 73 65 74
REMARK SMILES IDX 7 75 8 76 9 77 10 78 11 79 12 80 13 81 16 82 14 83 15 84
REMARK SMILES IDX 17 85 18 86 19 87 20 88 21 89 29 90 22 91 28 92 23 93 27 94
REMARK SMILES IDX 24 95 26 96 25 97
REMARK H PARENT 89 24 55 35
REMARK Flexibility Score: inf
ROOT
ATOM      1  O   UNL A   1      31.994  31.489  26.693  1.00  0.00    -0.374 OA
ENDROOT
BRANCH   1   2
ATOM      2  C   UNL A   1      31.810  32.880  26.881  1.00  0.00     0.202 C 
BRANCH   2   3
ATOM      3  C   UNL A   1      32.915  33.627  27.598  1.00  0.00     0.261 C 
BRANCH   3   4
ATOM      4  O   UNL A   1      32.423  34.790  28.294  1.00  0.00    -0.460 OA
BRANCH   4   5
ATOM      5  C   UNL A   1      33.080  35.547  29.211  1.00  0.00     0.338 C 
ATOM      6  O   UNL A   1      32.626  36.591  29.662  1.00  0.00    -0.246 OA
BRANCH   5   7
ATOM      7  C   UNL A   1      34.099  34.796  29.923  1.00  0.00     0.060 A 
ATOM      8  C   UNL A   1      35.375  34.700  29.389  1.00  0.00     0.016 A 
ATOM      9  C   UNL A   1      33.676  34.013  31.001  1.00  0.00     0.016 A 
ATOM     10  C   UNL A   1      36.102  33.576  29.658  1.00  0.00     0.010 A 
ATOM     11  C   UNL A   1      34.512  33.015  31.452  1.00  0.00     0.010 A 
ATOM     12  C   UNL A   1      35.699  32.786  30.743  1.00  0.00    -0.014 A 
BRANCH  12  13
ATOM     13  C   UNL A   1      36.823  32.119  31.397  1.00  0.00     0.031 A 
ATOM     14  C   UNL A   1      37.117  30.826  30.544  1.00  0.00     0.074 A 
ATOM     15  C   UNL A   1      37.268  32.691  32.558  1.00  0.00     0.049 A 
ATOM     16  N   UNL A   1      37.478  29.635  30.908  1.00  0.00    -0.248 NA
ATOM     17  C   UNL A   1      36.772  30.816  29.072  1.00  0.00     0.031 C 
ATOM     18  C   UNL A   1      36.786  33.961  33.155  1.00  0.00     0.029 A 
ATOM     19  N   UNL A   1      38.217  32.333  33.479  1.00  0.00    -0.354 N 
ATOM     20  C   UNL A   1      37.707  28.902  29.716  1.00  0.00     0.074 A 
ATOM     21  C   UNL A   1      36.983  29.558  28.685  1.00  0.00     0.031 C 
ATOM     22  C   UNL A   1      37.362  34.202  34.359  1.00  0.00     0.029 A 
ATOM     23  C   UNL A   1      38.327  33.158  34.640  1.00  0.00     0.049 A 
ATOM     24  H   UNL A   1      38.795  31.547  33.347  1.00  0.00     0.167 HD
ATOM     25  C   UNL A   1      38.726  28.000  29.578  1.00  0.00     0.037 A 
ATOM     26  C   UNL A   1      39.143  32.967  35.730  1.00  0.00     0.037 A 
ATOM     27  C   UNL A   1      39.440  27.937  30.810  1.00  0.00     0.049 A 
ATOM     28  C   UNL A   1      40.065  31.922  35.263  1.00  0.00     0.074 A 
ATOM     29  C   UNL A   1      39.059  27.472  32.042  1.00  0.00     0.029 A 
ATOM     30  N   UNL A   1      40.476  28.838  30.951  1.00  0.00    -0.354 N 
ATOM     31  N   UNL A   1      40.965  32.098  34.342  1.00  0.00    -0.248 NA
ATOM     32  C   UNL A   1      39.876  30.553  35.750  1.00  0.00     0.031 C 
ATOM     33  C   UNL A   1      39.490  28.508  32.892  1.00  0.00     0.029 A 
ATOM     34  C   UNL A   1      40.415  29.327  32.230  1.00  0.00     0.049 A 
ATOM     35  H   UNL A   1      41.134  29.084  30.262  1.00  0.00     0.167 HD
ATOM     36  C   UNL A   1      41.177  30.820  33.895  1.00  0.00     0.074 A 
ATOM     37  C   UNL A   1      40.764  29.937  34.973  1.00  0.00     0.031 C 
ATOM     38  C   UNL A   1      41.104  30.556  32.561  1.00  0.00     0.037 A 
BRANCH  25  39
ATOM     39  C   UNL A   1      39.402  27.398  28.373  1.00  0.00     0.058 A 
ATOM     40  C   UNL A   1      39.593  25.994  28.386  1.00  0.00     0.135 A 
ATOM     41  C   UNL A   1      40.153  28.114  27.429  1.00  0.00     0.135 A 
ATOM     42  F   UNL A   1      38.866  25.210  29.200  1.00  0.00    -0.206 F 
ATOM     43  C   UNL A   1      40.582  25.367  27.641  1.00  0.00     0.059 A 
ATOM     44  C   UNL A   1      41.119  27.494  26.630  1.00  0.00     0.059 A 
ATOM     45  F   UNL A   1      40.042  29.441  27.301  1.00  0.00    -0.206 F 
ATOM     46  C   UNL A   1      41.367  26.133  26.790  1.00  0.00     0.060 A 
BRANCH  46  47
ATOM     47  S   UNL A   1      42.732  25.324  25.936  1.00  0.00     0.124 S 
ATOM     48  O   UNL A   1      42.683  25.964  24.627  1.00  0.00    -0.237 OA
ATOM     49  O   UNL A   1      43.872  25.685  26.775  1.00  0.00    -0.237 OA
ATOM     50  O   UNL A   1      42.361  23.913  25.969  1.00  0.00    -0.744 OA
ENDBRANCH  46  47
ENDBRANCH  25  39
BRANCH  26  51
ATOM     51  C   UNL A   1      39.348  33.408  37.172  1.00  0.00     0.058 A 
ATOM     52  C   UNL A   1      40.267  34.352  37.643  1.00  0.00     0.135 A 
ATOM     53  C   UNL A   1      38.394  32.995  38.155  1.00  0.00     0.135 A 
ATOM     54  F   UNL A   1      41.304  34.731  36.884  1.00  0.00    -0.206 F 
ATOM     55  C   UNL A   1      40.133  34.964  38.913  1.00  0.00     0.059 A 
ATOM     56  C   UNL A   1      38.197  33.629  39.377  1.00  0.00     0.059 A 
ATOM     57  F   UNL A   1      37.559  31.968  37.941  1.00  0.00    -0.206 F 
ATOM     58  C   UNL A   1      39.050  34.648  39.739  1.00  0.00     0.060 A 
BRANCH  58  59
ATOM     59  S   UNL A   1      38.650  35.643  41.198  1.00  0.00     0.124 S 
ATOM     60  O   UNL A   1      39.802  35.405  42.060  1.00  0.00    -0.237 OA
ATOM     61  O   UNL A   1      38.540  36.987  40.638  1.00  0.00    -0.237 OA
ATOM     62  O   UNL A   1      37.389  35.070  41.664  1.00  0.00    -0.744 OA
ENDBRANCH  58  59
ENDBRANCH  26  51
BRANCH  38  63
ATOM     63  C   UNL A   1      41.432  31.723  31.626  1.00  0.00     0.058 A 
ATOM     64  C   UNL A   1      42.679  32.367  31.708  1.00  0.00     0.135 A 
ATOM     65  C   UNL A   1      40.548  32.275  30.680  1.00  0.00     0.135 A 
ATOM     66  F   UNL A   1      43.617  31.896  32.546  1.00  0.00    -0.206 F 
ATOM     67  C   UNL A   1      43.015  33.481  30.926  1.00  0.00     0.059 A 
ATOM     68  C   UNL A   1      40.845  33.398  29.894  1.00  0.00     0.059 A 
ATOM     69  F   UNL A   1      39.366  31.709  30.458  1.00  0.00    -0.206 F 
ATOM     70  C   UNL A   1      42.091  33.994  30.019  1.00  0.00     0.060 A 
BRANCH  70  71
ATOM     71  S   UNL A   1      42.565  35.390  28.971  1.00  0.00     0.124 S 
ATOM     72  O   UNL A   1      41.279  35.862  28.470  1.00  0.00    -0.237 OA
ATOM     73  O   UNL A   1      43.233  36.272  29.924  1.00  0.00    -0.237 OA
ATOM     74  O   UNL A   1      43.436  34.788  27.964  1.00  0.00    -0.744 OA
ENDBRANCH  70  71
ENDBRANCH  38  63
ENDBRANCH  12  13
ENDBRANCH   5   7
ENDBRANCH   4   5
ENDBRANCH   3   4
ENDBRANCH   2   3
ENDBRANCH   1   2
BRANCH   1  75
ATOM     75  C   UNL A   1      33.301  30.982  27.003  1.00  0.00     0.202 C 
BRANCH  75  76
ATOM     76  C   UNL A   1      33.475  29.464  27.001  1.00  0.00     0.261 C 
BRANCH  76  77
ATOM     77  O   UNL A   1      33.357  28.913  25.664  1.00  0.00    -0.459 OA
BRANCH  77  78
ATOM     78  C   UNL A   1      32.920  27.627  25.543  1.00  0.00     0.355 C 
ATOM     79  O   UNL A   1      33.293  26.687  26.222  1.00  0.00    -0.244 OA
BRANCH  78  80
ATOM     80  C   UNL A   1      31.915  27.547  24.503  1.00  0.00     0.128 A 
ATOM     81  C   UNL A   1      30.565  27.825  24.662  1.00  0.00     0.035 A 
ATOM     82  N   UNL A   1      32.097  27.266  23.153  1.00  0.00    -0.333 N 
ATOM     83  C   UNL A   1      29.985  27.929  23.379  1.00  0.00     0.020 A 
ATOM     84  C   UNL A   1      30.964  27.635  22.462  1.00  0.00     0.087 A 
BRANCH  82  85
ATOM     85  C   UNL A   1      33.286  26.751  22.488  1.00  0.00     0.222 C 
BRANCH  85  86
ATOM     86  C   UNL A   1      33.273  25.345  21.859  1.00  0.00     0.242 C 
ATOM     87  O   UNL A   1      33.223  25.294  20.620  1.00  0.00    -0.273 OA
BRANCH  86  88
ATOM     88  N   UNL A   1      33.533  24.184  22.581  1.00  0.00    -0.341 N 
ATOM     89  C   UNL A   1      32.920  22.879  22.377  1.00  0.00     0.120 C 
ATOM     90  C   UNL A   1      34.684  24.138  23.505  1.00  0.00     0.123 C 
ATOM     91  C   UNL A   1      32.415  22.277  23.680  1.00  0.00     0.025 C 
ATOM     92  C   UNL A   1      34.230  23.616  24.883  1.00  0.00     0.012 C 
ATOM     93  C   UNL A   1      33.475  22.275  24.799  1.00  0.00    -0.005 C 
ATOM     94  C   UNL A   1      35.341  23.527  25.923  1.00  0.00     0.006 C 
ATOM     95  C   UNL A   1      34.402  21.060  24.631  1.00  0.00     0.004 C 
ATOM     96  C   UNL A   1      36.356  22.443  25.626  1.00  0.00     0.000 C 
ATOM     97  C   UNL A   1      35.719  21.078  25.405  1.00  0.00     0.000 C 
ENDBRANCH  86  88
ENDBRANCH  85  86
ENDBRANCH  82  85
ENDBRANCH  78  80
ENDBRANCH  77  78
ENDBRANCH  76  77
ENDBRANCH  75  76
ENDBRANCH   1  75
TORSDOF 20
ENDMDL
MODEL 3
REMARK VINA RESULT:     -11.6      5.425     11.320
REMARK SMILES O=C(OCCOCCOC(=O)c1cccn1CC(=O)N1CC[C@H]2CCCC[C@H]2C1)c1ccc(-c2c3nc(c(-c4c(F)cc(S(=O)(=O)[O-])cc4F)c4ccc([nH]4)c(-c4c(F)cc(S(=O)(=O)[O-])cc4F)c4nc(c(-c5c(F)cc(S(=O)(=O)[O-])cc5F)c5ccc2[nH]5)C=C4)C=C3)cc1
REMARK SMILES IDX 6 1 5 2 4 3 3 4 2 5 1 6 30 7 31 8 95 9 32 10 94 11 33 12
REMARK SMILES IDX 34 13 35 14 88 15 36 16 93 17 87 18 89 19 37 20 92 21 86 22
REMARK SMILES IDX 85 23 38 25 72 26 51 27 71 28 52 29 55 30 70 31 90 32 53 33
REMARK SMILES IDX 54 34 69 36 91 37 56 38 39 39 40 40 49 41 41 42 42 43 48 44
REMARK SMILES IDX 50 45 43 46 44 47 45 48 46 49 47 50 73 51 74 52 83 53 75 54
REMARK SMILES IDX 76 55 82 56 84 57 77 58 78 59 79 60 80 61 81 62 57 63 58 64
REMARK SMILES IDX 67 65 59 66 60 67 66 68 68 69 61 70 62 71 63 72 64 73 65 74
REMARK SMILES IDX 7 75 8 76 9 77 10 78 11 79 12 80 13 81 16 82 14 83 15 84
REMARK SMILES IDX 17 85 18 86 19 87 20 88 21 89 29 90 22 91 28 92 23 93 27 94
REMARK SMILES IDX 24 95 26 96 25 97
REMARK H PARENT 89 24 55 35
REMARK Flexibility Score: inf
ROOT
ATOM      1  O   UNL A   1      38.434  22.252  25.813  1.00  0.00    -0.374 OA
ENDROOT
BRANCH   1   2
ATOM      2  C   UNL A   1      38.193  21.036  25.130  1.00  0.00     0.202 C 
BRANCH   2   3
ATOM      3  C   UNL A   1      38.714  19.770  25.779  1.00  0.00     0.261 C 
BRANCH   3   4
ATOM      4  O   UNL A   1      40.059  19.461  25.364  1.00  0.00    -0.460 OA
BRANCH   4   5
ATOM      5  C   UNL A   1      41.187  19.486  26.121  1.00  0.00     0.338 C 
ATOM      6  O   UNL A   1      41.956  18.538  26.203  1.00  0.00    -0.246 OA
BRANCH   5   7
ATOM      7  C   UNL A   1      41.620  20.839  26.425  1.00  0.00     0.060 A 
ATOM      8  C   UNL A   1      41.894  21.718  25.389  1.00  0.00     0.016 A 
ATOM      9  C   UNL A   1      41.959  21.116  27.753  1.00  0.00     0.016 A 
ATOM     10  C   UNL A   1      42.837  22.683  25.596  1.00  0.00     0.010 A 
ATOM     11  C   UNL A   1      42.718  22.235  28.014  1.00  0.00     0.010 A 
ATOM     12  C   UNL A   1      43.180  22.981  26.922  1.00  0.00    -0.014 A 
BRANCH  12  13
ATOM     13  C   UNL A   1      43.554  24.383  27.100  1.00  0.00     0.031 A 
ATOM     14  C   UNL A   1      42.201  25.187  27.187  1.00  0.00     0.074 A 
ATOM     15  C   UNL A   1      44.895  24.654  27.070  1.00  0.00     0.049 A 
ATOM     16  N   UNL A   1      41.881  26.357  26.730  1.00  0.00    -0.248 NA
ATOM     17  C   UNL A   1      40.960  24.495  27.703  1.00  0.00     0.031 C 
ATOM     18  C   UNL A   1      45.993  23.661  26.971  1.00  0.00     0.029 A 
ATOM     19  N   UNL A   1      45.622  25.816  27.118  1.00  0.00    -0.354 N 
ATOM     20  C   UNL A   1      40.568  26.626  27.196  1.00  0.00     0.074 A 
ATOM     21  C   UNL A   1      39.977  25.371  27.500  1.00  0.00     0.031 C 
ATOM     22  C   UNL A   1      47.206  24.259  26.865  1.00  0.00     0.029 A 
ATOM     23  C   UNL A   1      47.035  25.695  26.956  1.00  0.00     0.049 A 
ATOM     24  H   UNL A   1      45.190  26.690  27.259  1.00  0.00     0.167 HD
ATOM     25  C   UNL A   1      40.161  27.864  27.608  1.00  0.00     0.037 A 
ATOM     26  C   UNL A   1      47.961  26.709  26.894  1.00  0.00     0.037 A 
ATOM     27  C   UNL A   1      41.251  28.770  27.453  1.00  0.00     0.049 A 
ATOM     28  C   UNL A   1      47.191  27.878  27.344  1.00  0.00     0.074 A 
ATOM     29  C   UNL A   1      41.872  29.238  26.325  1.00  0.00     0.029 A 
ATOM     30  N   UNL A   1      42.105  28.872  28.533  1.00  0.00    -0.354 N 
ATOM     31  N   UNL A   1      46.762  28.046  28.559  1.00  0.00    -0.248 NA
ATOM     32  C   UNL A   1      46.746  28.851  26.344  1.00  0.00     0.031 C 
ATOM     33  C   UNL A   1      43.232  29.083  26.653  1.00  0.00     0.029 A 
ATOM     34  C   UNL A   1      43.381  28.909  28.036  1.00  0.00     0.049 A 
ATOM     35  H   UNL A   1      41.845  28.910  29.481  1.00  0.00     0.167 HD
ATOM     36  C   UNL A   1      45.719  28.917  28.381  1.00  0.00     0.074 A 
ATOM     37  C   UNL A   1      45.971  29.602  27.123  1.00  0.00     0.031 C 
ATOM     38  C   UNL A   1      44.500  28.621  28.909  1.00  0.00     0.037 A 
BRANCH  25  39
ATOM     39  C   UNL A   1      39.011  28.330  28.463  1.00  0.00     0.058 A 
ATOM     40  C   UNL A   1      38.291  29.459  28.001  1.00  0.00     0.135 A 
ATOM     41  C   UNL A   1      38.813  27.980  29.808  1.00  0.00     0.135 A 
ATOM     42  F   UNL A   1      38.352  29.832  26.712  1.00  0.00    -0.206 F 
ATOM     43  C   UNL A   1      37.566  30.283  28.852  1.00  0.00     0.059 A 
ATOM     44  C   UNL A   1      38.044  28.767  30.670  1.00  0.00     0.059 A 
ATOM     45  F   UNL A   1      39.416  26.918  30.354  1.00  0.00    -0.206 F 
ATOM     46  C   UNL A   1      37.478  29.948  30.195  1.00  0.00     0.060 A 
BRANCH  46  47
ATOM     47  S   UNL A   1      36.650  31.100  31.306  1.00  0.00     0.124 S 
ATOM     48  O   UNL A   1      36.270  30.227  32.410  1.00  0.00    -0.237 OA
ATOM     49  O   UNL A   1      37.712  32.061  31.594  1.00  0.00    -0.237 OA
ATOM     50  O   UNL A   1      35.551  31.617  30.497  1.00  0.00    -0.744 OA
ENDBRANCH  46  47
ENDBRANCH  25  39
BRANCH  26  51
ATOM     51  C   UNL A   1      49.397  27.005  26.483  1.00  0.00     0.058 A 
ATOM     52  C   UNL A   1      50.417  27.517  27.292  1.00  0.00     0.135 A 
ATOM     53  C   UNL A   1      49.852  26.543  25.208  1.00  0.00     0.135 A 
ATOM     54  F   UNL A   1      50.129  28.114  28.457  1.00  0.00    -0.206 F 
ATOM     55  C   UNL A   1      51.784  27.406  26.939  1.00  0.00     0.059 A 
ATOM     56  C   UNL A   1      51.187  26.357  24.868  1.00  0.00     0.059 A 
ATOM     57  F   UNL A   1      48.996  26.194  24.236  1.00  0.00    -0.206 F 
ATOM     58  C   UNL A   1      52.159  26.755  25.759  1.00  0.00     0.060 A 
BRANCH  58  59
ATOM     59  S   UNL A   1      53.880  26.287  25.442  1.00  0.00     0.124 S 
ATOM     60  O   UNL A   1      54.268  25.667  26.703  1.00  0.00    -0.237 OA
ATOM     61  O   UNL A   1      53.751  25.386  24.300  1.00  0.00    -0.237 OA
ATOM     62  O   UNL A   1      54.528  27.563  25.143  1.00  0.00    -0.744 OA
ENDBRANCH  58  59
ENDBRANCH  26  51
BRANCH  38  63
ATOM     63  C   UNL A   1      44.505  27.732  30.155  1.00  0.00     0.058 A 
ATOM     64  C   UNL A   1      45.203  28.134  31.308  1.00  0.00     0.135 A 
ATOM     65  C   UNL A   1      43.893  26.469  30.251  1.00  0.00     0.135 A 
ATOM     66  F   UNL A   1      45.787  29.342  31.345  1.00  0.00    -0.206 F 
ATOM     67  C   UNL A   1      45.300  27.336  32.457  1.00  0.00     0.059 A 
ATOM     68  C   UNL A   1      43.985  25.638  31.377  1.00  0.00     0.059 A 
ATOM     69  F   UNL A   1      43.144  26.010  29.253  1.00  0.00    -0.206 F 
ATOM     70  C   UNL A   1      44.688  26.085  32.485  1.00  0.00     0.060 A 
BRANCH  70  71
ATOM     71  S   UNL A   1      44.768  25.098  33.999  1.00  0.00     0.124 S 
ATOM     72  O   UNL A   1      45.484  23.905  33.562  1.00  0.00    -0.237 OA
ATOM     73  O   UNL A   1      45.504  25.981  34.899  1.00  0.00    -0.237 OA
ATOM     74  O   UNL A   1      43.365  24.883  34.347  1.00  0.00    -0.744 OA
ENDBRANCH  70  71
ENDBRANCH  38  63
ENDBRANCH  12  13
ENDBRANCH   5   7
ENDBRANCH   4   5
ENDBRANCH   3   4
ENDBRANCH   2   3
ENDBRANCH   1   2
BRANCH   1  75
ATOM     75  C   UNL A   1      37.369  23.214  25.778  1.00  0.00     0.202 C 
BRANCH  75  76
ATOM     76  C   UNL A   1      36.501  23.243  24.520  1.00  0.00     0.261 C 
BRANCH  76  77
ATOM     77  O   UNL A   1      35.088  23.304  24.846  1.00  0.00    -0.459 OA
BRANCH  77  78
ATOM     78  C   UNL A   1      34.345  22.176  24.663  1.00  0.00     0.355 C 
ATOM     79  O   UNL A   1      34.787  21.074  24.391  1.00  0.00    -0.244 OA
BRANCH  78  80
ATOM     80  C   UNL A   1      32.943  22.473  24.874  1.00  0.00     0.128 A 
ATOM     81  C   UNL A   1      32.168  22.007  25.925  1.00  0.00     0.035 A 
ATOM     82  N   UNL A   1      32.127  23.327  24.139  1.00  0.00    -0.333 N 
ATOM     83  C   UNL A   1      30.968  22.749  25.948  1.00  0.00     0.020 A 
ATOM     84  C   UNL A   1      30.991  23.597  24.868  1.00  0.00     0.087 A 
BRANCH  82  85
ATOM     85  C   UNL A   1      32.395  23.948  22.850  1.00  0.00     0.222 C 
BRANCH  85  86
ATOM     86  C   UNL A   1      33.150  25.290  22.780  1.00  0.00     0.242 C 
ATOM     87  O   UNL A   1      34.043  25.377  21.922  1.00  0.00    -0.273 OA
BRANCH  86  88
ATOM     88  N   UNL A   1      32.737  26.434  23.455  1.00  0.00    -0.341 N 
ATOM     89  C   UNL A   1      31.714  27.376  23.022  1.00  0.00     0.120 C 
ATOM     90  C   UNL A   1      33.167  26.658  24.850  1.00  0.00     0.123 C 
ATOM     91  C   UNL A   1      32.194  28.817  23.108  1.00  0.00     0.025 C 
ATOM     92  C   UNL A   1      33.749  28.078  24.997  1.00  0.00     0.012 C 
ATOM     93  C   UNL A   1      32.798  29.175  24.480  1.00  0.00    -0.005 C 
ATOM     94  C   UNL A   1      34.231  28.422  26.402  1.00  0.00     0.006 C 
ATOM     95  C   UNL A   1      31.671  29.521  25.467  1.00  0.00     0.004 C 
ATOM     96  C   UNL A   1      33.104  28.565  27.405  1.00  0.00     0.000 C 
ATOM     97  C   UNL A   1      32.029  29.544  26.952  1.00  0.00     0.000 C 
ENDBRANCH  86  88
ENDBRANCH  85  86
ENDBRANCH  82  85
ENDBRANCH  78  80
ENDBRANCH  77  78
ENDBRANCH  76  77
ENDBRANCH  75  76
ENDBRANCH   1  75
TORSDOF 20
ENDMDL
