MODEL 1
REMARK VINA RESULT:     -11.3      0.000      0.000
REMARK SMILES O=C(OCCOCCOC(=O)[C@H](c1ccccc1)N1C(=O)/C(=C/c2ccc(-c3nc4ccccc4s3)o2)SC1=S)c1ccc(-c2c3nc(c(-c4c(F)cc(S(=O)(=O)[O-])cc4F)c4ccc([nH]4)c(-c4c(F)cc(S(=O)(=O)[O-])cc4F)c4nc(c(-c5c(F)cc(S(=O)(=O)[O-])cc5F)c5ccc2[nH]5)C=C4)C=C3)cc1
REMARK SMILES IDX 6 1 5 2 4 3 3 4 2 5 1 6 41 7 42 8 106 9 43 10 105 11 44 12
REMARK SMILES IDX 45 13 46 14 99 15 47 16 104 17 98 18 100 19 48 20 103 21
REMARK SMILES IDX 97 22 96 23 49 25 83 26 62 27 82 28 63 29 66 30 81 31 101 32
REMARK SMILES IDX 64 33 65 34 80 36 102 37 67 38 50 39 51 40 60 41 52 42 53 43
REMARK SMILES IDX 59 44 61 45 54 46 55 47 56 48 57 49 58 50 84 51 85 52 94 53
REMARK SMILES IDX 86 54 87 55 93 56 95 57 88 58 89 59 90 60 91 61 92 62 68 63
REMARK SMILES IDX 69 64 78 65 70 66 71 67 77 68 79 69 72 70 73 71 74 72 75 73
REMARK SMILES IDX 76 74 7 75 8 76 9 77 10 78 11 79 12 80 19 81 20 82 39 83
REMARK SMILES IDX 21 84 22 85 38 86 40 87 23 88 24 89 25 90 37 91 26 92 27 93
REMARK SMILES IDX 28 94 29 95 36 96 30 97 35 98 31 99 34 100 32 101 33 102
REMARK SMILES IDX 13 103 14 104 18 105 15 106 17 107 16 108
REMARK H PARENT 100 24 66 35
REMARK Flexibility Score: inf
ROOT
ATOM      1  O   UNL A   1      34.525  30.590  27.503  1.00  0.00    -0.374 OA
ENDROOT
BRANCH   1   2
ATOM      2  C   UNL A   1      35.634  31.057  28.274  1.00  0.00     0.202 C 
BRANCH   2   3
ATOM      3  C   UNL A   1      35.997  30.341  29.576  1.00  0.00     0.261 C 
BRANCH   3   4
ATOM      4  O   UNL A   1      36.204  31.288  30.629  1.00  0.00    -0.460 OA
BRANCH   4   5
ATOM      5  C   UNL A   1      37.338  31.458  31.350  1.00  0.00     0.338 C 
ATOM      6  O   UNL A   1      37.282  32.089  32.403  1.00  0.00    -0.246 OA
BRANCH   5   7
ATOM      7  C   UNL A   1      38.659  30.923  30.907  1.00  0.00     0.060 A 
ATOM      8  C   UNL A   1      39.201  31.122  29.637  1.00  0.00     0.016 A 
ATOM      9  C   UNL A   1      39.443  30.259  31.859  1.00  0.00     0.016 A 
ATOM     10  C   UNL A   1      40.446  30.663  29.288  1.00  0.00     0.010 A 
ATOM     11  C   UNL A   1      40.727  29.814  31.532  1.00  0.00     0.010 A 
ATOM     12  C   UNL A   1      41.221  30.027  30.241  1.00  0.00    -0.014 A 
BRANCH  12  13
ATOM     13  C   UNL A   1      42.499  29.508  29.761  1.00  0.00     0.031 A 
ATOM     14  C   UNL A   1      43.703  30.367  29.946  1.00  0.00     0.074 A 
ATOM     15  C   UNL A   1      42.567  28.218  29.383  1.00  0.00     0.049 A 
ATOM     16  N   UNL A   1      44.929  30.148  29.574  1.00  0.00    -0.248 NA
ATOM     17  C   UNL A   1      43.504  31.638  30.669  1.00  0.00     0.031 C 
ATOM     18  C   UNL A   1      41.437  27.278  29.380  1.00  0.00     0.029 A 
ATOM     19  N   UNL A   1      43.625  27.461  28.975  1.00  0.00    -0.354 N 
ATOM     20  C   UNL A   1      45.640  31.269  29.973  1.00  0.00     0.074 A 
ATOM     21  C   UNL A   1      44.719  32.162  30.635  1.00  0.00     0.031 C 
ATOM     22  C   UNL A   1      41.871  26.070  28.991  1.00  0.00     0.029 A 
ATOM     23  C   UNL A   1      43.279  26.174  28.638  1.00  0.00     0.049 A 
ATOM     24  H   UNL A   1      44.548  27.804  28.927  1.00  0.00     0.167 HD
ATOM     25  C   UNL A   1      46.951  31.519  29.769  1.00  0.00     0.037 A 
ATOM     26  C   UNL A   1      44.021  25.220  28.048  1.00  0.00     0.037 A 
ATOM     27  C   UNL A   1      47.818  30.583  29.108  1.00  0.00     0.049 A 
ATOM     28  C   UNL A   1      45.449  25.573  27.725  1.00  0.00     0.074 A 
ATOM     29  C   UNL A   1      49.147  30.729  28.767  1.00  0.00     0.029 A 
ATOM     30  N   UNL A   1      47.424  29.317  28.688  1.00  0.00    -0.354 N 
ATOM     31  N   UNL A   1      46.107  26.674  28.011  1.00  0.00    -0.248 NA
ATOM     32  C   UNL A   1      46.229  24.576  26.988  1.00  0.00     0.031 C 
ATOM     33  C   UNL A   1      49.542  29.570  28.090  1.00  0.00     0.029 A 
ATOM     34  C   UNL A   1      48.479  28.677  28.067  1.00  0.00     0.049 A 
ATOM     35  H   UNL A   1      46.527  28.934  28.815  1.00  0.00     0.167 HD
ATOM     36  C   UNL A   1      47.387  26.497  27.506  1.00  0.00     0.074 A 
ATOM     37  C   UNL A   1      47.413  25.171  26.916  1.00  0.00     0.031 C 
ATOM     38  C   UNL A   1      48.445  27.344  27.515  1.00  0.00     0.037 A 
BRANCH  25  39
ATOM     39  C   UNL A   1      47.472  32.865  30.171  1.00  0.00     0.058 A 
ATOM     40  C   UNL A   1      47.490  33.960  29.294  1.00  0.00     0.135 A 
ATOM     41  C   UNL A   1      47.971  33.057  31.470  1.00  0.00     0.135 A 
ATOM     42  F   UNL A   1      47.070  33.819  28.027  1.00  0.00    -0.206 F 
ATOM     43  C   UNL A   1      47.986  35.198  29.691  1.00  0.00     0.059 A 
ATOM     44  C   UNL A   1      48.450  34.290  31.895  1.00  0.00     0.059 A 
ATOM     45  F   UNL A   1      48.005  32.033  32.338  1.00  0.00    -0.206 F 
ATOM     46  C   UNL A   1      48.457  35.355  30.996  1.00  0.00     0.060 A 
BRANCH  46  47
ATOM     47  S   UNL A   1      49.063  36.976  31.507  1.00  0.00     0.124 S 
ATOM     48  O   UNL A   1      50.313  37.072  30.758  1.00  0.00    -0.237 OA
ATOM     49  O   UNL A   1      47.990  37.861  31.064  1.00  0.00    -0.237 OA
ATOM     50  O   UNL A   1      49.209  36.846  32.953  1.00  0.00    -0.744 OA
ENDBRANCH  46  47
ENDBRANCH  25  39
BRANCH  26  51
ATOM     51  C   UNL A   1      43.419  23.919  27.644  1.00  0.00     0.058 A 
ATOM     52  C   UNL A   1      43.333  22.841  28.536  1.00  0.00     0.135 A 
ATOM     53  C   UNL A   1      42.946  23.715  26.335  1.00  0.00     0.135 A 
ATOM     54  F   UNL A   1      43.769  22.977  29.797  1.00  0.00    -0.206 F 
ATOM     55  C   UNL A   1      42.840  21.599  28.137  1.00  0.00     0.059 A 
ATOM     56  C   UNL A   1      42.417  22.496  25.923  1.00  0.00     0.059 A 
ATOM     57  F   UNL A   1      42.990  24.713  25.437  1.00  0.00    -0.206 F 
ATOM     58  C   UNL A   1      42.390  21.436  26.826  1.00  0.00     0.060 A 
BRANCH  58  59
ATOM     59  S   UNL A   1      41.769  19.820  26.312  1.00  0.00     0.124 S 
ATOM     60  O   UNL A   1      42.056  19.009  27.489  1.00  0.00    -0.237 OA
ATOM     61  O   UNL A   1      40.359  20.100  26.058  1.00  0.00    -0.237 OA
ATOM     62  O   UNL A   1      42.564  19.516  25.126  1.00  0.00    -0.744 OA
ENDBRANCH  58  59
ENDBRANCH  26  51
BRANCH  38  63
ATOM     63  C   UNL A   1      49.720  26.836  26.911  1.00  0.00     0.058 A 
ATOM     64  C   UNL A   1      50.648  26.101  27.662  1.00  0.00     0.135 A 
ATOM     65  C   UNL A   1      49.973  27.032  25.545  1.00  0.00     0.135 A 
ATOM     66  F   UNL A   1      50.449  25.897  28.974  1.00  0.00    -0.206 F 
ATOM     67  C   UNL A   1      51.801  25.594  27.080  1.00  0.00     0.059 A 
ATOM     68  C   UNL A   1      51.103  26.504  24.935  1.00  0.00     0.059 A 
ATOM     69  F   UNL A   1      49.104  27.719  24.786  1.00  0.00    -0.206 F 
ATOM     70  C   UNL A   1      52.016  25.795  25.714  1.00  0.00     0.060 A 
BRANCH  70  71
ATOM     71  S   UNL A   1      53.493  25.087  24.962  1.00  0.00     0.124 S 
ATOM     72  O   UNL A   1      53.347  25.513  23.574  1.00  0.00    -0.237 OA
ATOM     73  O   UNL A   1      54.565  25.730  25.714  1.00  0.00    -0.237 OA
ATOM     74  O   UNL A   1      53.341  23.655  25.198  1.00  0.00    -0.744 OA
ENDBRANCH  70  71
ENDBRANCH  38  63
ENDBRANCH  12  13
ENDBRANCH   5   7
ENDBRANCH   4   5
ENDBRANCH   3   4
ENDBRANCH   2   3
ENDBRANCH   1   2
BRANCH   1  75
ATOM     75  C   UNL A   1      34.388  29.176  27.329  1.00  0.00     0.202 C 
BRANCH  75  76
ATOM     76  C   UNL A   1      32.920  28.867  27.046  1.00  0.00     0.261 C 
BRANCH  76  77
ATOM     77  O   UNL A   1      32.766  28.987  25.628  1.00  0.00    -0.461 OA
BRANCH  77  78
ATOM     78  C   UNL A   1      31.741  29.787  25.210  1.00  0.00     0.334 C 
ATOM     79  O   UNL A   1      31.171  30.577  25.950  1.00  0.00    -0.249 OA
BRANCH  78  80
ATOM     80  C   UNL A   1      31.367  29.405  23.746  1.00  0.00     0.232 C 
BRANCH  80  81
ATOM     81  N   UNL A   1      31.494  27.948  23.629  1.00  0.00    -0.274 N 
ATOM     82  C   UNL A   1      30.534  27.081  24.081  1.00  0.00     0.267 C 
ATOM     83  C   UNL A   1      32.585  27.332  23.040  1.00  0.00     0.149 C 
ATOM     84  O   UNL A   1      29.336  27.286  24.249  1.00  0.00    -0.268 OA
ATOM     85  C   UNL A   1      31.125  25.748  24.276  1.00  0.00     0.084 C 
ATOM     86  S   UNL A   1      32.732  25.708  23.684  1.00  0.00    -0.054 SA
ATOM     87  S   UNL A   1      33.625  27.894  21.860  1.00  0.00    -0.052 S 
ATOM     88  C   UNL A   1      30.433  24.798  24.905  1.00  0.00     0.068 C 
BRANCH  88  89
ATOM     89  C   UNL A   1      31.088  23.643  25.373  1.00  0.00     0.129 A 
ATOM     90  C   UNL A   1      31.623  23.445  26.636  1.00  0.00     0.051 A 
ATOM     91  O   UNL A   1      31.314  22.528  24.616  1.00  0.00    -0.454 OA
ATOM     92  C   UNL A   1      32.194  22.164  26.645  1.00  0.00     0.054 A 
ATOM     93  C   UNL A   1      31.982  21.622  25.392  1.00  0.00     0.163 A 
BRANCH  93  94
ATOM     94  C   UNL A   1      32.357  20.313  24.968  1.00  0.00     0.160 A 
ATOM     95  N   UNL A   1      32.349  19.319  25.824  1.00  0.00    -0.233 NA
ATOM     96  S   UNL A   1      32.883  19.949  23.384  1.00  0.00    -0.111 S 
ATOM     97  C   UNL A   1      32.799  18.177  25.209  1.00  0.00     0.082 A 
ATOM     98  C   UNL A   1      33.178  18.321  23.872  1.00  0.00     0.055 A 
ATOM     99  C   UNL A   1      32.910  16.921  25.828  1.00  0.00     0.030 A 
ATOM    100  C   UNL A   1      33.702  17.246  23.140  1.00  0.00     0.021 A 
ATOM    101  C   UNL A   1      33.423  15.843  25.107  1.00  0.00     0.002 A 
ATOM    102  C   UNL A   1      33.821  16.008  23.784  1.00  0.00     0.002 A 
ENDBRANCH  93  94
ENDBRANCH  88  89
ENDBRANCH  80  81
BRANCH  80 103
ATOM    103  C   UNL A   1      30.042  30.037  23.301  1.00  0.00    -0.014 A 
ATOM    104  C   UNL A   1      29.367  30.997  24.079  1.00  0.00     0.006 A 
ATOM    105  C   UNL A   1      29.461  29.669  22.074  1.00  0.00     0.006 A 
ATOM    106  C   UNL A   1      28.201  31.613  23.622  1.00  0.00     0.000 A 
ATOM    107  C   UNL A   1      28.303  30.299  21.608  1.00  0.00     0.000 A 
ATOM    108  C   UNL A   1      27.678  31.276  22.379  1.00  0.00     0.000 A 
ENDBRANCH  80 103
ENDBRANCH  78  80
ENDBRANCH  77  78
ENDBRANCH  76  77
ENDBRANCH  75  76
ENDBRANCH   1  75
TORSDOF 21
ENDMDL
MODEL 2
REMARK VINA RESULT:     -11.0      7.062     14.503
REMARK SMILES O=C(OCCOCCOC(=O)[C@H](c1ccccc1)N1C(=O)/C(=C/c2ccc(-c3nc4ccccc4s3)o2)SC1=S)c1ccc(-c2c3nc(c(-c4c(F)cc(S(=O)(=O)[O-])cc4F)c4ccc([nH]4)c(-c4c(F)cc(S(=O)(=O)[O-])cc4F)c4nc(c(-c5c(F)cc(S(=O)(=O)[O-])cc5F)c5ccc2[nH]5)C=C4)C=C3)cc1
REMARK SMILES IDX 6 1 5 2 4 3 3 4 2 5 1 6 41 7 42 8 106 9 43 10 105 11 44 12
REMARK SMILES IDX 45 13 46 14 99 15 47 16 104 17 98 18 100 19 48 20 103 21
REMARK SMILES IDX 97 22 96 23 49 25 83 26 62 27 82 28 63 29 66 30 81 31 101 32
REMARK SMILES IDX 64 33 65 34 80 36 102 37 67 38 50 39 51 40 60 41 52 42 53 43
REMARK SMILES IDX 59 44 61 45 54 46 55 47 56 48 57 49 58 50 84 51 85 52 94 53
REMARK SMILES IDX 86 54 87 55 93 56 95 57 88 58 89 59 90 60 91 61 92 62 68 63
REMARK SMILES IDX 69 64 78 65 70 66 71 67 77 68 79 69 72 70 73 71 74 72 75 73
REMARK SMILES IDX 76 74 7 75 8 76 9 77 10 78 11 79 12 80 19 81 20 82 39 83
REMARK SMILES IDX 21 84 22 85 38 86 40 87 23 88 24 89 25 90 37 91 26 92 27 93
REMARK SMILES IDX 28 94 29 95 36 96 30 97 35 98 31 99 34 100 32 101 33 102
REMARK SMILES IDX 13 103 14 104 18 105 15 106 17 107 16 108
REMARK H PARENT 100 24 66 35
REMARK Flexibility Score: inf
ROOT
ATOM      1  O   UNL A   1      45.061  24.052  24.479  1.00  0.00    -0.374 OA
ENDROOT
BRANCH   1   2
ATOM      2  C   UNL A   1      44.209  23.411  25.430  1.00  0.00     0.202 C 
BRANCH   2   3
ATOM      3  C   UNL A   1      42.692  23.541  25.286  1.00  0.00     0.261 C 
BRANCH   3   4
ATOM      4  O   UNL A   1      42.162  24.402  26.299  1.00  0.00    -0.460 OA
BRANCH   4   5
ATOM      5  C   UNL A   1      42.020  25.746  26.222  1.00  0.00     0.338 C 
ATOM      6  O   UNL A   1      42.080  26.287  25.120  1.00  0.00    -0.246 OA
BRANCH   5   7
ATOM      7  C   UNL A   1      41.809  26.602  27.426  1.00  0.00     0.060 A 
ATOM      8  C   UNL A   1      41.036  26.233  28.527  1.00  0.00     0.016 A 
ATOM      9  C   UNL A   1      42.508  27.815  27.492  1.00  0.00     0.016 A 
ATOM     10  C   UNL A   1      40.914  27.024  29.641  1.00  0.00     0.010 A 
ATOM     11  C   UNL A   1      42.423  28.618  28.632  1.00  0.00     0.010 A 
ATOM     12  C   UNL A   1      41.625  28.209  29.706  1.00  0.00    -0.014 A 
BRANCH  12  13
ATOM     13  C   UNL A   1      41.378  29.021  30.894  1.00  0.00     0.031 A 
ATOM     14  C   UNL A   1      40.206  29.942  30.866  1.00  0.00     0.074 A 
ATOM     15  C   UNL A   1      42.071  28.747  32.014  1.00  0.00     0.049 A 
ATOM     16  N   UNL A   1      39.805  30.783  31.772  1.00  0.00    -0.248 NA
ATOM     17  C   UNL A   1      39.354  29.892  29.662  1.00  0.00     0.031 C 
ATOM     18  C   UNL A   1      43.099  27.704  32.138  1.00  0.00     0.029 A 
ATOM     19  N   UNL A   1      41.992  29.281  33.266  1.00  0.00    -0.354 N 
ATOM     20  C   UNL A   1      38.685  31.398  31.233  1.00  0.00     0.074 A 
ATOM     21  C   UNL A   1      38.452  30.823  29.930  1.00  0.00     0.031 C 
ATOM     22  C   UNL A   1      43.549  27.677  33.401  1.00  0.00     0.029 A 
ATOM     23  C   UNL A   1      42.908  28.751  34.145  1.00  0.00     0.049 A 
ATOM     24  H   UNL A   1      41.344  29.979  33.517  1.00  0.00     0.167 HD
ATOM     25  C   UNL A   1      37.945  32.379  31.792  1.00  0.00     0.037 A 
ATOM     26  C   UNL A   1      43.222  29.149  35.391  1.00  0.00     0.037 A 
ATOM     27  C   UNL A   1      38.227  32.904  33.099  1.00  0.00     0.049 A 
ATOM     28  C   UNL A   1      42.456  30.324  35.941  1.00  0.00     0.074 A 
ATOM     29  C   UNL A   1      37.609  33.945  33.763  1.00  0.00     0.029 A 
ATOM     30  N   UNL A   1      39.221  32.415  33.939  1.00  0.00    -0.354 N 
ATOM     31  N   UNL A   1      41.456  30.980  35.396  1.00  0.00    -0.248 NA
ATOM     32  C   UNL A   1      42.866  30.828  37.254  1.00  0.00     0.031 C 
ATOM     33  C   UNL A   1      38.269  34.120  34.984  1.00  0.00     0.029 A 
ATOM     34  C   UNL A   1      39.253  33.148  35.109  1.00  0.00     0.049 A 
ATOM     35  H   UNL A   1      39.814  31.658  33.731  1.00  0.00     0.167 HD
ATOM     36  C   UNL A   1      41.102  31.964  36.308  1.00  0.00     0.074 A 
ATOM     37  C   UNL A   1      41.984  31.799  37.449  1.00  0.00     0.031 C 
ATOM     38  C   UNL A   1      40.147  32.922  36.219  1.00  0.00     0.037 A 
BRANCH  25  39
ATOM     39  C   UNL A   1      36.857  32.987  30.960  1.00  0.00     0.058 A 
ATOM     40  C   UNL A   1      37.121  33.852  29.888  1.00  0.00     0.135 A 
ATOM     41  C   UNL A   1      35.514  32.696  31.253  1.00  0.00     0.135 A 
ATOM     42  F   UNL A   1      38.383  34.201  29.595  1.00  0.00    -0.206 F 
ATOM     43  C   UNL A   1      36.091  34.409  29.135  1.00  0.00     0.059 A 
ATOM     44  C   UNL A   1      34.470  33.223  30.502  1.00  0.00     0.059 A 
ATOM     45  F   UNL A   1      35.207  31.900  32.289  1.00  0.00    -0.206 F 
ATOM     46  C   UNL A   1      34.769  34.082  29.446  1.00  0.00     0.060 A 
BRANCH  46  47
ATOM     47  S   UNL A   1      33.447  34.783  28.438  1.00  0.00     0.124 S 
ATOM     48  O   UNL A   1      34.168  35.789  27.665  1.00  0.00    -0.237 OA
ATOM     49  O   UNL A   1      32.980  33.622  27.688  1.00  0.00    -0.237 OA
ATOM     50  O   UNL A   1      32.508  35.307  29.425  1.00  0.00    -0.744 OA
ENDBRANCH  46  47
ENDBRANCH  25  39
BRANCH  26  51
ATOM     51  C   UNL A   1      44.343  28.517  36.139  1.00  0.00     0.058 A 
ATOM     52  C   UNL A   1      44.135  27.425  36.994  1.00  0.00     0.135 A 
ATOM     53  C   UNL A   1      45.653  29.022  36.042  1.00  0.00     0.135 A 
ATOM     54  F   UNL A   1      42.906  26.903  37.126  1.00  0.00    -0.206 F 
ATOM     55  C   UNL A   1      45.170  26.882  37.753  1.00  0.00     0.059 A 
ATOM     56  C   UNL A   1      46.710  28.475  36.763  1.00  0.00     0.059 A 
ATOM     57  F   UNL A   1      45.920  30.059  35.232  1.00  0.00    -0.206 F 
ATOM     58  C   UNL A   1      46.453  27.419  37.634  1.00  0.00     0.060 A 
BRANCH  58  59
ATOM     59  S   UNL A   1      47.786  26.721  38.634  1.00  0.00     0.124 S 
ATOM     60  O   UNL A   1      47.435  27.204  39.965  1.00  0.00    -0.237 OA
ATOM     61  O   UNL A   1      47.620  25.289  38.409  1.00  0.00    -0.237 OA
ATOM     62  O   UNL A   1      48.988  27.306  38.047  1.00  0.00    -0.744 OA
ENDBRANCH  58  59
ENDBRANCH  26  51
BRANCH  38  63
ATOM     63  C   UNL A   1      39.986  33.824  37.405  1.00  0.00     0.058 A 
ATOM     64  C   UNL A   1      40.703  35.023  37.520  1.00  0.00     0.135 A 
ATOM     65  C   UNL A   1      39.047  33.510  38.400  1.00  0.00     0.135 A 
ATOM     66  F   UNL A   1      41.616  35.358  36.595  1.00  0.00    -0.206 F 
ATOM     67  C   UNL A   1      40.510  35.875  38.599  1.00  0.00     0.059 A 
ATOM     68  C   UNL A   1      38.813  34.364  39.470  1.00  0.00     0.059 A 
ATOM     69  F   UNL A   1      38.329  32.378  38.323  1.00  0.00    -0.206 F 
ATOM     70  C   UNL A   1      39.558  35.539  39.565  1.00  0.00     0.060 A 
BRANCH  70  71
ATOM     71  S   UNL A   1      39.282  36.679  40.934  1.00  0.00     0.124 S 
ATOM     72  O   UNL A   1      38.533  37.746  40.278  1.00  0.00    -0.237 OA
ATOM     73  O   UNL A   1      38.527  35.859  41.875  1.00  0.00    -0.237 OA
ATOM     74  O   UNL A   1      40.633  37.031  41.360  1.00  0.00    -0.744 OA
ENDBRANCH  70  71
ENDBRANCH  38  63
ENDBRANCH  12  13
ENDBRANCH   5   7
ENDBRANCH   4   5
ENDBRANCH   3   4
ENDBRANCH   2   3
ENDBRANCH   1   2
BRANCH   1  75
ATOM     75  C   UNL A   1      45.823  25.179  24.926  1.00  0.00     0.202 C 
BRANCH  75  76
ATOM     76  C   UNL A   1      45.863  25.157  26.452  1.00  0.00     0.261 C 
BRANCH  76  77
ATOM     77  O   UNL A   1      45.612  26.504  26.865  1.00  0.00    -0.461 OA
BRANCH  77  78
ATOM     78  C   UNL A   1      46.500  27.023  27.762  1.00  0.00     0.334 C 
ATOM     79  O   UNL A   1      47.711  26.999  27.588  1.00  0.00    -0.249 OA
BRANCH  78  80
ATOM     80  C   UNL A   1      45.725  27.478  29.036  1.00  0.00     0.232 C 
BRANCH  80  81
ATOM     81  N   UNL A   1      45.939  26.455  30.066  1.00  0.00    -0.274 N 
ATOM     82  C   UNL A   1      45.091  25.393  30.244  1.00  0.00     0.267 C 
ATOM     83  C   UNL A   1      47.022  26.469  30.928  1.00  0.00     0.149 C 
ATOM     84  O   UNL A   1      44.330  24.876  29.432  1.00  0.00    -0.268 OA
ATOM     85  C   UNL A   1      45.269  24.842  31.596  1.00  0.00     0.084 C 
ATOM     86  S   UNL A   1      46.597  25.586  32.382  1.00  0.00    -0.054 SA
ATOM     87  S   UNL A   1      48.547  27.118  30.723  1.00  0.00    -0.052 S 
ATOM     88  C   UNL A   1      44.407  23.940  32.067  1.00  0.00     0.068 C 
BRANCH  88  89
ATOM     89  C   UNL A   1      44.377  23.645  33.443  1.00  0.00     0.129 A 
ATOM     90  C   UNL A   1      43.570  24.239  34.402  1.00  0.00     0.051 A 
ATOM     91  O   UNL A   1      45.178  22.720  34.049  1.00  0.00    -0.454 OA
ATOM     92  C   UNL A   1      43.895  23.652  35.633  1.00  0.00     0.054 A 
ATOM     93  C   UNL A   1      44.881  22.716  35.383  1.00  0.00     0.163 A 
BRANCH  93  94
ATOM     94  C   UNL A   1      45.480  21.849  36.345  1.00  0.00     0.160 A 
ATOM     95  N   UNL A   1      45.886  22.328  37.497  1.00  0.00    -0.233 NA
ATOM     96  S   UNL A   1      45.758  20.186  36.070  1.00  0.00    -0.111 S 
ATOM     97  C   UNL A   1      46.475  21.328  38.229  1.00  0.00     0.082 A 
ATOM     98  C   UNL A   1      46.538  20.080  37.606  1.00  0.00     0.055 A 
ATOM     99  C   UNL A   1      47.013  21.485  39.518  1.00  0.00     0.030 A 
ATOM    100  C   UNL A   1      47.159  18.983  38.222  1.00  0.00     0.021 A 
ATOM    101  C   UNL A   1      47.626  20.401  40.143  1.00  0.00     0.002 A 
ATOM    102  C   UNL A   1      47.704  19.170  39.498  1.00  0.00     0.002 A 
ENDBRANCH  93  94
ENDBRANCH  88  89
ENDBRANCH  80  81
BRANCH  80 103
ATOM    103  C   UNL A   1      46.028  28.934  29.412  1.00  0.00    -0.014 A 
ATOM    104  C   UNL A   1      45.612  29.498  30.632  1.00  0.00     0.006 A 
ATOM    105  C   UNL A   1      46.753  29.755  28.529  1.00  0.00     0.006 A 
ATOM    106  C   UNL A   1      45.961  30.803  30.986  1.00  0.00     0.000 A 
ATOM    107  C   UNL A   1      47.119  31.055  28.892  1.00  0.00     0.000 A 
ATOM    108  C   UNL A   1      46.728  31.576  30.123  1.00  0.00     0.000 A 
ENDBRANCH  80 103
ENDBRANCH  78  80
ENDBRANCH  77  78
ENDBRANCH  76  77
ENDBRANCH  75  76
ENDBRANCH   1  75
TORSDOF 21
ENDMDL
MODEL 3
REMARK VINA RESULT:     -10.3      6.862     15.819
REMARK SMILES O=C(OCCOCCOC(=O)[C@H](c1ccccc1)N1C(=O)/C(=C/c2ccc(-c3nc4ccccc4s3)o2)SC1=S)c1ccc(-c2c3nc(c(-c4c(F)cc(S(=O)(=O)[O-])cc4F)c4ccc([nH]4)c(-c4c(F)cc(S(=O)(=O)[O-])cc4F)c4nc(c(-c5c(F)cc(S(=O)(=O)[O-])cc5F)c5ccc2[nH]5)C=C4)C=C3)cc1
REMARK SMILES IDX 6 1 5 2 4 3 3 4 2 5 1 6 41 7 42 8 106 9 43 10 105 11 44 12
REMARK SMILES IDX 45 13 46 14 99 15 47 16 104 17 98 18 100 19 48 20 103 21
REMARK SMILES IDX 97 22 96 23 49 25 83 26 62 27 82 28 63 29 66 30 81 31 101 32
REMARK SMILES IDX 64 33 65 34 80 36 102 37 67 38 50 39 51 40 60 41 52 42 53 43
REMARK SMILES IDX 59 44 61 45 54 46 55 47 56 48 57 49 58 50 84 51 85 52 94 53
REMARK SMILES IDX 86 54 87 55 93 56 95 57 88 58 89 59 90 60 91 61 92 62 68 63
REMARK SMILES IDX 69 64 78 65 70 66 71 67 77 68 79 69 72 70 73 71 74 72 75 73
REMARK SMILES IDX 76 74 7 75 8 76 9 77 10 78 11 79 12 80 19 81 20 82 39 83
REMARK SMILES IDX 21 84 22 85 38 86 40 87 23 88 24 89 25 90 37 91 26 92 27 93
REMARK SMILES IDX 28 94 29 95 36 96 30 97 35 98 31 99 34 100 32 101 33 102
REMARK SMILES IDX 13 103 14 104 18 105 15 106 17 107 16 108
REMARK H PARENT 100 24 66 35
REMARK Flexibility Score: inf
ROOT
ATOM      1  O   UNL A   1      48.792  39.118  27.366  1.00  0.00    -0.374 OA
ENDROOT
BRANCH   1   2
ATOM      2  C   UNL A   1      49.896  38.474  28.006  1.00  0.00     0.202 C 
BRANCH   2   3
ATOM      3  C   UNL A   1      49.765  37.012  28.436  1.00  0.00     0.261 C 
BRANCH   3   4
ATOM      4  O   UNL A   1      49.460  36.925  29.832  1.00  0.00    -0.460 OA
BRANCH   4   5
ATOM      5  C   UNL A   1      48.349  36.383  30.383  1.00  0.00     0.338 C 
ATOM      6  O   UNL A   1      47.749  37.013  31.250  1.00  0.00    -0.246 OA
BRANCH   5   7
ATOM      7  C   UNL A   1      47.831  35.040  29.990  1.00  0.00     0.060 A 
ATOM      8  C   UNL A   1      47.776  33.938  30.845  1.00  0.00     0.016 A 
ATOM      9  C   UNL A   1      47.280  34.905  28.709  1.00  0.00     0.016 A 
ATOM     10  C   UNL A   1      47.238  32.736  30.463  1.00  0.00     0.010 A 
ATOM     11  C   UNL A   1      46.697  33.698  28.314  1.00  0.00     0.010 A 
ATOM     12  C   UNL A   1      46.678  32.618  29.203  1.00  0.00    -0.014 A 
BRANCH  12  13
ATOM     13  C   UNL A   1      46.197  31.284  28.856  1.00  0.00     0.031 A 
ATOM     14  C   UNL A   1      44.739  31.016  29.016  1.00  0.00     0.074 A 
ATOM     15  C   UNL A   1      47.032  30.447  28.215  1.00  0.00     0.049 A 
ATOM     16  N   UNL A   1      44.083  29.912  28.813  1.00  0.00    -0.248 NA
ATOM     17  C   UNL A   1      43.900  32.152  29.441  1.00  0.00     0.031 C 
ATOM     18  C   UNL A   1      48.425  30.753  27.856  1.00  0.00     0.029 A 
ATOM     19  N   UNL A   1      46.830  29.196  27.710  1.00  0.00    -0.354 N 
ATOM     20  C   UNL A   1      42.765  30.203  29.129  1.00  0.00     0.074 A 
ATOM     21  C   UNL A   1      42.703  31.592  29.518  1.00  0.00     0.031 C 
ATOM     22  C   UNL A   1      48.945  29.714  27.186  1.00  0.00     0.029 A 
ATOM     23  C   UNL A   1      47.957  28.646  27.147  1.00  0.00     0.049 A 
ATOM     24  H   UNL A   1      45.962  28.732  27.747  1.00  0.00     0.167 HD
ATOM     25  C   UNL A   1      41.715  29.355  29.112  1.00  0.00     0.037 A 
ATOM     26  C   UNL A   1      48.166  27.390  26.712  1.00  0.00     0.037 A 
ATOM     27  C   UNL A   1      41.843  27.983  28.706  1.00  0.00     0.049 A 
ATOM     28  C   UNL A   1      47.006  26.435  26.816  1.00  0.00     0.074 A 
ATOM     29  C   UNL A   1      40.885  26.989  28.706  1.00  0.00     0.029 A 
ATOM     30  N   UNL A   1      43.019  27.417  28.226  1.00  0.00    -0.354 N 
ATOM     31  N   UNL A   1      45.776  26.677  27.209  1.00  0.00    -0.248 NA
ATOM     32  C   UNL A   1      47.258  25.041  26.443  1.00  0.00     0.031 C 
ATOM     33  C   UNL A   1      41.498  25.808  28.278  1.00  0.00     0.029 A 
ATOM     34  C   UNL A   1      42.820  26.079  27.948  1.00  0.00     0.049 A 
ATOM     35  H   UNL A   1      43.868  27.899  28.101  1.00  0.00     0.167 HD
ATOM     36  C   UNL A   1      45.098  25.470  27.113  1.00  0.00     0.074 A 
ATOM     37  C   UNL A   1      46.056  24.505  26.602  1.00  0.00     0.031 C 
ATOM     38  C   UNL A   1      43.812  25.173  27.422  1.00  0.00     0.037 A 
BRANCH  25  39
ATOM     39  C   UNL A   1      40.404  29.863  29.628  1.00  0.00     0.058 A 
ATOM     40  C   UNL A   1      39.314  30.130  28.786  1.00  0.00     0.135 A 
ATOM     41  C   UNL A   1      40.242  30.094  31.004  1.00  0.00     0.135 A 
ATOM     42  F   UNL A   1      39.430  29.973  27.458  1.00  0.00    -0.206 F 
ATOM     43  C   UNL A   1      38.108  30.609  29.291  1.00  0.00     0.059 A 
ATOM     44  C   UNL A   1      39.040  30.550  31.533  1.00  0.00     0.059 A 
ATOM     45  F   UNL A   1      41.264  29.886  31.848  1.00  0.00    -0.206 F 
ATOM     46  C   UNL A   1      37.979  30.809  30.667  1.00  0.00     0.060 A 
BRANCH  46  47
ATOM     47  S   UNL A   1      36.399  31.395  31.310  1.00  0.00     0.124 S 
ATOM     48  O   UNL A   1      36.772  32.691  31.870  1.00  0.00    -0.237 OA
ATOM     49  O   UNL A   1      35.573  31.440  30.107  1.00  0.00    -0.237 OA
ATOM     50  O   UNL A   1      36.027  30.375  32.285  1.00  0.00    -0.744 OA
ENDBRANCH  46  47
ENDBRANCH  25  39
BRANCH  26  51
ATOM     51  C   UNL A   1      49.511  26.951  26.248  1.00  0.00     0.058 A 
ATOM     52  C   UNL A   1      49.900  27.065  24.906  1.00  0.00     0.135 A 
ATOM     53  C   UNL A   1      50.430  26.369  27.140  1.00  0.00     0.135 A 
ATOM     54  F   UNL A   1      49.064  27.612  24.010  1.00  0.00    -0.206 F 
ATOM     55  C   UNL A   1      51.128  26.585  24.457  1.00  0.00     0.059 A 
ATOM     56  C   UNL A   1      51.676  25.914  26.723  1.00  0.00     0.059 A 
ATOM     57  F   UNL A   1      50.122  26.243  28.441  1.00  0.00    -0.206 F 
ATOM     58  C   UNL A   1      52.007  26.005  25.373  1.00  0.00     0.060 A 
BRANCH  58  59
ATOM     59  S   UNL A   1      53.591  25.369  24.781  1.00  0.00     0.124 S 
ATOM     60  O   UNL A   1      53.461  23.947  25.074  1.00  0.00    -0.237 OA
ATOM     61  O   UNL A   1      53.559  25.736  23.369  1.00  0.00    -0.237 OA
ATOM     62  O   UNL A   1      54.567  26.094  25.589  1.00  0.00    -0.744 OA
ENDBRANCH  58  59
ENDBRANCH  26  51
BRANCH  38  63
ATOM     63  C   UNL A   1      43.367  23.764  27.168  1.00  0.00     0.058 A 
ATOM     64  C   UNL A   1      43.229  22.837  28.210  1.00  0.00     0.135 A 
ATOM     65  C   UNL A   1      43.008  23.367  25.870  1.00  0.00     0.135 A 
ATOM     66  F   UNL A   1      43.569  23.173  29.465  1.00  0.00    -0.206 F 
ATOM     67  C   UNL A   1      42.769  21.550  27.970  1.00  0.00     0.059 A 
ATOM     68  C   UNL A   1      42.513  22.096  25.613  1.00  0.00     0.059 A 
ATOM     69  F   UNL A   1      43.112  24.228  24.844  1.00  0.00    -0.206 F 
ATOM     70  C   UNL A   1      42.408  21.191  26.668  1.00  0.00     0.060 A 
BRANCH  70  71
ATOM     71  S   UNL A   1      41.765  19.532  26.380  1.00  0.00     0.124 S 
ATOM     72  O   UNL A   1      42.442  19.168  25.140  1.00  0.00    -0.237 OA
ATOM     73  O   UNL A   1      42.201  18.817  27.575  1.00  0.00    -0.237 OA
ATOM     74  O   UNL A   1      40.325  19.741  26.272  1.00  0.00    -0.744 OA
ENDBRANCH  70  71
ENDBRANCH  38  63
ENDBRANCH  12  13
ENDBRANCH   5   7
ENDBRANCH   4   5
ENDBRANCH   3   4
ENDBRANCH   2   3
ENDBRANCH   1   2
BRANCH   1  75
ATOM     75  C   UNL A   1      47.528  39.089  28.039  1.00  0.00     0.202 C 
BRANCH  75  76
ATOM     76  C   UNL A   1      46.713  40.296  27.581  1.00  0.00     0.261 C 
BRANCH  76  77
ATOM     77  O   UNL A   1      46.508  41.091  28.753  1.00  0.00    -0.461 OA
BRANCH  77  78
ATOM     78  C   UNL A   1      47.162  42.290  28.776  1.00  0.00     0.334 C 
ATOM     79  O   UNL A   1      48.381  42.383  28.732  1.00  0.00    -0.249 OA
BRANCH  78  80
ATOM     80  C   UNL A   1      46.124  43.428  29.014  1.00  0.00     0.232 C 
BRANCH  80  81
ATOM     81  N   UNL A   1      45.611  43.831  27.699  1.00  0.00    -0.274 N 
ATOM     82  C   UNL A   1      44.749  43.056  26.969  1.00  0.00     0.267 C 
ATOM     83  C   UNL A   1      45.943  45.034  27.098  1.00  0.00     0.149 C 
ATOM     84  O   UNL A   1      43.969  42.196  27.367  1.00  0.00    -0.268 OA
ATOM     85  C   UNL A   1      44.800  43.458  25.556  1.00  0.00     0.084 C 
ATOM     86  S   UNL A   1      45.755  44.867  25.363  1.00  0.00    -0.054 SA
ATOM     87  S   UNL A   1      46.395  46.487  27.786  1.00  0.00    -0.052 S 
ATOM     88  C   UNL A   1      44.203  42.710  24.627  1.00  0.00     0.068 C 
BRANCH  88  89
ATOM     89  C   UNL A   1      44.505  42.902  23.266  1.00  0.00     0.129 A 
ATOM     90  C   UNL A   1      45.652  42.493  22.603  1.00  0.00     0.051 A 
ATOM     91  O   UNL A   1      43.695  43.559  22.384  1.00  0.00    -0.454 OA
ATOM     92  C   UNL A   1      45.532  42.917  21.272  1.00  0.00     0.054 A 
ATOM     93  C   UNL A   1      44.315  43.563  21.166  1.00  0.00     0.163 A 
BRANCH  93  94
ATOM     94  C   UNL A   1      43.760  44.119  19.976  1.00  0.00     0.160 A 
ATOM     95  N   UNL A   1      44.153  45.298  19.557  1.00  0.00    -0.233 NA
ATOM     96  S   UNL A   1      42.542  43.351  19.056  1.00  0.00    -0.111 S 
ATOM     97  C   UNL A   1      43.446  45.648  18.434  1.00  0.00     0.082 A 
ATOM     98  C   UNL A   1      42.483  44.727  18.016  1.00  0.00     0.055 A 
ATOM     99  C   UNL A   1      43.617  46.844  17.716  1.00  0.00     0.030 A 
ATOM    100  C   UNL A   1      41.655  44.982  16.912  1.00  0.00     0.021 A 
ATOM    101  C   UNL A   1      42.806  47.105  16.613  1.00  0.00     0.002 A 
ATOM    102  C   UNL A   1      41.832  46.189  16.224  1.00  0.00     0.002 A 
ENDBRANCH  93  94
ENDBRANCH  88  89
ENDBRANCH  80  81
BRANCH  80 103
ATOM    103  C   UNL A   1      45.096  43.061  30.091  1.00  0.00    -0.014 A 
ATOM    104  C   UNL A   1      45.207  41.895  30.872  1.00  0.00     0.006 A 
ATOM    105  C   UNL A   1      43.997  43.905  30.335  1.00  0.00     0.006 A 
ATOM    106  C   UNL A   1      44.300  41.617  31.896  1.00  0.00     0.000 A 
ATOM    107  C   UNL A   1      43.100  43.636  31.374  1.00  0.00     0.000 A 
ATOM    108  C   UNL A   1      43.256  42.496  32.158  1.00  0.00     0.000 A 
ENDBRANCH  80 103
ENDBRANCH  78  80
ENDBRANCH  77  78
ENDBRANCH  76  77
ENDBRANCH  75  76
ENDBRANCH   1  75
TORSDOF 21
ENDMDL
