MODEL 1
REMARK VINA RESULT:     -12.4      0.000      0.000
REMARK SMILES Cc1cc(C(=O)OCCOCCOC(=O)c2ccc(-c3c4nc(c(-c5c(F)cc(S(=O)(=O)[O-])cc5F)c5ccc([nH]5)c(-c5c(F)cc(S(=O)(=O)[O-])cc5F)c5nc(c(-c6c(F)cc(S(=O)(=O)[O-])cc6F)c6ccc3[nH]6)C=C5)C=C4)cc2)ccc1NS(=O)(=O)c1ccc(C#N)cc1C
REMARK SMILES IDX 9 1 8 2 7 3 5 4 6 5 4 6 1 7 2 8 3 9 84 10 83 11 82 12 85 13
REMARK SMILES IDX 86 15 87 16 88 17 89 18 90 19 96 20 91 21 95 22 97 23 92 24
REMARK SMILES IDX 93 25 94 26 10 27 11 28 12 29 13 30 14 31 15 32 16 33 17 34
REMARK SMILES IDX 81 35 18 36 80 37 19 38 20 39 21 40 74 41 22 42 79 43 73 44
REMARK SMILES IDX 75 45 23 46 78 47 72 48 71 49 24 51 58 52 37 53 57 54 38 55
REMARK SMILES IDX 41 56 56 57 76 58 39 59 40 60 55 62 77 63 42 64 25 65 26 66
REMARK SMILES IDX 35 67 27 68 28 69 34 70 36 71 29 72 30 73 31 74 32 75 33 76
REMARK SMILES IDX 59 77 60 78 69 79 61 80 62 81 68 82 70 83 63 84 64 85 65 86
REMARK SMILES IDX 66 87 67 88 43 89 44 90 53 91 45 92 46 93 52 94 54 95 47 96
REMARK SMILES IDX 48 97 49 98 50 99 51 100
REMARK H PARENT 85 14 75 50 41 61
REMARK Flexibility Score: inf
ROOT
ATOM      1  C   UNL A   1      33.019  26.696  26.175  1.00  0.00     0.202 C 
ENDROOT
BRANCH   1   2
ATOM      2  C   UNL A   1      31.733  25.981  25.931  1.00  0.00     0.261 C 
BRANCH   2   3
ATOM      3  O   UNL A   1      31.355  25.044  26.974  1.00  0.00    -0.460 OA
BRANCH   3   4
ATOM      4  C   UNL A   1      31.891  23.796  27.001  1.00  0.00     0.338 C 
ATOM      5  O   UNL A   1      32.336  23.180  27.950  1.00  0.00    -0.246 OA
BRANCH   4   6
ATOM      6  C   UNL A   1      32.070  23.390  25.602  1.00  0.00     0.060 A 
ATOM      7  C   UNL A   1      34.836  22.678  23.173  1.00  0.00     0.046 C 
ATOM      8  C   UNL A   1      33.509  23.130  23.709  1.00  0.00    -0.026 A 
ATOM      9  C   UNL A   1      33.351  23.220  25.092  1.00  0.00     0.021 A 
ATOM     10  C   UNL A   1      32.382  23.349  22.891  1.00  0.00     0.052 A 
ATOM     11  C   UNL A   1      31.114  23.146  23.403  1.00  0.00     0.028 A 
ATOM     12  C   UNL A   1      30.957  23.217  24.773  1.00  0.00     0.018 A 
BRANCH  10  13
ATOM     13  N   UNL A   1      32.573  24.117  21.713  1.00  0.00    -0.279 N 
ATOM     14  H   UNL A   1      32.389  23.650  20.866  1.00  0.00     0.180 HD
BRANCH  13  15
ATOM     15  S   UNL A   1      33.069  25.706  21.568  1.00  0.00     0.262 S 
ATOM     16  O   UNL A   1      34.331  25.746  22.283  1.00  0.00    -0.201 OA
ATOM     17  O   UNL A   1      33.014  26.028  20.155  1.00  0.00    -0.201 OA
BRANCH  15  18
ATOM     18  C   UNL A   1      32.012  26.918  22.398  1.00  0.00     0.090 A 
ATOM     19  C   UNL A   1      30.672  26.675  22.729  1.00  0.00     0.024 A 
ATOM     20  C   UNL A   1      32.527  28.222  22.589  1.00  0.00    -0.029 A 
ATOM     21  C   UNL A   1      29.805  27.742  23.049  1.00  0.00     0.021 A 
ATOM     22  C   UNL A   1      31.650  29.274  22.926  1.00  0.00     0.024 A 
ATOM     23  C   UNL A   1      33.991  28.569  22.556  1.00  0.00     0.046 C 
ATOM     24  C   UNL A   1      30.286  29.050  23.112  1.00  0.00     0.052 A 
BRANCH  24  25
ATOM     25  C   UNL A   1      29.428  30.174  23.392  1.00  0.00     0.099 C 
ATOM     26  N   UNL A   1      28.751  31.098  23.532  1.00  0.00    -0.192 NA
ENDBRANCH  24  25
ENDBRANCH  15  18
ENDBRANCH  13  15
ENDBRANCH  10  13
ENDBRANCH   4   6
ENDBRANCH   3   4
ENDBRANCH   2   3
ENDBRANCH   1   2
BRANCH   1  27
ATOM     27  O   UNL A   1      32.704  27.761  27.056  1.00  0.00    -0.374 OA
BRANCH  27  28
ATOM     28  C   UNL A   1      31.776  28.695  26.570  1.00  0.00     0.202 C 
BRANCH  28  29
ATOM     29  C   UNL A   1      32.259  30.131  26.766  1.00  0.00     0.261 C 
BRANCH  29  30
ATOM     30  O   UNL A   1      33.696  30.246  26.591  1.00  0.00    -0.460 OA
BRANCH  30  31
ATOM     31  C   UNL A   1      34.418  30.977  27.502  1.00  0.00     0.338 C 
ATOM     32  O   UNL A   1      34.083  32.085  27.885  1.00  0.00    -0.246 OA
BRANCH  31  33
ATOM     33  C   UNL A   1      35.529  30.178  28.101  1.00  0.00     0.060 A 
ATOM     34  C   UNL A   1      35.531  29.763  29.448  1.00  0.00     0.016 A 
ATOM     35  C   UNL A   1      36.662  29.972  27.328  1.00  0.00     0.016 A 
ATOM     36  C   UNL A   1      36.722  29.323  30.061  1.00  0.00     0.010 A 
ATOM     37  C   UNL A   1      37.846  29.665  27.957  1.00  0.00     0.010 A 
ATOM     38  C   UNL A   1      37.903  29.369  29.330  1.00  0.00    -0.014 A 
BRANCH  38  39
ATOM     39  C   UNL A   1      39.272  29.143  29.815  1.00  0.00     0.031 A 
ATOM     40  C   UNL A   1      39.904  27.883  29.360  1.00  0.00     0.074 A 
ATOM     41  C   UNL A   1      40.023  30.165  30.305  1.00  0.00     0.049 A 
ATOM     42  N   UNL A   1      41.105  27.551  29.642  1.00  0.00    -0.248 NA
ATOM     43  C   UNL A   1      39.231  26.864  28.546  1.00  0.00     0.031 C 
ATOM     44  C   UNL A   1      41.474  30.383  30.232  1.00  0.00     0.029 A 
ATOM     45  N   UNL A   1      39.606  31.338  30.937  1.00  0.00    -0.354 N 
ATOM     46  C   UNL A   1      41.472  26.515  28.816  1.00  0.00     0.074 A 
ATOM     47  C   UNL A   1      40.241  26.039  28.249  1.00  0.00     0.031 C 
ATOM     48  C   UNL A   1      41.829  31.402  31.044  1.00  0.00     0.029 A 
ATOM     49  C   UNL A   1      40.632  31.824  31.755  1.00  0.00     0.049 A 
ATOM     50  H   UNL A   1      38.725  31.761  30.823  1.00  0.00     0.167 HD
ATOM     51  C   UNL A   1      42.806  26.299  28.652  1.00  0.00     0.037 A 
ATOM     52  C   UNL A   1      40.416  31.926  33.093  1.00  0.00     0.037 A 
ATOM     53  C   UNL A   1      43.549  27.144  29.601  1.00  0.00     0.049 A 
ATOM     54  C   UNL A   1      41.284  30.865  33.702  1.00  0.00     0.074 A 
ATOM     55  C   UNL A   1      44.289  28.305  29.475  1.00  0.00     0.029 A 
ATOM     56  N   UNL A   1      43.259  27.015  30.961  1.00  0.00    -0.354 N 
ATOM     57  N   UNL A   1      41.598  29.767  33.063  1.00  0.00    -0.248 NA
ATOM     58  C   UNL A   1      42.063  31.064  34.918  1.00  0.00     0.031 C 
ATOM     59  C   UNL A   1      44.341  28.923  30.766  1.00  0.00     0.029 A 
ATOM     60  C   UNL A   1      43.643  28.135  31.675  1.00  0.00     0.049 A 
ATOM     61  H   UNL A   1      42.834  26.223  31.362  1.00  0.00     0.167 HD
ATOM     62  C   UNL A   1      42.701  29.227  33.644  1.00  0.00     0.074 A 
ATOM     63  C   UNL A   1      42.917  30.029  34.839  1.00  0.00     0.031 C 
ATOM     64  C   UNL A   1      43.418  28.196  33.118  1.00  0.00     0.037 A 
BRANCH  51  65
ATOM     65  C   UNL A   1      43.468  25.463  27.574  1.00  0.00     0.058 A 
ATOM     66  C   UNL A   1      43.691  24.087  27.807  1.00  0.00     0.135 A 
ATOM     67  C   UNL A   1      43.975  25.932  26.340  1.00  0.00     0.135 A 
ATOM     68  F   UNL A   1      43.285  23.501  28.942  1.00  0.00    -0.206 F 
ATOM     69  C   UNL A   1      44.351  23.253  26.902  1.00  0.00     0.059 A 
ATOM     70  C   UNL A   1      44.607  25.108  25.401  1.00  0.00     0.059 A 
ATOM     71  F   UNL A   1      43.932  27.221  25.991  1.00  0.00    -0.206 F 
ATOM     72  C   UNL A   1      44.800  23.768  25.694  1.00  0.00     0.060 A 
BRANCH  72  73
ATOM     73  S   UNL A   1      45.636  22.671  24.534  1.00  0.00     0.124 S 
ATOM     74  O   UNL A   1      44.527  22.205  23.707  1.00  0.00    -0.237 OA
ATOM     75  O   UNL A   1      46.580  23.573  23.883  1.00  0.00    -0.237 OA
ATOM     76  O   UNL A   1      46.239  21.655  25.394  1.00  0.00    -0.744 OA
ENDBRANCH  72  73
ENDBRANCH  51  65
BRANCH  52  77
ATOM     77  C   UNL A   1      39.008  32.369  33.389  1.00  0.00     0.058 A 
ATOM     78  C   UNL A   1      38.706  33.723  33.102  1.00  0.00     0.135 A 
ATOM     79  C   UNL A   1      37.918  31.479  33.384  1.00  0.00     0.135 A 
ATOM     80  F   UNL A   1      39.701  34.626  33.053  1.00  0.00    -0.206 F 
ATOM     81  C   UNL A   1      37.439  34.147  32.688  1.00  0.00     0.059 A 
ATOM     82  C   UNL A   1      36.644  31.879  32.941  1.00  0.00     0.059 A 
ATOM     83  F   UNL A   1      38.115  30.177  33.634  1.00  0.00    -0.206 F 
ATOM     84  C   UNL A   1      36.427  33.200  32.541  1.00  0.00     0.060 A 
BRANCH  84  85
ATOM     85  S   UNL A   1      34.962  33.650  31.553  1.00  0.00     0.124 S 
ATOM     86  O   UNL A   1      35.555  34.122  30.310  1.00  0.00    -0.237 OA
ATOM     87  O   UNL A   1      34.236  32.381  31.465  1.00  0.00    -0.237 OA
ATOM     88  O   UNL A   1      34.307  34.659  32.375  1.00  0.00    -0.744 OA
ENDBRANCH  84  85
ENDBRANCH  52  77
BRANCH  64  89
ATOM     89  C   UNL A   1      43.987  27.146  34.026  1.00  0.00     0.058 A 
ATOM     90  C   UNL A   1      43.180  26.193  34.676  1.00  0.00     0.135 A 
ATOM     91  C   UNL A   1      45.381  26.954  34.138  1.00  0.00     0.135 A 
ATOM     92  F   UNL A   1      41.849  26.150  34.511  1.00  0.00    -0.206 F 
ATOM     93  C   UNL A   1      43.709  25.220  35.505  1.00  0.00     0.059 A 
ATOM     94  C   UNL A   1      45.932  25.926  34.885  1.00  0.00     0.059 A 
ATOM     95  F   UNL A   1      46.263  27.747  33.513  1.00  0.00    -0.206 F 
ATOM     96  C   UNL A   1      45.086  25.105  35.614  1.00  0.00     0.060 A 
BRANCH  96  97
ATOM     97  S   UNL A   1      45.755  23.879  36.734  1.00  0.00     0.124 S 
ATOM     98  O   UNL A   1      45.161  22.659  36.197  1.00  0.00    -0.237 OA
ATOM     99  O   UNL A   1      47.195  24.023  36.536  1.00  0.00    -0.237 OA
ATOM    100  O   UNL A   1      45.261  24.307  38.038  1.00  0.00    -0.744 OA
ENDBRANCH  96  97
ENDBRANCH  64  89
ENDBRANCH  38  39
ENDBRANCH  31  33
ENDBRANCH  30  31
ENDBRANCH  29  30
ENDBRANCH  28  29
ENDBRANCH  27  28
ENDBRANCH   1  27
TORSDOF 21
ENDMDL
MODEL 2
REMARK VINA RESULT:     -12.1      1.393      3.550
REMARK SMILES Cc1cc(C(=O)OCCOCCOC(=O)c2ccc(-c3c4nc(c(-c5c(F)cc(S(=O)(=O)[O-])cc5F)c5ccc([nH]5)c(-c5c(F)cc(S(=O)(=O)[O-])cc5F)c5nc(c(-c6c(F)cc(S(=O)(=O)[O-])cc6F)c6ccc3[nH]6)C=C5)C=C4)cc2)ccc1NS(=O)(=O)c1ccc(C#N)cc1C
REMARK SMILES IDX 9 1 8 2 7 3 5 4 6 5 4 6 1 7 2 8 3 9 84 10 83 11 82 12 85 13
REMARK SMILES IDX 86 15 87 16 88 17 89 18 90 19 96 20 91 21 95 22 97 23 92 24
REMARK SMILES IDX 93 25 94 26 10 27 11 28 12 29 13 30 14 31 15 32 16 33 17 34
REMARK SMILES IDX 81 35 18 36 80 37 19 38 20 39 21 40 74 41 22 42 79 43 73 44
REMARK SMILES IDX 75 45 23 46 78 47 72 48 71 49 24 51 58 52 37 53 57 54 38 55
REMARK SMILES IDX 41 56 56 57 76 58 39 59 40 60 55 62 77 63 42 64 25 65 26 66
REMARK SMILES IDX 35 67 27 68 28 69 34 70 36 71 29 72 30 73 31 74 32 75 33 76
REMARK SMILES IDX 59 77 60 78 69 79 61 80 62 81 68 82 70 83 63 84 64 85 65 86
REMARK SMILES IDX 66 87 67 88 43 89 44 90 53 91 45 92 46 93 52 94 54 95 47 96
REMARK SMILES IDX 48 97 49 98 50 99 51 100
REMARK H PARENT 85 14 75 50 41 61
REMARK Flexibility Score: inf
ROOT
ATOM      1  C   UNL A   1      33.968  27.476  26.358  1.00  0.00     0.202 C 
ENDROOT
BRANCH   1   2
ATOM      2  C   UNL A   1      33.179  27.431  25.095  1.00  0.00     0.261 C 
BRANCH   2   3
ATOM      3  O   UNL A   1      33.870  27.960  23.931  1.00  0.00    -0.460 OA
BRANCH   3   4
ATOM      4  C   UNL A   1      33.584  27.484  22.690  1.00  0.00     0.338 C 
ATOM      5  O   UNL A   1      33.970  27.892  21.613  1.00  0.00    -0.246 OA
BRANCH   4   6
ATOM      6  C   UNL A   1      32.502  26.506  22.859  1.00  0.00     0.060 A 
ATOM      7  C   UNL A   1      28.902  26.390  23.896  1.00  0.00     0.046 C 
ATOM      8  C   UNL A   1      30.332  25.974  23.710  1.00  0.00    -0.026 A 
ATOM      9  C   UNL A   1      31.247  26.932  23.273  1.00  0.00     0.021 A 
ATOM     10  C   UNL A   1      30.768  24.640  23.838  1.00  0.00     0.052 A 
ATOM     11  C   UNL A   1      31.848  24.199  23.096  1.00  0.00     0.028 A 
ATOM     12  C   UNL A   1      32.747  25.145  22.646  1.00  0.00     0.018 A 
BRANCH  10  13
ATOM     13  N   UNL A   1      30.331  23.919  24.979  1.00  0.00    -0.279 N 
ATOM     14  H   UNL A   1      29.455  23.478  24.895  1.00  0.00     0.180 HD
BRANCH  13  15
ATOM     15  S   UNL A   1      31.101  23.718  26.449  1.00  0.00     0.262 S 
ATOM     16  O   UNL A   1      31.292  25.072  26.932  1.00  0.00    -0.201 OA
ATOM     17  O   UNL A   1      30.303  22.773  27.207  1.00  0.00    -0.201 OA
BRANCH  15  18
ATOM     18  C   UNL A   1      32.762  23.005  26.354  1.00  0.00     0.090 A 
ATOM     19  C   UNL A   1      33.889  23.594  26.942  1.00  0.00     0.024 A 
ATOM     20  C   UNL A   1      32.948  21.875  25.522  1.00  0.00    -0.029 A 
ATOM     21  C   UNL A   1      35.189  23.203  26.556  1.00  0.00     0.021 A 
ATOM     22  C   UNL A   1      34.254  21.487  25.160  1.00  0.00     0.024 A 
ATOM     23  C   UNL A   1      31.838  20.971  25.058  1.00  0.00     0.046 C 
ATOM     24  C   UNL A   1      35.373  22.170  25.635  1.00  0.00     0.052 A 
BRANCH  24  25
ATOM     25  C   UNL A   1      36.680  21.768  25.180  1.00  0.00     0.099 C 
ATOM     26  N   UNL A   1      37.700  21.363  24.821  1.00  0.00    -0.192 NA
ENDBRANCH  24  25
ENDBRANCH  15  18
ENDBRANCH  13  15
ENDBRANCH  10  13
ENDBRANCH   4   6
ENDBRANCH   3   4
ENDBRANCH   2   3
ENDBRANCH   1   2
BRANCH   1  27
ATOM     27  O   UNL A   1      33.115  28.070  27.322  1.00  0.00    -0.374 OA
BRANCH  27  28
ATOM     28  C   UNL A   1      32.104  28.897  26.808  1.00  0.00     0.202 C 
BRANCH  28  29
ATOM     29  C   UNL A   1      32.443  30.377  26.973  1.00  0.00     0.261 C 
BRANCH  29  30
ATOM     30  O   UNL A   1      33.859  30.632  26.783  1.00  0.00    -0.460 OA
BRANCH  30  31
ATOM     31  C   UNL A   1      34.563  31.247  27.788  1.00  0.00     0.338 C 
ATOM     32  O   UNL A   1      34.218  32.300  28.297  1.00  0.00    -0.246 OA
BRANCH  31  33
ATOM     33  C   UNL A   1      35.665  30.381  28.305  1.00  0.00     0.060 A 
ATOM     34  C   UNL A   1      35.649  29.815  29.596  1.00  0.00     0.016 A 
ATOM     35  C   UNL A   1      36.807  30.262  27.528  1.00  0.00     0.016 A 
ATOM     36  C   UNL A   1      36.831  29.304  30.169  1.00  0.00     0.010 A 
ATOM     37  C   UNL A   1      37.983  29.882  28.133  1.00  0.00     0.010 A 
ATOM     38  C   UNL A   1      38.022  29.430  29.464  1.00  0.00    -0.014 A 
BRANCH  38  39
ATOM     39  C   UNL A   1      39.384  29.146  29.937  1.00  0.00     0.031 A 
ATOM     40  C   UNL A   1      39.983  27.892  29.424  1.00  0.00     0.074 A 
ATOM     41  C   UNL A   1      40.161  30.124  30.473  1.00  0.00     0.049 A 
ATOM     42  N   UNL A   1      41.175  27.516  29.690  1.00  0.00    -0.248 NA
ATOM     43  C   UNL A   1      39.283  26.929  28.565  1.00  0.00     0.031 C 
ATOM     44  C   UNL A   1      41.617  30.307  30.409  1.00  0.00     0.029 A 
ATOM     45  N   UNL A   1      39.776  31.278  31.158  1.00  0.00    -0.354 N 
ATOM     46  C   UNL A   1      41.514  26.509  28.818  1.00  0.00     0.074 A 
ATOM     47  C   UNL A   1      40.271  26.092  28.230  1.00  0.00     0.031 C 
ATOM     48  C   UNL A   1      41.999  31.279  31.267  1.00  0.00     0.029 A 
ATOM     49  C   UNL A   1      40.813  31.699  31.997  1.00  0.00     0.049 A 
ATOM     50  H   UNL A   1      38.905  31.728  31.064  1.00  0.00     0.167 HD
ATOM     51  C   UNL A   1      42.842  26.266  28.643  1.00  0.00     0.037 A 
ATOM     52  C   UNL A   1      40.599  31.744  33.338  1.00  0.00     0.037 A 
ATOM     53  C   UNL A   1      43.607  27.047  29.629  1.00  0.00     0.049 A 
ATOM     54  C   UNL A   1      41.438  30.635  33.898  1.00  0.00     0.074 A 
ATOM     55  C   UNL A   1      44.378  28.193  29.556  1.00  0.00     0.029 A 
ATOM     56  N   UNL A   1      43.313  26.863  30.982  1.00  0.00    -0.354 N 
ATOM     57  N   UNL A   1      41.723  29.559  33.209  1.00  0.00    -0.248 NA
ATOM     58  C   UNL A   1      42.222  30.757  35.121  1.00  0.00     0.031 C 
ATOM     59  C   UNL A   1      44.445  28.750  30.874  1.00  0.00     0.029 A 
ATOM     60  C   UNL A   1      43.726  27.939  31.746  1.00  0.00     0.049 A 
ATOM     61  H   UNL A   1      42.866  26.065  31.347  1.00  0.00     0.167 HD
ATOM     62  C   UNL A   1      42.812  28.964  33.763  1.00  0.00     0.074 A 
ATOM     63  C   UNL A   1      43.049  29.704  34.994  1.00  0.00     0.031 C 
ATOM     64  C   UNL A   1      43.502  27.939  33.190  1.00  0.00     0.037 A 
BRANCH  51  65
ATOM     65  C   UNL A   1      43.483  25.463  27.527  1.00  0.00     0.058 A 
ATOM     66  C   UNL A   1      43.836  24.115  27.762  1.00  0.00     0.135 A 
ATOM     67  C   UNL A   1      43.850  25.945  26.249  1.00  0.00     0.135 A 
ATOM     68  F   UNL A   1      43.570  23.522  28.935  1.00  0.00    -0.206 F 
ATOM     69  C   UNL A   1      44.488  23.318  26.818  1.00  0.00     0.059 A 
ATOM     70  C   UNL A   1      44.471  25.154  25.275  1.00  0.00     0.059 A 
ATOM     71  F   UNL A   1      43.674  27.219  25.886  1.00  0.00    -0.206 F 
ATOM     72  C   UNL A   1      44.796  23.841  25.571  1.00  0.00     0.060 A 
BRANCH  72  73
ATOM     73  S   UNL A   1      45.623  22.790  24.363  1.00  0.00     0.124 S 
ATOM     74  O   UNL A   1      44.530  22.454  23.456  1.00  0.00    -0.237 OA
ATOM     75  O   UNL A   1      46.644  23.683  23.826  1.00  0.00    -0.237 OA
ATOM     76  O   UNL A   1      46.129  21.678  25.164  1.00  0.00    -0.744 OA
ENDBRANCH  72  73
ENDBRANCH  51  65
BRANCH  52  77
ATOM     77  C   UNL A   1      39.203  32.210  33.655  1.00  0.00     0.058 A 
ATOM     78  C   UNL A   1      38.960  33.599  33.509  1.00  0.00     0.135 A 
ATOM     79  C   UNL A   1      38.081  31.372  33.537  1.00  0.00     0.135 A 
ATOM     80  F   UNL A   1      39.990  34.460  33.573  1.00  0.00    -0.206 F 
ATOM     81  C   UNL A   1      37.719  34.114  33.120  1.00  0.00     0.059 A 
ATOM     82  C   UNL A   1      36.832  31.867  33.117  1.00  0.00     0.059 A 
ATOM     83  F   UNL A   1      38.221  30.043  33.650  1.00  0.00    -0.206 F 
ATOM     84  C   UNL A   1      36.675  33.231  32.856  1.00  0.00     0.060 A 
BRANCH  84  85
ATOM     85  S   UNL A   1      35.250  33.841  31.896  1.00  0.00     0.124 S 
ATOM     86  O   UNL A   1      34.194  32.912  32.276  1.00  0.00    -0.237 OA
ATOM     87  O   UNL A   1      35.095  35.210  32.390  1.00  0.00    -0.237 OA
ATOM     88  O   UNL A   1      35.718  33.749  30.519  1.00  0.00    -0.744 OA
ENDBRANCH  84  85
ENDBRANCH  52  77
BRANCH  64  89
ATOM     89  C   UNL A   1      44.042  26.835  34.049  1.00  0.00     0.058 A 
ATOM     90  C   UNL A   1      45.420  26.672  34.291  1.00  0.00     0.135 A 
ATOM     91  C   UNL A   1      43.181  26.004  34.798  1.00  0.00     0.135 A 
ATOM     92  F   UNL A   1      46.339  27.507  33.784  1.00  0.00    -0.206 F 
ATOM     93  C   UNL A   1      45.914  25.658  35.092  1.00  0.00     0.059 A 
ATOM     94  C   UNL A   1      43.655  25.046  35.680  1.00  0.00     0.059 A 
ATOM     95  F   UNL A   1      41.846  26.100  34.716  1.00  0.00    -0.206 F 
ATOM     96  C   UNL A   1      45.022  24.840  35.770  1.00  0.00     0.060 A 
BRANCH  96  97
ATOM     97  S   UNL A   1      45.675  23.497  36.756  1.00  0.00     0.124 S 
ATOM     98  O   UNL A   1      47.101  23.608  36.468  1.00  0.00    -0.237 OA
ATOM     99  O   UNL A   1      45.270  23.873  38.108  1.00  0.00    -0.237 OA
ATOM    100  O   UNL A   1      45.006  22.321  36.211  1.00  0.00    -0.744 OA
ENDBRANCH  96  97
ENDBRANCH  64  89
ENDBRANCH  38  39
ENDBRANCH  31  33
ENDBRANCH  30  31
ENDBRANCH  29  30
ENDBRANCH  28  29
ENDBRANCH  27  28
ENDBRANCH   1  27
TORSDOF 21
ENDMDL
MODEL 3
REMARK VINA RESULT:     -12.1      2.086      3.959
REMARK SMILES Cc1cc(C(=O)OCCOCCOC(=O)c2ccc(-c3c4nc(c(-c5c(F)cc(S(=O)(=O)[O-])cc5F)c5ccc([nH]5)c(-c5c(F)cc(S(=O)(=O)[O-])cc5F)c5nc(c(-c6c(F)cc(S(=O)(=O)[O-])cc6F)c6ccc3[nH]6)C=C5)C=C4)cc2)ccc1NS(=O)(=O)c1ccc(C#N)cc1C
REMARK SMILES IDX 9 1 8 2 7 3 5 4 6 5 4 6 1 7 2 8 3 9 84 10 83 11 82 12 85 13
REMARK SMILES IDX 86 15 87 16 88 17 89 18 90 19 96 20 91 21 95 22 97 23 92 24
REMARK SMILES IDX 93 25 94 26 10 27 11 28 12 29 13 30 14 31 15 32 16 33 17 34
REMARK SMILES IDX 81 35 18 36 80 37 19 38 20 39 21 40 74 41 22 42 79 43 73 44
REMARK SMILES IDX 75 45 23 46 78 47 72 48 71 49 24 51 58 52 37 53 57 54 38 55
REMARK SMILES IDX 41 56 56 57 76 58 39 59 40 60 55 62 77 63 42 64 25 65 26 66
REMARK SMILES IDX 35 67 27 68 28 69 34 70 36 71 29 72 30 73 31 74 32 75 33 76
REMARK SMILES IDX 59 77 60 78 69 79 61 80 62 81 68 82 70 83 63 84 64 85 65 86
REMARK SMILES IDX 66 87 67 88 43 89 44 90 53 91 45 92 46 93 52 94 54 95 47 96
REMARK SMILES IDX 48 97 49 98 50 99 51 100
REMARK H PARENT 85 14 75 50 41 61
REMARK Flexibility Score: inf
ROOT
ATOM      1  C   UNL A   1      31.060  29.958  24.617  1.00  0.00     0.202 C 
ENDROOT
BRANCH   1   2
ATOM      2  C   UNL A   1      29.904  29.679  23.718  1.00  0.00     0.261 C 
BRANCH   2   3
ATOM      3  O   UNL A   1      29.632  28.269  23.504  1.00  0.00    -0.460 OA
BRANCH   3   4
ATOM      4  C   UNL A   1      30.555  27.477  22.899  1.00  0.00     0.338 C 
ATOM      5  O   UNL A   1      30.782  27.346  21.712  1.00  0.00    -0.246 OA
BRANCH   4   6
ATOM      6  C   UNL A   1      31.095  26.595  23.940  1.00  0.00     0.060 A 
ATOM      7  C   UNL A   1      34.406  25.391  25.220  1.00  0.00     0.046 C 
ATOM      8  C   UNL A   1      32.951  25.394  24.853  1.00  0.00    -0.026 A 
ATOM      9  C   UNL A   1      32.470  26.446  24.073  1.00  0.00     0.021 A 
ATOM     10  C   UNL A   1      32.027  24.457  25.358  1.00  0.00     0.052 A 
ATOM     11  C   UNL A   1      30.704  24.821  25.525  1.00  0.00     0.028 A 
ATOM     12  C   UNL A   1      30.228  25.873  24.768  1.00  0.00     0.018 A 
BRANCH  10  13
ATOM     13  N   UNL A   1      32.402  23.089  25.320  1.00  0.00    -0.279 N 
ATOM     14  H   UNL A   1      32.554  22.665  26.196  1.00  0.00     0.180 HD
BRANCH  13  15
ATOM     15  S   UNL A   1      32.623  22.099  23.992  1.00  0.00     0.262 S 
ATOM     16  O   UNL A   1      31.504  22.423  23.126  1.00  0.00    -0.201 OA
ATOM     17  O   UNL A   1      33.985  22.310  23.542  1.00  0.00    -0.201 OA
BRANCH  15  18
ATOM     18  C   UNL A   1      32.474  20.327  24.323  1.00  0.00     0.090 A 
ATOM     19  C   UNL A   1      32.562  19.772  25.607  1.00  0.00     0.024 A 
ATOM     20  C   UNL A   1      32.409  19.451  23.213  1.00  0.00    -0.029 A 
ATOM     21  C   UNL A   1      32.788  18.389  25.778  1.00  0.00     0.021 A 
ATOM     22  C   UNL A   1      32.619  18.070  23.404  1.00  0.00     0.024 A 
ATOM     23  C   UNL A   1      32.028  19.874  21.820  1.00  0.00     0.046 C 
ATOM     24  C   UNL A   1      32.852  17.540  24.673  1.00  0.00     0.052 A 
BRANCH  24  25
ATOM     25  C   UNL A   1      33.124  16.130  24.799  1.00  0.00     0.099 C 
ATOM     26  N   UNL A   1      33.413  15.022  24.947  1.00  0.00    -0.192 NA
ENDBRANCH  24  25
ENDBRANCH  15  18
ENDBRANCH  13  15
ENDBRANCH  10  13
ENDBRANCH   4   6
ENDBRANCH   3   4
ENDBRANCH   2   3
ENDBRANCH   1   2
BRANCH   1  27
ATOM     27  O   UNL A   1      30.711  31.128  25.338  1.00  0.00    -0.374 OA
BRANCH  27  28
ATOM     28  C   UNL A   1      31.509  31.410  26.458  1.00  0.00     0.202 C 
BRANCH  28  29
ATOM     29  C   UNL A   1      32.304  30.186  26.911  1.00  0.00     0.261 C 
BRANCH  29  30
ATOM     30  O   UNL A   1      33.730  30.357  26.693  1.00  0.00    -0.460 OA
BRANCH  30  31
ATOM     31  C   UNL A   1      34.459  31.073  27.609  1.00  0.00     0.338 C 
ATOM     32  O   UNL A   1      34.119  32.168  28.024  1.00  0.00    -0.246 OA
BRANCH  31  33
ATOM     33  C   UNL A   1      35.588  30.271  28.170  1.00  0.00     0.060 A 
ATOM     34  C   UNL A   1      35.619  29.831  29.509  1.00  0.00     0.016 A 
ATOM     35  C   UNL A   1      36.706  30.088  27.371  1.00  0.00     0.016 A 
ATOM     36  C   UNL A   1      36.825  29.388  30.090  1.00  0.00     0.010 A 
ATOM     37  C   UNL A   1      37.904  29.778  27.971  1.00  0.00     0.010 A 
ATOM     38  C   UNL A   1      37.991  29.456  29.337  1.00  0.00    -0.014 A 
BRANCH  38  39
ATOM     39  C   UNL A   1      39.370  29.231  29.790  1.00  0.00     0.031 A 
ATOM     40  C   UNL A   1      39.985  27.960  29.341  1.00  0.00     0.074 A 
ATOM     41  C   UNL A   1      40.139  30.257  30.243  1.00  0.00     0.049 A 
ATOM     42  N   UNL A   1      41.191  27.626  29.598  1.00  0.00    -0.248 NA
ATOM     43  C   UNL A   1      39.285  26.931  28.562  1.00  0.00     0.031 C 
ATOM     44  C   UNL A   1      41.589  30.466  30.129  1.00  0.00     0.029 A 
ATOM     45  N   UNL A   1      39.745  31.444  30.865  1.00  0.00    -0.354 N 
ATOM     46  C   UNL A   1      41.531  26.574  28.781  1.00  0.00     0.074 A 
ATOM     47  C   UNL A   1      40.283  26.095  28.254  1.00  0.00     0.031 C 
ATOM     48  C   UNL A   1      41.970  31.497  30.914  1.00  0.00     0.029 A 
ATOM     49  C   UNL A   1      40.794  31.938  31.648  1.00  0.00     0.049 A 
ATOM     50  H   UNL A   1      38.863  31.869  30.766  1.00  0.00     0.167 HD
ATOM     51  C   UNL A   1      42.859  26.348  28.586  1.00  0.00     0.037 A 
ATOM     52  C   UNL A   1      40.613  32.063  32.989  1.00  0.00     0.037 A 
ATOM     53  C   UNL A   1      43.631  27.205  29.501  1.00  0.00     0.049 A 
ATOM     54  C   UNL A   1      41.491  31.009  33.594  1.00  0.00     0.074 A 
ATOM     55  C   UNL A   1      44.373  28.360  29.336  1.00  0.00     0.029 A 
ATOM     56  N   UNL A   1      43.376  27.101  30.870  1.00  0.00    -0.354 N 
ATOM     57  N   UNL A   1      41.783  29.898  32.966  1.00  0.00    -0.248 NA
ATOM     58  C   UNL A   1      42.302  31.224  34.786  1.00  0.00     0.031 C 
ATOM     59  C   UNL A   1      44.462  29.000  30.614  1.00  0.00     0.029 A 
ATOM     60  C   UNL A   1      43.783  28.232  31.554  1.00  0.00     0.049 A 
ATOM     61  H   UNL A   1      42.956  26.319  31.296  1.00  0.00     0.167 HD
ATOM     62  C   UNL A   1      42.898  29.362  33.527  1.00  0.00     0.074 A 
ATOM     63  C   UNL A   1      43.149  30.183  34.702  1.00  0.00     0.031 C 
ATOM     64  C   UNL A   1      43.596  28.318  33.001  1.00  0.00     0.037 A 
BRANCH  51  65
ATOM     65  C   UNL A   1      43.489  25.490  27.506  1.00  0.00     0.058 A 
ATOM     66  C   UNL A   1      44.290  24.388  27.880  1.00  0.00     0.135 A 
ATOM     67  C   UNL A   1      43.425  25.714  26.111  1.00  0.00     0.135 A 
ATOM     68  F   UNL A   1      44.463  24.061  29.169  1.00  0.00    -0.206 F 
ATOM     69  C   UNL A   1      44.963  23.581  26.959  1.00  0.00     0.059 A 
ATOM     70  C   UNL A   1      44.061  24.898  25.168  1.00  0.00     0.059 A 
ATOM     71  F   UNL A   1      42.786  26.762  25.582  1.00  0.00    -0.206 F 
ATOM     72  C   UNL A   1      44.837  23.836  25.601  1.00  0.00     0.060 A 
BRANCH  72  73
ATOM     73  S   UNL A   1      45.701  22.774  24.429  1.00  0.00     0.124 S 
ATOM     74  O   UNL A   1      46.227  21.728  25.301  1.00  0.00    -0.237 OA
ATOM     75  O   UNL A   1      44.626  22.371  23.529  1.00  0.00    -0.237 OA
ATOM     76  O   UNL A   1      46.706  23.656  23.842  1.00  0.00    -0.744 OA
ENDBRANCH  72  73
ENDBRANCH  51  65
BRANCH  52  77
ATOM     77  C   UNL A   1      39.215  32.519  33.313  1.00  0.00     0.058 A 
ATOM     78  C   UNL A   1      38.929  33.884  33.060  1.00  0.00     0.135 A 
ATOM     79  C   UNL A   1      38.114  31.645  33.305  1.00  0.00     0.135 A 
ATOM     80  F   UNL A   1      39.935  34.773  33.016  1.00  0.00    -0.206 F 
ATOM     81  C   UNL A   1      37.662  34.333  32.671  1.00  0.00     0.059 A 
ATOM     82  C   UNL A   1      36.839  32.072  32.887  1.00  0.00     0.059 A 
ATOM     83  F   UNL A   1      38.295  30.335  33.524  1.00  0.00    -0.206 F 
ATOM     84  C   UNL A   1      36.635  33.404  32.519  1.00  0.00     0.060 A 
BRANCH  84  85
ATOM     85  S   UNL A   1      35.164  33.894  31.560  1.00  0.00     0.124 S 
ATOM     86  O   UNL A   1      34.861  35.212  32.101  1.00  0.00    -0.237 OA
ATOM     87  O   UNL A   1      35.659  33.874  30.183  1.00  0.00    -0.237 OA
ATOM     88  O   UNL A   1      34.205  32.840  31.867  1.00  0.00    -0.744 OA
ENDBRANCH  84  85
ENDBRANCH  52  77
BRANCH  64  89
ATOM     89  C   UNL A   1      44.183  27.281  33.912  1.00  0.00     0.058 A 
ATOM     90  C   UNL A   1      43.392  26.313  34.561  1.00  0.00     0.135 A 
ATOM     91  C   UNL A   1      45.580  27.117  34.029  1.00  0.00     0.135 A 
ATOM     92  F   UNL A   1      42.063  26.244  34.392  1.00  0.00    -0.206 F 
ATOM     93  C   UNL A   1      43.938  25.352  35.393  1.00  0.00     0.059 A 
ATOM     94  C   UNL A   1      46.149  26.101  34.779  1.00  0.00     0.059 A 
ATOM     95  F   UNL A   1      46.448  27.927  33.406  1.00  0.00    -0.206 F 
ATOM     96  C   UNL A   1      45.318  25.264  35.507  1.00  0.00     0.060 A 
BRANCH  96  97
ATOM     97  S   UNL A   1      46.007  24.053  36.630  1.00  0.00     0.124 S 
ATOM     98  O   UNL A   1      45.963  24.787  37.890  1.00  0.00    -0.237 OA
ATOM     99  O   UNL A   1      45.068  22.941  36.511  1.00  0.00    -0.237 OA
ATOM    100  O   UNL A   1      47.338  23.805  36.085  1.00  0.00    -0.744 OA
ENDBRANCH  96  97
ENDBRANCH  64  89
ENDBRANCH  38  39
ENDBRANCH  31  33
ENDBRANCH  30  31
ENDBRANCH  29  30
ENDBRANCH  28  29
ENDBRANCH  27  28
ENDBRANCH   1  27
TORSDOF 21
ENDMDL
