MODEL 1
REMARK VINA RESULT:     -11.3      0.000      0.000
REMARK SMILES CC1CCN(C(=O)N[C@@H]2C=C[C@H](C(=O)OCCOCCOC(=O)c3ccc(-c4c5nc(c(-c6c(F)cc(S(=O)(=O)[O-])cc6F)c6ccc([nH]6)c(-c6c(F)cc(S(=O)(=O)[O-])cc6F)c6nc(c(-c7c(F)cc(S(=O)(=O)[O-])cc7F)c7ccc4[nH]7)C=C6)C=C5)cc3)C2)CC1
REMARK SMILES IDX 19 1 18 2 17 3 16 4 15 5 13 6 14 7 12 8 9 9 10 10 90 11
REMARK SMILES IDX 11 12 8 13 1 14 2 15 3 16 92 17 4 18 91 19 5 20 6 21 7 22
REMARK SMILES IDX 20 24 21 25 22 26 23 27 24 28 25 29 89 30 26 31 88 32 27 33
REMARK SMILES IDX 28 34 29 35 82 36 30 37 87 38 81 39 83 40 31 41 86 42 80 43
REMARK SMILES IDX 79 44 32 46 66 47 45 48 65 49 46 50 49 51 64 52 84 53 47 54
REMARK SMILES IDX 48 55 63 57 85 58 50 59 33 60 34 61 43 62 35 63 36 64 42 65
REMARK SMILES IDX 44 66 37 67 38 68 39 69 40 70 41 71 67 72 68 73 77 74 69 75
REMARK SMILES IDX 70 76 76 77 78 78 71 79 72 80 73 81 74 82 75 83 51 84 52 85
REMARK SMILES IDX 61 86 53 87 54 88 60 89 62 90 55 91 56 92 57 93 58 94 59 95
REMARK H PARENT 8 23 83 45 49 56
REMARK Flexibility Score: inf
ROOT
ATOM      1  C   UNL A   1      34.692  33.241  28.480  1.00  0.00     0.202 C 
ENDROOT
BRANCH   1   2
ATOM      2  O   UNL A   1      33.872  32.096  28.259  1.00  0.00    -0.374 OA
BRANCH   2   3
ATOM      3  C   UNL A   1      34.265  30.917  27.555  1.00  0.00     0.202 C 
BRANCH   3   4
ATOM      4  C   UNL A   1      33.007  30.213  26.876  1.00  0.00     0.261 C 
BRANCH   4   5
ATOM      5  O   UNL A   1      33.292  29.046  26.015  1.00  0.00    -0.463 OA
BRANCH   5   6
ATOM      6  C   UNL A   1      32.765  29.044  24.729  1.00  0.00     0.312 C 
ATOM      7  O   UNL A   1      33.432  29.290  23.731  1.00  0.00    -0.252 OA
BRANCH   6   8
ATOM      8  C   UNL A   1      31.231  28.709  24.689  1.00  0.00     0.124 C 
ATOM      9  C   UNL A   1      30.469  27.094  22.918  1.00  0.00     0.107 C 
ATOM     10  C   UNL A   1      30.021  28.498  22.644  1.00  0.00    -0.006 C 
ATOM     11  C   UNL A   1      30.836  27.255  24.391  1.00  0.00     0.048 C 
ATOM     12  C   UNL A   1      30.452  29.369  23.574  1.00  0.00    -0.014 C 
BRANCH   9  13
ATOM     13  N   UNL A   1      31.521  26.797  21.964  1.00  0.00    -0.332 N 
ATOM     14  C   UNL A   1      32.253  24.804  26.629  1.00  0.00     0.008 C 
ATOM     15  C   UNL A   1      32.725  24.204  25.286  1.00  0.00    -0.011 C 
ATOM     16  C   UNL A   1      33.665  25.025  24.376  1.00  0.00     0.025 C 
ATOM     17  C   UNL A   1      31.496  23.620  24.556  1.00  0.00     0.025 C 
ATOM     18  C   UNL A   1      33.751  24.405  23.007  1.00  0.00     0.121 C 
ATOM     19  C   UNL A   1      31.387  23.863  23.039  1.00  0.00     0.121 C 
ATOM     20  N   UNL A   1      32.446  24.670  22.462  1.00  0.00    -0.325 N 
ATOM     21  C   UNL A   1      32.376  25.796  21.701  1.00  0.00     0.317 C 
ATOM     22  O   UNL A   1      33.217  26.021  20.825  1.00  0.00    -0.249 OA
ATOM     23  H   UNL A   1      31.642  27.540  21.331  1.00  0.00     0.165 HD
ENDBRANCH   9  13
ENDBRANCH   6   8
ENDBRANCH   5   6
ENDBRANCH   4   5
ENDBRANCH   3   4
ENDBRANCH   2   3
ENDBRANCH   1   2
BRANCH   1  24
ATOM     24  C   UNL A   1      35.654  33.213  29.687  1.00  0.00     0.261 C 
BRANCH  24  25
ATOM     25  O   UNL A   1      36.821  32.460  29.403  1.00  0.00    -0.460 OA
BRANCH  25  26
ATOM     26  C   UNL A   1      37.065  31.559  30.371  1.00  0.00     0.338 C 
ATOM     27  O   UNL A   1      36.410  31.364  31.384  1.00  0.00    -0.246 OA
BRANCH  26  28
ATOM     28  C   UNL A   1      38.077  30.645  29.864  1.00  0.00     0.060 A 
ATOM     29  C   UNL A   1      38.988  30.164  30.808  1.00  0.00     0.016 A 
ATOM     30  C   UNL A   1      38.144  30.287  28.515  1.00  0.00     0.016 A 
ATOM     31  C   UNL A   1      40.056  29.405  30.382  1.00  0.00     0.010 A 
ATOM     32  C   UNL A   1      39.226  29.529  28.085  1.00  0.00     0.010 A 
ATOM     33  C   UNL A   1      40.213  29.153  29.013  1.00  0.00    -0.014 A 
BRANCH  33  34
ATOM     34  C   UNL A   1      41.549  28.748  28.555  1.00  0.00     0.031 A 
ATOM     35  C   UNL A   1      42.631  29.788  28.555  1.00  0.00     0.074 A 
ATOM     36  C   UNL A   1      41.802  27.466  28.257  1.00  0.00     0.049 A 
ATOM     37  N   UNL A   1      43.899  29.661  28.273  1.00  0.00    -0.248 NA
ATOM     38  C   UNL A   1      42.229  31.156  28.931  1.00  0.00     0.031 C 
ATOM     39  C   UNL A   1      40.820  26.383  28.285  1.00  0.00     0.029 A 
ATOM     40  N   UNL A   1      42.969  26.862  27.882  1.00  0.00    -0.354 N 
ATOM     41  C   UNL A   1      44.445  30.927  28.437  1.00  0.00     0.074 A 
ATOM     42  C   UNL A   1      43.369  31.817  28.809  1.00  0.00     0.031 C 
ATOM     43  C   UNL A   1      41.428  25.241  27.928  1.00  0.00     0.029 A 
ATOM     44  C   UNL A   1      42.831  25.522  27.629  1.00  0.00     0.049 A 
ATOM     45  H   UNL A   1      43.825  27.343  27.801  1.00  0.00     0.167 HD
ATOM     46  C   UNL A   1      45.735  31.309  28.300  1.00  0.00     0.037 A 
ATOM     47  C   UNL A   1      43.741  24.634  27.186  1.00  0.00     0.037 A 
ATOM     48  C   UNL A   1      46.789  30.411  27.917  1.00  0.00     0.049 A 
ATOM     49  C   UNL A   1      45.158  25.091  26.973  1.00  0.00     0.074 A 
ATOM     50  C   UNL A   1      48.133  30.681  27.751  1.00  0.00     0.029 A 
ATOM     51  N   UNL A   1      46.607  29.066  27.624  1.00  0.00    -0.354 N 
ATOM     52  N   UNL A   1      45.675  26.284  27.158  1.00  0.00    -0.248 NA
ATOM     53  C   UNL A   1      46.116  24.085  26.501  1.00  0.00     0.031 C 
ATOM     54  C   UNL A   1      48.757  29.510  27.304  1.00  0.00     0.029 A 
ATOM     55  C   UNL A   1      47.810  28.497  27.247  1.00  0.00     0.049 A 
ATOM     56  H   UNL A   1      45.749  28.587  27.677  1.00  0.00     0.167 HD
ATOM     57  C   UNL A   1      47.025  26.168  26.844  1.00  0.00     0.074 A 
ATOM     58  C   UNL A   1      47.243  24.786  26.466  1.00  0.00     0.031 C 
ATOM     59  C   UNL A   1      47.997  27.115  26.873  1.00  0.00     0.037 A 
BRANCH  46  60
ATOM     60  C   UNL A   1      46.045  32.764  28.514  1.00  0.00     0.058 A 
ATOM     61  C   UNL A   1      46.320  33.288  29.788  1.00  0.00     0.135 A 
ATOM     62  C   UNL A   1      46.030  33.654  27.429  1.00  0.00     0.135 A 
ATOM     63  F   UNL A   1      46.321  32.484  30.864  1.00  0.00    -0.206 F 
ATOM     64  C   UNL A   1      46.524  34.649  29.985  1.00  0.00     0.059 A 
ATOM     65  C   UNL A   1      46.260  35.016  27.599  1.00  0.00     0.059 A 
ATOM     66  F   UNL A   1      45.764  33.208  26.191  1.00  0.00    -0.206 F 
ATOM     67  C   UNL A   1      46.483  35.507  28.884  1.00  0.00     0.060 A 
BRANCH  67  68
ATOM     68  S   UNL A   1      46.708  37.277  29.156  1.00  0.00     0.124 S 
ATOM     69  O   UNL A   1      45.381  37.670  29.622  1.00  0.00    -0.237 OA
ATOM     70  O   UNL A   1      47.767  37.307  30.161  1.00  0.00    -0.237 OA
ATOM     71  O   UNL A   1      47.084  37.779  27.838  1.00  0.00    -0.744 OA
ENDBRANCH  67  68
ENDBRANCH  46  60
BRANCH  47  72
ATOM     72  C   UNL A   1      43.317  23.238  26.917  1.00  0.00     0.058 A 
ATOM     73  C   UNL A   1      43.235  22.737  25.612  1.00  0.00     0.135 A 
ATOM     74  C   UNL A   1      43.043  22.357  27.976  1.00  0.00     0.135 A 
ATOM     75  F   UNL A   1      43.484  23.543  24.567  1.00  0.00    -0.206 F 
ATOM     76  C   UNL A   1      42.899  21.411  25.362  1.00  0.00     0.059 A 
ATOM     77  C   UNL A   1      42.728  21.022  27.754  1.00  0.00     0.059 A 
ATOM     78  F   UNL A   1      43.125  22.786  29.246  1.00  0.00    -0.206 F 
ATOM     79  C   UNL A   1      42.656  20.559  26.442  1.00  0.00     0.060 A 
BRANCH  79  80
ATOM     80  S   UNL A   1      42.304  18.819  26.110  1.00  0.00     0.124 S 
ATOM     81  O   UNL A   1      40.892  18.866  25.754  1.00  0.00    -0.237 OA
ATOM     82  O   UNL A   1      43.229  18.523  25.021  1.00  0.00    -0.237 OA
ATOM     83  O   UNL A   1      42.615  18.167  27.380  1.00  0.00    -0.744 OA
ENDBRANCH  79  80
ENDBRANCH  47  72
BRANCH  59  84
ATOM     84  C   UNL A   1      49.391  26.688  26.507  1.00  0.00     0.058 A 
ATOM     85  C   UNL A   1      50.239  26.067  27.437  1.00  0.00     0.135 A 
ATOM     86  C   UNL A   1      49.850  26.829  25.189  1.00  0.00     0.135 A 
ATOM     87  F   UNL A   1      49.848  25.914  28.712  1.00  0.00    -0.206 F 
ATOM     88  C   UNL A   1      51.502  25.613  27.074  1.00  0.00     0.059 A 
ATOM     89  C   UNL A   1      51.099  26.357  24.797  1.00  0.00     0.059 A 
ATOM     90  F   UNL A   1      49.072  27.405  24.259  1.00  0.00    -0.206 F 
ATOM     91  C   UNL A   1      51.921  25.757  25.750  1.00  0.00     0.060 A 
BRANCH  91  92
ATOM     92  S   UNL A   1      53.542  25.116  25.280  1.00  0.00     0.124 S 
ATOM     93  O   UNL A   1      53.691  25.654  23.933  1.00  0.00    -0.237 OA
ATOM     94  O   UNL A   1      54.414  25.696  26.297  1.00  0.00    -0.237 OA
ATOM     95  O   UNL A   1      53.370  23.668  25.362  1.00  0.00    -0.744 OA
ENDBRANCH  91  92
ENDBRANCH  59  84
ENDBRANCH  33  34
ENDBRANCH  26  28
ENDBRANCH  25  26
ENDBRANCH  24  25
ENDBRANCH   1  24
TORSDOF 18
ENDMDL
MODEL 2
REMARK VINA RESULT:     -11.2      6.347     12.264
REMARK SMILES CC1CCN(C(=O)N[C@@H]2C=C[C@H](C(=O)OCCOCCOC(=O)c3ccc(-c4c5nc(c(-c6c(F)cc(S(=O)(=O)[O-])cc6F)c6ccc([nH]6)c(-c6c(F)cc(S(=O)(=O)[O-])cc6F)c6nc(c(-c7c(F)cc(S(=O)(=O)[O-])cc7F)c7ccc4[nH]7)C=C6)C=C5)cc3)C2)CC1
REMARK SMILES IDX 19 1 18 2 17 3 16 4 15 5 13 6 14 7 12 8 9 9 10 10 90 11
REMARK SMILES IDX 11 12 8 13 1 14 2 15 3 16 92 17 4 18 91 19 5 20 6 21 7 22
REMARK SMILES IDX 20 24 21 25 22 26 23 27 24 28 25 29 89 30 26 31 88 32 27 33
REMARK SMILES IDX 28 34 29 35 82 36 30 37 87 38 81 39 83 40 31 41 86 42 80 43
REMARK SMILES IDX 79 44 32 46 66 47 45 48 65 49 46 50 49 51 64 52 84 53 47 54
REMARK SMILES IDX 48 55 63 57 85 58 50 59 33 60 34 61 43 62 35 63 36 64 42 65
REMARK SMILES IDX 44 66 37 67 38 68 39 69 40 70 41 71 67 72 68 73 77 74 69 75
REMARK SMILES IDX 70 76 76 77 78 78 71 79 72 80 73 81 74 82 75 83 51 84 52 85
REMARK SMILES IDX 61 86 53 87 54 88 60 89 62 90 55 91 56 92 57 93 58 94 59 95
REMARK H PARENT 8 23 83 45 49 56
REMARK Flexibility Score: inf
ROOT
ATOM      1  C   UNL A   1      40.165  21.345  26.897  1.00  0.00     0.202 C 
ENDROOT
BRANCH   1   2
ATOM      2  O   UNL A   1      39.444  21.683  25.714  1.00  0.00    -0.374 OA
BRANCH   2   3
ATOM      3  C   UNL A   1      38.023  21.719  25.590  1.00  0.00     0.202 C 
BRANCH   3   4
ATOM      4  C   UNL A   1      37.474  23.207  25.748  1.00  0.00     0.261 C 
BRANCH   4   5
ATOM      5  O   UNL A   1      36.016  23.390  25.586  1.00  0.00    -0.463 OA
BRANCH   5   6
ATOM      6  C   UNL A   1      35.189  22.315  25.888  1.00  0.00     0.312 C 
ATOM      7  O   UNL A   1      34.992  21.923  27.033  1.00  0.00    -0.252 OA
BRANCH   6   8
ATOM      8  C   UNL A   1      34.548  21.651  24.618  1.00  0.00     0.124 C 
ATOM      9  C   UNL A   1      32.046  21.791  24.406  1.00  0.00     0.107 C 
ATOM     10  C   UNL A   1      32.517  20.402  24.716  1.00  0.00    -0.006 C 
ATOM     11  C   UNL A   1      33.376  22.388  23.954  1.00  0.00     0.048 C 
ATOM     12  C   UNL A   1      33.852  20.329  24.859  1.00  0.00    -0.014 C 
BRANCH   9  13
ATOM     13  N   UNL A   1      31.426  22.302  25.613  1.00  0.00    -0.332 N 
ATOM     14  C   UNL A   1      33.886  25.832  22.829  1.00  0.00     0.008 C 
ATOM     15  C   UNL A   1      32.639  26.059  23.711  1.00  0.00    -0.011 C 
ATOM     16  C   UNL A   1      32.705  25.731  25.220  1.00  0.00     0.025 C 
ATOM     17  C   UNL A   1      31.416  25.453  22.990  1.00  0.00     0.025 C 
ATOM     18  C   UNL A   1      31.324  25.726  25.821  1.00  0.00     0.121 C 
ATOM     19  C   UNL A   1      30.402  24.668  23.843  1.00  0.00     0.121 C 
ATOM     20  N   UNL A   1      30.740  24.543  25.249  1.00  0.00    -0.325 N 
ATOM     21  C   UNL A   1      30.840  23.436  26.033  1.00  0.00     0.317 C 
ATOM     22  O   UNL A   1      30.542  23.477  27.231  1.00  0.00    -0.249 OA
ATOM     23  H   UNL A   1      31.438  21.626  26.329  1.00  0.00     0.165 HD
ENDBRANCH   9  13
ENDBRANCH   6   8
ENDBRANCH   5   6
ENDBRANCH   4   5
ENDBRANCH   3   4
ENDBRANCH   2   3
ENDBRANCH   1   2
BRANCH   1  24
ATOM     24  C   UNL A   1      41.239  22.336  27.391  1.00  0.00     0.261 C 
BRANCH  24  25
ATOM     25  O   UNL A   1      40.900  23.673  27.064  1.00  0.00    -0.460 OA
BRANCH  25  26
ATOM     26  C   UNL A   1      41.913  24.514  27.343  1.00  0.00     0.338 C 
ATOM     27  O   UNL A   1      43.052  24.472  26.904  1.00  0.00    -0.246 OA
BRANCH  26  28
ATOM     28  C   UNL A   1      41.342  25.665  28.027  1.00  0.00     0.060 A 
ATOM     29  C   UNL A   1      42.150  26.803  28.075  1.00  0.00     0.016 A 
ATOM     30  C   UNL A   1      40.074  25.625  28.614  1.00  0.00     0.016 A 
ATOM     31  C   UNL A   1      41.739  27.886  28.822  1.00  0.00     0.010 A 
ATOM     32  C   UNL A   1      39.664  26.714  29.373  1.00  0.00     0.010 A 
ATOM     33  C   UNL A   1      40.532  27.808  29.529  1.00  0.00    -0.014 A 
BRANCH  33  34
ATOM     34  C   UNL A   1      40.343  28.755  30.637  1.00  0.00     0.031 A 
ATOM     35  C   UNL A   1      41.257  28.635  31.821  1.00  0.00     0.074 A 
ATOM     36  C   UNL A   1      39.454  29.753  30.530  1.00  0.00     0.049 A 
ATOM     37  N   UNL A   1      41.342  29.393  32.880  1.00  0.00    -0.248 NA
ATOM     38  C   UNL A   1      42.211  27.510  31.805  1.00  0.00     0.031 C 
ATOM     39  C   UNL A   1      38.566  29.973  29.389  1.00  0.00     0.029 A 
ATOM     40  N   UNL A   1      39.165  30.772  31.393  1.00  0.00    -0.354 N 
ATOM     41  C   UNL A   1      42.355  28.840  33.653  1.00  0.00     0.074 A 
ATOM     42  C   UNL A   1      42.832  27.664  32.963  1.00  0.00     0.031 C 
ATOM     43  C   UNL A   1      37.817  31.061  29.630  1.00  0.00     0.029 A 
ATOM     44  C   UNL A   1      38.163  31.594  30.947  1.00  0.00     0.049 A 
ATOM     45  H   UNL A   1      39.631  30.903  32.250  1.00  0.00     0.167 HD
ATOM     46  C   UNL A   1      42.849  29.284  34.831  1.00  0.00     0.037 A 
ATOM     47  C   UNL A   1      37.583  32.647  31.553  1.00  0.00     0.037 A 
ATOM     48  C   UNL A   1      42.351  30.449  35.508  1.00  0.00     0.049 A 
ATOM     49  C   UNL A   1      38.100  33.087  32.896  1.00  0.00     0.074 A 
ATOM     50  C   UNL A   1      42.774  30.999  36.702  1.00  0.00     0.029 A 
ATOM     51  N   UNL A   1      41.303  31.236  35.050  1.00  0.00    -0.354 N 
ATOM     52  N   UNL A   1      39.077  32.577  33.610  1.00  0.00    -0.248 NA
ATOM     53  C   UNL A   1      37.444  34.246  33.512  1.00  0.00     0.031 C 
ATOM     54  C   UNL A   1      41.945  32.088  36.995  1.00  0.00     0.029 A 
ATOM     55  C   UNL A   1      41.042  32.250  35.954  1.00  0.00     0.049 A 
ATOM     56  H   UNL A   1      40.816  31.094  34.206  1.00  0.00     0.167 HD
ATOM     57  C   UNL A   1      39.169  33.366  34.751  1.00  0.00     0.074 A 
ATOM     58  C   UNL A   1      38.151  34.391  34.626  1.00  0.00     0.031 C 
ATOM     59  C   UNL A   1      40.019  33.258  35.803  1.00  0.00     0.037 A 
BRANCH  46  60
ATOM     60  C   UNL A   1      43.937  28.467  35.468  1.00  0.00     0.058 A 
ATOM     61  C   UNL A   1      45.295  28.680  35.179  1.00  0.00     0.135 A 
ATOM     62  C   UNL A   1      43.612  27.430  36.356  1.00  0.00     0.135 A 
ATOM     63  F   UNL A   1      45.660  29.643  34.316  1.00  0.00    -0.206 F 
ATOM     64  C   UNL A   1      46.288  27.865  35.711  1.00  0.00     0.059 A 
ATOM     65  C   UNL A   1      44.591  26.620  36.923  1.00  0.00     0.059 A 
ATOM     66  F   UNL A   1      42.329  27.178  36.660  1.00  0.00    -0.206 F 
ATOM     67  C   UNL A   1      45.924  26.831  36.576  1.00  0.00     0.060 A 
BRANCH  67  68
ATOM     68  S   UNL A   1      47.216  25.753  37.228  1.00  0.00     0.124 S 
ATOM     69  O   UNL A   1      46.547  25.167  38.387  1.00  0.00    -0.237 OA
ATOM     70  O   UNL A   1      47.459  24.845  36.112  1.00  0.00    -0.237 OA
ATOM     71  O   UNL A   1      48.307  26.673  37.532  1.00  0.00    -0.744 OA
ENDBRANCH  67  68
ENDBRANCH  46  60
BRANCH  47  72
ATOM     72  C   UNL A   1      36.452  33.335  30.883  1.00  0.00     0.058 A 
ATOM     73  C   UNL A   1      35.140  33.213  31.354  1.00  0.00     0.135 A 
ATOM     74  C   UNL A   1      36.680  34.182  29.786  1.00  0.00     0.135 A 
ATOM     75  F   UNL A   1      34.873  32.411  32.398  1.00  0.00    -0.206 F 
ATOM     76  C   UNL A   1      34.088  33.907  30.764  1.00  0.00     0.059 A 
ATOM     77  C   UNL A   1      35.651  34.905  29.194  1.00  0.00     0.059 A 
ATOM     78  F   UNL A   1      37.925  34.345  29.309  1.00  0.00    -0.206 F 
ATOM     79  C   UNL A   1      34.357  34.758  29.690  1.00  0.00     0.060 A 
BRANCH  79  80
ATOM     80  S   UNL A   1      33.000  35.720  28.986  1.00  0.00     0.124 S 
ATOM     81  O   UNL A   1      33.719  36.802  28.324  1.00  0.00    -0.237 OA
ATOM     82  O   UNL A   1      32.359  34.746  28.109  1.00  0.00    -0.237 OA
ATOM     83  O   UNL A   1      32.219  36.105  30.159  1.00  0.00    -0.744 OA
ENDBRANCH  79  80
ENDBRANCH  47  72
BRANCH  59  84
ATOM     84  C   UNL A   1      39.905  34.286  36.895  1.00  0.00     0.058 A 
ATOM     85  C   UNL A   1      40.582  35.513  36.824  1.00  0.00     0.135 A 
ATOM     86  C   UNL A   1      39.044  34.069  37.982  1.00  0.00     0.135 A 
ATOM     87  F   UNL A   1      41.421  35.765  35.807  1.00  0.00    -0.206 F 
ATOM     88  C   UNL A   1      40.418  36.486  37.804  1.00  0.00     0.059 A 
ATOM     89  C   UNL A   1      38.845  35.040  38.958  1.00  0.00     0.059 A 
ATOM     90  F   UNL A   1      38.365  32.916  38.088  1.00  0.00    -0.206 F 
ATOM     91  C   UNL A   1      39.543  36.243  38.864  1.00  0.00     0.060 A 
BRANCH  91  92
ATOM     92  S   UNL A   1      39.300  37.535  40.100  1.00  0.00     0.124 S 
ATOM     93  O   UNL A   1      38.959  36.751  41.282  1.00  0.00    -0.237 OA
ATOM     94  O   UNL A   1      40.604  38.191  40.127  1.00  0.00    -0.237 OA
ATOM     95  O   UNL A   1      38.214  38.337  39.544  1.00  0.00    -0.744 OA
ENDBRANCH  91  92
ENDBRANCH  59  84
ENDBRANCH  33  34
ENDBRANCH  26  28
ENDBRANCH  25  26
ENDBRANCH  24  25
ENDBRANCH   1  24
TORSDOF 18
ENDMDL
MODEL 3
REMARK VINA RESULT:     -11.1      4.559      5.983
REMARK SMILES CC1CCN(C(=O)N[C@@H]2C=C[C@H](C(=O)OCCOCCOC(=O)c3ccc(-c4c5nc(c(-c6c(F)cc(S(=O)(=O)[O-])cc6F)c6ccc([nH]6)c(-c6c(F)cc(S(=O)(=O)[O-])cc6F)c6nc(c(-c7c(F)cc(S(=O)(=O)[O-])cc7F)c7ccc4[nH]7)C=C6)C=C5)cc3)C2)CC1
REMARK SMILES IDX 19 1 18 2 17 3 16 4 15 5 13 6 14 7 12 8 9 9 10 10 90 11
REMARK SMILES IDX 11 12 8 13 1 14 2 15 3 16 92 17 4 18 91 19 5 20 6 21 7 22
REMARK SMILES IDX 20 24 21 25 22 26 23 27 24 28 25 29 89 30 26 31 88 32 27 33
REMARK SMILES IDX 28 34 29 35 82 36 30 37 87 38 81 39 83 40 31 41 86 42 80 43
REMARK SMILES IDX 79 44 32 46 66 47 45 48 65 49 46 50 49 51 64 52 84 53 47 54
REMARK SMILES IDX 48 55 63 57 85 58 50 59 33 60 34 61 43 62 35 63 36 64 42 65
REMARK SMILES IDX 44 66 37 67 38 68 39 69 40 70 41 71 67 72 68 73 77 74 69 75
REMARK SMILES IDX 70 76 76 77 78 78 71 79 72 80 73 81 74 82 75 83 51 84 52 85
REMARK SMILES IDX 61 86 53 87 54 88 60 89 62 90 55 91 56 92 57 93 58 94 59 95
REMARK H PARENT 8 23 83 45 49 56
REMARK Flexibility Score: inf
ROOT
ATOM      1  C   UNL A   1      31.789  29.798  26.688  1.00  0.00     0.202 C 
ENDROOT
BRANCH   1   2
ATOM      2  O   UNL A   1      31.336  28.970  25.619  1.00  0.00    -0.374 OA
BRANCH   2   3
ATOM      3  C   UNL A   1      31.021  29.417  24.301  1.00  0.00     0.202 C 
BRANCH   3   4
ATOM      4  C   UNL A   1      30.222  28.296  23.496  1.00  0.00     0.261 C 
BRANCH   4   5
ATOM      5  O   UNL A   1      30.904  26.995  23.329  1.00  0.00    -0.463 OA
BRANCH   5   6
ATOM      6  C   UNL A   1      31.622  26.784  22.159  1.00  0.00     0.312 C 
ATOM      7  O   UNL A   1      31.094  26.693  21.056  1.00  0.00    -0.252 OA
BRANCH   6   8
ATOM      8  C   UNL A   1      33.170  26.661  22.394  1.00  0.00     0.124 C 
ATOM      9  C   UNL A   1      33.927  26.224  24.752  1.00  0.00     0.107 C 
ATOM     10  C   UNL A   1      34.253  27.613  24.294  1.00  0.00    -0.006 C 
ATOM     11  C   UNL A   1      33.648  25.594  23.390  1.00  0.00     0.048 C 
ATOM     12  C   UNL A   1      33.823  27.860  23.044  1.00  0.00    -0.014 C 
BRANCH   9  13
ATOM     13  N   UNL A   1      32.839  26.341  25.703  1.00  0.00    -0.332 N 
ATOM     14  C   UNL A   1      32.557  22.238  22.645  1.00  0.00     0.008 C 
ATOM     15  C   UNL A   1      32.042  22.342  24.097  1.00  0.00    -0.011 C 
ATOM     16  C   UNL A   1      30.988  23.414  24.455  1.00  0.00     0.025 C 
ATOM     17  C   UNL A   1      33.258  22.315  25.048  1.00  0.00     0.025 C 
ATOM     18  C   UNL A   1      30.857  23.549  25.949  1.00  0.00     0.121 C 
ATOM     19  C   UNL A   1      33.250  23.288  26.243  1.00  0.00     0.121 C 
ATOM     20  N   UNL A   1      32.101  24.171  26.316  1.00  0.00    -0.325 N 
ATOM     21  C   UNL A   1      32.041  25.527  26.413  1.00  0.00     0.317 C 
ATOM     22  O   UNL A   1      31.130  26.077  27.041  1.00  0.00    -0.249 OA
ATOM     23  H   UNL A   1      32.623  27.285  25.878  1.00  0.00     0.165 HD
ENDBRANCH   9  13
ENDBRANCH   6   8
ENDBRANCH   5   6
ENDBRANCH   4   5
ENDBRANCH   3   4
ENDBRANCH   2   3
ENDBRANCH   1   2
BRANCH   1  24
ATOM     24  C   UNL A   1      33.224  29.574  27.212  1.00  0.00     0.261 C 
BRANCH  24  25
ATOM     25  O   UNL A   1      34.072  30.662  26.882  1.00  0.00    -0.460 OA
BRANCH  25  26
ATOM     26  C   UNL A   1      34.658  31.170  27.981  1.00  0.00     0.338 C 
ATOM     27  O   UNL A   1      34.170  31.946  28.789  1.00  0.00    -0.246 OA
BRANCH  26  28
ATOM     28  C   UNL A   1      35.875  30.406  28.213  1.00  0.00     0.060 A 
ATOM     29  C   UNL A   1      35.921  29.691  29.413  1.00  0.00     0.016 A 
ATOM     30  C   UNL A   1      36.935  30.405  27.303  1.00  0.00     0.016 A 
ATOM     31  C   UNL A   1      37.091  29.055  29.769  1.00  0.00     0.010 A 
ATOM     32  C   UNL A   1      38.117  29.771  27.667  1.00  0.00     0.010 A 
ATOM     33  C   UNL A   1      38.208  29.161  28.930  1.00  0.00    -0.014 A 
BRANCH  33  34
ATOM     34  C   UNL A   1      39.521  28.873  29.524  1.00  0.00     0.031 A 
ATOM     35  C   UNL A   1      39.936  29.678  30.720  1.00  0.00     0.074 A 
ATOM     36  C   UNL A   1      40.260  27.851  29.069  1.00  0.00     0.049 A 
ATOM     37  N   UNL A   1      41.002  29.562  31.464  1.00  0.00    -0.248 NA
ATOM     38  C   UNL A   1      39.021  30.756  31.139  1.00  0.00     0.031 C 
ATOM     39  C   UNL A   1      39.903  26.986  27.946  1.00  0.00     0.029 A 
ATOM     40  N   UNL A   1      41.460  27.368  29.508  1.00  0.00    -0.354 N 
ATOM     41  C   UNL A   1      40.886  30.548  32.436  1.00  0.00     0.074 A 
ATOM     42  C   UNL A   1      39.667  31.275  32.170  1.00  0.00     0.031 C 
ATOM     43  C   UNL A   1      40.877  26.077  27.777  1.00  0.00     0.029 A 
ATOM     44  C   UNL A   1      41.927  26.315  28.765  1.00  0.00     0.049 A 
ATOM     45  H   UNL A   1      41.942  27.740  30.282  1.00  0.00     0.167 HD
ATOM     46  C   UNL A   1      41.721  30.813  33.467  1.00  0.00     0.037 A 
ATOM     47  C   UNL A   1      43.087  25.639  28.868  1.00  0.00     0.037 A 
ATOM     48  C   UNL A   1      42.936  30.085  33.707  1.00  0.00     0.049 A 
ATOM     49  C   UNL A   1      44.036  25.993  29.980  1.00  0.00     0.074 A 
ATOM     50  C   UNL A   1      43.858  30.258  34.720  1.00  0.00     0.029 A 
ATOM     51  N   UNL A   1      43.404  29.051  32.907  1.00  0.00    -0.354 N 
ATOM     52  N   UNL A   1      43.908  26.907  30.914  1.00  0.00    -0.248 NA
ATOM     53  C   UNL A   1      45.282  25.220  30.059  1.00  0.00     0.031 C 
ATOM     54  C   UNL A   1      44.913  29.365  34.502  1.00  0.00     0.029 A 
ATOM     55  C   UNL A   1      44.619  28.596  33.384  1.00  0.00     0.049 A 
ATOM     56  H   UNL A   1      42.939  28.694  32.116  1.00  0.00     0.167 HD
ATOM     57  C   UNL A   1      45.047  26.807  31.706  1.00  0.00     0.074 A 
ATOM     58  C   UNL A   1      45.847  25.737  31.144  1.00  0.00     0.031 C 
ATOM     59  C   UNL A   1      45.396  27.527  32.801  1.00  0.00     0.037 A 
BRANCH  46  60
ATOM     60  C   UNL A   1      41.361  31.966  34.360  1.00  0.00     0.058 A 
ATOM     61  C   UNL A   1      40.558  31.803  35.501  1.00  0.00     0.135 A 
ATOM     62  C   UNL A   1      41.798  33.263  34.047  1.00  0.00     0.135 A 
ATOM     63  F   UNL A   1      40.092  30.588  35.832  1.00  0.00    -0.206 F 
ATOM     64  C   UNL A   1      40.164  32.890  36.274  1.00  0.00     0.059 A 
ATOM     65  C   UNL A   1      41.440  34.361  34.822  1.00  0.00     0.059 A 
ATOM     66  F   UNL A   1      42.560  33.476  32.963  1.00  0.00    -0.206 F 
ATOM     67  C   UNL A   1      40.604  34.168  35.920  1.00  0.00     0.060 A 
BRANCH  67  68
ATOM     68  S   UNL A   1      40.053  35.576  36.904  1.00  0.00     0.124 S 
ATOM     69  O   UNL A   1      38.953  34.989  37.662  1.00  0.00    -0.237 OA
ATOM     70  O   UNL A   1      41.248  35.906  37.675  1.00  0.00    -0.237 OA
ATOM     71  O   UNL A   1      39.668  36.563  35.900  1.00  0.00    -0.744 OA
ENDBRANCH  67  68
ENDBRANCH  46  60
BRANCH  47  72
ATOM     72  C   UNL A   1      43.393  24.575  27.881  1.00  0.00     0.058 A 
ATOM     73  C   UNL A   1      44.164  24.834  26.742  1.00  0.00     0.135 A 
ATOM     74  C   UNL A   1      42.966  23.254  28.098  1.00  0.00     0.135 A 
ATOM     75  F   UNL A   1      44.592  26.082  26.490  1.00  0.00    -0.206 F 
ATOM     76  C   UNL A   1      44.505  23.823  25.849  1.00  0.00     0.059 A 
ATOM     77  C   UNL A   1      43.312  22.222  27.234  1.00  0.00     0.059 A 
ATOM     78  F   UNL A   1      42.239  22.953  29.186  1.00  0.00    -0.206 F 
ATOM     79  C   UNL A   1      44.081  22.518  26.110  1.00  0.00     0.060 A 
BRANCH  79  80
ATOM     80  S   UNL A   1      44.599  21.198  24.992  1.00  0.00     0.124 S 
ATOM     81  O   UNL A   1      43.580  20.186  25.238  1.00  0.00    -0.237 OA
ATOM     82  O   UNL A   1      44.543  21.860  23.693  1.00  0.00    -0.237 OA
ATOM     83  O   UNL A   1      45.943  20.870  25.461  1.00  0.00    -0.744 OA
ENDBRANCH  79  80
ENDBRANCH  47  72
BRANCH  59  84
ATOM     84  C   UNL A   1      46.689  27.172  33.481  1.00  0.00     0.058 A 
ATOM     85  C   UNL A   1      47.892  27.818  33.159  1.00  0.00     0.135 A 
ATOM     86  C   UNL A   1      46.704  26.233  34.524  1.00  0.00     0.135 A 
ATOM     87  F   UNL A   1      47.931  28.720  32.166  1.00  0.00    -0.206 F 
ATOM     88  C   UNL A   1      49.071  27.533  33.840  1.00  0.00     0.059 A 
ATOM     89  C   UNL A   1      47.865  25.952  35.236  1.00  0.00     0.059 A 
ATOM     90  F   UNL A   1      45.576  25.597  34.879  1.00  0.00    -0.206 F 
ATOM     91  C   UNL A   1      49.046  26.603  34.881  1.00  0.00     0.060 A 
BRANCH  91  92
ATOM     92  S   UNL A   1      50.572  26.281  35.791  1.00  0.00     0.124 S 
ATOM     93  O   UNL A   1      50.148  25.235  36.714  1.00  0.00    -0.237 OA
ATOM     94  O   UNL A   1      51.485  25.862  34.731  1.00  0.00    -0.237 OA
ATOM     95  O   UNL A   1      50.881  27.571  36.402  1.00  0.00    -0.744 OA
ENDBRANCH  91  92
ENDBRANCH  59  84
ENDBRANCH  33  34
ENDBRANCH  26  28
ENDBRANCH  25  26
ENDBRANCH  24  25
ENDBRANCH   1  24
TORSDOF 18
ENDMDL
