MODEL 1
REMARK VINA RESULT:     -11.9      0.000      0.000
REMARK SMILES CC1(C)CC[C@@]2(C(=O)OCCOCCOC(=O)c3ccc(-c4c5nc(c(-c6c(F)cc(S(=O)(=O)[O-])cc6F)c6ccc([nH]6)c(-c6c(F)cc(S(=O)(=O)[O-])cc6F)c6nc(c(-c7c(F)cc(S(=O)(=O)[O-])cc7F)c7ccc4[nH]7)C=C6)C=C5)cc3)CC[C@@]3(C)C(=CC[C@H]4[C@@]5(C)CC[C@H](O)C(C)(C)[C@@H]5CC[C@@]43C)[C@@H]2C1
REMARK SMILES IDX 13 1 12 2 11 3 10 4 9 5 7 6 8 7 6 8 1 9 2 10 3 11 4 12
REMARK SMILES IDX 107 13 5 14 106 15 88 16 84 17 86 18 89 19 85 20 87 21
REMARK SMILES IDX 104 22 90 23 91 24 103 25 105 26 92 27 102 28 93 29 94 30
REMARK SMILES IDX 101 31 95 32 98 33 96 34 99 35 100 36 97 37 14 39 15 40
REMARK SMILES IDX 16 41 17 42 18 43 19 44 83 45 20 46 82 47 21 48 22 49 23 50
REMARK SMILES IDX 76 51 24 52 81 53 75 54 77 55 25 56 80 57 74 58 73 59 26 61
REMARK SMILES IDX 60 62 39 63 59 64 40 65 43 66 58 67 78 68 41 69 42 70 57 72
REMARK SMILES IDX 79 73 44 74 27 75 28 76 37 77 29 78 30 79 36 80 38 81 31 82
REMARK SMILES IDX 32 83 33 84 34 85 35 86 61 87 62 88 71 89 63 90 64 91 70 92
REMARK SMILES IDX 72 93 65 94 66 95 67 96 68 97 69 98 45 99 46 100 55 101
REMARK SMILES IDX 47 102 48 103 54 104 56 105 49 106 50 107 51 108 52 109
REMARK SMILES IDX 53 110
REMARK H PARENT 97 38 77 60 43 71
REMARK Flexibility Score: inf
ROOT
ATOM      1  C   UNL A   1      43.339  24.178  36.018  1.00  0.00     0.202 C 
ENDROOT
BRANCH   1   2
ATOM      2  O   UNL A   1      42.796  23.327  34.315  1.00  0.00    -0.374 OA
BRANCH   2   3
ATOM      3  C   UNL A   1      44.206  23.338  32.975  1.00  0.00     0.202 C 
BRANCH   3   4
ATOM      4  C   UNL A   1      44.145  24.958  31.577  1.00  0.00     0.261 C 
BRANCH   4   5
ATOM      5  O   UNL A   1      44.457  24.997  30.143  1.00  0.00    -0.463 OA
BRANCH   5   6
ATOM      6  C   UNL A   1      43.774  25.141  29.023  1.00  0.00     0.312 C 
ATOM      7  O   UNL A   1      42.819  25.917  29.003  1.00  0.00    -0.252 OA
BRANCH   6   8
ATOM      8  C   UNL A   1      44.034  24.128  27.950  1.00  0.00     0.075 C 
ATOM      9  C   UNL A   1      40.944  22.233  26.548  1.00  0.00     0.011 C 
ATOM     10  C   UNL A   1      41.141  23.427  27.469  1.00  0.00    -0.035 C 
ATOM     11  C   UNL A   1      39.755  23.972  27.916  1.00  0.00     0.011 C 
ATOM     12  C   UNL A   1      41.903  23.050  28.749  1.00  0.00     0.007 C 
ATOM     13  C   UNL A   1      41.858  24.522  26.661  1.00  0.00     0.015 C 
ATOM     14  C   UNL A   1      43.403  22.845  28.526  1.00  0.00     0.020 C 
ATOM     15  C   UNL A   1      43.450  24.485  26.552  1.00  0.00     0.033 C 
ATOM     16  C   UNL A   1      44.192  25.823  25.819  1.00  0.00    -0.063 C 
ATOM     17  C   UNL A   1      45.560  24.079  27.905  1.00  0.00     0.020 C 
ATOM     18  C   UNL A   1      45.349  26.610  27.085  1.00  0.00    -0.006 C 
ATOM     19  C   UNL A   1      43.368  26.689  24.996  1.00  0.00    -0.027 C 
ATOM     20  C   UNL A   1      46.113  25.512  28.023  1.00  0.00     0.013 C 
ATOM     21  C   UNL A   1      46.449  26.313  25.728  1.00  0.00     0.017 C 
ATOM     22  C   UNL A   1      44.684  28.344  28.104  1.00  0.00    -0.020 C 
ATOM     23  C   UNL A   1      42.306  28.045  25.678  1.00  0.00     0.032 C 
ATOM     24  C   UNL A   1      42.745  28.857  27.405  1.00  0.00     0.006 C 
ATOM     25  C   UNL A   1      44.803  30.074  29.439  1.00  0.00     0.008 C 
ATOM     26  C   UNL A   1      46.548  28.262  27.136  1.00  0.00     0.012 C 
ATOM     27  C   UNL A   1      41.426  28.782  28.948  1.00  0.00    -0.025 C 
ATOM     28  C   UNL A   1      43.387  30.035  30.915  1.00  0.00     0.005 C 
ATOM     29  C   UNL A   1      40.783  30.238  29.599  1.00  0.00     0.012 C 
ATOM     30  C   UNL A   1      40.429  27.610  28.740  1.00  0.00     0.010 C 
ATOM     31  C   UNL A   1      41.956  28.732  30.691  1.00  0.00     0.003 C 
ATOM     32  C   UNL A   1      39.101  27.738  29.416  1.00  0.00     0.033 C 
ATOM     33  C   UNL A   1      40.371  28.810  31.637  1.00  0.00    -0.006 C 
ATOM     34  C   UNL A   1      39.164  27.961  30.922  1.00  0.00     0.120 C 
ATOM     35  C   UNL A   1      39.773  30.253  32.108  1.00  0.00     0.014 C 
ATOM     36  C   UNL A   1      40.515  28.168  33.030  1.00  0.00     0.014 C 
BRANCH  34  37
ATOM     37  O   UNL A   1      37.880  28.485  31.314  1.00  0.00    -0.393 OA
ATOM     38  H   UNL A   1      37.179  27.897  30.990  1.00  0.00     0.210 HD
ENDBRANCH  34  37
ENDBRANCH   6   8
ENDBRANCH   5   6
ENDBRANCH   4   5
ENDBRANCH   3   4
ENDBRANCH   2   3
ENDBRANCH   1   2
BRANCH   1  39
ATOM     39  C   UNL A   1      45.127  23.406  36.322  1.00  0.00     0.261 C 
BRANCH  39  40
ATOM     40  O   UNL A   1      46.288  24.639  35.300  1.00  0.00    -0.460 OA
BRANCH  40  41
ATOM     41  C   UNL A   1      46.483  25.998  34.177  1.00  0.00     0.338 C 
ATOM     42  O   UNL A   1      47.303  26.008  33.257  1.00  0.00    -0.246 OA
BRANCH  41  43
ATOM     43  C   UNL A   1      45.391  27.500  34.130  1.00  0.00     0.060 A 
ATOM     44  C   UNL A   1      45.585  28.815  33.700  1.00  0.00     0.016 A 
ATOM     45  C   UNL A   1      44.148  27.562  34.719  1.00  0.00     0.016 A 
ATOM     46  C   UNL A   1      44.813  29.950  34.316  1.00  0.00     0.010 A 
ATOM     47  C   UNL A   1      43.875  28.478  35.733  1.00  0.00     0.010 A 
ATOM     48  C   UNL A   1      44.120  29.781  35.530  1.00  0.00    -0.014 A 
BRANCH  48  49
ATOM     49  C   UNL A   1      43.255  30.582  36.470  1.00  0.00     0.031 A 
ATOM     50  C   UNL A   1      42.033  31.377  35.998  1.00  0.00     0.074 A 
ATOM     51  C   UNL A   1      43.805  31.132  37.584  1.00  0.00     0.049 A 
ATOM     52  N   UNL A   1      40.926  31.616  36.652  1.00  0.00    -0.248 NA
ATOM     53  C   UNL A   1      42.067  32.050  34.679  1.00  0.00     0.031 C 
ATOM     54  C   UNL A   1      45.218  31.049  37.983  1.00  0.00     0.029 A 
ATOM     55  N   UNL A   1      43.233  31.872  38.593  1.00  0.00    -0.354 N 
ATOM     56  C   UNL A   1      40.075  32.264  35.753  1.00  0.00     0.074 A 
ATOM     57  C   UNL A   1      40.838  32.544  34.567  1.00  0.00     0.031 C 
ATOM     58  C   UNL A   1      45.354  31.534  39.229  1.00  0.00     0.029 A 
ATOM     59  C   UNL A   1      44.034  31.909  39.715  1.00  0.00     0.049 A 
ATOM     60  H   UNL A   1      42.360  32.321  38.523  1.00  0.00     0.167 HD
ATOM     61  C   UNL A   1      38.766  32.567  35.930  1.00  0.00     0.037 A 
ATOM     62  C   UNL A   1      43.678  32.044  41.006  1.00  0.00     0.037 A 
ATOM     63  C   UNL A   1      38.201  32.557  37.252  1.00  0.00     0.049 A 
ATOM     64  C   UNL A   1      42.203  32.187  41.300  1.00  0.00     0.074 A 
ATOM     65  C   UNL A   1      36.902  32.721  37.686  1.00  0.00     0.029 A 
ATOM     66  N   UNL A   1      38.996  32.456  38.390  1.00  0.00    -0.354 N 
ATOM     67  N   UNL A   1      41.199  32.319  40.459  1.00  0.00    -0.248 NA
ATOM     68  C   UNL A   1      41.808  32.138  42.709  1.00  0.00     0.031 C 
ATOM     69  C   UNL A   1      36.931  32.790  39.089  1.00  0.00     0.029 A 
ATOM     70  C   UNL A   1      38.233  32.579  39.525  1.00  0.00     0.049 A 
ATOM     71  H   UNL A   1      39.970  32.316  38.381  1.00  0.00     0.167 HD
ATOM     72  C   UNL A   1      40.045  32.325  41.237  1.00  0.00     0.074 A 
ATOM     73  C   UNL A   1      40.487  32.164  42.612  1.00  0.00     0.031 C 
ATOM     74  C   UNL A   1      38.740  32.444  40.870  1.00  0.00     0.037 A 
BRANCH  61  75
ATOM     75  C   UNL A   1      37.927  32.891  34.714  1.00  0.00     0.058 A 
ATOM     76  C   UNL A   1      37.267  31.861  34.009  1.00  0.00     0.135 A 
ATOM     77  C   UNL A   1      37.716  34.202  34.258  1.00  0.00     0.135 A 
ATOM     78  F   UNL A   1      37.399  30.583  34.398  1.00  0.00    -0.206 F 
ATOM     79  C   UNL A   1      36.480  32.112  32.887  1.00  0.00     0.059 A 
ATOM     80  C   UNL A   1      36.910  34.480  33.149  1.00  0.00     0.059 A 
ATOM     81  F   UNL A   1      38.302  35.239  34.878  1.00  0.00    -0.206 F 
ATOM     82  C   UNL A   1      36.308  33.427  32.461  1.00  0.00     0.060 A 
BRANCH  82  83
ATOM     83  S   UNL A   1      35.282  33.729  31.004  1.00  0.00     0.124 S 
ATOM     84  O   UNL A   1      34.633  34.989  31.355  1.00  0.00    -0.237 OA
ATOM     85  O   UNL A   1      36.273  33.807  29.936  1.00  0.00    -0.237 OA
ATOM     86  O   UNL A   1      34.403  32.566  30.957  1.00  0.00    -0.744 OA
ENDBRANCH  82  83
ENDBRANCH  61  75
BRANCH  62  87
ATOM     87  C   UNL A   1      44.674  31.766  42.082  1.00  0.00     0.058 A 
ATOM     88  C   UNL A   1      45.420  32.809  42.664  1.00  0.00     0.135 A 
ATOM     89  C   UNL A   1      44.864  30.476  42.594  1.00  0.00     0.135 A 
ATOM     90  F   UNL A   1      45.260  34.070  42.232  1.00  0.00    -0.206 F 
ATOM     91  C   UNL A   1      46.339  32.577  43.684  1.00  0.00     0.059 A 
ATOM     92  C   UNL A   1      45.759  30.222  43.633  1.00  0.00     0.059 A 
ATOM     93  F   UNL A   1      44.148  29.450  42.110  1.00  0.00    -0.206 F 
ATOM     94  C   UNL A   1      46.500  31.278  44.164  1.00  0.00     0.060 A 
BRANCH  94  95
ATOM     95  S   UNL A   1      47.663  30.994  45.518  1.00  0.00     0.124 S 
ATOM     96  O   UNL A   1      48.925  30.850  44.801  1.00  0.00    -0.237 OA
ATOM     97  O   UNL A   1      47.511  32.211  46.308  1.00  0.00    -0.237 OA
ATOM     98  O   UNL A   1      47.154  29.778  46.146  1.00  0.00    -0.744 OA
ENDBRANCH  94  95
ENDBRANCH  62  87
BRANCH  74  99
ATOM     99  C   UNL A   1      37.717  32.378  41.964  1.00  0.00     0.058 A 
ATOM    100  C   UNL A   1      37.294  31.160  42.513  1.00  0.00     0.135 A 
ATOM    101  C   UNL A   1      37.187  33.566  42.494  1.00  0.00     0.135 A 
ATOM    102  F   UNL A   1      37.778  29.998  42.045  1.00  0.00    -0.206 F 
ATOM    103  C   UNL A   1      36.329  31.117  43.509  1.00  0.00     0.059 A 
ATOM    104  C   UNL A   1      36.264  33.549  43.527  1.00  0.00     0.059 A 
ATOM    105  F   UNL A   1      37.579  34.759  42.017  1.00  0.00    -0.206 F 
ATOM    106  C   UNL A   1      35.821  32.318  44.009  1.00  0.00     0.060 A 
BRANCH 106 107
ATOM    107  S   UNL A   1      34.570  32.248  45.301  1.00  0.00     0.124 S 
ATOM    108  O   UNL A   1      33.346  32.134  44.515  1.00  0.00    -0.237 OA
ATOM    109  O   UNL A   1      34.962  31.054  46.044  1.00  0.00    -0.237 OA
ATOM    110  O   UNL A   1      34.743  33.510  46.014  1.00  0.00    -0.744 OA
ENDBRANCH 106 107
ENDBRANCH  74  99
ENDBRANCH  48  49
ENDBRANCH  41  43
ENDBRANCH  40  41
ENDBRANCH  39  40
ENDBRANCH   1  39
TORSDOF 18
ENDMDL
MODEL 2
REMARK VINA RESULT:     -11.8      6.235     13.887
REMARK SMILES CC1(C)CC[C@@]2(C(=O)OCCOCCOC(=O)c3ccc(-c4c5nc(c(-c6c(F)cc(S(=O)(=O)[O-])cc6F)c6ccc([nH]6)c(-c6c(F)cc(S(=O)(=O)[O-])cc6F)c6nc(c(-c7c(F)cc(S(=O)(=O)[O-])cc7F)c7ccc4[nH]7)C=C6)C=C5)cc3)CC[C@@]3(C)C(=CC[C@H]4[C@@]5(C)CC[C@H](O)C(C)(C)[C@@H]5CC[C@@]43C)[C@@H]2C1
REMARK SMILES IDX 13 1 12 2 11 3 10 4 9 5 7 6 8 7 6 8 1 9 2 10 3 11 4 12
REMARK SMILES IDX 107 13 5 14 106 15 88 16 84 17 86 18 89 19 85 20 87 21
REMARK SMILES IDX 104 22 90 23 91 24 103 25 105 26 92 27 102 28 93 29 94 30
REMARK SMILES IDX 101 31 95 32 98 33 96 34 99 35 100 36 97 37 14 39 15 40
REMARK SMILES IDX 16 41 17 42 18 43 19 44 83 45 20 46 82 47 21 48 22 49 23 50
REMARK SMILES IDX 76 51 24 52 81 53 75 54 77 55 25 56 80 57 74 58 73 59 26 61
REMARK SMILES IDX 60 62 39 63 59 64 40 65 43 66 58 67 78 68 41 69 42 70 57 72
REMARK SMILES IDX 79 73 44 74 27 75 28 76 37 77 29 78 30 79 36 80 38 81 31 82
REMARK SMILES IDX 32 83 33 84 34 85 35 86 61 87 62 88 71 89 63 90 64 91 70 92
REMARK SMILES IDX 72 93 65 94 66 95 67 96 68 97 69 98 45 99 46 100 55 101
REMARK SMILES IDX 47 102 48 103 54 104 56 105 49 106 50 107 51 108 52 109
REMARK SMILES IDX 53 110
REMARK H PARENT 97 38 77 60 43 71
REMARK Flexibility Score: inf
ROOT
ATOM      1  C   UNL A   1      48.493  30.526  38.599  1.00  0.00     0.202 C 
ENDROOT
BRANCH   1   2
ATOM      2  O   UNL A   1      47.404  29.010  37.939  1.00  0.00    -0.374 OA
BRANCH   2   3
ATOM      3  C   UNL A   1      46.691  27.904  39.371  1.00  0.00     0.202 C 
BRANCH   3   4
ATOM      4  C   UNL A   1      45.632  26.150  38.749  1.00  0.00     0.261 C 
BRANCH   4   5
ATOM      5  O   UNL A   1      45.041  25.799  37.452  1.00  0.00    -0.463 OA
BRANCH   5   6
ATOM      6  C   UNL A   1      45.205  26.174  36.197  1.00  0.00     0.312 C 
ATOM      7  O   UNL A   1      46.338  26.443  35.798  1.00  0.00    -0.252 OA
BRANCH   6   8
ATOM      8  C   UNL A   1      43.961  26.527  35.439  1.00  0.00     0.075 C 
ATOM      9  C   UNL A   1      43.771  30.115  33.961  1.00  0.00     0.011 C 
ATOM     10  C   UNL A   1      44.863  29.283  34.615  1.00  0.00    -0.035 C 
ATOM     11  C   UNL A   1      46.180  30.108  34.674  1.00  0.00     0.011 C 
ATOM     12  C   UNL A   1      44.513  28.904  36.062  1.00  0.00     0.007 C 
ATOM     13  C   UNL A   1      45.100  28.050  33.726  1.00  0.00     0.015 C 
ATOM     14  C   UNL A   1      43.463  27.794  36.162  1.00  0.00     0.020 C 
ATOM     15  C   UNL A   1      44.165  26.770  33.915  1.00  0.00     0.033 C 
ATOM     16  C   UNL A   1      44.600  25.377  33.049  1.00  0.00    -0.063 C 
ATOM     17  C   UNL A   1      43.072  25.309  35.681  1.00  0.00     0.020 C 
ATOM     18  C   UNL A   1      44.942  24.003  34.296  1.00  0.00    -0.006 C 
ATOM     19  C   UNL A   1      45.500  25.534  31.922  1.00  0.00    -0.027 C 
ATOM     20  C   UNL A   1      43.927  24.033  35.576  1.00  0.00     0.013 C 
ATOM     21  C   UNL A   1      43.719  23.250  33.259  1.00  0.00     0.017 C 
ATOM     22  C   UNL A   1      46.960  23.563  34.770  1.00  0.00    -0.020 C 
ATOM     23  C   UNL A   1      47.342  25.630  32.084  1.00  0.00     0.032 C 
ATOM     24  C   UNL A   1      48.230  24.836  33.638  1.00  0.00     0.006 C 
ATOM     25  C   UNL A   1      48.633  22.493  35.688  1.00  0.00     0.008 C 
ATOM     26  C   UNL A   1      45.596  22.071  34.194  1.00  0.00     0.012 C 
ATOM     27  C   UNL A   1      49.334  25.985  34.898  1.00  0.00    -0.025 C 
ATOM     28  C   UNL A   1      49.800  23.699  36.858  1.00  0.00     0.005 C 
ATOM     29  C   UNL A   1      51.016  25.682  35.084  1.00  0.00     0.012 C 
ATOM     30  C   UNL A   1      48.902  27.472  34.779  1.00  0.00     0.010 C 
ATOM     31  C   UNL A   1      49.500  25.616  36.674  1.00  0.00     0.003 C 
ATOM     32  C   UNL A   1      49.924  28.494  35.160  1.00  0.00     0.033 C 
ATOM     33  C   UNL A   1      50.701  26.882  37.279  1.00  0.00    -0.006 C 
ATOM     34  C   UNL A   1      50.494  28.343  36.566  1.00  0.00     0.120 C 
ATOM     35  C   UNL A   1      52.297  26.546  37.304  1.00  0.00     0.014 C 
ATOM     36  C   UNL A   1      50.513  27.162  38.782  1.00  0.00     0.014 C 
BRANCH  34  37
ATOM     37  O   UNL A   1      51.722  29.097  36.594  1.00  0.00    -0.393 OA
ATOM     38  H   UNL A   1      51.988  29.246  37.515  1.00  0.00     0.210 HD
ENDBRANCH  34  37
ENDBRANCH   6   8
ENDBRANCH   5   6
ENDBRANCH   4   5
ENDBRANCH   3   4
ENDBRANCH   2   3
ENDBRANCH   1   2
BRANCH   1  39
ATOM     39  C   UNL A   1      47.488  32.085  37.934  1.00  0.00     0.261 C 
BRANCH  39  40
ATOM     40  O   UNL A   1      48.408  32.470  36.225  1.00  0.00    -0.460 OA
BRANCH  40  41
ATOM     41  C   UNL A   1      49.674  32.102  35.039  1.00  0.00     0.338 C 
ATOM     42  O   UNL A   1      50.835  31.825  35.348  1.00  0.00    -0.246 OA
BRANCH  41  43
ATOM     43  C   UNL A   1      49.398  31.926  33.211  1.00  0.00     0.060 A 
ATOM     44  C   UNL A   1      48.962  32.806  32.216  1.00  0.00     0.016 A 
ATOM     45  C   UNL A   1      49.448  30.724  32.541  1.00  0.00     0.016 A 
ATOM     46  C   UNL A   1      48.244  32.297  30.996  1.00  0.00     0.010 A 
ATOM     47  C   UNL A   1      48.333  30.226  31.869  1.00  0.00     0.010 A 
ATOM     48  C   UNL A   1      47.714  30.993  30.959  1.00  0.00    -0.014 A 
BRANCH  48  49
ATOM     49  C   UNL A   1      46.962  30.094  30.008  1.00  0.00     0.031 A 
ATOM     50  C   UNL A   1      47.596  29.515  28.739  1.00  0.00     0.074 A 
ATOM     51  C   UNL A   1      45.619  30.236  29.872  1.00  0.00     0.049 A 
ATOM     52  N   UNL A   1      47.347  28.367  28.166  1.00  0.00    -0.248 NA
ATOM     53  C   UNL A   1      48.564  30.332  27.971  1.00  0.00     0.031 C 
ATOM     54  C   UNL A   1      44.778  31.226  30.562  1.00  0.00     0.029 A 
ATOM     55  N   UNL A   1      44.718  29.535  29.103  1.00  0.00    -0.354 N 
ATOM     56  C   UNL A   1      48.268  28.244  27.123  1.00  0.00     0.074 A 
ATOM     57  C   UNL A   1      48.966  29.497  27.018  1.00  0.00     0.031 C 
ATOM     58  C   UNL A   1      43.484  30.941  30.336  1.00  0.00     0.029 A 
ATOM     59  C   UNL A   1      43.422  29.728  29.534  1.00  0.00     0.049 A 
ATOM     60  H   UNL A   1      44.967  28.967  28.339  1.00  0.00     0.167 HD
ATOM     61  C   UNL A   1      48.497  27.154  26.349  1.00  0.00     0.037 A 
ATOM     62  C   UNL A   1      42.365  28.900  29.436  1.00  0.00     0.037 A 
ATOM     63  C   UNL A   1      47.529  26.092  26.305  1.00  0.00     0.049 A 
ATOM     64  C   UNL A   1      42.595  27.571  28.757  1.00  0.00     0.074 A 
ATOM     65  C   UNL A   1      47.566  24.855  25.696  1.00  0.00     0.029 A 
ATOM     66  N   UNL A   1      46.261  26.230  26.861  1.00  0.00    -0.354 N 
ATOM     67  N   UNL A   1      43.667  27.134  28.129  1.00  0.00    -0.248 NA
ATOM     68  C   UNL A   1      41.500  26.601  28.828  1.00  0.00     0.031 C 
ATOM     69  C   UNL A   1      46.289  24.282  25.826  1.00  0.00     0.029 A 
ATOM     70  C   UNL A   1      45.493  25.124  26.592  1.00  0.00     0.049 A 
ATOM     71  H   UNL A   1      45.957  27.013  27.374  1.00  0.00     0.167 HD
ATOM     72  C   UNL A   1      43.390  25.820  27.765  1.00  0.00     0.074 A 
ATOM     73  C   UNL A   1      42.056  25.537  28.265  1.00  0.00     0.031 C 
ATOM     74  C   UNL A   1      44.153  24.917  27.090  1.00  0.00     0.037 A 
BRANCH  61  75
ATOM     75  C   UNL A   1      49.787  27.082  25.565  1.00  0.00     0.058 A 
ATOM     76  C   UNL A   1      49.807  27.415  24.193  1.00  0.00     0.135 A 
ATOM     77  C   UNL A   1      51.018  26.742  26.148  1.00  0.00     0.135 A 
ATOM     78  F   UNL A   1      48.673  27.775  23.569  1.00  0.00    -0.206 F 
ATOM     79  C   UNL A   1      50.972  27.368  23.431  1.00  0.00     0.059 A 
ATOM     80  C   UNL A   1      52.206  26.714  25.408  1.00  0.00     0.059 A 
ATOM     81  F   UNL A   1      51.087  26.420  27.449  1.00  0.00    -0.206 F 
ATOM     82  C   UNL A   1      52.170  27.013  24.047  1.00  0.00     0.060 A 
BRANCH  82  83
ATOM     83  S   UNL A   1      53.669  26.960  23.040  1.00  0.00     0.124 S 
ATOM     84  O   UNL A   1      53.247  26.117  21.924  1.00  0.00    -0.237 OA
ATOM     85  O   UNL A   1      53.881  28.368  22.721  1.00  0.00    -0.237 OA
ATOM     86  O   UNL A   1      54.660  26.366  23.931  1.00  0.00    -0.744 OA
ENDBRANCH  82  83
ENDBRANCH  61  75
BRANCH  62  87
ATOM     87  C   UNL A   1      41.129  29.180  30.225  1.00  0.00     0.058 A 
ATOM     88  C   UNL A   1      40.027  29.828  29.635  1.00  0.00     0.135 A 
ATOM     89  C   UNL A   1      40.993  28.762  31.555  1.00  0.00     0.135 A 
ATOM     90  F   UNL A   1      40.089  30.227  28.355  1.00  0.00    -0.206 F 
ATOM     91  C   UNL A   1      38.855  30.081  30.343  1.00  0.00     0.059 A 
ATOM     92  C   UNL A   1      39.821  28.981  32.277  1.00  0.00     0.059 A 
ATOM     93  F   UNL A   1      41.994  28.100  32.155  1.00  0.00    -0.206 F 
ATOM     94  C   UNL A   1      38.762  29.651  31.666  1.00  0.00     0.060 A 
BRANCH  94  95
ATOM     95  S   UNL A   1      37.220  29.945  32.564  1.00  0.00     0.124 S 
ATOM     96  O   UNL A   1      36.252  30.018  31.476  1.00  0.00    -0.237 OA
ATOM     97  O   UNL A   1      37.137  28.764  33.417  1.00  0.00    -0.237 OA
ATOM     98  O   UNL A   1      37.476  31.200  33.265  1.00  0.00    -0.744 OA
ENDBRANCH  94  95
ENDBRANCH  62  87
BRANCH  74  99
ATOM     99  C   UNL A   1      43.569  23.552  26.885  1.00  0.00     0.058 A 
ATOM    100  C   UNL A   1      43.100  23.124  25.635  1.00  0.00     0.135 A 
ATOM    101  C   UNL A   1      43.522  22.647  27.958  1.00  0.00     0.135 A 
ATOM    102  F   UNL A   1      43.132  23.951  24.577  1.00  0.00    -0.206 F 
ATOM    103  C   UNL A   1      42.542  21.865  25.470  1.00  0.00     0.059 A 
ATOM    104  C   UNL A   1      43.020  21.364  27.802  1.00  0.00     0.059 A 
ATOM    105  F   UNL A   1      43.981  23.002  29.169  1.00  0.00    -0.206 F 
ATOM    106  C   UNL A   1      42.508  20.993  26.560  1.00  0.00     0.060 A 
BRANCH 106 107
ATOM    107  S   UNL A   1      41.781  19.362  26.331  1.00  0.00     0.124 S 
ATOM    108  O   UNL A   1      42.446  18.916  25.111  1.00  0.00    -0.237 OA
ATOM    109  O   UNL A   1      42.174  18.675  27.558  1.00  0.00    -0.237 OA
ATOM    110  O   UNL A   1      40.353  19.639  26.202  1.00  0.00    -0.744 OA
ENDBRANCH 106 107
ENDBRANCH  74  99
ENDBRANCH  48  49
ENDBRANCH  41  43
ENDBRANCH  40  41
ENDBRANCH  39  40
ENDBRANCH   1  39
TORSDOF 18
ENDMDL
MODEL 3
REMARK VINA RESULT:     -11.7      5.594     11.477
REMARK SMILES CC1(C)CC[C@@]2(C(=O)OCCOCCOC(=O)c3ccc(-c4c5nc(c(-c6c(F)cc(S(=O)(=O)[O-])cc6F)c6ccc([nH]6)c(-c6c(F)cc(S(=O)(=O)[O-])cc6F)c6nc(c(-c7c(F)cc(S(=O)(=O)[O-])cc7F)c7ccc4[nH]7)C=C6)C=C5)cc3)CC[C@@]3(C)C(=CC[C@H]4[C@@]5(C)CC[C@H](O)C(C)(C)[C@@H]5CC[C@@]43C)[C@@H]2C1
REMARK SMILES IDX 13 1 12 2 11 3 10 4 9 5 7 6 8 7 6 8 1 9 2 10 3 11 4 12
REMARK SMILES IDX 107 13 5 14 106 15 88 16 84 17 86 18 89 19 85 20 87 21
REMARK SMILES IDX 104 22 90 23 91 24 103 25 105 26 92 27 102 28 93 29 94 30
REMARK SMILES IDX 101 31 95 32 98 33 96 34 99 35 100 36 97 37 14 39 15 40
REMARK SMILES IDX 16 41 17 42 18 43 19 44 83 45 20 46 82 47 21 48 22 49 23 50
REMARK SMILES IDX 76 51 24 52 81 53 75 54 77 55 25 56 80 57 74 58 73 59 26 61
REMARK SMILES IDX 60 62 39 63 59 64 40 65 43 66 58 67 78 68 41 69 42 70 57 72
REMARK SMILES IDX 79 73 44 74 27 75 28 76 37 77 29 78 30 79 36 80 38 81 31 82
REMARK SMILES IDX 32 83 33 84 34 85 35 86 61 87 62 88 71 89 63 90 64 91 70 92
REMARK SMILES IDX 72 93 65 94 66 95 67 96 68 97 69 98 45 99 46 100 55 101
REMARK SMILES IDX 47 102 48 103 54 104 56 105 49 106 50 107 51 108 52 109
REMARK SMILES IDX 53 110
REMARK H PARENT 97 38 77 60 43 71
REMARK Flexibility Score: inf
ROOT
ATOM      1  C   UNL A   1      49.428  33.932  25.995  1.00  0.00     0.202 C 
ENDROOT
BRANCH   1   2
ATOM      2  O   UNL A   1      50.340  35.155  27.259  1.00  0.00    -0.374 OA
BRANCH   2   3
ATOM      3  C   UNL A   1      49.208  36.623  27.847  1.00  0.00     0.202 C 
BRANCH   3   4
ATOM      4  C   UNL A   1      48.458  36.473  29.847  1.00  0.00     0.261 C 
BRANCH   4   5
ATOM      5  O   UNL A   1      47.360  35.671  30.399  1.00  0.00    -0.463 OA
BRANCH   5   6
ATOM      6  C   UNL A   1      46.041  35.701  30.353  1.00  0.00     0.312 C 
ATOM      7  O   UNL A   1      45.472  36.791  30.284  1.00  0.00    -0.252 OA
BRANCH   6   8
ATOM      8  C   UNL A   1      45.333  34.423  30.685  1.00  0.00     0.075 C 
ATOM      9  C   UNL A   1      42.758  34.553  33.592  1.00  0.00     0.011 C 
ATOM     10  C   UNL A   1      43.545  35.594  32.811  1.00  0.00    -0.035 C 
ATOM     11  C   UNL A   1      43.194  37.014  33.339  1.00  0.00     0.011 C 
ATOM     12  C   UNL A   1      45.062  35.420  32.982  1.00  0.00     0.007 C 
ATOM     13  C   UNL A   1      43.105  35.499  31.340  1.00  0.00     0.015 C 
ATOM     14  C   UNL A   1      45.632  34.242  32.187  1.00  0.00     0.020 C 
ATOM     15  C   UNL A   1      43.804  34.421  30.393  1.00  0.00     0.033 C 
ATOM     16  C   UNL A   1      43.420  34.499  28.742  1.00  0.00    -0.063 C 
ATOM     17  C   UNL A   1      46.056  33.407  29.803  1.00  0.00     0.020 C 
ATOM     18  C   UNL A   1      45.018  34.818  27.789  1.00  0.00    -0.006 C 
ATOM     19  C   UNL A   1      42.224  35.225  28.358  1.00  0.00    -0.027 C 
ATOM     20  C   UNL A   1      46.305  34.031  28.417  1.00  0.00     0.013 C 
ATOM     21  C   UNL A   1      44.419  33.348  27.003  1.00  0.00     0.017 C 
ATOM     22  C   UNL A   1      45.414  36.794  27.136  1.00  0.00    -0.020 C 
ATOM     23  C   UNL A   1      42.165  37.063  28.138  1.00  0.00     0.032 C 
ATOM     24  C   UNL A   1      43.802  38.051  27.716  1.00  0.00     0.006 C 
ATOM     25  C   UNL A   1      46.472  38.407  26.104  1.00  0.00     0.008 C 
ATOM     26  C   UNL A   1      45.510  35.146  25.835  1.00  0.00     0.012 C 
ATOM     27  C   UNL A   1      44.487  39.500  28.964  1.00  0.00    -0.025 C 
ATOM     28  C   UNL A   1      47.048  39.913  27.364  1.00  0.00     0.005 C 
ATOM     29  C   UNL A   1      44.600  41.124  28.412  1.00  0.00     0.012 C 
ATOM     30  C   UNL A   1      43.917  39.286  30.392  1.00  0.00     0.010 C 
ATOM     31  C   UNL A   1      46.259  39.883  29.146  1.00  0.00     0.003 C 
ATOM     32  C   UNL A   1      43.830  40.499  31.262  1.00  0.00     0.033 C 
ATOM     33  C   UNL A   1      46.282  41.341  30.278  1.00  0.00    -0.006 C 
ATOM     34  C   UNL A   1      45.142  41.250  31.452  1.00  0.00     0.120 C 
ATOM     35  C   UNL A   1      46.264  42.852  29.663  1.00  0.00     0.014 C 
ATOM     36  C   UNL A   1      47.614  41.435  31.047  1.00  0.00     0.014 C 
BRANCH  34  37
ATOM     37  O   UNL A   1      44.796  42.568  31.922  1.00  0.00    -0.393 OA
ATOM     38  H   UNL A   1      43.884  42.775  31.663  1.00  0.00     0.210 HD
ENDBRANCH  34  37
ENDBRANCH   6   8
ENDBRANCH   5   6
ENDBRANCH   4   5
ENDBRANCH   3   4
ENDBRANCH   2   3
ENDBRANCH   1   2
BRANCH   1  39
ATOM     39  C   UNL A   1      49.182  32.309  27.086  1.00  0.00     0.261 C 
BRANCH  39  40
ATOM     40  O   UNL A   1      47.419  31.659  26.465  1.00  0.00    -0.460 OA
BRANCH  40  41
ATOM     41  C   UNL A   1      46.315  30.324  26.087  1.00  0.00     0.338 C 
ATOM     42  O   UNL A   1      46.327  29.713  25.016  1.00  0.00    -0.246 OA
BRANCH  41  43
ATOM     43  C   UNL A   1      45.117  29.566  27.287  1.00  0.00     0.060 A 
ATOM     44  C   UNL A   1      43.840  29.015  27.151  1.00  0.00     0.016 A 
ATOM     45  C   UNL A   1      45.286  29.584  28.654  1.00  0.00     0.016 A 
ATOM     46  C   UNL A   1      42.860  29.047  28.292  1.00  0.00     0.010 A 
ATOM     47  C   UNL A   1      44.364  30.216  29.486  1.00  0.00     0.010 A 
ATOM     48  C   UNL A   1      43.066  29.890  29.401  1.00  0.00    -0.014 A 
BRANCH  48  49
ATOM     49  C   UNL A   1      42.398  30.238  30.707  1.00  0.00     0.031 A 
ATOM     50  C   UNL A   1      42.933  29.765  32.063  1.00  0.00     0.074 A 
ATOM     51  C   UNL A   1      41.055  30.433  30.744  1.00  0.00     0.049 A 
ATOM     52  N   UNL A   1      42.866  30.380  33.215  1.00  0.00    -0.248 NA
ATOM     53  C   UNL A   1      43.544  28.421  32.175  1.00  0.00     0.031 C 
ATOM     54  C   UNL A   1      40.131  30.316  29.605  1.00  0.00     0.029 A 
ATOM     55  N   UNL A   1      40.228  30.779  31.788  1.00  0.00    -0.354 N 
ATOM     56  C   UNL A   1      43.606  29.607  34.113  1.00  0.00     0.074 A 
ATOM     57  C   UNL A   1      43.968  28.392  33.435  1.00  0.00     0.031 C 
ATOM     58  C   UNL A   1      38.921  30.771  29.969  1.00  0.00     0.029 A 
ATOM     59  C   UNL A   1      39.011  31.249  31.340  1.00  0.00     0.049 A 
ATOM     60  H   UNL A   1      40.473  30.698  32.738  1.00  0.00     0.167 HD
ATOM     61  C   UNL A   1      43.953  29.926  35.384  1.00  0.00     0.037 A 
ATOM     62  C   UNL A   1      38.174  32.125  31.928  1.00  0.00     0.037 A 
ATOM     63  C   UNL A   1      43.264  30.987  36.068  1.00  0.00     0.049 A 
ATOM     64  C   UNL A   1      38.593  32.681  33.268  1.00  0.00     0.074 A 
ATOM     65  C   UNL A   1      43.487  31.568  37.300  1.00  0.00     0.029 A 
ATOM     66  N   UNL A   1      42.107  31.564  35.554  1.00  0.00    -0.354 N 
ATOM     67  N   UNL A   1      39.618  32.346  34.022  1.00  0.00    -0.248 NA
ATOM     68  C   UNL A   1      37.779  33.774  33.806  1.00  0.00     0.031 C 
ATOM     69  C   UNL A   1      42.417  32.444  37.553  1.00  0.00     0.029 A 
ATOM     70  C   UNL A   1      41.583  32.471  36.442  1.00  0.00     0.049 A 
ATOM     71  H   UNL A   1      41.718  31.350  34.675  1.00  0.00     0.167 HD
ATOM     72  C   UNL A   1      39.598  33.217  35.107  1.00  0.00     0.074 A 
ATOM     73  C   UNL A   1      38.467  34.102  34.890  1.00  0.00     0.031 C 
ATOM     74  C   UNL A   1      40.429  33.298  36.182  1.00  0.00     0.037 A 
BRANCH  61  75
ATOM     75  C   UNL A   1      45.078  29.159  36.042  1.00  0.00     0.058 A 
ATOM     76  C   UNL A   1      46.417  29.569  35.866  1.00  0.00     0.135 A 
ATOM     77  C   UNL A   1      44.861  28.059  36.887  1.00  0.00     0.135 A 
ATOM     78  F   UNL A   1      46.704  30.628  35.092  1.00  0.00    -0.206 F 
ATOM     79  C   UNL A   1      47.485  28.896  36.456  1.00  0.00     0.059 A 
ATOM     80  C   UNL A   1      45.916  27.385  37.511  1.00  0.00     0.059 A 
ATOM     81  F   UNL A   1      43.615  27.612  37.113  1.00  0.00    -0.206 F 
ATOM     82  C   UNL A   1      47.226  27.802  37.277  1.00  0.00     0.060 A 
BRANCH  82  83
ATOM     83  S   UNL A   1      48.627  26.946  38.033  1.00  0.00     0.124 S 
ATOM     84  O   UNL A   1      48.227  26.906  39.437  1.00  0.00    -0.237 OA
ATOM     85  O   UNL A   1      48.619  25.663  37.338  1.00  0.00    -0.237 OA
ATOM     86  O   UNL A   1      49.761  27.813  37.731  1.00  0.00    -0.744 OA
ENDBRANCH  82  83
ENDBRANCH  61  75
BRANCH  62  87
ATOM     87  C   UNL A   1      37.053  32.719  31.140  1.00  0.00     0.058 A 
ATOM     88  C   UNL A   1      37.300  33.701  30.162  1.00  0.00     0.135 A 
ATOM     89  C   UNL A   1      35.731  32.287  31.300  1.00  0.00     0.135 A 
ATOM     90  F   UNL A   1      38.551  34.135  29.946  1.00  0.00    -0.206 F 
ATOM     91  C   UNL A   1      36.274  34.255  29.400  1.00  0.00     0.059 A 
ATOM     92  C   UNL A   1      34.691  32.807  30.530  1.00  0.00     0.059 A 
ATOM     93  F   UNL A   1      35.443  31.321  32.185  1.00  0.00    -0.206 F 
ATOM     94  C   UNL A   1      34.970  33.798  29.590  1.00  0.00     0.060 A 
BRANCH  94  95
ATOM     95  S   UNL A   1      33.653  34.490  28.565  1.00  0.00     0.124 S 
ATOM     96  O   UNL A   1      32.626  34.783  29.558  1.00  0.00    -0.237 OA
ATOM     97  O   UNL A   1      34.311  35.646  27.964  1.00  0.00    -0.237 OA
ATOM     98  O   UNL A   1      33.342  33.404  27.641  1.00  0.00    -0.744 OA
ENDBRANCH  94  95
ENDBRANCH  62  87
BRANCH  74  99
ATOM     99  C   UNL A   1      40.153  34.388  37.174  1.00  0.00     0.058 A 
ATOM    100  C   UNL A   1      40.748  35.653  37.074  1.00  0.00     0.135 A 
ATOM    101  C   UNL A   1      39.240  34.164  38.218  1.00  0.00     0.135 A 
ATOM    102  F   UNL A   1      41.621  35.918  36.088  1.00  0.00    -0.206 F 
ATOM    103  C   UNL A   1      40.498  36.641  38.015  1.00  0.00     0.059 A 
ATOM    104  C   UNL A   1      38.933  35.155  39.136  1.00  0.00     0.059 A 
ATOM    105  F   UNL A   1      38.626  32.976  38.342  1.00  0.00    -0.206 F 
ATOM    106  C   UNL A   1      39.588  36.381  39.041  1.00  0.00     0.060 A 
BRANCH 106 107
ATOM    107  S   UNL A   1      39.274  37.673  40.254  1.00  0.00     0.124 S 
ATOM    108  O   UNL A   1      38.903  36.887  41.427  1.00  0.00    -0.237 OA
ATOM    109  O   UNL A   1      40.565  38.350  40.325  1.00  0.00    -0.237 OA
ATOM    110  O   UNL A   1      38.194  38.451  39.654  1.00  0.00    -0.744 OA
ENDBRANCH 106 107
ENDBRANCH  74  99
ENDBRANCH  48  49
ENDBRANCH  41  43
ENDBRANCH  40  41
ENDBRANCH  39  40
ENDBRANCH   1  39
TORSDOF 18
ENDMDL
