MODEL 1
REMARK VINA RESULT:     -11.5      0.000      0.000
REMARK SMILES Cc1cc(C(=O)OCCOCCOC(=O)c2ccc(-c3c4nc(c(-c5c(F)cc(S(=O)(=O)[O-])cc5F)c5ccc([nH]5)c(-c5c(F)cc(S(=O)(=O)[O-])cc5F)c5nc(c(-c6c(F)cc(S(=O)(=O)[O-])cc6F)c6ccc3[nH]6)C=C5)C=C4)cc2)nn1[C@H]1CCS(=O)(=O)C1
REMARK SMILES IDX 11 1 10 2 9 3 8 4 7 5 5 6 6 7 4 8 1 9 2 10 3 11 83 12 82 13
REMARK SMILES IDX 84 14 85 15 90 16 86 17 87 18 88 19 89 20 12 21 13 22 14 23
REMARK SMILES IDX 15 24 16 25 17 26 81 27 18 28 80 29 19 30 20 31 21 32 74 33
REMARK SMILES IDX 22 34 79 35 73 36 75 37 23 38 78 39 72 40 71 41 24 43 58 44
REMARK SMILES IDX 37 45 57 46 38 47 41 48 56 49 76 50 39 51 40 52 55 54 77 55
REMARK SMILES IDX 42 56 25 57 26 58 35 59 27 60 28 61 34 62 36 63 29 64 30 65
REMARK SMILES IDX 31 66 32 67 33 68 59 69 60 70 69 71 61 72 62 73 68 74 70 75
REMARK SMILES IDX 63 76 64 77 65 78 66 79 67 80 43 81 44 82 53 83 45 84 46 85
REMARK SMILES IDX 52 86 54 87 47 88 48 89 49 90 50 91 51 92
REMARK H PARENT 75 42 41 53
REMARK Flexibility Score: inf
ROOT
ATOM      1  C   UNL A   1      42.182  18.832  26.530  1.00  0.00     0.202 C 
ENDROOT
BRANCH   1   2
ATOM      2  O   UNL A   1      41.016  19.480  26.029  1.00  0.00    -0.374 OA
BRANCH   2   3
ATOM      3  C   UNL A   1      40.471  20.592  26.736  1.00  0.00     0.202 C 
BRANCH   3   4
ATOM      4  C   UNL A   1      39.736  21.655  25.917  1.00  0.00     0.261 C 
BRANCH   4   5
ATOM      5  O   UNL A   1      38.367  21.303  25.663  1.00  0.00    -0.458 OA
BRANCH   5   6
ATOM      6  C   UNL A   1      37.486  22.353  25.665  1.00  0.00     0.358 C 
ATOM      7  O   UNL A   1      37.816  23.526  25.545  1.00  0.00    -0.244 OA
BRANCH   6   8
ATOM      8  C   UNL A   1      36.089  21.901  25.754  1.00  0.00     0.170 A 
ATOM      9  C   UNL A   1      32.437  22.169  26.149  1.00  0.00     0.066 C 
ATOM     10  C   UNL A   1      33.869  21.811  25.987  1.00  0.00     0.037 A 
ATOM     11  C   UNL A   1      34.969  22.606  26.249  1.00  0.00     0.061 A 
ATOM     12  N   UNL A   1      34.374  20.639  25.476  1.00  0.00    -0.265 N 
ATOM     13  N   UNL A   1      35.715  20.681  25.336  1.00  0.00    -0.165 NA
BRANCH  12  14
ATOM     14  C   UNL A   1      33.733  19.476  24.893  1.00  0.00     0.123 C 
ATOM     15  C   UNL A   1      32.916  19.787  23.617  1.00  0.00     0.044 C 
ATOM     16  C   UNL A   1      34.602  18.294  24.495  1.00  0.00     0.164 C 
ATOM     17  C   UNL A   1      32.308  18.461  23.163  1.00  0.00     0.139 C 
ATOM     18  S   UNL A   1      33.454  17.200  23.694  1.00  0.00     0.152 S 
ATOM     19  O   UNL A   1      32.813  16.400  24.717  1.00  0.00    -0.229 OA
ATOM     20  O   UNL A   1      34.094  16.609  22.540  1.00  0.00    -0.229 OA
ENDBRANCH  12  14
ENDBRANCH   6   8
ENDBRANCH   5   6
ENDBRANCH   4   5
ENDBRANCH   3   4
ENDBRANCH   2   3
ENDBRANCH   1   2
BRANCH   1  21
ATOM     21  C   UNL A   1      43.426  18.826  25.658  1.00  0.00     0.261 C 
BRANCH  21  22
ATOM     22  O   UNL A   1      43.391  19.836  24.662  1.00  0.00    -0.460 OA
BRANCH  22  23
ATOM     23  C   UNL A   1      44.620  20.269  24.290  1.00  0.00     0.338 C 
ATOM     24  O   UNL A   1      45.519  19.608  23.809  1.00  0.00    -0.246 OA
BRANCH  23  25
ATOM     25  C   UNL A   1      44.769  21.653  24.746  1.00  0.00     0.060 A 
ATOM     26  C   UNL A   1      45.695  21.884  25.767  1.00  0.00     0.016 A 
ATOM     27  C   UNL A   1      43.812  22.607  24.372  1.00  0.00     0.016 A 
ATOM     28  C   UNL A   1      45.539  23.011  26.541  1.00  0.00     0.010 A 
ATOM     29  C   UNL A   1      43.639  23.712  25.164  1.00  0.00     0.010 A 
ATOM     30  C   UNL A   1      44.462  23.864  26.277  1.00  0.00    -0.014 A 
BRANCH  30  31
ATOM     31  C   UNL A   1      44.326  25.070  27.066  1.00  0.00     0.031 A 
ATOM     32  C   UNL A   1      45.446  25.992  26.777  1.00  0.00     0.074 A 
ATOM     33  C   UNL A   1      43.222  25.330  27.796  1.00  0.00     0.049 A 
ATOM     34  N   UNL A   1      46.465  26.247  27.529  1.00  0.00    -0.248 NA
ATOM     35  C   UNL A   1      45.606  26.481  25.391  1.00  0.00     0.031 C 
ATOM     36  C   UNL A   1      41.994  24.526  27.838  1.00  0.00     0.029 A 
ATOM     37  N   UNL A   1      42.898  26.416  28.557  1.00  0.00    -0.354 N 
ATOM     38  C   UNL A   1      47.169  27.223  26.831  1.00  0.00     0.074 A 
ATOM     39  C   UNL A   1      46.798  27.078  25.454  1.00  0.00     0.031 C 
ATOM     40  C   UNL A   1      40.994  25.259  28.374  1.00  0.00     0.029 A 
ATOM     41  C   UNL A   1      41.533  26.527  28.833  1.00  0.00     0.049 A 
ATOM     42  H   UNL A   1      43.567  27.061  28.883  1.00  0.00     0.167 HD
ATOM     43  C   UNL A   1      47.582  28.338  27.495  1.00  0.00     0.037 A 
ATOM     44  C   UNL A   1      40.897  27.614  29.347  1.00  0.00     0.037 A 
ATOM     45  C   UNL A   1      47.558  28.110  28.917  1.00  0.00     0.049 A 
ATOM     46  C   UNL A   1      41.928  28.431  30.035  1.00  0.00     0.074 A 
ATOM     47  C   UNL A   1      48.280  27.380  29.835  1.00  0.00     0.029 A 
ATOM     48  N   UNL A   1      46.346  28.399  29.485  1.00  0.00    -0.354 N 
ATOM     49  N   UNL A   1      42.563  28.026  31.103  1.00  0.00    -0.248 NA
ATOM     50  C   UNL A   1      42.552  29.541  29.321  1.00  0.00     0.031 C 
ATOM     51  C   UNL A   1      47.417  27.174  30.952  1.00  0.00     0.029 A 
ATOM     52  C   UNL A   1      46.210  27.828  30.717  1.00  0.00     0.049 A 
ATOM     53  H   UNL A   1      45.656  28.953  29.055  1.00  0.00     0.167 HD
ATOM     54  C   UNL A   1      43.843  28.520  30.945  1.00  0.00     0.074 A 
ATOM     55  C   UNL A   1      43.736  29.568  29.938  1.00  0.00     0.031 C 
ATOM     56  C   UNL A   1      44.921  27.801  31.372  1.00  0.00     0.037 A 
BRANCH  43  57
ATOM     57  C   UNL A   1      47.437  29.750  26.949  1.00  0.00     0.058 A 
ATOM     58  C   UNL A   1      48.529  30.634  27.069  1.00  0.00     0.135 A 
ATOM     59  C   UNL A   1      46.206  30.358  26.606  1.00  0.00     0.135 A 
ATOM     60  F   UNL A   1      49.741  30.173  27.417  1.00  0.00    -0.206 F 
ATOM     61  C   UNL A   1      48.396  32.015  26.905  1.00  0.00     0.059 A 
ATOM     62  C   UNL A   1      46.064  31.722  26.389  1.00  0.00     0.059 A 
ATOM     63  F   UNL A   1      45.050  29.689  26.555  1.00  0.00    -0.206 F 
ATOM     64  C   UNL A   1      47.156  32.549  26.569  1.00  0.00     0.060 A 
BRANCH  64  65
ATOM     65  S   UNL A   1      46.961  34.328  26.393  1.00  0.00     0.124 S 
ATOM     66  O   UNL A   1      47.304  34.794  27.731  1.00  0.00    -0.237 OA
ATOM     67  O   UNL A   1      47.922  34.630  25.339  1.00  0.00    -0.237 OA
ATOM     68  O   UNL A   1      45.558  34.474  26.012  1.00  0.00    -0.744 OA
ENDBRANCH  64  65
ENDBRANCH  43  57
BRANCH  44  69
ATOM     69  C   UNL A   1      39.536  28.140  29.049  1.00  0.00     0.058 A 
ATOM     70  C   UNL A   1      38.529  28.174  30.034  1.00  0.00     0.135 A 
ATOM     71  C   UNL A   1      39.279  28.886  27.882  1.00  0.00     0.135 A 
ATOM     72  F   UNL A   1      38.689  27.502  31.184  1.00  0.00    -0.206 F 
ATOM     73  C   UNL A   1      37.370  28.949  29.897  1.00  0.00     0.059 A 
ATOM     74  C   UNL A   1      38.129  29.659  27.719  1.00  0.00     0.059 A 
ATOM     75  F   UNL A   1      40.187  28.962  26.898  1.00  0.00    -0.206 F 
ATOM     76  C   UNL A   1      37.190  29.710  28.743  1.00  0.00     0.060 A 
BRANCH  76  77
ATOM     77  S   UNL A   1      35.792  30.854  28.633  1.00  0.00     0.124 S 
ATOM     78  O   UNL A   1      35.615  31.252  30.025  1.00  0.00    -0.237 OA
ATOM     79  O   UNL A   1      36.304  31.884  27.736  1.00  0.00    -0.237 OA
ATOM     80  O   UNL A   1      34.722  30.026  28.080  1.00  0.00    -0.744 OA
ENDBRANCH  76  77
ENDBRANCH  44  69
BRANCH  56  81
ATOM     81  C   UNL A   1      44.733  26.861  32.520  1.00  0.00     0.058 A 
ATOM     82  C   UNL A   1      44.422  25.496  32.418  1.00  0.00     0.135 A 
ATOM     83  C   UNL A   1      44.972  27.380  33.801  1.00  0.00     0.135 A 
ATOM     84  F   UNL A   1      44.256  24.915  31.220  1.00  0.00    -0.206 F 
ATOM     85  C   UNL A   1      44.327  24.689  33.554  1.00  0.00     0.059 A 
ATOM     86  C   UNL A   1      44.915  26.590  34.940  1.00  0.00     0.059 A 
ATOM     87  F   UNL A   1      45.315  28.670  33.951  1.00  0.00    -0.206 F 
ATOM     88  C   UNL A   1      44.577  25.246  34.811  1.00  0.00     0.060 A 
BRANCH  88  89
ATOM     89  S   UNL A   1      44.510  24.199  36.279  1.00  0.00     0.124 S 
ATOM     90  O   UNL A   1      43.426  24.808  37.041  1.00  0.00    -0.237 OA
ATOM     91  O   UNL A   1      44.229  22.883  35.713  1.00  0.00    -0.237 OA
ATOM     92  O   UNL A   1      45.841  24.344  36.863  1.00  0.00    -0.744 OA
ENDBRANCH  88  89
ENDBRANCH  56  81
ENDBRANCH  30  31
ENDBRANCH  23  25
ENDBRANCH  22  23
ENDBRANCH  21  22
ENDBRANCH   1  21
TORSDOF 18
ENDMDL
MODEL 2
REMARK VINA RESULT:     -11.4      1.560      2.088
REMARK SMILES Cc1cc(C(=O)OCCOCCOC(=O)c2ccc(-c3c4nc(c(-c5c(F)cc(S(=O)(=O)[O-])cc5F)c5ccc([nH]5)c(-c5c(F)cc(S(=O)(=O)[O-])cc5F)c5nc(c(-c6c(F)cc(S(=O)(=O)[O-])cc6F)c6ccc3[nH]6)C=C5)C=C4)cc2)nn1[C@H]1CCS(=O)(=O)C1
REMARK SMILES IDX 11 1 10 2 9 3 8 4 7 5 5 6 6 7 4 8 1 9 2 10 3 11 83 12 82 13
REMARK SMILES IDX 84 14 85 15 90 16 86 17 87 18 88 19 89 20 12 21 13 22 14 23
REMARK SMILES IDX 15 24 16 25 17 26 81 27 18 28 80 29 19 30 20 31 21 32 74 33
REMARK SMILES IDX 22 34 79 35 73 36 75 37 23 38 78 39 72 40 71 41 24 43 58 44
REMARK SMILES IDX 37 45 57 46 38 47 41 48 56 49 76 50 39 51 40 52 55 54 77 55
REMARK SMILES IDX 42 56 25 57 26 58 35 59 27 60 28 61 34 62 36 63 29 64 30 65
REMARK SMILES IDX 31 66 32 67 33 68 59 69 60 70 69 71 61 72 62 73 68 74 70 75
REMARK SMILES IDX 63 76 64 77 65 78 66 79 67 80 43 81 44 82 53 83 45 84 46 85
REMARK SMILES IDX 52 86 54 87 47 88 48 89 49 90 50 91 51 92
REMARK H PARENT 75 42 41 53
REMARK Flexibility Score: inf
ROOT
ATOM      1  C   UNL A   1      42.371  18.843  26.571  1.00  0.00     0.202 C 
ENDROOT
BRANCH   1   2
ATOM      2  O   UNL A   1      42.123  20.075  27.242  1.00  0.00    -0.374 OA
BRANCH   2   3
ATOM      3  C   UNL A   1      40.806  20.622  27.247  1.00  0.00     0.202 C 
BRANCH   3   4
ATOM      4  C   UNL A   1      40.460  21.636  26.157  1.00  0.00     0.261 C 
BRANCH   4   5
ATOM      5  O   UNL A   1      39.133  21.454  25.638  1.00  0.00    -0.458 OA
BRANCH   5   6
ATOM      6  C   UNL A   1      38.253  22.465  25.922  1.00  0.00     0.358 C 
ATOM      7  O   UNL A   1      38.584  23.564  26.349  1.00  0.00    -0.244 OA
BRANCH   6   8
ATOM      8  C   UNL A   1      36.868  22.104  25.582  1.00  0.00     0.170 A 
ATOM      9  C   UNL A   1      33.985  19.919  24.890  1.00  0.00     0.066 C 
ATOM     10  C   UNL A   1      34.992  20.989  25.106  1.00  0.00     0.037 A 
ATOM     11  C   UNL A   1      36.366  20.852  25.162  1.00  0.00     0.061 A 
ATOM     12  N   UNL A   1      34.743  22.316  25.364  1.00  0.00    -0.265 N 
ATOM     13  N   UNL A   1      35.870  23.000  25.647  1.00  0.00    -0.165 NA
BRANCH  12  14
ATOM     14  C   UNL A   1      33.510  23.052  25.576  1.00  0.00     0.123 C 
ATOM     15  C   UNL A   1      32.408  22.736  24.538  1.00  0.00     0.044 C 
ATOM     16  C   UNL A   1      32.807  22.916  26.916  1.00  0.00     0.164 C 
ATOM     17  C   UNL A   1      31.208  23.607  24.907  1.00  0.00     0.139 C 
ATOM     18  S   UNL A   1      31.301  23.828  26.676  1.00  0.00     0.152 S 
ATOM     19  O   UNL A   1      31.577  25.224  26.949  1.00  0.00    -0.229 OA
ATOM     20  O   UNL A   1      30.214  23.117  27.311  1.00  0.00    -0.229 OA
ENDBRANCH  12  14
ENDBRANCH   6   8
ENDBRANCH   5   6
ENDBRANCH   4   5
ENDBRANCH   3   4
ENDBRANCH   2   3
ENDBRANCH   1   2
BRANCH   1  21
ATOM     21  C   UNL A   1      43.394  18.834  25.448  1.00  0.00     0.261 C 
BRANCH  21  22
ATOM     22  O   UNL A   1      43.432  20.065  24.743  1.00  0.00    -0.460 OA
BRANCH  22  23
ATOM     23  C   UNL A   1      44.688  20.483  24.456  1.00  0.00     0.338 C 
ATOM     24  O   UNL A   1      45.614  19.810  24.049  1.00  0.00    -0.246 OA
BRANCH  23  25
ATOM     25  C   UNL A   1      44.815  21.872  24.905  1.00  0.00     0.060 A 
ATOM     26  C   UNL A   1      45.708  22.117  25.951  1.00  0.00     0.016 A 
ATOM     27  C   UNL A   1      43.865  22.818  24.494  1.00  0.00     0.016 A 
ATOM     28  C   UNL A   1      45.523  23.249  26.712  1.00  0.00     0.010 A 
ATOM     29  C   UNL A   1      43.662  23.928  25.271  1.00  0.00     0.010 A 
ATOM     30  C   UNL A   1      44.450  24.093  26.408  1.00  0.00    -0.014 A 
BRANCH  30  31
ATOM     31  C   UNL A   1      44.283  25.306  27.182  1.00  0.00     0.031 A 
ATOM     32  C   UNL A   1      45.396  26.240  26.905  1.00  0.00     0.074 A 
ATOM     33  C   UNL A   1      43.162  25.557  27.890  1.00  0.00     0.049 A 
ATOM     34  N   UNL A   1      46.397  26.516  27.672  1.00  0.00    -0.248 NA
ATOM     35  C   UNL A   1      45.574  26.717  25.517  1.00  0.00     0.031 C 
ATOM     36  C   UNL A   1      41.945  24.737  27.917  1.00  0.00     0.029 A 
ATOM     37  N   UNL A   1      42.810  26.645  28.634  1.00  0.00    -0.354 N 
ATOM     38  C   UNL A   1      47.100  27.494  26.978  1.00  0.00     0.074 A 
ATOM     39  C   UNL A   1      46.756  27.331  25.595  1.00  0.00     0.031 C 
ATOM     40  C   UNL A   1      40.926  25.461  28.427  1.00  0.00     0.029 A 
ATOM     41  C   UNL A   1      41.439  26.741  28.884  1.00  0.00     0.049 A 
ATOM     42  H   UNL A   1      43.464  27.303  28.965  1.00  0.00     0.167 HD
ATOM     43  C   UNL A   1      47.486  28.621  27.638  1.00  0.00     0.037 A 
ATOM     44  C   UNL A   1      40.779  27.824  29.376  1.00  0.00     0.037 A 
ATOM     45  C   UNL A   1      47.439  28.407  29.062  1.00  0.00     0.049 A 
ATOM     46  C   UNL A   1      41.786  28.661  30.074  1.00  0.00     0.074 A 
ATOM     47  C   UNL A   1      48.154  27.695  29.999  1.00  0.00     0.029 A 
ATOM     48  N   UNL A   1      46.214  28.684  29.604  1.00  0.00    -0.354 N 
ATOM     49  N   UNL A   1      42.407  28.275  31.157  1.00  0.00    -0.248 NA
ATOM     50  C   UNL A   1      42.408  29.773  29.360  1.00  0.00     0.031 C 
ATOM     51  C   UNL A   1      47.274  27.488  31.102  1.00  0.00     0.029 A 
ATOM     52  C   UNL A   1      46.062  28.123  30.839  1.00  0.00     0.049 A 
ATOM     53  H   UNL A   1      45.524  29.225  29.156  1.00  0.00     0.167 HD
ATOM     54  C   UNL A   1      43.683  28.786  31.018  1.00  0.00     0.074 A 
ATOM     55  C   UNL A   1      43.580  29.822  29.998  1.00  0.00     0.031 C 
ATOM     56  C   UNL A   1      44.762  28.085  31.471  1.00  0.00     0.037 A 
BRANCH  43  57
ATOM     57  C   UNL A   1      47.332  30.026  27.075  1.00  0.00     0.058 A 
ATOM     58  C   UNL A   1      48.425  30.912  27.168  1.00  0.00     0.135 A 
ATOM     59  C   UNL A   1      46.096  30.629  26.742  1.00  0.00     0.135 A 
ATOM     60  F   UNL A   1      49.642  30.457  27.505  1.00  0.00    -0.206 F 
ATOM     61  C   UNL A   1      48.289  32.291  26.988  1.00  0.00     0.059 A 
ATOM     62  C   UNL A   1      45.949  31.989  26.509  1.00  0.00     0.059 A 
ATOM     63  F   UNL A   1      44.940  29.958  26.716  1.00  0.00    -0.206 F 
ATOM     64  C   UNL A   1      47.044  32.819  26.662  1.00  0.00     0.060 A 
BRANCH  64  65
ATOM     65  S   UNL A   1      46.844  34.596  26.466  1.00  0.00     0.124 S 
ATOM     66  O   UNL A   1      45.601  34.833  27.192  1.00  0.00    -0.237 OA
ATOM     67  O   UNL A   1      48.061  35.103  27.090  1.00  0.00    -0.237 OA
ATOM     68  O   UNL A   1      46.773  34.766  25.017  1.00  0.00    -0.744 OA
ENDBRANCH  64  65
ENDBRANCH  43  57
BRANCH  44  69
ATOM     69  C   UNL A   1      39.416  28.328  29.048  1.00  0.00     0.058 A 
ATOM     70  C   UNL A   1      38.399  28.383  30.021  1.00  0.00     0.135 A 
ATOM     71  C   UNL A   1      39.165  29.036  27.856  1.00  0.00     0.135 A 
ATOM     72  F   UNL A   1      38.553  27.748  31.193  1.00  0.00    -0.206 F 
ATOM     73  C   UNL A   1      37.235  29.143  29.849  1.00  0.00     0.059 A 
ATOM     74  C   UNL A   1      38.010  29.793  27.658  1.00  0.00     0.059 A 
ATOM     75  F   UNL A   1      40.083  29.091  26.879  1.00  0.00    -0.206 F 
ATOM     76  C   UNL A   1      37.061  29.867  28.670  1.00  0.00     0.060 A 
BRANCH  76  77
ATOM     77  S   UNL A   1      35.654  30.995  28.511  1.00  0.00     0.124 S 
ATOM     78  O   UNL A   1      36.247  32.121  27.797  1.00  0.00    -0.237 OA
ATOM     79  O   UNL A   1      34.698  30.194  27.755  1.00  0.00    -0.237 OA
ATOM     80  O   UNL A   1      35.278  31.264  29.897  1.00  0.00    -0.744 OA
ENDBRANCH  76  77
ENDBRANCH  44  69
BRANCH  56  81
ATOM     81  C   UNL A   1      44.566  27.154  32.624  1.00  0.00     0.058 A 
ATOM     82  C   UNL A   1      44.286  25.781  32.530  1.00  0.00     0.135 A 
ATOM     83  C   UNL A   1      44.763  27.691  33.905  1.00  0.00     0.135 A 
ATOM     84  F   UNL A   1      44.161  25.184  31.336  1.00  0.00    -0.206 F 
ATOM     85  C   UNL A   1      44.180  24.985  33.673  1.00  0.00     0.059 A 
ATOM     86  C   UNL A   1      44.695  26.913  35.051  1.00  0.00     0.059 A 
ATOM     87  F   UNL A   1      45.075  28.990  34.049  1.00  0.00    -0.206 F 
ATOM     88  C   UNL A   1      44.388  25.561  34.929  1.00  0.00     0.060 A 
BRANCH  88  89
ATOM     89  S   UNL A   1      44.308  24.528  36.407  1.00  0.00     0.124 S 
ATOM     90  O   UNL A   1      44.377  23.184  35.845  1.00  0.00    -0.237 OA
ATOM     91  O   UNL A   1      45.481  24.965  37.159  1.00  0.00    -0.237 OA
ATOM     92  O   UNL A   1      43.025  24.889  37.006  1.00  0.00    -0.744 OA
ENDBRANCH  88  89
ENDBRANCH  56  81
ENDBRANCH  30  31
ENDBRANCH  23  25
ENDBRANCH  22  23
ENDBRANCH  21  22
ENDBRANCH   1  21
TORSDOF 18
ENDMDL
MODEL 3
REMARK VINA RESULT:     -11.3      3.052      9.514
REMARK SMILES Cc1cc(C(=O)OCCOCCOC(=O)c2ccc(-c3c4nc(c(-c5c(F)cc(S(=O)(=O)[O-])cc5F)c5ccc([nH]5)c(-c5c(F)cc(S(=O)(=O)[O-])cc5F)c5nc(c(-c6c(F)cc(S(=O)(=O)[O-])cc6F)c6ccc3[nH]6)C=C5)C=C4)cc2)nn1[C@H]1CCS(=O)(=O)C1
REMARK SMILES IDX 11 1 10 2 9 3 8 4 7 5 5 6 6 7 4 8 1 9 2 10 3 11 83 12 82 13
REMARK SMILES IDX 84 14 85 15 90 16 86 17 87 18 88 19 89 20 12 21 13 22 14 23
REMARK SMILES IDX 15 24 16 25 17 26 81 27 18 28 80 29 19 30 20 31 21 32 74 33
REMARK SMILES IDX 22 34 79 35 73 36 75 37 23 38 78 39 72 40 71 41 24 43 58 44
REMARK SMILES IDX 37 45 57 46 38 47 41 48 56 49 76 50 39 51 40 52 55 54 77 55
REMARK SMILES IDX 42 56 25 57 26 58 35 59 27 60 28 61 34 62 36 63 29 64 30 65
REMARK SMILES IDX 31 66 32 67 33 68 59 69 60 70 69 71 61 72 62 73 68 74 70 75
REMARK SMILES IDX 63 76 64 77 65 78 66 79 67 80 43 81 44 82 53 83 45 84 46 85
REMARK SMILES IDX 52 86 54 87 47 88 48 89 49 90 50 91 51 92
REMARK H PARENT 75 42 41 53
REMARK Flexibility Score: inf
ROOT
ATOM      1  C   UNL A   1      31.813  29.528  26.934  1.00  0.00     0.202 C 
ENDROOT
BRANCH   1   2
ATOM      2  O   UNL A   1      31.865  28.522  25.928  1.00  0.00    -0.374 OA
BRANCH   2   3
ATOM      3  C   UNL A   1      32.244  28.873  24.599  1.00  0.00     0.202 C 
BRANCH   3   4
ATOM      4  C   UNL A   1      32.323  27.748  23.567  1.00  0.00     0.261 C 
BRANCH   4   5
ATOM      5  O   UNL A   1      33.641  27.187  23.466  1.00  0.00    -0.458 OA
BRANCH   5   6
ATOM      6  C   UNL A   1      33.711  25.976  22.827  1.00  0.00     0.358 C 
ATOM      7  O   UNL A   1      33.727  25.842  21.610  1.00  0.00    -0.244 OA
BRANCH   6   8
ATOM      8  C   UNL A   1      33.842  24.858  23.774  1.00  0.00     0.170 A 
ATOM      9  C   UNL A   1      33.835  23.120  27.021  1.00  0.00     0.066 C 
ATOM     10  C   UNL A   1      33.919  23.600  25.619  1.00  0.00     0.037 A 
ATOM     11  C   UNL A   1      33.973  24.910  25.180  1.00  0.00     0.061 A 
ATOM     12  N   UNL A   1      33.889  22.831  24.480  1.00  0.00    -0.265 N 
ATOM     13  N   UNL A   1      33.847  23.581  23.360  1.00  0.00    -0.165 NA
BRANCH  12  14
ATOM     14  C   UNL A   1      33.698  21.408  24.271  1.00  0.00     0.123 C 
ATOM     15  C   UNL A   1      34.792  20.530  24.922  1.00  0.00     0.044 C 
ATOM     16  C   UNL A   1      32.395  20.777  24.732  1.00  0.00     0.164 C 
ATOM     17  C   UNL A   1      34.438  19.082  24.585  1.00  0.00     0.139 C 
ATOM     18  S   UNL A   1      32.660  19.044  24.440  1.00  0.00     0.152 S 
ATOM     19  O   UNL A   1      32.318  18.769  23.059  1.00  0.00    -0.229 OA
ATOM     20  O   UNL A   1      32.099  18.290  25.539  1.00  0.00    -0.229 OA
ENDBRANCH  12  14
ENDBRANCH   6   8
ENDBRANCH   5   6
ENDBRANCH   4   5
ENDBRANCH   3   4
ENDBRANCH   2   3
ENDBRANCH   1   2
BRANCH   1  21
ATOM     21  C   UNL A   1      32.652  30.779  26.739  1.00  0.00     0.261 C 
BRANCH  21  22
ATOM     22  O   UNL A   1      34.016  30.570  27.068  1.00  0.00    -0.460 OA
BRANCH  22  23
ATOM     23  C   UNL A   1      34.587  31.626  27.698  1.00  0.00     0.338 C 
ATOM     24  O   UNL A   1      34.304  32.800  27.570  1.00  0.00    -0.246 OA
BRANCH  23  25
ATOM     25  C   UNL A   1      35.757  31.135  28.430  1.00  0.00     0.060 A 
ATOM     26  C   UNL A   1      36.718  32.082  28.791  1.00  0.00     0.016 A 
ATOM     27  C   UNL A   1      36.007  29.756  28.483  1.00  0.00     0.016 A 
ATOM     28  C   UNL A   1      38.002  31.646  29.030  1.00  0.00     0.010 A 
ATOM     29  C   UNL A   1      37.292  29.328  28.690  1.00  0.00     0.010 A 
ATOM     30  C   UNL A   1      38.284  30.283  28.893  1.00  0.00    -0.014 A 
BRANCH  30  31
ATOM     31  C   UNL A   1      39.624  29.822  29.187  1.00  0.00     0.031 A 
ATOM     32  C   UNL A   1      39.864  29.861  30.647  1.00  0.00     0.074 A 
ATOM     33  C   UNL A   1      40.420  29.279  28.243  1.00  0.00     0.049 A 
ATOM     34  N   UNL A   1      40.582  30.712  31.301  1.00  0.00    -0.248 NA
ATOM     35  C   UNL A   1      38.998  29.036  31.516  1.00  0.00     0.031 C 
ATOM     36  C   UNL A   1      40.049  28.987  26.853  1.00  0.00     0.029 A 
ATOM     37  N   UNL A   1      41.677  28.757  28.337  1.00  0.00    -0.354 N 
ATOM     38  C   UNL A   1      40.535  30.260  32.615  1.00  0.00     0.074 A 
ATOM     39  C   UNL A   1      39.338  29.478  32.729  1.00  0.00     0.031 C 
ATOM     40  C   UNL A   1      40.951  28.135  26.317  1.00  0.00     0.029 A 
ATOM     41  C   UNL A   1      42.026  27.926  27.269  1.00  0.00     0.049 A 
ATOM     42  H   UNL A   1      42.283  28.949  29.090  1.00  0.00     0.167 HD
ATOM     43  C   UNL A   1      41.696  30.155  33.317  1.00  0.00     0.037 A 
ATOM     44  C   UNL A   1      43.096  27.087  27.213  1.00  0.00     0.037 A 
ATOM     45  C   UNL A   1      42.735  30.926  32.683  1.00  0.00     0.049 A 
ATOM     46  C   UNL A   1      44.080  27.576  28.210  1.00  0.00     0.074 A 
ATOM     47  C   UNL A   1      43.040  32.258  32.509  1.00  0.00     0.029 A 
ATOM     48  N   UNL A   1      43.418  30.221  31.729  1.00  0.00    -0.354 N 
ATOM     49  N   UNL A   1      44.698  28.722  28.099  1.00  0.00    -0.248 NA
ATOM     50  C   UNL A   1      44.099  26.983  29.544  1.00  0.00     0.031 C 
ATOM     51  C   UNL A   1      43.877  32.330  31.356  1.00  0.00     0.029 A 
ATOM     52  C   UNL A   1      44.109  31.041  30.885  1.00  0.00     0.049 A 
ATOM     53  H   UNL A   1      43.411  29.239  31.661  1.00  0.00     0.167 HD
ATOM     54  C   UNL A   1      44.795  29.184  29.397  1.00  0.00     0.074 A 
ATOM     55  C   UNL A   1      44.570  28.019  30.243  1.00  0.00     0.031 C 
ATOM     56  C   UNL A   1      44.688  30.516  29.668  1.00  0.00     0.037 A 
BRANCH  43  57
ATOM     57  C   UNL A   1      42.059  28.955  34.178  1.00  0.00     0.058 A 
ATOM     58  C   UNL A   1      42.126  27.685  33.569  1.00  0.00     0.135 A 
ATOM     59  C   UNL A   1      42.038  28.942  35.593  1.00  0.00     0.135 A 
ATOM     60  F   UNL A   1      42.124  27.572  32.231  1.00  0.00    -0.206 F 
ATOM     61  C   UNL A   1      42.126  26.499  34.307  1.00  0.00     0.059 A 
ATOM     62  C   UNL A   1      42.089  27.777  36.346  1.00  0.00     0.059 A 
ATOM     63  F   UNL A   1      41.870  30.044  36.330  1.00  0.00    -0.206 F 
ATOM     64  C   UNL A   1      42.103  26.557  35.696  1.00  0.00     0.060 A 
BRANCH  64  65
ATOM     65  S   UNL A   1      42.063  25.039  36.660  1.00  0.00     0.124 S 
ATOM     66  O   UNL A   1      40.900  25.263  37.511  1.00  0.00    -0.237 OA
ATOM     67  O   UNL A   1      41.914  24.029  35.618  1.00  0.00    -0.237 OA
ATOM     68  O   UNL A   1      43.355  25.041  37.341  1.00  0.00    -0.744 OA
ENDBRANCH  64  65
ENDBRANCH  43  57
BRANCH  44  69
ATOM     69  C   UNL A   1      43.210  25.746  26.575  1.00  0.00     0.058 A 
ATOM     70  C   UNL A   1      44.026  25.536  25.446  1.00  0.00     0.135 A 
ATOM     71  C   UNL A   1      42.755  24.583  27.229  1.00  0.00     0.135 A 
ATOM     72  F   UNL A   1      44.515  26.583  24.764  1.00  0.00    -0.206 F 
ATOM     73  C   UNL A   1      44.417  24.256  25.029  1.00  0.00     0.059 A 
ATOM     74  C   UNL A   1      43.124  23.299  26.828  1.00  0.00     0.059 A 
ATOM     75  F   UNL A   1      42.010  24.664  28.341  1.00  0.00    -0.206 F 
ATOM     76  C   UNL A   1      43.980  23.143  25.744  1.00  0.00     0.060 A 
BRANCH  76  77
ATOM     77  S   UNL A   1      44.624  21.502  25.328  1.00  0.00     0.124 S 
ATOM     78  O   UNL A   1      45.964  21.548  25.902  1.00  0.00    -0.237 OA
ATOM     79  O   UNL A   1      43.675  20.618  25.996  1.00  0.00    -0.237 OA
ATOM     80  O   UNL A   1      44.572  21.479  23.868  1.00  0.00    -0.744 OA
ENDBRANCH  76  77
ENDBRANCH  44  69
BRANCH  56  81
ATOM     81  C   UNL A   1      45.102  31.488  28.609  1.00  0.00     0.058 A 
ATOM     82  C   UNL A   1      44.337  31.857  27.492  1.00  0.00     0.135 A 
ATOM     83  C   UNL A   1      46.328  32.143  28.803  1.00  0.00     0.135 A 
ATOM     84  F   UNL A   1      43.122  31.328  27.284  1.00  0.00    -0.206 F 
ATOM     85  C   UNL A   1      44.792  32.822  26.590  1.00  0.00     0.059 A 
ATOM     86  C   UNL A   1      46.784  33.127  27.939  1.00  0.00     0.059 A 
ATOM     87  F   UNL A   1      47.080  31.857  29.880  1.00  0.00    -0.206 F 
ATOM     88  C   UNL A   1      46.017  33.452  26.825  1.00  0.00     0.060 A 
BRANCH  88  89
ATOM     89  S   UNL A   1      46.587  34.739  25.695  1.00  0.00     0.124 S 
ATOM     90  O   UNL A   1      45.675  34.584  24.568  1.00  0.00    -0.237 OA
ATOM     91  O   UNL A   1      46.417  35.952  26.490  1.00  0.00    -0.237 OA
ATOM     92  O   UNL A   1      47.976  34.370  25.430  1.00  0.00    -0.744 OA
ENDBRANCH  88  89
ENDBRANCH  56  81
ENDBRANCH  30  31
ENDBRANCH  23  25
ENDBRANCH  22  23
ENDBRANCH  21  22
ENDBRANCH   1  21
TORSDOF 18
ENDMDL
