MODEL 1
REMARK VINA RESULT:      -9.6      0.000      0.000
REMARK SMILES O=C(OCCOCCOC(=O)C1([C@H]2CS(=O)(=O)C[C@H]2O)CCCC1)c1ccc(-c2c3nc(c(-c4c(F)cc(S(=O)(=O)[O-])cc4F)c4ccc([nH]4)c(-c4c(F)cc(S(=O)(=O)[O-])cc4F)c4nc(c(-c5c(F)cc(S(=O)(=O)[O-])cc5F)c5ccc2[nH]5)C=C4)C=C3)cc1
REMARK SMILES IDX 5 1 4 2 3 3 2 4 1 5 25 6 26 7 90 8 27 9 89 10 28 11 29 12
REMARK SMILES IDX 30 13 83 14 31 15 88 16 82 17 84 18 32 19 87 20 81 21 80 22
REMARK SMILES IDX 33 24 67 25 46 26 66 27 47 28 50 29 65 30 85 31 48 32 49 33
REMARK SMILES IDX 64 35 86 36 51 37 34 38 35 39 44 40 36 41 37 42 43 43 45 44
REMARK SMILES IDX 38 45 39 46 40 47 41 48 42 49 68 50 69 51 78 52 70 53 71 54
REMARK SMILES IDX 77 55 79 56 72 57 73 58 74 59 75 60 76 61 52 62 53 63 62 64
REMARK SMILES IDX 54 65 55 66 61 67 63 68 56 69 57 70 58 71 59 72 60 73 6 74
REMARK SMILES IDX 7 75 8 76 9 77 10 78 11 79 12 80 21 81 24 82 22 83 23 84
REMARK SMILES IDX 13 85 14 86 19 87 15 88 18 89 16 90 17 91 20 92
REMARK H PARENT 84 23 50 34 20 93
REMARK Flexibility Score: inf
ROOT
ATOM      1  C   UNL A   1      33.762  33.867  28.745  1.00  0.00     0.202 C 
ENDROOT
BRANCH   1   2
ATOM      2  C   UNL A   1      33.786  32.535  28.002  1.00  0.00     0.261 C 
BRANCH   2   3
ATOM      3  O   UNL A   1      34.381  31.484  28.777  1.00  0.00    -0.460 OA
BRANCH   3   4
ATOM      4  C   UNL A   1      34.874  30.332  28.246  1.00  0.00     0.338 C 
ATOM      5  O   UNL A   1      34.155  29.587  27.591  1.00  0.00    -0.246 OA
BRANCH   4   6
ATOM      6  C   UNL A   1      36.301  29.984  28.453  1.00  0.00     0.060 A 
ATOM      7  C   UNL A   1      37.237  30.183  27.447  1.00  0.00     0.016 A 
ATOM      8  C   UNL A   1      36.737  29.493  29.681  1.00  0.00     0.016 A 
ATOM      9  C   UNL A   1      38.523  29.716  27.541  1.00  0.00     0.010 A 
ATOM     10  C   UNL A   1      38.093  29.196  29.856  1.00  0.00     0.010 A 
ATOM     11  C   UNL A   1      38.984  29.297  28.774  1.00  0.00    -0.014 A 
BRANCH  11  12
ATOM     12  C   UNL A   1      40.414  28.968  28.863  1.00  0.00     0.031 A 
ATOM     13  C   UNL A   1      41.343  30.007  29.390  1.00  0.00     0.074 A 
ATOM     14  C   UNL A   1      40.818  27.711  28.585  1.00  0.00     0.049 A 
ATOM     15  N   UNL A   1      42.644  30.012  29.404  1.00  0.00    -0.248 NA
ATOM     16  C   UNL A   1      40.724  31.208  29.979  1.00  0.00     0.031 C 
ATOM     17  C   UNL A   1      39.934  26.596  28.210  1.00  0.00     0.029 A 
ATOM     18  N   UNL A   1      42.060  27.140  28.608  1.00  0.00    -0.354 N 
ATOM     19  C   UNL A   1      43.003  31.243  29.933  1.00  0.00     0.074 A 
ATOM     20  C   UNL A   1      41.786  31.953  30.246  1.00  0.00     0.031 C 
ATOM     21  C   UNL A   1      40.657  25.475  28.085  1.00  0.00     0.029 A 
ATOM     22  C   UNL A   1      42.061  25.814  28.238  1.00  0.00     0.049 A 
ATOM     23  H   UNL A   1      42.875  27.630  28.866  1.00  0.00     0.167 HD
ATOM     24  C   UNL A   1      44.252  31.724  30.108  1.00  0.00     0.037 A 
ATOM     25  C   UNL A   1      43.093  24.991  27.982  1.00  0.00     0.037 A 
ATOM     26  C   UNL A   1      45.425  30.953  29.797  1.00  0.00     0.049 A 
ATOM     27  C   UNL A   1      44.471  25.575  28.110  1.00  0.00     0.074 A 
ATOM     28  C   UNL A   1      46.752  31.326  29.864  1.00  0.00     0.029 A 
ATOM     29  N   UNL A   1      45.398  29.630  29.365  1.00  0.00    -0.354 N 
ATOM     30  N   UNL A   1      44.816  26.783  28.498  1.00  0.00    -0.248 NA
ATOM     31  C   UNL A   1      45.595  24.711  27.743  1.00  0.00     0.031 C 
ATOM     32  C   UNL A   1      47.524  30.245  29.427  1.00  0.00     0.029 A 
ATOM     33  C   UNL A   1      46.684  29.176  29.144  1.00  0.00     0.049 A 
ATOM     34  H   UNL A   1      44.581  29.096  29.234  1.00  0.00     0.167 HD
ATOM     35  C   UNL A   1      46.200  26.823  28.435  1.00  0.00     0.074 A 
ATOM     36  C   UNL A   1      46.627  25.508  27.990  1.00  0.00     0.031 C 
ATOM     37  C   UNL A   1      47.045  27.847  28.711  1.00  0.00     0.037 A 
BRANCH  24  38
ATOM     38  C   UNL A   1      44.381  33.151  30.555  1.00  0.00     0.058 A 
ATOM     39  C   UNL A   1      44.427  34.224  29.651  1.00  0.00     0.135 A 
ATOM     40  C   UNL A   1      44.514  33.442  31.922  1.00  0.00     0.135 A 
ATOM     41  F   UNL A   1      44.348  33.999  28.330  1.00  0.00    -0.206 F 
ATOM     42  C   UNL A   1      44.627  35.531  30.084  1.00  0.00     0.059 A 
ATOM     43  C   UNL A   1      44.687  34.745  32.380  1.00  0.00     0.059 A 
ATOM     44  F   UNL A   1      44.501  32.454  32.829  1.00  0.00    -0.206 F 
ATOM     45  C   UNL A   1      44.758  35.782  31.452  1.00  0.00     0.060 A 
BRANCH  45  46
ATOM     46  S   UNL A   1      45.025  37.480  32.000  1.00  0.00     0.124 S 
ATOM     47  O   UNL A   1      43.872  38.161  31.420  1.00  0.00    -0.237 OA
ATOM     48  O   UNL A   1      45.013  37.343  33.454  1.00  0.00    -0.237 OA
ATOM     49  O   UNL A   1      46.318  37.827  31.417  1.00  0.00    -0.744 OA
ENDBRANCH  45  46
ENDBRANCH  24  38
BRANCH  25  50
ATOM     50  C   UNL A   1      42.856  23.599  27.506  1.00  0.00     0.058 A 
ATOM     51  C   UNL A   1      42.720  22.533  28.406  1.00  0.00     0.135 A 
ATOM     52  C   UNL A   1      42.743  23.305  26.134  1.00  0.00     0.135 A 
ATOM     53  F   UNL A   1      42.823  22.752  29.725  1.00  0.00    -0.206 F 
ATOM     54  C   UNL A   1      42.495  21.229  27.967  1.00  0.00     0.059 A 
ATOM     55  C   UNL A   1      42.486  22.017  25.674  1.00  0.00     0.059 A 
ATOM     56  F   UNL A   1      42.850  24.286  25.224  1.00  0.00    -0.206 F 
ATOM     57  C   UNL A   1      42.377  20.982  26.598  1.00  0.00     0.060 A 
BRANCH  57  58
ATOM     58  S   UNL A   1      42.056  19.294  26.041  1.00  0.00     0.124 S 
ATOM     59  O   UNL A   1      42.938  19.192  24.884  1.00  0.00    -0.237 OA
ATOM     60  O   UNL A   1      42.441  18.507  27.209  1.00  0.00    -0.237 OA
ATOM     61  O   UNL A   1      40.626  19.303  25.745  1.00  0.00    -0.744 OA
ENDBRANCH  57  58
ENDBRANCH  25  50
BRANCH  37  62
ATOM     62  C   UNL A   1      48.510  27.559  28.578  1.00  0.00     0.058 A 
ATOM     63  C   UNL A   1      49.207  27.827  27.392  1.00  0.00     0.135 A 
ATOM     64  C   UNL A   1      49.230  27.074  29.681  1.00  0.00     0.135 A 
ATOM     65  F   UNL A   1      48.556  28.283  26.310  1.00  0.00    -0.206 F 
ATOM     66  C   UNL A   1      50.575  27.607  27.298  1.00  0.00     0.059 A 
ATOM     67  C   UNL A   1      50.602  26.877  29.618  1.00  0.00     0.059 A 
ATOM     68  F   UNL A   1      48.601  26.813  30.838  1.00  0.00    -0.206 F 
ATOM     69  C   UNL A   1      51.264  27.139  28.419  1.00  0.00     0.060 A 
BRANCH  69  70
ATOM     70  S   UNL A   1      53.048  26.907  28.299  1.00  0.00     0.124 S 
ATOM     71  O   UNL A   1      53.138  25.829  27.322  1.00  0.00    -0.237 OA
ATOM     72  O   UNL A   1      53.502  28.218  27.844  1.00  0.00    -0.237 OA
ATOM     73  O   UNL A   1      53.437  26.555  29.662  1.00  0.00    -0.744 OA
ENDBRANCH  69  70
ENDBRANCH  37  62
ENDBRANCH  11  12
ENDBRANCH   4   6
ENDBRANCH   3   4
ENDBRANCH   2   3
ENDBRANCH   1   2
BRANCH   1  74
ATOM     74  O   UNL A   1      33.822  33.883  30.163  1.00  0.00    -0.374 OA
BRANCH  74  75
ATOM     75  C   UNL A   1      33.513  35.098  30.845  1.00  0.00     0.202 C 
BRANCH  75  76
ATOM     76  C   UNL A   1      34.493  35.245  32.008  1.00  0.00     0.261 C 
BRANCH  76  77
ATOM     77  O   UNL A   1      35.403  34.131  31.949  1.00  0.00    -0.463 OA
BRANCH  77  78
ATOM     78  C   UNL A   1      36.675  34.372  32.388  1.00  0.00     0.312 C 
ATOM     79  O   UNL A   1      36.968  35.084  33.339  1.00  0.00    -0.252 OA
BRANCH  78  80
ATOM     80  C   UNL A   1      37.709  33.621  31.515  1.00  0.00     0.074 C 
ATOM     81  C   UNL A   1      37.118  33.311  30.123  1.00  0.00     0.019 C 
ATOM     82  C   UNL A   1      38.821  34.661  31.233  1.00  0.00     0.019 C 
ATOM     83  C   UNL A   1      38.194  33.620  29.104  1.00  0.00     0.001 C 
ATOM     84  C   UNL A   1      39.021  34.728  29.720  1.00  0.00     0.001 C 
BRANCH  80  85
ATOM     85  C   UNL A   1      38.224  32.358  32.321  1.00  0.00     0.051 C 
ATOM     86  C   UNL A   1      39.489  32.591  33.180  1.00  0.00     0.144 C 
ATOM     87  C   UNL A   1      37.278  31.576  33.263  1.00  0.00     0.134 C 
ATOM     88  S   UNL A   1      39.007  32.618  34.902  1.00  0.00     0.153 S 
ATOM     89  C   UNL A   1      37.308  32.199  34.647  1.00  0.00     0.169 C 
ATOM     90  O   UNL A   1      39.639  31.512  35.591  1.00  0.00    -0.229 OA
ATOM     91  O   UNL A   1      39.073  33.977  35.396  1.00  0.00    -0.229 OA
BRANCH  87  92
ATOM     92  O   UNL A   1      35.966  31.410  32.766  1.00  0.00    -0.392 OA
ATOM     93  H   UNL A   1      35.826  30.481  32.527  1.00  0.00     0.211 HD
ENDBRANCH  87  92
ENDBRANCH  80  85
ENDBRANCH  78  80
ENDBRANCH  77  78
ENDBRANCH  76  77
ENDBRANCH  75  76
ENDBRANCH  74  75
ENDBRANCH   1  74
TORSDOF 19
ENDMDL
MODEL 2
REMARK VINA RESULT:      -9.4      4.743     11.316
REMARK SMILES O=C(OCCOCCOC(=O)C1([C@H]2CS(=O)(=O)C[C@H]2O)CCCC1)c1ccc(-c2c3nc(c(-c4c(F)cc(S(=O)(=O)[O-])cc4F)c4ccc([nH]4)c(-c4c(F)cc(S(=O)(=O)[O-])cc4F)c4nc(c(-c5c(F)cc(S(=O)(=O)[O-])cc5F)c5ccc2[nH]5)C=C4)C=C3)cc1
REMARK SMILES IDX 5 1 4 2 3 3 2 4 1 5 25 6 26 7 90 8 27 9 89 10 28 11 29 12
REMARK SMILES IDX 30 13 83 14 31 15 88 16 82 17 84 18 32 19 87 20 81 21 80 22
REMARK SMILES IDX 33 24 67 25 46 26 66 27 47 28 50 29 65 30 85 31 48 32 49 33
REMARK SMILES IDX 64 35 86 36 51 37 34 38 35 39 44 40 36 41 37 42 43 43 45 44
REMARK SMILES IDX 38 45 39 46 40 47 41 48 42 49 68 50 69 51 78 52 70 53 71 54
REMARK SMILES IDX 77 55 79 56 72 57 73 58 74 59 75 60 76 61 52 62 53 63 62 64
REMARK SMILES IDX 54 65 55 66 61 67 63 68 56 69 57 70 58 71 59 72 60 73 6 74
REMARK SMILES IDX 7 75 8 76 9 77 10 78 11 79 12 80 21 81 24 82 22 83 23 84
REMARK SMILES IDX 13 85 14 86 19 87 15 88 18 89 16 90 17 91 20 92
REMARK H PARENT 84 23 50 34 20 93
REMARK Flexibility Score: inf
ROOT
ATOM      1  C   UNL A   1      35.885  21.575  24.808  1.00  0.00     0.202 C 
ENDROOT
BRANCH   1   2
ATOM      2  C   UNL A   1      37.242  22.056  24.303  1.00  0.00     0.261 C 
BRANCH   2   3
ATOM      3  O   UNL A   1      37.771  23.134  25.088  1.00  0.00    -0.460 OA
BRANCH   3   4
ATOM      4  C   UNL A   1      38.825  23.011  25.939  1.00  0.00     0.338 C 
ATOM      5  O   UNL A   1      39.424  21.948  26.042  1.00  0.00    -0.246 OA
BRANCH   4   6
ATOM      6  C   UNL A   1      39.261  24.183  26.736  1.00  0.00     0.060 A 
ATOM      7  C   UNL A   1      38.997  24.259  28.098  1.00  0.00     0.016 A 
ATOM      8  C   UNL A   1      39.986  25.213  26.140  1.00  0.00     0.016 A 
ATOM      9  C   UNL A   1      39.230  25.397  28.826  1.00  0.00     0.010 A 
ATOM     10  C   UNL A   1      40.405  26.295  26.921  1.00  0.00     0.010 A 
ATOM     11  C   UNL A   1      40.011  26.390  28.267  1.00  0.00    -0.014 A 
BRANCH  11  12
ATOM     12  C   UNL A   1      40.377  27.511  29.145  1.00  0.00     0.031 A 
ATOM     13  C   UNL A   1      41.693  27.458  29.843  1.00  0.00     0.074 A 
ATOM     14  C   UNL A   1      39.575  28.594  29.195  1.00  0.00     0.049 A 
ATOM     15  N   UNL A   1      42.153  28.232  30.782  1.00  0.00    -0.248 NA
ATOM     16  C   UNL A   1      42.615  26.385  29.431  1.00  0.00     0.031 C 
ATOM     17  C   UNL A   1      38.341  28.778  28.413  1.00  0.00     0.029 A 
ATOM     18  N   UNL A   1      39.685  29.763  29.896  1.00  0.00    -0.354 N 
ATOM     19  C   UNL A   1      43.386  27.699  31.127  1.00  0.00     0.074 A 
ATOM     20  C   UNL A   1      43.613  26.548  30.286  1.00  0.00     0.031 C 
ATOM     21  C   UNL A   1      37.841  29.999  28.647  1.00  0.00     0.029 A 
ATOM     22  C   UNL A   1      38.636  30.630  29.686  1.00  0.00     0.049 A 
ATOM     23  H   UNL A   1      40.441  29.965  30.494  1.00  0.00     0.167 HD
ATOM     24  C   UNL A   1      44.227  28.140  32.087  1.00  0.00     0.037 A 
ATOM     25  C   UNL A   1      38.321  31.772  30.321  1.00  0.00     0.037 A 
ATOM     26  C   UNL A   1      43.950  29.310  32.875  1.00  0.00     0.049 A 
ATOM     27  C   UNL A   1      39.231  32.199  31.437  1.00  0.00     0.074 A 
ATOM     28  C   UNL A   1      44.675  29.843  33.921  1.00  0.00     0.029 A 
ATOM     29  N   UNL A   1      42.849  30.138  32.682  1.00  0.00    -0.354 N 
ATOM     30  N   UNL A   1      40.343  31.630  31.849  1.00  0.00    -0.248 NA
ATOM     31  C   UNL A   1      38.843  33.391  32.192  1.00  0.00     0.031 C 
ATOM     32  C   UNL A   1      43.986  30.966  34.392  1.00  0.00     0.029 A 
ATOM     33  C   UNL A   1      42.863  31.169  33.601  1.00  0.00     0.049 A 
ATOM     34  H   UNL A   1      42.158  30.007  31.992  1.00  0.00     0.167 HD
ATOM     35  C   UNL A   1      40.797  32.403  32.907  1.00  0.00     0.074 A 
ATOM     36  C   UNL A   1      39.847  33.491  33.055  1.00  0.00     0.031 C 
ATOM     37  C   UNL A   1      41.891  32.233  33.691  1.00  0.00     0.037 A 
BRANCH  24  38
ATOM     38  C   UNL A   1      45.436  27.299  32.378  1.00  0.00     0.058 A 
ATOM     39  C   UNL A   1      45.420  26.253  33.315  1.00  0.00     0.135 A 
ATOM     40  C   UNL A   1      46.653  27.586  31.741  1.00  0.00     0.135 A 
ATOM     41  F   UNL A   1      44.294  25.963  33.986  1.00  0.00    -0.206 F 
ATOM     42  C   UNL A   1      46.573  25.539  33.627  1.00  0.00     0.059 A 
ATOM     43  C   UNL A   1      47.813  26.867  32.017  1.00  0.00     0.059 A 
ATOM     44  F   UNL A   1      46.732  28.591  30.855  1.00  0.00    -0.206 F 
ATOM     45  C   UNL A   1      47.766  25.855  32.973  1.00  0.00     0.060 A 
BRANCH  45  46
ATOM     46  S   UNL A   1      49.256  24.928  33.393  1.00  0.00     0.124 S 
ATOM     47  O   UNL A   1      49.958  25.875  34.254  1.00  0.00    -0.237 OA
ATOM     48  O   UNL A   1      48.711  23.750  34.060  1.00  0.00    -0.237 OA
ATOM     49  O   UNL A   1      49.879  24.679  32.096  1.00  0.00    -0.744 OA
ENDBRANCH  45  46
ENDBRANCH  24  38
BRANCH  25  50
ATOM     50  C   UNL A   1      37.074  32.513  29.979  1.00  0.00     0.058 A 
ATOM     51  C   UNL A   1      35.840  32.167  30.547  1.00  0.00     0.135 A 
ATOM     52  C   UNL A   1      37.092  33.600  29.086  1.00  0.00     0.135 A 
ATOM     53  F   UNL A   1      35.761  31.137  31.402  1.00  0.00    -0.206 F 
ATOM     54  C   UNL A   1      34.671  32.857  30.234  1.00  0.00     0.059 A 
ATOM     55  C   UNL A   1      35.943  34.326  28.783  1.00  0.00     0.059 A 
ATOM     56  F   UNL A   1      38.245  33.988  28.520  1.00  0.00    -0.206 F 
ATOM     57  C   UNL A   1      34.733  33.938  29.352  1.00  0.00     0.060 A 
BRANCH  57  58
ATOM     58  S   UNL A   1      33.218  34.846  28.976  1.00  0.00     0.124 S 
ATOM     59  O   UNL A   1      32.582  34.913  30.287  1.00  0.00    -0.237 OA
ATOM     60  O   UNL A   1      33.736  36.106  28.452  1.00  0.00    -0.237 OA
ATOM     61  O   UNL A   1      32.550  33.996  27.995  1.00  0.00    -0.744 OA
ENDBRANCH  57  58
ENDBRANCH  25  50
BRANCH  37  62
ATOM     62  C   UNL A   1      42.129  33.275  34.741  1.00  0.00     0.058 A 
ATOM     63  C   UNL A   1      42.765  34.488  34.442  1.00  0.00     0.135 A 
ATOM     64  C   UNL A   1      41.648  33.077  36.044  1.00  0.00     0.135 A 
ATOM     65  F   UNL A   1      43.249  34.714  33.210  1.00  0.00    -0.206 F 
ATOM     66  C   UNL A   1      42.932  35.469  35.410  1.00  0.00     0.059 A 
ATOM     67  C   UNL A   1      41.776  34.057  37.019  1.00  0.00     0.059 A 
ATOM     68  F   UNL A   1      41.024  31.933  36.370  1.00  0.00    -0.206 F 
ATOM     69  C   UNL A   1      42.428  35.246  36.693  1.00  0.00     0.060 A 
BRANCH  69  70
ATOM     70  S   UNL A   1      42.605  36.549  37.926  1.00  0.00     0.124 S 
ATOM     71  O   UNL A   1      41.217  36.939  38.142  1.00  0.00    -0.237 OA
ATOM     72  O   UNL A   1      43.247  35.846  39.032  1.00  0.00    -0.237 OA
ATOM     73  O   UNL A   1      43.440  37.541  37.254  1.00  0.00    -0.744 OA
ENDBRANCH  69  70
ENDBRANCH  37  62
ENDBRANCH  11  12
ENDBRANCH   4   6
ENDBRANCH   3   4
ENDBRANCH   2   3
ENDBRANCH   1   2
BRANCH   1  74
ATOM     74  O   UNL A   1      35.132  22.393  25.692  1.00  0.00    -0.374 OA
BRANCH  74  75
ATOM     75  C   UNL A   1      34.703  21.840  26.934  1.00  0.00     0.202 C 
BRANCH  75  76
ATOM     76  C   UNL A   1      33.179  21.943  26.991  1.00  0.00     0.261 C 
BRANCH  76  77
ATOM     77  O   UNL A   1      32.777  22.930  26.024  1.00  0.00    -0.463 OA
BRANCH  77  78
ATOM     78  C   UNL A   1      31.924  23.898  26.474  1.00  0.00     0.312 C 
ATOM     79  O   UNL A   1      31.181  23.788  27.440  1.00  0.00    -0.252 OA
BRANCH  78  80
ATOM     80  C   UNL A   1      32.016  25.166  25.591  1.00  0.00     0.074 C 
ATOM     81  C   UNL A   1      30.882  26.153  25.940  1.00  0.00     0.019 C 
ATOM     82  C   UNL A   1      33.304  25.885  26.063  1.00  0.00     0.019 C 
ATOM     83  C   UNL A   1      31.494  27.536  25.986  1.00  0.00     0.001 C 
ATOM     84  C   UNL A   1      32.930  27.323  26.415  1.00  0.00     0.001 C 
BRANCH  80  85
ATOM     85  C   UNL A   1      32.070  24.717  24.073  1.00  0.00     0.051 C 
ATOM     86  C   UNL A   1      30.956  25.298  23.170  1.00  0.00     0.144 C 
ATOM     87  C   UNL A   1      33.357  24.902  23.233  1.00  0.00     0.134 C 
ATOM     88  S   UNL A   1      31.680  26.536  22.102  1.00  0.00     0.153 S 
ATOM     89  C   UNL A   1      33.358  26.282  22.599  1.00  0.00     0.169 C 
ATOM     90  O   UNL A   1      31.555  26.107  20.723  1.00  0.00    -0.229 OA
ATOM     91  O   UNL A   1      31.266  27.850  22.544  1.00  0.00    -0.229 OA
BRANCH  87  92
ATOM     92  O   UNL A   1      34.553  24.620  23.930  1.00  0.00    -0.392 OA
ATOM     93  H   UNL A   1      35.260  25.198  23.604  1.00  0.00     0.211 HD
ENDBRANCH  87  92
ENDBRANCH  80  85
ENDBRANCH  78  80
ENDBRANCH  77  78
ENDBRANCH  76  77
ENDBRANCH  75  76
ENDBRANCH  74  75
ENDBRANCH   1  74
TORSDOF 19
ENDMDL
MODEL 3
REMARK VINA RESULT:      -9.3      0.929      2.082
REMARK SMILES O=C(OCCOCCOC(=O)C1([C@H]2CS(=O)(=O)C[C@H]2O)CCCC1)c1ccc(-c2c3nc(c(-c4c(F)cc(S(=O)(=O)[O-])cc4F)c4ccc([nH]4)c(-c4c(F)cc(S(=O)(=O)[O-])cc4F)c4nc(c(-c5c(F)cc(S(=O)(=O)[O-])cc5F)c5ccc2[nH]5)C=C4)C=C3)cc1
REMARK SMILES IDX 5 1 4 2 3 3 2 4 1 5 25 6 26 7 90 8 27 9 89 10 28 11 29 12
REMARK SMILES IDX 30 13 83 14 31 15 88 16 82 17 84 18 32 19 87 20 81 21 80 22
REMARK SMILES IDX 33 24 67 25 46 26 66 27 47 28 50 29 65 30 85 31 48 32 49 33
REMARK SMILES IDX 64 35 86 36 51 37 34 38 35 39 44 40 36 41 37 42 43 43 45 44
REMARK SMILES IDX 38 45 39 46 40 47 41 48 42 49 68 50 69 51 78 52 70 53 71 54
REMARK SMILES IDX 77 55 79 56 72 57 73 58 74 59 75 60 76 61 52 62 53 63 62 64
REMARK SMILES IDX 54 65 55 66 61 67 63 68 56 69 57 70 58 71 59 72 60 73 6 74
REMARK SMILES IDX 7 75 8 76 9 77 10 78 11 79 12 80 21 81 24 82 22 83 23 84
REMARK SMILES IDX 13 85 14 86 19 87 15 88 18 89 16 90 17 91 20 92
REMARK H PARENT 84 23 50 34 20 93
REMARK Flexibility Score: inf
ROOT
ATOM      1  C   UNL A   1      33.953  33.816  28.386  1.00  0.00     0.202 C 
ENDROOT
BRANCH   1   2
ATOM      2  C   UNL A   1      33.661  32.466  27.736  1.00  0.00     0.261 C 
BRANCH   2   3
ATOM      3  O   UNL A   1      34.120  31.363  28.531  1.00  0.00    -0.460 OA
BRANCH   3   4
ATOM      4  C   UNL A   1      34.646  30.220  28.015  1.00  0.00     0.338 C 
ATOM      5  O   UNL A   1      33.962  29.469  27.330  1.00  0.00    -0.246 OA
BRANCH   4   6
ATOM      6  C   UNL A   1      36.069  29.889  28.274  1.00  0.00     0.060 A 
ATOM      7  C   UNL A   1      37.051  30.173  27.334  1.00  0.00     0.016 A 
ATOM      8  C   UNL A   1      36.453  29.328  29.489  1.00  0.00     0.016 A 
ATOM      9  C   UNL A   1      38.340  29.727  27.465  1.00  0.00     0.010 A 
ATOM     10  C   UNL A   1      37.805  29.047  29.716  1.00  0.00     0.010 A 
ATOM     11  C   UNL A   1      38.748  29.238  28.691  1.00  0.00    -0.014 A 
BRANCH  11  12
ATOM     12  C   UNL A   1      40.179  28.934  28.835  1.00  0.00     0.031 A 
ATOM     13  C   UNL A   1      41.067  29.983  29.410  1.00  0.00     0.074 A 
ATOM     14  C   UNL A   1      40.616  27.687  28.560  1.00  0.00     0.049 A 
ATOM     15  N   UNL A   1      42.366  30.010  29.476  1.00  0.00    -0.248 NA
ATOM     16  C   UNL A   1      40.403  31.166  29.985  1.00  0.00     0.031 C 
ATOM     17  C   UNL A   1      39.769  26.561  28.138  1.00  0.00     0.029 A 
ATOM     18  N   UNL A   1      41.867  27.138  28.628  1.00  0.00    -0.354 N 
ATOM     19  C   UNL A   1      42.681  31.241  30.032  1.00  0.00     0.074 A 
ATOM     20  C   UNL A   1      41.439  31.927  30.303  1.00  0.00     0.031 C 
ATOM     21  C   UNL A   1      40.517  25.454  28.030  1.00  0.00     0.029 A 
ATOM     22  C   UNL A   1      41.907  25.816  28.244  1.00  0.00     0.049 A 
ATOM     23  H   UNL A   1      42.662  27.639  28.923  1.00  0.00     0.167 HD
ATOM     24  C   UNL A   1      43.913  31.743  30.263  1.00  0.00     0.037 A 
ATOM     25  C   UNL A   1      42.963  25.015  28.021  1.00  0.00     0.037 A 
ATOM     26  C   UNL A   1      45.111  30.997  29.991  1.00  0.00     0.049 A 
ATOM     27  C   UNL A   1      44.324  25.622  28.210  1.00  0.00     0.074 A 
ATOM     28  C   UNL A   1      46.427  31.393  30.115  1.00  0.00     0.029 A 
ATOM     29  N   UNL A   1      45.125  29.679  29.544  1.00  0.00    -0.354 N 
ATOM     30  N   UNL A   1      44.631  26.831  28.625  1.00  0.00    -0.248 NA
ATOM     31  C   UNL A   1      45.478  24.782  27.880  1.00  0.00     0.031 C 
ATOM     32  C   UNL A   1      47.236  30.330  29.698  1.00  0.00     0.029 A 
ATOM     33  C   UNL A   1      46.427  29.250  29.371  1.00  0.00     0.049 A 
ATOM     34  H   UNL A   1      44.324  29.131  29.374  1.00  0.00     0.167 HD
ATOM     35  C   UNL A   1      46.016  26.896  28.618  1.00  0.00     0.074 A 
ATOM     36  C   UNL A   1      46.484  25.594  28.177  1.00  0.00     0.031 C 
ATOM     37  C   UNL A   1      46.830  27.932  28.938  1.00  0.00     0.037 A 
BRANCH  24  38
ATOM     38  C   UNL A   1      43.998  33.167  30.729  1.00  0.00     0.058 A 
ATOM     39  C   UNL A   1      43.987  33.517  32.089  1.00  0.00     0.135 A 
ATOM     40  C   UNL A   1      44.037  34.207  29.787  1.00  0.00     0.135 A 
ATOM     41  F   UNL A   1      43.908  32.565  33.032  1.00  0.00    -0.206 F 
ATOM     42  C   UNL A   1      43.986  34.848  32.497  1.00  0.00     0.059 A 
ATOM     43  C   UNL A   1      44.064  35.544  30.172  1.00  0.00     0.059 A 
ATOM     44  F   UNL A   1      44.025  33.931  28.474  1.00  0.00    -0.206 F 
ATOM     45  C   UNL A   1      44.023  35.855  31.530  1.00  0.00     0.060 A 
BRANCH  45  46
ATOM     46  S   UNL A   1      44.012  37.577  32.071  1.00  0.00     0.124 S 
ATOM     47  O   UNL A   1      43.130  37.513  33.232  1.00  0.00    -0.237 OA
ATOM     48  O   UNL A   1      45.422  37.821  32.359  1.00  0.00    -0.237 OA
ATOM     49  O   UNL A   1      43.478  38.293  30.916  1.00  0.00    -0.744 OA
ENDBRANCH  45  46
ENDBRANCH  24  38
BRANCH  25  50
ATOM     50  C   UNL A   1      42.771  23.624  27.521  1.00  0.00     0.058 A 
ATOM     51  C   UNL A   1      42.796  23.331  26.150  1.00  0.00     0.135 A 
ATOM     52  C   UNL A   1      42.572  22.550  28.408  1.00  0.00     0.135 A 
ATOM     53  F   UNL A   1      42.977  24.315  25.258  1.00  0.00    -0.206 F 
ATOM     54  C   UNL A   1      42.619  22.032  25.677  1.00  0.00     0.059 A 
ATOM     55  C   UNL A   1      42.425  21.240  27.961  1.00  0.00     0.059 A 
ATOM     56  F   UNL A   1      42.551  22.766  29.733  1.00  0.00    -0.206 F 
ATOM     57  C   UNL A   1      42.437  20.992  26.591  1.00  0.00     0.060 A 
BRANCH  57  58
ATOM     58  S   UNL A   1      42.239  19.309  25.969  1.00  0.00     0.124 S 
ATOM     59  O   UNL A   1      43.098  19.327  24.790  1.00  0.00    -0.237 OA
ATOM     60  O   UNL A   1      42.714  18.508  27.093  1.00  0.00    -0.237 OA
ATOM     61  O   UNL A   1      40.807  19.213  25.703  1.00  0.00    -0.744 OA
ENDBRANCH  57  58
ENDBRANCH  25  50
BRANCH  37  62
ATOM     62  C   UNL A   1      48.304  27.672  28.862  1.00  0.00     0.058 A 
ATOM     63  C   UNL A   1      49.032  27.236  29.978  1.00  0.00     0.135 A 
ATOM     64  C   UNL A   1      48.973  27.796  27.635  1.00  0.00     0.135 A 
ATOM     65  F   UNL A   1      48.432  27.112  31.173  1.00  0.00    -0.206 F 
ATOM     66  C   UNL A   1      50.386  26.945  29.882  1.00  0.00     0.059 A 
ATOM     67  C   UNL A   1      50.319  27.480  27.511  1.00  0.00     0.059 A 
ATOM     68  F   UNL A   1      48.311  28.202  26.540  1.00  0.00    -0.206 F 
ATOM     69  C   UNL A   1      51.018  27.064  28.643  1.00  0.00     0.060 A 
BRANCH  69  70
ATOM     70  S   UNL A   1      52.765  26.633  28.522  1.00  0.00     0.124 S 
ATOM     71  O   UNL A   1      53.378  27.944  28.340  1.00  0.00    -0.237 OA
ATOM     72  O   UNL A   1      53.016  25.987  29.806  1.00  0.00    -0.237 OA
ATOM     73  O   UNL A   1      52.817  25.748  27.362  1.00  0.00    -0.744 OA
ENDBRANCH  69  70
ENDBRANCH  37  62
ENDBRANCH  11  12
ENDBRANCH   4   6
ENDBRANCH   3   4
ENDBRANCH   2   3
ENDBRANCH   1   2
BRANCH   1  74
ATOM     74  O   UNL A   1      33.138  34.274  29.455  1.00  0.00    -0.374 OA
BRANCH  74  75
ATOM     75  C   UNL A   1      33.193  35.654  29.810  1.00  0.00     0.202 C 
BRANCH  75  76
ATOM     76  C   UNL A   1      32.904  35.764  31.307  1.00  0.00     0.261 C 
BRANCH  76  77
ATOM     77  O   UNL A   1      33.680  34.749  31.971  1.00  0.00    -0.463 OA
BRANCH  77  78
ATOM     78  C   UNL A   1      34.766  35.189  32.676  1.00  0.00     0.312 C 
ATOM     79  O   UNL A   1      34.861  36.287  33.207  1.00  0.00    -0.252 OA
BRANCH  78  80
ATOM     80  C   UNL A   1      35.873  34.108  32.711  1.00  0.00     0.074 C 
ATOM     81  C   UNL A   1      35.260  32.715  32.970  1.00  0.00     0.019 C 
ATOM     82  C   UNL A   1      36.397  34.029  31.256  1.00  0.00     0.019 C 
ATOM     83  C   UNL A   1      35.943  31.747  32.029  1.00  0.00     0.001 C 
ATOM     84  C   UNL A   1      36.320  32.569  30.814  1.00  0.00     0.001 C 
BRANCH  80  85
ATOM     85  C   UNL A   1      36.979  34.558  33.751  1.00  0.00     0.051 C 
ATOM     86  C   UNL A   1      36.847  33.943  35.166  1.00  0.00     0.144 C 
ATOM     87  C   UNL A   1      38.485  34.410  33.425  1.00  0.00     0.134 C 
ATOM     88  S   UNL A   1      38.141  32.727  35.377  1.00  0.00     0.153 S 
ATOM     89  C   UNL A   1      38.964  33.031  33.842  1.00  0.00     0.169 C 
ATOM     90  O   UNL A   1      39.024  33.150  36.445  1.00  0.00    -0.229 OA
ATOM     91  O   UNL A   1      37.563  31.401  35.331  1.00  0.00    -0.229 OA
BRANCH  87  92
ATOM     92  O   UNL A   1      38.826  34.728  32.092  1.00  0.00    -0.392 OA
ATOM     93  H   UNL A   1      39.094  33.921  31.626  1.00  0.00     0.211 HD
ENDBRANCH  87  92
ENDBRANCH  80  85
ENDBRANCH  78  80
ENDBRANCH  77  78
ENDBRANCH  76  77
ENDBRANCH  75  76
ENDBRANCH  74  75
ENDBRANCH   1  74
TORSDOF 19
ENDMDL
