MODEL 1
REMARK VINA RESULT:     -11.1      0.000      0.000
REMARK SMILES C[C@@H](Sc1nc(-c2ccc3c(c2)OCO3)ccc1C#N)C(=O)OCCOCCOC(=O)c1ccc(-c2c3nc(c(-c4c(F)cc(S(=O)(=O)[O-])cc4F)c4ccc([nH]4)c(-c4c(F)cc(S(=O)(=O)[O-])cc4F)c4nc(c(-c5c(F)cc(S(=O)(=O)[O-])cc5F)c5ccc2[nH]5)C=C4)C=C3)cc1
REMARK SMILES IDX 26 1 25 2 24 3 23 4 21 5 22 6 2 7 1 8 3 9 4 10 5 11 18 12
REMARK SMILES IDX 6 13 17 14 16 15 19 16 20 17 7 18 8 19 12 20 9 21 11 22
REMARK SMILES IDX 10 23 13 24 15 25 14 26 27 27 28 28 29 29 30 30 31 31 32 32
REMARK SMILES IDX 33 33 97 34 34 35 96 36 35 37 36 38 37 39 90 40 38 41 95 42
REMARK SMILES IDX 89 43 91 44 39 45 94 46 88 47 87 48 40 50 74 51 53 52 73 53
REMARK SMILES IDX 54 54 57 55 72 56 92 57 55 58 56 59 71 61 93 62 58 63 41 64
REMARK SMILES IDX 42 65 51 66 43 67 44 68 50 69 52 70 45 71 46 72 47 73 48 74
REMARK SMILES IDX 49 75 75 76 76 77 85 78 77 79 78 80 84 81 86 82 79 83 80 84
REMARK SMILES IDX 81 85 82 86 83 87 59 88 60 89 69 90 61 91 62 92 68 93 70 94
REMARK SMILES IDX 63 95 64 96 65 97 66 98 67 99
REMARK H PARENT 91 49 57 60
REMARK Flexibility Score: inf
ROOT
ATOM      1  O   UNL A   1      31.392  27.633  27.594  1.00  0.00    -0.374 OA
ENDROOT
BRANCH   1   2
ATOM      2  C   UNL A   1      31.109  26.705  26.551  1.00  0.00     0.202 C 
BRANCH   2   3
ATOM      3  C   UNL A   1      31.642  25.274  26.673  1.00  0.00     0.261 C 
BRANCH   3   4
ATOM      4  O   UNL A   1      30.606  24.324  26.965  1.00  0.00    -0.462 OA
BRANCH   4   5
ATOM      5  C   UNL A   1      30.701  23.129  26.319  1.00  0.00     0.319 C 
ATOM      6  O   UNL A   1      29.915  22.196  26.451  1.00  0.00    -0.251 OA
BRANCH   5   7
ATOM      7  C   UNL A   1      31.898  23.065  25.383  1.00  0.00     0.160 C 
ATOM      8  C   UNL A   1      32.826  21.880  25.638  1.00  0.00     0.032 C 
BRANCH   7   9
ATOM      9  S   UNL A   1      31.254  23.087  23.674  1.00  0.00    -0.090 SA
BRANCH   9  10
ATOM     10  C   UNL A   1      31.838  24.692  23.180  1.00  0.00     0.115 A 
ATOM     11  N   UNL A   1      30.885  25.657  23.178  1.00  0.00    -0.240 NA
ATOM     12  C   UNL A   1      33.167  24.952  22.862  1.00  0.00     0.084 A 
ATOM     13  C   UNL A   1      31.238  26.926  22.872  1.00  0.00     0.072 A 
ATOM     14  C   UNL A   1      33.529  26.273  22.589  1.00  0.00     0.024 A 
ATOM     15  C   UNL A   1      32.557  27.272  22.601  1.00  0.00     0.030 A 
BRANCH  12  16
ATOM     16  C   UNL A   1      34.160  23.926  22.770  1.00  0.00     0.102 C 
ATOM     17  N   UNL A   1      35.019  23.150  22.709  1.00  0.00    -0.192 NA
ENDBRANCH  12  16
BRANCH  13  18
ATOM     18  C   UNL A   1      30.145  27.911  22.839  1.00  0.00     0.004 A 
ATOM     19  C   UNL A   1      28.846  27.573  23.299  1.00  0.00     0.014 A 
ATOM     20  C   UNL A   1      30.366  29.210  22.342  1.00  0.00     0.061 A 
ATOM     21  C   UNL A   1      27.785  28.483  23.238  1.00  0.00     0.051 A 
ATOM     22  C   UNL A   1      29.298  30.081  22.277  1.00  0.00     0.166 A 
ATOM     23  C   UNL A   1      28.043  29.726  22.706  1.00  0.00     0.165 A 
ATOM     24  O   UNL A   1      29.336  31.348  21.783  1.00  0.00    -0.454 OA
ATOM     25  O   UNL A   1      27.133  30.722  22.539  1.00  0.00    -0.454 OA
ATOM     26  C   UNL A   1      27.952  31.733  21.912  1.00  0.00     0.468 C 
ENDBRANCH  13  18
ENDBRANCH   9  10
ENDBRANCH   7   9
ENDBRANCH   5   7
ENDBRANCH   4   5
ENDBRANCH   3   4
ENDBRANCH   2   3
ENDBRANCH   1   2
BRANCH   1  27
ATOM     27  C   UNL A   1      31.961  28.892  27.250  1.00  0.00     0.202 C 
BRANCH  27  28
ATOM     28  C   UNL A   1      33.477  28.988  27.013  1.00  0.00     0.261 C 
BRANCH  28  29
ATOM     29  O   UNL A   1      33.934  30.307  26.673  1.00  0.00    -0.460 OA
BRANCH  29  30
ATOM     30  C   UNL A   1      34.549  30.950  27.700  1.00  0.00     0.338 C 
ATOM     31  O   UNL A   1      34.094  31.869  28.361  1.00  0.00    -0.246 OA
BRANCH  30  32
ATOM     32  C   UNL A   1      35.802  30.273  28.079  1.00  0.00     0.060 A 
ATOM     33  C   UNL A   1      35.866  29.750  29.376  1.00  0.00     0.016 A 
ATOM     34  C   UNL A   1      36.928  30.268  27.254  1.00  0.00     0.016 A 
ATOM     35  C   UNL A   1      37.076  29.294  29.883  1.00  0.00     0.010 A 
ATOM     36  C   UNL A   1      38.147  29.801  27.767  1.00  0.00     0.010 A 
ATOM     37  C   UNL A   1      38.237  29.358  29.099  1.00  0.00    -0.014 A 
BRANCH  37  38
ATOM     38  C   UNL A   1      39.544  29.069  29.746  1.00  0.00     0.031 A 
ATOM     39  C   UNL A   1      39.961  29.839  30.972  1.00  0.00     0.074 A 
ATOM     40  C   UNL A   1      40.304  28.053  29.296  1.00  0.00     0.049 A 
ATOM     41  N   UNL A   1      41.029  29.699  31.715  1.00  0.00    -0.248 NA
ATOM     42  C   UNL A   1      39.057  30.911  31.422  1.00  0.00     0.031 C 
ATOM     43  C   UNL A   1      39.992  27.221  28.134  1.00  0.00     0.029 A 
ATOM     44  N   UNL A   1      41.486  27.540  29.768  1.00  0.00    -0.354 N 
ATOM     45  C   UNL A   1      40.923  30.653  32.721  1.00  0.00     0.074 A 
ATOM     46  C   UNL A   1      39.713  31.403  32.462  1.00  0.00     0.031 C 
ATOM     47  C   UNL A   1      40.956  26.297  27.986  1.00  0.00     0.029 A 
ATOM     48  C   UNL A   1      41.971  26.496  29.017  1.00  0.00     0.049 A 
ATOM     49  H   UNL A   1      41.944  27.888  30.567  1.00  0.00     0.167 HD
ATOM     50  C   UNL A   1      41.747  30.869  33.776  1.00  0.00     0.037 A 
ATOM     51  C   UNL A   1      43.114  25.792  29.134  1.00  0.00     0.037 A 
ATOM     52  C   UNL A   1      42.955  30.120  34.022  1.00  0.00     0.049 A 
ATOM     53  C   UNL A   1      44.046  26.095  30.278  1.00  0.00     0.074 A 
ATOM     54  C   UNL A   1      43.858  30.261  35.062  1.00  0.00     0.029 A 
ATOM     55  N   UNL A   1      43.432  29.093  33.220  1.00  0.00    -0.354 N 
ATOM     56  N   UNL A   1      43.920  26.986  31.234  1.00  0.00    -0.248 NA
ATOM     57  C   UNL A   1      45.269  25.287  30.368  1.00  0.00     0.031 C 
ATOM     58  C   UNL A   1      44.912  29.364  34.855  1.00  0.00     0.029 A 
ATOM     59  C   UNL A   1      44.629  28.610  33.728  1.00  0.00     0.049 A 
ATOM     60  H   UNL A   1      42.987  28.757  32.410  1.00  0.00     0.167 HD
ATOM     61  C   UNL A   1      45.036  26.828  32.051  1.00  0.00     0.074 A 
ATOM     62  C   UNL A   1      45.807  25.736  31.493  1.00  0.00     0.031 C 
ATOM     63  C   UNL A   1      45.392  27.524  33.160  1.00  0.00     0.037 A 
BRANCH  50  64
ATOM     64  C   UNL A   1      41.379  31.966  34.743  1.00  0.00     0.058 A 
ATOM     65  C   UNL A   1      41.864  33.277  34.594  1.00  0.00     0.135 A 
ATOM     66  C   UNL A   1      40.487  31.720  35.800  1.00  0.00     0.135 A 
ATOM     67  F   UNL A   1      42.732  33.569  33.612  1.00  0.00    -0.206 F 
ATOM     68  C   UNL A   1      41.495  34.295  35.468  1.00  0.00     0.059 A 
ATOM     69  C   UNL A   1      40.078  32.731  36.666  1.00  0.00     0.059 A 
ATOM     70  F   UNL A   1      39.991  30.488  35.994  1.00  0.00    -0.206 F 
ATOM     71  C   UNL A   1      40.596  34.014  36.498  1.00  0.00     0.060 A 
BRANCH  71  72
ATOM     72  S   UNL A   1      40.113  35.354  37.607  1.00  0.00     0.124 S 
ATOM     73  O   UNL A   1      38.891  34.817  38.199  1.00  0.00    -0.237 OA
ATOM     74  O   UNL A   1      41.263  35.446  38.501  1.00  0.00    -0.237 OA
ATOM     75  O   UNL A   1      39.926  36.490  36.709  1.00  0.00    -0.744 OA
ENDBRANCH  71  72
ENDBRANCH  50  64
BRANCH  51  76
ATOM     76  C   UNL A   1      43.454  24.752  28.124  1.00  0.00     0.058 A 
ATOM     77  C   UNL A   1      43.033  23.422  28.264  1.00  0.00     0.135 A 
ATOM     78  C   UNL A   1      44.226  25.075  26.996  1.00  0.00     0.135 A 
ATOM     79  F   UNL A   1      42.300  23.057  29.328  1.00  0.00    -0.206 F 
ATOM     80  C   UNL A   1      43.388  22.444  27.339  1.00  0.00     0.059 A 
ATOM     81  C   UNL A   1      44.560  24.124  26.038  1.00  0.00     0.059 A 
ATOM     82  F   UNL A   1      44.644  26.336  26.804  1.00  0.00    -0.206 F 
ATOM     83  C   UNL A   1      44.150  22.806  26.228  1.00  0.00     0.060 A 
BRANCH  83  84
ATOM     84  S   UNL A   1      44.577  21.538  25.017  1.00  0.00     0.124 S 
ATOM     85  O   UNL A   1      45.956  21.236  25.382  1.00  0.00    -0.237 OA
ATOM     86  O   UNL A   1      43.596  20.497  25.309  1.00  0.00    -0.237 OA
ATOM     87  O   UNL A   1      44.397  22.219  23.739  1.00  0.00    -0.744 OA
ENDBRANCH  83  84
ENDBRANCH  51  76
BRANCH  63  88
ATOM     88  C   UNL A   1      46.657  27.098  33.864  1.00  0.00     0.058 A 
ATOM     89  C   UNL A   1      47.906  27.662  33.556  1.00  0.00     0.135 A 
ATOM     90  C   UNL A   1      46.617  26.113  34.865  1.00  0.00     0.135 A 
ATOM     91  F   UNL A   1      48.007  28.606  32.608  1.00  0.00    -0.206 F 
ATOM     92  C   UNL A   1      49.075  27.225  34.173  1.00  0.00     0.059 A 
ATOM     93  C   UNL A   1      47.767  25.691  35.525  1.00  0.00     0.059 A 
ATOM     94  F   UNL A   1      45.450  25.549  35.214  1.00  0.00    -0.206 F 
ATOM     95  C   UNL A   1      48.996  26.237  35.155  1.00  0.00     0.060 A 
BRANCH  95  96
ATOM     96  S   UNL A   1      50.520  25.673  35.939  1.00  0.00     0.124 S 
ATOM     97  O   UNL A   1      50.040  25.265  37.255  1.00  0.00    -0.237 OA
ATOM     98  O   UNL A   1      50.943  24.593  35.054  1.00  0.00    -0.237 OA
ATOM     99  O   UNL A   1      51.372  26.859  35.922  1.00  0.00    -0.744 OA
ENDBRANCH  95  96
ENDBRANCH  63  88
ENDBRANCH  37  38
ENDBRANCH  30  32
ENDBRANCH  29  30
ENDBRANCH  28  29
ENDBRANCH  27  28
ENDBRANCH   1  27
TORSDOF 21
ENDMDL
MODEL 2
REMARK VINA RESULT:     -11.1      3.073      9.518
REMARK SMILES C[C@@H](Sc1nc(-c2ccc3c(c2)OCO3)ccc1C#N)C(=O)OCCOCCOC(=O)c1ccc(-c2c3nc(c(-c4c(F)cc(S(=O)(=O)[O-])cc4F)c4ccc([nH]4)c(-c4c(F)cc(S(=O)(=O)[O-])cc4F)c4nc(c(-c5c(F)cc(S(=O)(=O)[O-])cc5F)c5ccc2[nH]5)C=C4)C=C3)cc1
REMARK SMILES IDX 26 1 25 2 24 3 23 4 21 5 22 6 2 7 1 8 3 9 4 10 5 11 18 12
REMARK SMILES IDX 6 13 17 14 16 15 19 16 20 17 7 18 8 19 12 20 9 21 11 22
REMARK SMILES IDX 10 23 13 24 15 25 14 26 27 27 28 28 29 29 30 30 31 31 32 32
REMARK SMILES IDX 33 33 97 34 34 35 96 36 35 37 36 38 37 39 90 40 38 41 95 42
REMARK SMILES IDX 89 43 91 44 39 45 94 46 88 47 87 48 40 50 74 51 53 52 73 53
REMARK SMILES IDX 54 54 57 55 72 56 92 57 55 58 56 59 71 61 93 62 58 63 41 64
REMARK SMILES IDX 42 65 51 66 43 67 44 68 50 69 52 70 45 71 46 72 47 73 48 74
REMARK SMILES IDX 49 75 75 76 76 77 85 78 77 79 78 80 84 81 86 82 79 83 80 84
REMARK SMILES IDX 81 85 82 86 83 87 59 88 60 89 69 90 61 91 62 92 68 93 70 94
REMARK SMILES IDX 63 95 64 96 65 97 66 98 67 99
REMARK H PARENT 91 49 57 60
REMARK Flexibility Score: inf
ROOT
ATOM      1  O   UNL A   1      41.319  20.615  27.140  1.00  0.00    -0.374 OA
ENDROOT
BRANCH   1   2
ATOM      2  C   UNL A   1      40.267  20.847  26.208  1.00  0.00     0.202 C 
BRANCH   2   3
ATOM      3  C   UNL A   1      39.256  21.959  26.501  1.00  0.00     0.261 C 
BRANCH   3   4
ATOM      4  O   UNL A   1      38.112  21.904  25.635  1.00  0.00    -0.462 OA
BRANCH   4   5
ATOM      5  C   UNL A   1      37.387  23.054  25.540  1.00  0.00     0.319 C 
ATOM      6  O   UNL A   1      37.623  24.086  26.159  1.00  0.00    -0.251 OA
BRANCH   5   7
ATOM      7  C   UNL A   1      36.233  22.936  24.555  1.00  0.00     0.160 C 
ATOM      8  C   UNL A   1      36.666  22.889  23.092  1.00  0.00     0.032 C 
BRANCH   7   9
ATOM      9  S   UNL A   1      35.253  21.472  25.037  1.00  0.00    -0.090 SA
BRANCH   9  10
ATOM     10  C   UNL A   1      33.647  22.231  25.116  1.00  0.00     0.115 A 
ATOM     11  N   UNL A   1      33.670  23.587  25.149  1.00  0.00    -0.240 NA
ATOM     12  C   UNL A   1      32.461  21.503  25.103  1.00  0.00     0.084 A 
ATOM     13  C   UNL A   1      32.498  24.262  25.153  1.00  0.00     0.072 A 
ATOM     14  C   UNL A   1      31.258  22.211  25.064  1.00  0.00     0.024 A 
ATOM     15  C   UNL A   1      31.276  23.604  25.081  1.00  0.00     0.030 A 
BRANCH  12  16
ATOM     16  C   UNL A   1      32.426  20.073  25.162  1.00  0.00     0.102 C 
ATOM     17  N   UNL A   1      32.320  18.920  25.192  1.00  0.00    -0.192 NA
ENDBRANCH  12  16
BRANCH  13  18
ATOM     18  C   UNL A   1      32.597  25.727  25.242  1.00  0.00     0.004 A 
ATOM     19  C   UNL A   1      33.751  26.347  25.788  1.00  0.00     0.014 A 
ATOM     20  C   UNL A   1      31.544  26.545  24.792  1.00  0.00     0.061 A 
ATOM     21  C   UNL A   1      33.846  27.738  25.918  1.00  0.00     0.051 A 
ATOM     22  C   UNL A   1      31.656  27.912  24.948  1.00  0.00     0.166 A 
ATOM     23  C   UNL A   1      32.772  28.491  25.500  1.00  0.00     0.165 A 
ATOM     24  O   UNL A   1      30.712  28.830  24.608  1.00  0.00    -0.454 OA
ATOM     25  O   UNL A   1      32.674  29.844  25.578  1.00  0.00    -0.454 OA
ATOM     26  C   UNL A   1      31.345  30.048  25.050  1.00  0.00     0.468 C 
ENDBRANCH  13  18
ENDBRANCH   9  10
ENDBRANCH   7   9
ENDBRANCH   5   7
ENDBRANCH   4   5
ENDBRANCH   3   4
ENDBRANCH   2   3
ENDBRANCH   1   2
BRANCH   1  27
ATOM     27  C   UNL A   1      42.628  21.073  26.817  1.00  0.00     0.202 C 
BRANCH  27  28
ATOM     28  C   UNL A   1      42.799  22.457  26.172  1.00  0.00     0.261 C 
BRANCH  28  29
ATOM     29  O   UNL A   1      42.556  23.555  27.066  1.00  0.00    -0.460 OA
BRANCH  29  30
ATOM     30  C   UNL A   1      42.447  24.754  26.437  1.00  0.00     0.338 C 
ATOM     31  O   UNL A   1      42.652  24.978  25.255  1.00  0.00    -0.246 OA
BRANCH  30  32
ATOM     32  C   UNL A   1      41.847  25.768  27.322  1.00  0.00     0.060 A 
ATOM     33  C   UNL A   1      42.557  26.965  27.478  1.00  0.00     0.016 A 
ATOM     34  C   UNL A   1      40.706  25.514  28.083  1.00  0.00     0.016 A 
ATOM     35  C   UNL A   1      42.175  27.877  28.453  1.00  0.00     0.010 A 
ATOM     36  C   UNL A   1      40.320  26.441  29.063  1.00  0.00     0.010 A 
ATOM     37  C   UNL A   1      41.081  27.602  29.286  1.00  0.00    -0.014 A 
BRANCH  37  38
ATOM     38  C   UNL A   1      40.840  28.491  30.453  1.00  0.00     0.031 A 
ATOM     39  C   UNL A   1      41.698  28.361  31.685  1.00  0.00     0.074 A 
ATOM     40  C   UNL A   1      39.924  29.474  30.369  1.00  0.00     0.049 A 
ATOM     41  N   UNL A   1      41.687  29.076  32.781  1.00  0.00    -0.248 NA
ATOM     42  C   UNL A   1      42.701  27.284  31.685  1.00  0.00     0.031 C 
ATOM     43  C   UNL A   1      39.051  29.712  29.218  1.00  0.00     0.029 A 
ATOM     44  N   UNL A   1      39.583  30.461  31.258  1.00  0.00    -0.354 N 
ATOM     45  C   UNL A   1      42.682  28.545  33.594  1.00  0.00     0.074 A 
ATOM     46  C   UNL A   1      43.240  27.412  32.888  1.00  0.00     0.031 C 
ATOM     47  C   UNL A   1      38.279  30.782  29.471  1.00  0.00     0.029 A 
ATOM     48  C   UNL A   1      38.573  31.279  30.812  1.00  0.00     0.049 A 
ATOM     49  H   UNL A   1      40.020  30.571  32.134  1.00  0.00     0.167 HD
ATOM     50  C   UNL A   1      43.105  28.974  34.808  1.00  0.00     0.037 A 
ATOM     51  C   UNL A   1      37.941  32.301  31.422  1.00  0.00     0.037 A 
ATOM     52  C   UNL A   1      42.537  30.101  35.508  1.00  0.00     0.049 A 
ATOM     53  C   UNL A   1      38.387  32.719  32.799  1.00  0.00     0.074 A 
ATOM     54  C   UNL A   1      42.895  30.618  36.742  1.00  0.00     0.029 A 
ATOM     55  N   UNL A   1      41.491  30.885  35.039  1.00  0.00    -0.354 N 
ATOM     56  N   UNL A   1      39.344  32.219  33.545  1.00  0.00    -0.248 NA
ATOM     57  C   UNL A   1      37.676  33.848  33.411  1.00  0.00     0.031 C 
ATOM     58  C   UNL A   1      42.026  31.671  37.047  1.00  0.00     0.029 A 
ATOM     59  C   UNL A   1      41.175  31.862  35.971  1.00  0.00     0.049 A 
ATOM     60  H   UNL A   1      41.040  30.764  34.173  1.00  0.00     0.167 HD
ATOM     61  C   UNL A   1      39.365  32.990  34.705  1.00  0.00     0.074 A 
ATOM     62  C   UNL A   1      38.346  34.007  34.543  1.00  0.00     0.031 C 
ATOM     63  C   UNL A   1      40.153  32.867  35.803  1.00  0.00     0.037 A 
BRANCH  50  64
ATOM     64  C   UNL A   1      44.232  28.220  35.468  1.00  0.00     0.058 A 
ATOM     65  C   UNL A   1      43.993  27.126  36.316  1.00  0.00     0.135 A 
ATOM     66  C   UNL A   1      45.570  28.559  35.206  1.00  0.00     0.135 A 
ATOM     67  F   UNL A   1      42.735  26.765  36.617  1.00  0.00    -0.206 F 
ATOM     68  C   UNL A   1      45.036  26.411  36.897  1.00  0.00     0.059 A 
ATOM     69  C   UNL A   1      46.629  27.836  35.748  1.00  0.00     0.059 A 
ATOM     70  F   UNL A   1      45.861  29.595  34.404  1.00  0.00    -0.206 F 
ATOM     71  C   UNL A   1      46.352  26.770  36.602  1.00  0.00     0.060 A 
BRANCH  71  72
ATOM     72  S   UNL A   1      47.692  25.814  37.346  1.00  0.00     0.124 S 
ATOM     73  O   UNL A   1      47.572  26.190  38.752  1.00  0.00    -0.237 OA
ATOM     74  O   UNL A   1      47.311  24.444  37.021  1.00  0.00    -0.237 OA
ATOM     75  O   UNL A   1      48.884  26.310  36.666  1.00  0.00    -0.744 OA
ENDBRANCH  71  72
ENDBRANCH  50  64
BRANCH  51  76
ATOM     76  C   UNL A   1      36.802  32.980  30.747  1.00  0.00     0.058 A 
ATOM     77  C   UNL A   1      37.003  33.908  29.714  1.00  0.00     0.135 A 
ATOM     78  C   UNL A   1      35.478  32.719  31.139  1.00  0.00     0.135 A 
ATOM     79  F   UNL A   1      38.247  34.201  29.307  1.00  0.00    -0.206 F 
ATOM     80  C   UNL A   1      35.937  34.572  29.113  1.00  0.00     0.059 A 
ATOM     81  C   UNL A   1      34.395  33.341  30.528  1.00  0.00     0.059 A 
ATOM     82  F   UNL A   1      35.227  31.831  32.113  1.00  0.00    -0.206 F 
ATOM     83  C   UNL A   1      34.637  34.279  29.526  1.00  0.00     0.060 A 
BRANCH  83  84
ATOM     84  S   UNL A   1      33.260  35.122  28.719  1.00  0.00     0.124 S 
ATOM     85  O   UNL A   1      33.955  36.138  27.937  1.00  0.00    -0.237 OA
ATOM     86  O   UNL A   1      32.645  34.039  27.958  1.00  0.00    -0.237 OA
ATOM     87  O   UNL A   1      32.467  35.621  29.839  1.00  0.00    -0.744 OA
ENDBRANCH  83  84
ENDBRANCH  51  76
BRANCH  63  88
ATOM     88  C   UNL A   1      39.965  33.883  36.902  1.00  0.00     0.058 A 
ATOM     89  C   UNL A   1      39.081  33.668  37.972  1.00  0.00     0.135 A 
ATOM     90  C   UNL A   1      40.685  35.090  36.887  1.00  0.00     0.135 A 
ATOM     91  F   UNL A   1      38.365  32.534  38.040  1.00  0.00    -0.206 F 
ATOM     92  C   UNL A   1      38.875  34.633  38.953  1.00  0.00     0.059 A 
ATOM     93  C   UNL A   1      40.526  36.051  37.880  1.00  0.00     0.059 A 
ATOM     94  F   UNL A   1      41.557  35.346  35.898  1.00  0.00    -0.206 F 
ATOM     95  C   UNL A   1      39.601  35.824  38.897  1.00  0.00     0.060 A 
BRANCH  95  96
ATOM     96  S   UNL A   1      39.316  37.070  40.171  1.00  0.00     0.124 S 
ATOM     97  O   UNL A   1      38.547  38.069  39.438  1.00  0.00    -0.237 OA
ATOM     98  O   UNL A   1      38.580  36.318  41.182  1.00  0.00    -0.237 OA
ATOM     99  O   UNL A   1      40.664  37.476  40.559  1.00  0.00    -0.744 OA
ENDBRANCH  95  96
ENDBRANCH  63  88
ENDBRANCH  37  38
ENDBRANCH  30  32
ENDBRANCH  29  30
ENDBRANCH  28  29
ENDBRANCH  27  28
ENDBRANCH   1  27
TORSDOF 21
ENDMDL
MODEL 3
REMARK VINA RESULT:     -10.9      1.970      4.817
REMARK SMILES C[C@@H](Sc1nc(-c2ccc3c(c2)OCO3)ccc1C#N)C(=O)OCCOCCOC(=O)c1ccc(-c2c3nc(c(-c4c(F)cc(S(=O)(=O)[O-])cc4F)c4ccc([nH]4)c(-c4c(F)cc(S(=O)(=O)[O-])cc4F)c4nc(c(-c5c(F)cc(S(=O)(=O)[O-])cc5F)c5ccc2[nH]5)C=C4)C=C3)cc1
REMARK SMILES IDX 26 1 25 2 24 3 23 4 21 5 22 6 2 7 1 8 3 9 4 10 5 11 18 12
REMARK SMILES IDX 6 13 17 14 16 15 19 16 20 17 7 18 8 19 12 20 9 21 11 22
REMARK SMILES IDX 10 23 13 24 15 25 14 26 27 27 28 28 29 29 30 30 31 31 32 32
REMARK SMILES IDX 33 33 97 34 34 35 96 36 35 37 36 38 37 39 90 40 38 41 95 42
REMARK SMILES IDX 89 43 91 44 39 45 94 46 88 47 87 48 40 50 74 51 53 52 73 53
REMARK SMILES IDX 54 54 57 55 72 56 92 57 55 58 56 59 71 61 93 62 58 63 41 64
REMARK SMILES IDX 42 65 51 66 43 67 44 68 50 69 52 70 45 71 46 72 47 73 48 74
REMARK SMILES IDX 49 75 75 76 76 77 85 78 77 79 78 80 84 81 86 82 79 83 80 84
REMARK SMILES IDX 81 85 82 86 83 87 59 88 60 89 69 90 61 91 62 92 68 93 70 94
REMARK SMILES IDX 63 95 64 96 65 97 66 98 67 99
REMARK H PARENT 91 49 57 60
REMARK Flexibility Score: inf
ROOT
ATOM      1  O   UNL A   1      31.381  28.971  25.076  1.00  0.00    -0.374 OA
ENDROOT
BRANCH   1   2
ATOM      2  C   UNL A   1      31.261  27.915  24.127  1.00  0.00     0.202 C 
BRANCH   2   3
ATOM      3  C   UNL A   1      30.018  27.021  24.175  1.00  0.00     0.261 C 
BRANCH   3   4
ATOM      4  O   UNL A   1      30.344  25.637  24.373  1.00  0.00    -0.462 OA
BRANCH   4   5
ATOM      5  C   UNL A   1      30.367  25.214  25.667  1.00  0.00     0.319 C 
ATOM      6  O   UNL A   1      29.920  25.843  26.620  1.00  0.00    -0.251 OA
BRANCH   5   7
ATOM      7  C   UNL A   1      31.006  23.841  25.821  1.00  0.00     0.160 C 
ATOM      8  C   UNL A   1      30.176  22.856  26.641  1.00  0.00     0.032 C 
BRANCH   7   9
ATOM      9  S   UNL A   1      31.366  23.217  24.143  1.00  0.00    -0.090 SA
BRANCH   9  10
ATOM     10  C   UNL A   1      32.966  22.505  24.451  1.00  0.00     0.115 A 
ATOM     11  N   UNL A   1      32.970  21.151  24.531  1.00  0.00    -0.240 NA
ATOM     12  C   UNL A   1      34.126  23.264  24.561  1.00  0.00     0.084 A 
ATOM     13  C   UNL A   1      34.146  20.508  24.707  1.00  0.00     0.072 A 
ATOM     14  C   UNL A   1      35.340  22.588  24.700  1.00  0.00     0.024 A 
ATOM     15  C   UNL A   1      35.353  21.196  24.765  1.00  0.00     0.030 A 
BRANCH  12  16
ATOM     16  C   UNL A   1      34.122  24.695  24.572  1.00  0.00     0.102 C 
ATOM     17  N   UNL A   1      34.197  25.852  24.576  1.00  0.00    -0.192 NA
ENDBRANCH  12  16
BRANCH  13  18
ATOM     18  C   UNL A   1      34.069  19.044  24.835  1.00  0.00     0.004 A 
ATOM     19  C   UNL A   1      35.137  18.218  24.397  1.00  0.00     0.014 A 
ATOM     20  C   UNL A   1      32.929  18.432  25.390  1.00  0.00     0.061 A 
ATOM     21  C   UNL A   1      35.064  16.823  24.473  1.00  0.00     0.051 A 
ATOM     22  C   UNL A   1      32.877  17.055  25.437  1.00  0.00     0.166 A 
ATOM     23  C   UNL A   1      33.912  16.272  24.987  1.00  0.00     0.165 A 
ATOM     24  O   UNL A   1      31.833  16.314  25.899  1.00  0.00    -0.454 OA
ATOM     25  O   UNL A   1      33.653  14.943  25.107  1.00  0.00    -0.454 OA
ATOM     26  C   UNL A   1      32.314  14.978  25.647  1.00  0.00     0.468 C 
ENDBRANCH  13  18
ENDBRANCH   9  10
ENDBRANCH   7   9
ENDBRANCH   5   7
ENDBRANCH   4   5
ENDBRANCH   3   4
ENDBRANCH   2   3
ENDBRANCH   1   2
BRANCH   1  27
ATOM     27  C   UNL A   1      32.647  29.604  25.233  1.00  0.00     0.202 C 
BRANCH  27  28
ATOM     28  C   UNL A   1      33.592  29.121  26.344  1.00  0.00     0.261 C 
BRANCH  28  29
ATOM     29  O   UNL A   1      33.517  29.891  27.554  1.00  0.00    -0.460 OA
BRANCH  29  30
ATOM     30  C   UNL A   1      34.509  30.811  27.675  1.00  0.00     0.338 C 
ATOM     31  O   UNL A   1      34.384  32.025  27.653  1.00  0.00    -0.246 OA
BRANCH  30  32
ATOM     32  C   UNL A   1      35.786  30.173  28.044  1.00  0.00     0.060 A 
ATOM     33  C   UNL A   1      35.862  29.614  29.325  1.00  0.00     0.016 A 
ATOM     34  C   UNL A   1      36.916  30.238  27.228  1.00  0.00     0.016 A 
ATOM     35  C   UNL A   1      37.087  29.191  29.826  1.00  0.00     0.010 A 
ATOM     36  C   UNL A   1      38.149  29.805  27.736  1.00  0.00     0.010 A 
ATOM     37  C   UNL A   1      38.249  29.325  29.054  1.00  0.00    -0.014 A 
BRANCH  37  38
ATOM     38  C   UNL A   1      39.562  29.068  29.702  1.00  0.00     0.031 A 
ATOM     39  C   UNL A   1      39.980  29.882  30.900  1.00  0.00     0.074 A 
ATOM     40  C   UNL A   1      40.329  28.045  29.280  1.00  0.00     0.049 A 
ATOM     41  N   UNL A   1      41.054  29.775  31.640  1.00  0.00    -0.248 NA
ATOM     42  C   UNL A   1      39.070  30.960  31.319  1.00  0.00     0.031 C 
ATOM     43  C   UNL A   1      40.017  27.173  28.147  1.00  0.00     0.029 A 
ATOM     44  N   UNL A   1      41.518  27.558  29.761  1.00  0.00    -0.354 N 
ATOM     45  C   UNL A   1      40.945  30.760  32.615  1.00  0.00     0.074 A 
ATOM     46  C   UNL A   1      39.727  31.491  32.339  1.00  0.00     0.031 C 
ATOM     47  C   UNL A   1      40.988  26.253  28.024  1.00  0.00     0.029 A 
ATOM     48  C   UNL A   1      42.008  26.494  29.042  1.00  0.00     0.049 A 
ATOM     49  H   UNL A   1      41.977  27.936  30.546  1.00  0.00     0.167 HD
ATOM     50  C   UNL A   1      41.773  31.018  33.657  1.00  0.00     0.037 A 
ATOM     51  C   UNL A   1      43.158  25.804  29.174  1.00  0.00     0.037 A 
ATOM     52  C   UNL A   1      42.990  30.288  33.920  1.00  0.00     0.049 A 
ATOM     53  C   UNL A   1      44.094  26.153  30.302  1.00  0.00     0.074 A 
ATOM     54  C   UNL A   1      43.898  30.470  34.949  1.00  0.00     0.029 A 
ATOM     55  N   UNL A   1      43.471  29.239  33.148  1.00  0.00    -0.354 N 
ATOM     56  N   UNL A   1      43.965  27.073  31.229  1.00  0.00    -0.248 NA
ATOM     57  C   UNL A   1      45.324  25.359  30.410  1.00  0.00     0.031 C 
ATOM     58  C   UNL A   1      44.958  29.576  34.764  1.00  0.00     0.029 A 
ATOM     59  C   UNL A   1      44.675  28.783  33.664  1.00  0.00     0.049 A 
ATOM     60  H   UNL A   1      43.024  28.873  32.352  1.00  0.00     0.167 HD
ATOM     61  C   UNL A   1      45.088  26.951  32.044  1.00  0.00     0.074 A 
ATOM     62  C   UNL A   1      45.864  25.848  31.516  1.00  0.00     0.031 C 
ATOM     63  C   UNL A   1      45.445  27.686  33.127  1.00  0.00     0.037 A 
BRANCH  50  64
ATOM     64  C   UNL A   1      41.402  32.143  34.590  1.00  0.00     0.058 A 
ATOM     65  C   UNL A   1      41.881  33.450  34.400  1.00  0.00     0.135 A 
ATOM     66  C   UNL A   1      40.511  31.926  35.654  1.00  0.00     0.135 A 
ATOM     67  F   UNL A   1      42.748  33.716  33.410  1.00  0.00    -0.206 F 
ATOM     68  C   UNL A   1      41.509  34.494  35.243  1.00  0.00     0.059 A 
ATOM     69  C   UNL A   1      40.099  32.962  36.489  1.00  0.00     0.059 A 
ATOM     70  F   UNL A   1      40.020  30.699  35.886  1.00  0.00    -0.206 F 
ATOM     71  C   UNL A   1      40.612  34.240  36.281  1.00  0.00     0.060 A 
BRANCH  71  72
ATOM     72  S   UNL A   1      40.124  35.612  37.349  1.00  0.00     0.124 S 
ATOM     73  O   UNL A   1      39.651  36.590  36.373  1.00  0.00    -0.237 OA
ATOM     74  O   UNL A   1      39.095  35.002  38.185  1.00  0.00    -0.237 OA
ATOM     75  O   UNL A   1      41.361  35.965  38.039  1.00  0.00    -0.744 OA
ENDBRANCH  71  72
ENDBRANCH  50  64
BRANCH  51  76
ATOM     76  C   UNL A   1      43.500  24.735  28.197  1.00  0.00     0.058 A 
ATOM     77  C   UNL A   1      44.280  24.996  27.060  1.00  0.00     0.135 A 
ATOM     78  C   UNL A   1      43.035  23.422  28.379  1.00  0.00     0.135 A 
ATOM     79  F   UNL A   1      44.743  26.235  26.833  1.00  0.00    -0.206 F 
ATOM     80  C   UNL A   1      44.563  24.003  26.127  1.00  0.00     0.059 A 
ATOM     81  C   UNL A   1      43.337  22.405  27.481  1.00  0.00     0.059 A 
ATOM     82  F   UNL A   1      42.296  23.113  29.456  1.00  0.00    -0.206 F 
ATOM     83  C   UNL A   1      44.089  22.709  26.348  1.00  0.00     0.060 A 
BRANCH  83  84
ATOM     84  S   UNL A   1      44.489  21.421  25.149  1.00  0.00     0.124 S 
ATOM     85  O   UNL A   1      45.860  21.090  25.520  1.00  0.00    -0.237 OA
ATOM     86  O   UNL A   1      43.483  20.407  25.446  1.00  0.00    -0.237 OA
ATOM     87  O   UNL A   1      44.329  22.096  23.864  1.00  0.00    -0.744 OA
ENDBRANCH  83  84
ENDBRANCH  51  76
BRANCH  63  88
ATOM     88  C   UNL A   1      46.718  27.295  33.836  1.00  0.00     0.058 A 
ATOM     89  C   UNL A   1      46.731  26.351  34.876  1.00  0.00     0.135 A 
ATOM     90  C   UNL A   1      47.945  27.870  33.464  1.00  0.00     0.135 A 
ATOM     91  F   UNL A   1      45.589  25.769  35.276  1.00  0.00    -0.206 F 
ATOM     92  C   UNL A   1      47.902  26.035  35.559  1.00  0.00     0.059 A 
ATOM     93  C   UNL A   1      49.134  27.537  34.105  1.00  0.00     0.059 A 
ATOM     94  F   UNL A   1      47.998  28.766  32.466  1.00  0.00    -0.206 F 
ATOM     95  C   UNL A   1      49.099  26.636  35.168  1.00  0.00     0.060 A 
BRANCH  95  96
ATOM     96  S   UNL A   1      50.607  26.225  36.069  1.00  0.00     0.124 S 
ATOM     97  O   UNL A   1      51.154  25.147  35.251  1.00  0.00    -0.237 OA
ATOM     98  O   UNL A   1      51.343  27.485  36.033  1.00  0.00    -0.237 OA
ATOM     99  O   UNL A   1      50.121  25.827  37.387  1.00  0.00    -0.744 OA
ENDBRANCH  95  96
ENDBRANCH  63  88
ENDBRANCH  37  38
ENDBRANCH  30  32
ENDBRANCH  29  30
ENDBRANCH  28  29
ENDBRANCH  27  28
ENDBRANCH   1  27
TORSDOF 21
ENDMDL
