MODEL 1
REMARK VINA RESULT:     -11.0      0.000      0.000
REMARK SMILES C[C@H](NC(=O)N1CCN(/C=C/c2ccccc2)CC1)C(=O)OCCOCCOC(=O)c1ccc(-c2c3nc(c(-c4c(F)cc(S(=O)(=O)[O-])cc4F)c4ccc([nH]4)c(-c4c(F)cc(S(=O)(=O)[O-])cc4F)c4nc(c(-c5c(F)cc(S(=O)(=O)[O-])cc5F)c5ccc2[nH]5)C=C4)C=C3)cc1
REMARK SMILES IDX 25 1 24 2 23 3 22 4 20 5 21 6 2 7 1 8 3 9 4 10 5 12 6 13
REMARK SMILES IDX 7 14 19 15 8 16 18 17 9 18 10 19 11 20 12 21 13 22 17 23
REMARK SMILES IDX 14 24 16 25 15 26 26 27 27 28 28 29 29 30 30 31 31 32 32 33
REMARK SMILES IDX 96 34 33 35 95 36 34 37 35 38 36 39 89 40 37 41 94 42 88 43
REMARK SMILES IDX 90 44 38 45 93 46 87 47 86 48 39 50 73 51 52 52 72 53 53 54
REMARK SMILES IDX 56 55 71 56 91 57 54 58 55 59 70 61 92 62 57 63 40 64 41 65
REMARK SMILES IDX 50 66 42 67 43 68 49 69 51 70 44 71 45 72 46 73 47 74 48 75
REMARK SMILES IDX 74 76 75 77 84 78 76 79 77 80 83 81 85 82 78 83 79 84 80 85
REMARK SMILES IDX 81 86 82 87 58 88 59 89 68 90 60 91 61 92 67 93 69 94 62 95
REMARK SMILES IDX 63 96 64 97 65 98 66 99
REMARK H PARENT 3 11 90 49 56 60
REMARK Flexibility Score: inf
ROOT
ATOM      1  O   UNL A   1      35.274  20.766  25.139  1.00  0.00    -0.374 OA
ENDROOT
BRANCH   1   2
ATOM      2  C   UNL A   1      34.372  19.690  24.908  1.00  0.00     0.202 C 
BRANCH   2   3
ATOM      3  C   UNL A   1      32.929  19.878  25.373  1.00  0.00     0.261 C 
BRANCH   3   4
ATOM      4  O   UNL A   1      32.157  20.698  24.491  1.00  0.00    -0.462 OA
BRANCH   4   5
ATOM      5  C   UNL A   1      31.810  21.925  24.986  1.00  0.00     0.328 C 
ATOM      6  O   UNL A   1      30.912  22.138  25.792  1.00  0.00    -0.250 OA
BRANCH   5   7
ATOM      7  C   UNL A   1      32.556  23.041  24.246  1.00  0.00     0.190 C 
ATOM      8  C   UNL A   1      32.718  22.499  22.828  1.00  0.00     0.043 C 
BRANCH   7   9
ATOM      9  N   UNL A   1      33.820  23.380  24.904  1.00  0.00    -0.325 N 
ATOM     10  C   UNL A   1      34.283  24.476  25.533  1.00  0.00     0.318 C 
ATOM     11  H   UNL A   1      34.475  22.644  24.882  1.00  0.00     0.166 HD
ATOM     12  O   UNL A   1      35.479  24.483  25.827  1.00  0.00    -0.249 OA
ATOM     13  N   UNL A   1      33.491  25.564  25.715  1.00  0.00    -0.321 N 
ATOM     14  C   UNL A   1      34.092  26.885  25.584  1.00  0.00     0.143 C 
ATOM     15  C   UNL A   1      32.106  25.614  26.165  1.00  0.00     0.143 C 
ATOM     16  C   UNL A   1      33.334  27.678  24.514  1.00  0.00     0.137 C 
ATOM     17  C   UNL A   1      31.217  26.548  25.322  1.00  0.00     0.137 C 
ATOM     18  N   UNL A   1      31.882  27.777  24.813  1.00  0.00    -0.374 N 
BRANCH  18  19
ATOM     19  C   UNL A   1      31.098  28.806  24.307  1.00  0.00     0.081 C 
ATOM     20  C   UNL A   1      30.208  28.803  23.305  1.00  0.00     0.025 C 
BRANCH  20  21
ATOM     21  C   UNL A   1      29.507  30.010  22.841  1.00  0.00    -0.024 A 
ATOM     22  C   UNL A   1      29.216  31.035  23.751  1.00  0.00     0.008 A 
ATOM     23  C   UNL A   1      29.042  30.128  21.524  1.00  0.00     0.008 A 
ATOM     24  C   UNL A   1      28.492  32.161  23.342  1.00  0.00     0.001 A 
ATOM     25  C   UNL A   1      28.324  31.252  21.116  1.00  0.00     0.001 A 
ATOM     26  C   UNL A   1      28.048  32.269  22.026  1.00  0.00     0.000 A 
ENDBRANCH  20  21
ENDBRANCH  18  19
ENDBRANCH   7   9
ENDBRANCH   5   7
ENDBRANCH   4   5
ENDBRANCH   3   4
ENDBRANCH   2   3
ENDBRANCH   1   2
BRANCH   1  27
ATOM     27  C   UNL A   1      36.658  20.565  24.846  1.00  0.00     0.202 C 
BRANCH  27  28
ATOM     28  C   UNL A   1      37.574  21.794  24.836  1.00  0.00     0.261 C 
BRANCH  28  29
ATOM     29  O   UNL A   1      37.953  22.213  26.161  1.00  0.00    -0.460 OA
BRANCH  29  30
ATOM     30  C   UNL A   1      39.288  22.276  26.373  1.00  0.00     0.338 C 
ATOM     31  O   UNL A   1      40.140  21.497  25.951  1.00  0.00    -0.246 OA
BRANCH  30  32
ATOM     32  C   UNL A   1      39.652  23.531  27.046  1.00  0.00     0.060 A 
ATOM     33  C   UNL A   1      39.056  24.715  26.591  1.00  0.00     0.016 A 
ATOM     34  C   UNL A   1      40.658  23.567  28.014  1.00  0.00     0.016 A 
ATOM     35  C   UNL A   1      39.498  25.947  27.068  1.00  0.00     0.010 A 
ATOM     36  C   UNL A   1      41.109  24.807  28.481  1.00  0.00     0.010 A 
ATOM     37  C   UNL A   1      40.557  26.000  27.984  1.00  0.00    -0.014 A 
BRANCH  37  38
ATOM     38  C   UNL A   1      41.177  27.308  28.312  1.00  0.00     0.031 A 
ATOM     39  C   UNL A   1      42.662  27.475  28.140  1.00  0.00     0.074 A 
ATOM     40  C   UNL A   1      40.423  28.336  28.739  1.00  0.00     0.049 A 
ATOM     41  N   UNL A   1      43.417  28.506  28.417  1.00  0.00    -0.248 NA
ATOM     42  C   UNL A   1      43.393  26.326  27.579  1.00  0.00     0.031 C 
ATOM     43  C   UNL A   1      38.970  28.305  28.903  1.00  0.00     0.029 A 
ATOM     44  N   UNL A   1      40.778  29.604  29.124  1.00  0.00    -0.354 N 
ATOM     45  C   UNL A   1      44.711  28.129  28.076  1.00  0.00     0.074 A 
ATOM     46  C   UNL A   1      44.643  26.768  27.590  1.00  0.00     0.031 C 
ATOM     47  C   UNL A   1      38.559  29.494  29.376  1.00  0.00     0.029 A 
ATOM     48  C   UNL A   1      39.723  30.357  29.578  1.00  0.00     0.049 A 
ATOM     49  H   UNL A   1      41.702  29.941  29.079  1.00  0.00     0.167 HD
ATOM     50  C   UNL A   1      45.853  28.855  28.159  1.00  0.00     0.037 A 
ATOM     51  C   UNL A   1      39.702  31.589  30.123  1.00  0.00     0.037 A 
ATOM     52  C   UNL A   1      45.912  30.210  28.641  1.00  0.00     0.049 A 
ATOM     53  C   UNL A   1      40.993  32.352  30.270  1.00  0.00     0.074 A 
ATOM     54  C   UNL A   1      47.014  31.042  28.738  1.00  0.00     0.029 A 
ATOM     55  N   UNL A   1      44.826  30.929  29.118  1.00  0.00    -0.354 N 
ATOM     56  N   UNL A   1      42.206  31.996  29.919  1.00  0.00    -0.248 NA
ATOM     57  C   UNL A   1      40.913  33.685  30.886  1.00  0.00     0.031 C 
ATOM     58  C   UNL A   1      46.603  32.246  29.318  1.00  0.00     0.029 A 
ATOM     59  C   UNL A   1      45.235  32.184  29.537  1.00  0.00     0.049 A 
ATOM     60  H   UNL A   1      43.899  30.597  29.153  1.00  0.00     0.167 HD
ATOM     61  C   UNL A   1      43.030  33.066  30.252  1.00  0.00     0.074 A 
ATOM     62  C   UNL A   1      42.175  34.088  30.822  1.00  0.00     0.031 C 
ATOM     63  C   UNL A   1      44.371  33.192  30.098  1.00  0.00     0.037 A 
BRANCH  50  64
ATOM     64  C   UNL A   1      47.135  28.190  27.743  1.00  0.00     0.058 A 
ATOM     65  C   UNL A   1      47.902  27.434  28.644  1.00  0.00     0.135 A 
ATOM     66  C   UNL A   1      47.583  28.279  26.416  1.00  0.00     0.135 A 
ATOM     67  F   UNL A   1      47.527  27.330  29.929  1.00  0.00    -0.206 F 
ATOM     68  C   UNL A   1      49.079  26.808  28.248  1.00  0.00     0.059 A 
ATOM     69  C   UNL A   1      48.746  27.643  25.992  1.00  0.00     0.059 A 
ATOM     70  F   UNL A   1      46.889  28.992  25.515  1.00  0.00    -0.206 F 
ATOM     71  C   UNL A   1      49.495  26.920  26.920  1.00  0.00     0.060 A 
BRANCH  71  72
ATOM     72  S   UNL A   1      51.022  26.097  26.419  1.00  0.00     0.124 S 
ATOM     73  O   UNL A   1      50.886  26.093  24.966  1.00  0.00    -0.237 OA
ATOM     74  O   UNL A   1      52.047  26.987  26.957  1.00  0.00    -0.237 OA
ATOM     75  O   UNL A   1      50.932  24.790  27.062  1.00  0.00    -0.744 OA
ENDBRANCH  71  72
ENDBRANCH  50  64
BRANCH  51  76
ATOM     76  C   UNL A   1      38.417  32.167  30.597  1.00  0.00     0.058 A 
ATOM     77  C   UNL A   1      37.645  32.997  29.771  1.00  0.00     0.135 A 
ATOM     78  C   UNL A   1      37.934  31.896  31.887  1.00  0.00     0.135 A 
ATOM     79  F   UNL A   1      38.070  33.295  28.533  1.00  0.00    -0.206 F 
ATOM     80  C   UNL A   1      36.444  33.546  30.209  1.00  0.00     0.059 A 
ATOM     81  C   UNL A   1      36.725  32.414  32.339  1.00  0.00     0.059 A 
ATOM     82  F   UNL A   1      38.631  31.101  32.712  1.00  0.00    -0.206 F 
ATOM     83  C   UNL A   1      35.991  33.246  31.495  1.00  0.00     0.060 A 
BRANCH  83  84
ATOM     84  S   UNL A   1      34.405  33.919  32.037  1.00  0.00     0.124 S 
ATOM     85  O   UNL A   1      34.831  35.019  32.895  1.00  0.00    -0.237 OA
ATOM     86  O   UNL A   1      33.784  34.299  30.772  1.00  0.00    -0.237 OA
ATOM     87  O   UNL A   1      33.777  32.791  32.719  1.00  0.00    -0.744 OA
ENDBRANCH  83  84
ENDBRANCH  51  76
BRANCH  63  88
ATOM     88  C   UNL A   1      45.002  34.489  30.526  1.00  0.00     0.058 A 
ATOM     89  C   UNL A   1      45.527  34.662  31.816  1.00  0.00     0.135 A 
ATOM     90  C   UNL A   1      45.145  35.545  29.611  1.00  0.00     0.135 A 
ATOM     91  F   UNL A   1      45.410  33.685  32.729  1.00  0.00    -0.206 F 
ATOM     92  C   UNL A   1      46.161  35.843  32.188  1.00  0.00     0.059 A 
ATOM     93  C   UNL A   1      45.797  36.726  29.954  1.00  0.00     0.059 A 
ATOM     94  F   UNL A   1      44.669  35.427  28.361  1.00  0.00    -0.206 F 
ATOM     95  C   UNL A   1      46.295  36.868  31.249  1.00  0.00     0.060 A 
BRANCH  95  96
ATOM     96  S   UNL A   1      47.162  38.377  31.730  1.00  0.00     0.124 S 
ATOM     97  O   UNL A   1      48.544  38.036  31.408  1.00  0.00    -0.237 OA
ATOM     98  O   UNL A   1      46.541  39.382  30.873  1.00  0.00    -0.237 OA
ATOM     99  O   UNL A   1      46.861  38.503  33.153  1.00  0.00    -0.744 OA
ENDBRANCH  95  96
ENDBRANCH  63  88
ENDBRANCH  37  38
ENDBRANCH  30  32
ENDBRANCH  29  30
ENDBRANCH  28  29
ENDBRANCH  27  28
ENDBRANCH   1  27
TORSDOF 20
ENDMDL
MODEL 2
REMARK VINA RESULT:     -11.0      3.187      9.954
REMARK SMILES C[C@H](NC(=O)N1CCN(/C=C/c2ccccc2)CC1)C(=O)OCCOCCOC(=O)c1ccc(-c2c3nc(c(-c4c(F)cc(S(=O)(=O)[O-])cc4F)c4ccc([nH]4)c(-c4c(F)cc(S(=O)(=O)[O-])cc4F)c4nc(c(-c5c(F)cc(S(=O)(=O)[O-])cc5F)c5ccc2[nH]5)C=C4)C=C3)cc1
REMARK SMILES IDX 25 1 24 2 23 3 22 4 20 5 21 6 2 7 1 8 3 9 4 10 5 12 6 13
REMARK SMILES IDX 7 14 19 15 8 16 18 17 9 18 10 19 11 20 12 21 13 22 17 23
REMARK SMILES IDX 14 24 16 25 15 26 26 27 27 28 28 29 29 30 30 31 31 32 32 33
REMARK SMILES IDX 96 34 33 35 95 36 34 37 35 38 36 39 89 40 37 41 94 42 88 43
REMARK SMILES IDX 90 44 38 45 93 46 87 47 86 48 39 50 73 51 52 52 72 53 53 54
REMARK SMILES IDX 56 55 71 56 91 57 54 58 55 59 70 61 92 62 57 63 40 64 41 65
REMARK SMILES IDX 50 66 42 67 43 68 49 69 51 70 44 71 45 72 46 73 47 74 48 75
REMARK SMILES IDX 74 76 75 77 84 78 76 79 77 80 83 81 85 82 78 83 79 84 80 85
REMARK SMILES IDX 81 86 82 87 58 88 59 89 68 90 60 91 61 92 67 93 69 94 62 95
REMARK SMILES IDX 63 96 64 97 65 98 66 99
REMARK H PARENT 3 11 90 49 56 60
REMARK Flexibility Score: inf
ROOT
ATOM      1  O   UNL A   1      34.400  31.962  27.871  1.00  0.00    -0.374 OA
ENDROOT
BRANCH   1   2
ATOM      2  C   UNL A   1      33.209  31.479  27.261  1.00  0.00     0.202 C 
BRANCH   2   3
ATOM      3  C   UNL A   1      33.094  29.970  27.052  1.00  0.00     0.261 C 
BRANCH   3   4
ATOM      4  O   UNL A   1      33.225  29.582  25.681  1.00  0.00    -0.462 OA
BRANCH   4   5
ATOM      5  C   UNL A   1      33.589  28.280  25.474  1.00  0.00     0.328 C 
ATOM      6  O   UNL A   1      34.291  27.611  26.222  1.00  0.00    -0.250 OA
BRANCH   5   7
ATOM      7  C   UNL A   1      33.176  27.817  24.071  1.00  0.00     0.190 C 
ATOM      8  C   UNL A   1      34.023  28.675  23.135  1.00  0.00     0.043 C 
BRANCH   7   9
ATOM      9  N   UNL A   1      31.733  27.946  23.859  1.00  0.00    -0.325 N 
ATOM     10  C   UNL A   1      30.698  27.087  23.915  1.00  0.00     0.318 C 
ATOM     11  H   UNL A   1      31.459  28.863  23.624  1.00  0.00     0.166 HD
ATOM     12  O   UNL A   1      29.612  27.499  23.504  1.00  0.00    -0.249 OA
ATOM     13  N   UNL A   1      30.883  25.794  24.288  1.00  0.00    -0.321 N 
ATOM     14  C   UNL A   1      30.115  24.762  23.605  1.00  0.00     0.143 C 
ATOM     15  C   UNL A   1      31.668  25.273  25.399  1.00  0.00     0.143 C 
ATOM     16  C   UNL A   1      31.079  23.741  22.992  1.00  0.00     0.137 C 
ATOM     17  C   UNL A   1      32.561  24.078  25.016  1.00  0.00     0.137 C 
ATOM     18  N   UNL A   1      31.988  23.149  24.006  1.00  0.00    -0.374 N 
BRANCH  18  19
ATOM     19  C   UNL A   1      32.580  21.905  23.824  1.00  0.00     0.081 C 
ATOM     20  C   UNL A   1      32.185  20.691  24.233  1.00  0.00     0.025 C 
BRANCH  20  21
ATOM     21  C   UNL A   1      32.974  19.469  24.018  1.00  0.00    -0.024 A 
ATOM     22  C   UNL A   1      32.472  18.455  23.192  1.00  0.00     0.008 A 
ATOM     23  C   UNL A   1      34.185  19.250  24.691  1.00  0.00     0.008 A 
ATOM     24  C   UNL A   1      33.178  17.259  23.029  1.00  0.00     0.001 A 
ATOM     25  C   UNL A   1      34.891  18.058  24.526  1.00  0.00     0.001 A 
ATOM     26  C   UNL A   1      34.386  17.062  23.694  1.00  0.00     0.000 A 
ENDBRANCH  20  21
ENDBRANCH  18  19
ENDBRANCH   7   9
ENDBRANCH   5   7
ENDBRANCH   4   5
ENDBRANCH   3   4
ENDBRANCH   2   3
ENDBRANCH   1   2
BRANCH   1  27
ATOM     27  C   UNL A   1      34.325  33.153  28.657  1.00  0.00     0.202 C 
BRANCH  27  28
ATOM     28  C   UNL A   1      35.256  33.271  29.868  1.00  0.00     0.261 C 
BRANCH  28  29
ATOM     29  O   UNL A   1      36.495  32.559  29.687  1.00  0.00    -0.460 OA
BRANCH  29  30
ATOM     30  C   UNL A   1      36.657  31.490  30.500  1.00  0.00     0.338 C 
ATOM     31  O   UNL A   1      35.889  31.110  31.383  1.00  0.00    -0.246 OA
BRANCH  30  32
ATOM     32  C   UNL A   1      37.815  30.686  30.083  1.00  0.00     0.060 A 
ATOM     33  C   UNL A   1      38.711  30.266  31.076  1.00  0.00     0.016 A 
ATOM     34  C   UNL A   1      38.090  30.461  28.733  1.00  0.00     0.016 A 
ATOM     35  C   UNL A   1      39.914  29.660  30.717  1.00  0.00     0.010 A 
ATOM     36  C   UNL A   1      39.305  29.865  28.377  1.00  0.00     0.010 A 
ATOM     37  C   UNL A   1      40.236  29.496  29.364  1.00  0.00    -0.014 A 
BRANCH  37  38
ATOM     38  C   UNL A   1      41.605  29.069  28.983  1.00  0.00     0.031 A 
ATOM     39  C   UNL A   1      42.713  30.086  28.980  1.00  0.00     0.074 A 
ATOM     40  C   UNL A   1      41.858  27.788  28.662  1.00  0.00     0.049 A 
ATOM     41  N   UNL A   1      43.965  29.946  28.629  1.00  0.00    -0.248 NA
ATOM     42  C   UNL A   1      42.363  31.442  29.435  1.00  0.00     0.031 C 
ATOM     43  C   UNL A   1      40.873  26.706  28.671  1.00  0.00     0.029 A 
ATOM     44  N   UNL A   1      43.019  27.182  28.255  1.00  0.00    -0.354 N 
ATOM     45  C   UNL A   1      44.550  31.194  28.809  1.00  0.00     0.074 A 
ATOM     46  C   UNL A   1      43.512  32.084  29.282  1.00  0.00     0.031 C 
ATOM     47  C   UNL A   1      41.469  25.571  28.266  1.00  0.00     0.029 A 
ATOM     48  C   UNL A   1      42.867  25.854  27.940  1.00  0.00     0.049 A 
ATOM     49  H   UNL A   1      43.881  27.656  28.194  1.00  0.00     0.167 HD
ATOM     50  C   UNL A   1      45.837  31.562  28.602  1.00  0.00     0.037 A 
ATOM     51  C   UNL A   1      43.745  24.976  27.417  1.00  0.00     0.037 A 
ATOM     52  C   UNL A   1      46.865  30.669  28.134  1.00  0.00     0.049 A 
ATOM     53  C   UNL A   1      45.154  25.425  27.129  1.00  0.00     0.074 A 
ATOM     54  C   UNL A   1      48.206  30.937  27.919  1.00  0.00     0.029 A 
ATOM     55  N   UNL A   1      46.665  29.338  27.799  1.00  0.00    -0.354 N 
ATOM     56  N   UNL A   1      45.702  26.600  27.328  1.00  0.00    -0.248 NA
ATOM     57  C   UNL A   1      46.064  24.429  26.544  1.00  0.00     0.031 C 
ATOM     58  C   UNL A   1      48.805  29.782  27.407  1.00  0.00     0.029 A 
ATOM     59  C   UNL A   1      47.850  28.778  27.351  1.00  0.00     0.049 A 
ATOM     60  H   UNL A   1      45.806  28.860  27.869  1.00  0.00     0.167 HD
ATOM     61  C   UNL A   1      47.025  26.480  26.914  1.00  0.00     0.074 A 
ATOM     62  C   UNL A   1      47.198  25.114  26.463  1.00  0.00     0.031 C 
ATOM     63  C   UNL A   1      48.007  27.415  26.910  1.00  0.00     0.037 A 
BRANCH  50  64
ATOM     64  C   UNL A   1      46.202  32.998  28.853  1.00  0.00     0.058 A 
ATOM     65  C   UNL A   1      46.670  33.435  30.102  1.00  0.00     0.135 A 
ATOM     66  C   UNL A   1      46.118  33.944  27.818  1.00  0.00     0.135 A 
ATOM     67  F   UNL A   1      46.754  32.576  31.131  1.00  0.00    -0.206 F 
ATOM     68  C   UNL A   1      47.021  34.763  30.323  1.00  0.00     0.059 A 
ATOM     69  C   UNL A   1      46.485  35.272  28.009  1.00  0.00     0.059 A 
ATOM     70  F   UNL A   1      45.674  33.579  26.605  1.00  0.00    -0.206 F 
ATOM     71  C   UNL A   1      46.923  35.675  29.270  1.00  0.00     0.060 A 
BRANCH  71  72
ATOM     72  S   UNL A   1      47.387  37.395  29.569  1.00  0.00     0.124 S 
ATOM     73  O   UNL A   1      46.364  37.810  30.523  1.00  0.00    -0.237 OA
ATOM     74  O   UNL A   1      48.739  37.265  30.105  1.00  0.00    -0.237 OA
ATOM     75  O   UNL A   1      47.298  38.007  28.247  1.00  0.00    -0.744 OA
ENDBRANCH  71  72
ENDBRANCH  50  64
BRANCH  51  76
ATOM     76  C   UNL A   1      43.309  23.588  27.107  1.00  0.00     0.058 A 
ATOM     77  C   UNL A   1      43.165  22.628  28.118  1.00  0.00     0.135 A 
ATOM     78  C   UNL A   1      43.022  23.199  25.789  1.00  0.00     0.135 A 
ATOM     79  F   UNL A   1      43.439  22.950  29.393  1.00  0.00    -0.206 F 
ATOM     80  C   UNL A   1      42.763  21.327  27.836  1.00  0.00     0.059 A 
ATOM     81  C   UNL A   1      42.595  21.911  25.484  1.00  0.00     0.059 A 
ATOM     82  F   UNL A   1      43.135  24.083  24.786  1.00  0.00    -0.206 F 
ATOM     83  C   UNL A   1      42.477  20.979  26.514  1.00  0.00     0.060 A 
BRANCH  83  84
ATOM     84  S   UNL A   1      41.903  19.302  26.162  1.00  0.00     0.124 S 
ATOM     85  O   UNL A   1      42.682  18.969  24.975  1.00  0.00    -0.237 OA
ATOM     86  O   UNL A   1      42.266  18.591  27.384  1.00  0.00    -0.237 OA
ATOM     87  O   UNL A   1      40.469  19.476  25.951  1.00  0.00    -0.744 OA
ENDBRANCH  83  84
ENDBRANCH  51  76
BRANCH  63  88
ATOM     88  C   UNL A   1      49.368  26.993  26.428  1.00  0.00     0.058 A 
ATOM     89  C   UNL A   1      50.313  26.426  27.297  1.00  0.00     0.135 A 
ATOM     90  C   UNL A   1      49.703  27.094  25.068  1.00  0.00     0.135 A 
ATOM     91  F   UNL A   1      50.044  26.314  28.607  1.00  0.00    -0.206 F 
ATOM     92  C   UNL A   1      51.549  25.985  26.835  1.00  0.00     0.059 A 
ATOM     93  C   UNL A   1      50.924  26.637  24.581  1.00  0.00     0.059 A 
ATOM     94  F   UNL A   1      48.831  27.620  24.194  1.00  0.00    -0.206 F 
ATOM     95  C   UNL A   1      51.844  26.090  25.475  1.00  0.00     0.060 A 
BRANCH  95  96
ATOM     96  S   UNL A   1      53.432  25.470  24.881  1.00  0.00     0.124 S 
ATOM     97  O   UNL A   1      54.366  26.168  25.758  1.00  0.00    -0.237 OA
ATOM     98  O   UNL A   1      53.309  24.033  25.102  1.00  0.00    -0.237 OA
ATOM     99  O   UNL A   1      53.456  25.883  23.481  1.00  0.00    -0.744 OA
ENDBRANCH  95  96
ENDBRANCH  63  88
ENDBRANCH  37  38
ENDBRANCH  30  32
ENDBRANCH  29  30
ENDBRANCH  28  29
ENDBRANCH  27  28
ENDBRANCH   1  27
TORSDOF 20
ENDMDL
MODEL 3
REMARK VINA RESULT:     -11.0      4.996      6.712
REMARK SMILES C[C@H](NC(=O)N1CCN(/C=C/c2ccccc2)CC1)C(=O)OCCOCCOC(=O)c1ccc(-c2c3nc(c(-c4c(F)cc(S(=O)(=O)[O-])cc4F)c4ccc([nH]4)c(-c4c(F)cc(S(=O)(=O)[O-])cc4F)c4nc(c(-c5c(F)cc(S(=O)(=O)[O-])cc5F)c5ccc2[nH]5)C=C4)C=C3)cc1
REMARK SMILES IDX 25 1 24 2 23 3 22 4 20 5 21 6 2 7 1 8 3 9 4 10 5 12 6 13
REMARK SMILES IDX 7 14 19 15 8 16 18 17 9 18 10 19 11 20 12 21 13 22 17 23
REMARK SMILES IDX 14 24 16 25 15 26 26 27 27 28 28 29 29 30 30 31 31 32 32 33
REMARK SMILES IDX 96 34 33 35 95 36 34 37 35 38 36 39 89 40 37 41 94 42 88 43
REMARK SMILES IDX 90 44 38 45 93 46 87 47 86 48 39 50 73 51 52 52 72 53 53 54
REMARK SMILES IDX 56 55 71 56 91 57 54 58 55 59 70 61 92 62 57 63 40 64 41 65
REMARK SMILES IDX 50 66 42 67 43 68 49 69 51 70 44 71 45 72 46 73 47 74 48 75
REMARK SMILES IDX 74 76 75 77 84 78 76 79 77 80 83 81 85 82 78 83 79 84 80 85
REMARK SMILES IDX 81 86 82 87 58 88 59 89 68 90 60 91 61 92 67 93 69 94 62 95
REMARK SMILES IDX 63 96 64 97 65 98 66 99
REMARK H PARENT 3 11 90 49 56 60
REMARK Flexibility Score: inf
ROOT
ATOM      1  O   UNL A   1      41.504  21.383  26.953  1.00  0.00    -0.374 OA
ENDROOT
BRANCH   1   2
ATOM      2  C   UNL A   1      40.092  21.527  27.051  1.00  0.00     0.202 C 
BRANCH   2   3
ATOM      3  C   UNL A   1      39.304  21.578  25.743  1.00  0.00     0.261 C 
BRANCH   3   4
ATOM      4  O   UNL A   1      37.917  21.874  25.936  1.00  0.00    -0.462 OA
BRANCH   4   5
ATOM      5  C   UNL A   1      37.548  23.158  25.646  1.00  0.00     0.328 C 
ATOM      6  O   UNL A   1      38.153  24.167  25.989  1.00  0.00    -0.250 OA
BRANCH   5   7
ATOM      7  C   UNL A   1      36.155  23.193  25.007  1.00  0.00     0.190 C 
ATOM      8  C   UNL A   1      35.445  24.333  25.731  1.00  0.00     0.043 C 
BRANCH   7   9
ATOM      9  N   UNL A   1      35.475  21.900  25.116  1.00  0.00    -0.325 N 
ATOM     10  C   UNL A   1      34.323  21.404  24.628  1.00  0.00     0.318 C 
ATOM     11  H   UNL A   1      35.970  21.250  25.668  1.00  0.00     0.166 HD
ATOM     12  O   UNL A   1      33.960  20.310  25.064  1.00  0.00    -0.249 OA
ATOM     13  N   UNL A   1      33.545  22.139  23.792  1.00  0.00    -0.321 N 
ATOM     14  C   UNL A   1      32.098  22.045  23.934  1.00  0.00     0.143 C 
ATOM     15  C   UNL A   1      33.949  22.940  22.644  1.00  0.00     0.143 C 
ATOM     16  C   UNL A   1      31.525  23.445  24.180  1.00  0.00     0.137 C 
ATOM     17  C   UNL A   1      33.295  24.335  22.605  1.00  0.00     0.137 C 
ATOM     18  N   UNL A   1      31.897  24.399  23.105  1.00  0.00    -0.374 N 
BRANCH  18  19
ATOM     19  C   UNL A   1      31.137  25.531  22.834  1.00  0.00     0.081 C 
ATOM     20  C   UNL A   1      31.020  26.678  23.517  1.00  0.00     0.025 C 
BRANCH  20  21
ATOM     21  C   UNL A   1      30.104  27.761  23.127  1.00  0.00    -0.024 A 
ATOM     22  C   UNL A   1      28.735  27.646  23.403  1.00  0.00     0.008 A 
ATOM     23  C   UNL A   1      30.553  28.876  22.405  1.00  0.00     0.008 A 
ATOM     24  C   UNL A   1      27.841  28.635  22.981  1.00  0.00     0.001 A 
ATOM     25  C   UNL A   1      29.661  29.865  21.987  1.00  0.00     0.001 A 
ATOM     26  C   UNL A   1      28.304  29.743  22.275  1.00  0.00     0.000 A 
ENDBRANCH  20  21
ENDBRANCH  18  19
ENDBRANCH   7   9
ENDBRANCH   5   7
ENDBRANCH   4   5
ENDBRANCH   3   4
ENDBRANCH   2   3
ENDBRANCH   1   2
BRANCH   1  27
ATOM     27  C   UNL A   1      42.152  21.837  25.763  1.00  0.00     0.202 C 
BRANCH  27  28
ATOM     28  C   UNL A   1      42.621  23.295  25.715  1.00  0.00     0.261 C 
BRANCH  28  29
ATOM     29  O   UNL A   1      41.606  24.218  26.155  1.00  0.00    -0.460 OA
BRANCH  29  30
ATOM     30  C   UNL A   1      41.924  25.524  25.998  1.00  0.00     0.338 C 
ATOM     31  O   UNL A   1      42.041  26.133  24.936  1.00  0.00    -0.246 OA
BRANCH  30  32
ATOM     32  C   UNL A   1      41.942  26.218  27.294  1.00  0.00     0.060 A 
ATOM     33  C   UNL A   1      40.896  25.960  28.190  1.00  0.00     0.016 A 
ATOM     34  C   UNL A   1      42.892  27.202  27.573  1.00  0.00     0.016 A 
ATOM     35  C   UNL A   1      40.768  26.721  29.350  1.00  0.00     0.010 A 
ATOM     36  C   UNL A   1      42.753  27.974  28.732  1.00  0.00     0.010 A 
ATOM     37  C   UNL A   1      41.671  27.761  29.605  1.00  0.00    -0.014 A 
BRANCH  37  38
ATOM     38  C   UNL A   1      41.400  28.713  30.710  1.00  0.00     0.031 A 
ATOM     39  C   UNL A   1      42.229  28.633  31.963  1.00  0.00     0.074 A 
ATOM     40  C   UNL A   1      40.440  29.647  30.589  1.00  0.00     0.049 A 
ATOM     41  N   UNL A   1      42.128  29.325  33.068  1.00  0.00    -0.248 NA
ATOM     42  C   UNL A   1      43.317  27.642  31.969  1.00  0.00     0.031 C 
ATOM     43  C   UNL A   1      39.603  29.848  29.406  1.00  0.00     0.029 A 
ATOM     44  N   UNL A   1      40.001  30.596  31.477  1.00  0.00    -0.354 N 
ATOM     45  C   UNL A   1      43.130  28.847  33.905  1.00  0.00     0.074 A 
ATOM     46  C   UNL A   1      43.815  27.794  33.189  1.00  0.00     0.031 C 
ATOM     47  C   UNL A   1      38.735  30.845  29.651  1.00  0.00     0.029 A 
ATOM     48  C   UNL A   1      38.934  31.329  31.016  1.00  0.00     0.049 A 
ATOM     49  H   UNL A   1      40.411  30.737  32.361  1.00  0.00     0.167 HD
ATOM     50  C   UNL A   1      43.450  29.254  35.158  1.00  0.00     0.037 A 
ATOM     51  C   UNL A   1      38.185  32.262  31.636  1.00  0.00     0.037 A 
ATOM     52  C   UNL A   1      42.764  30.306  35.863  1.00  0.00     0.049 A 
ATOM     53  C   UNL A   1      38.515  32.650  33.054  1.00  0.00     0.074 A 
ATOM     54  C   UNL A   1      43.030  30.812  37.123  1.00  0.00     0.029 A 
ATOM     55  N   UNL A   1      41.672  31.006  35.374  1.00  0.00    -0.354 N 
ATOM     56  N   UNL A   1      39.482  32.210  33.826  1.00  0.00    -0.248 NA
ATOM     57  C   UNL A   1      37.655  33.660  33.687  1.00  0.00     0.031 C 
ATOM     58  C   UNL A   1      42.068  31.783  37.416  1.00  0.00     0.029 A 
ATOM     59  C   UNL A   1      41.232  31.919  36.317  1.00  0.00     0.049 A 
ATOM     60  H   UNL A   1      41.267  30.873  34.485  1.00  0.00     0.167 HD
ATOM     61  C   UNL A   1      39.358  32.905  35.025  1.00  0.00     0.074 A 
ATOM     62  C   UNL A   1      38.230  33.801  34.873  1.00  0.00     0.031 C 
ATOM     63  C   UNL A   1      40.111  32.809  36.149  1.00  0.00     0.037 A 
BRANCH  50  64
ATOM     64  C   UNL A   1      44.574  28.542  35.857  1.00  0.00     0.058 A 
ATOM     65  C   UNL A   1      45.907  28.961  35.730  1.00  0.00     0.135 A 
ATOM     66  C   UNL A   1      44.307  27.448  36.697  1.00  0.00     0.135 A 
ATOM     67  F   UNL A   1      46.219  29.991  34.927  1.00  0.00    -0.206 F 
ATOM     68  C   UNL A   1      46.941  28.306  36.393  1.00  0.00     0.059 A 
ATOM     69  C   UNL A   1      45.322  26.793  37.387  1.00  0.00     0.059 A 
ATOM     70  F   UNL A   1      43.050  27.006  36.851  1.00  0.00    -0.206 F 
ATOM     71  C   UNL A   1      46.638  27.221  37.218  1.00  0.00     0.060 A 
BRANCH  71  72
ATOM     72  S   UNL A   1      47.988  26.385  38.078  1.00  0.00     0.124 S 
ATOM     73  O   UNL A   1      48.838  27.512  38.448  1.00  0.00    -0.237 OA
ATOM     74  O   UNL A   1      47.295  25.724  39.180  1.00  0.00    -0.237 OA
ATOM     75  O   UNL A   1      48.537  25.492  37.062  1.00  0.00    -0.744 OA
ENDBRANCH  71  72
ENDBRANCH  50  64
BRANCH  51  76
ATOM     76  C   UNL A   1      37.030  32.874  30.928  1.00  0.00     0.058 A 
ATOM     77  C   UNL A   1      37.215  33.883  29.973  1.00  0.00     0.135 A 
ATOM     78  C   UNL A   1      35.716  32.456  31.192  1.00  0.00     0.135 A 
ATOM     79  F   UNL A   1      38.452  34.325  29.694  1.00  0.00    -0.206 F 
ATOM     80  C   UNL A   1      36.140  34.465  29.309  1.00  0.00     0.059 A 
ATOM     81  C   UNL A   1      34.626  33.005  30.525  1.00  0.00     0.059 A 
ATOM     82  F   UNL A   1      35.487  31.487  32.091  1.00  0.00    -0.206 F 
ATOM     83  C   UNL A   1      34.848  34.016  29.591  1.00  0.00     0.060 A 
BRANCH  83  84
ATOM     84  S   UNL A   1      33.460  34.738  28.687  1.00  0.00     0.124 S 
ATOM     85  O   UNL A   1      32.503  34.977  29.761  1.00  0.00    -0.237 OA
ATOM     86  O   UNL A   1      34.066  35.928  28.095  1.00  0.00    -0.237 OA
ATOM     87  O   UNL A   1      33.098  33.692  27.737  1.00  0.00    -0.744 OA
ENDBRANCH  83  84
ENDBRANCH  51  76
BRANCH  63  88
ATOM     88  C   UNL A   1      39.763  33.714  37.299  1.00  0.00     0.058 A 
ATOM     89  C   UNL A   1      38.885  33.307  38.316  1.00  0.00     0.135 A 
ATOM     90  C   UNL A   1      40.370  34.975  37.419  1.00  0.00     0.135 A 
ATOM     91  F   UNL A   1      38.274  32.114  38.244  1.00  0.00    -0.206 F 
ATOM     92  C   UNL A   1      38.611  34.126  39.407  1.00  0.00     0.059 A 
ATOM     93  C   UNL A   1      40.129  35.800  38.514  1.00  0.00     0.059 A 
ATOM     94  F   UNL A   1      41.224  35.407  36.479  1.00  0.00    -0.206 F 
ATOM     95  C   UNL A   1      39.241  35.369  39.500  1.00  0.00     0.060 A 
BRANCH  95  96
ATOM     96  S   UNL A   1      38.914  36.401  40.945  1.00  0.00     0.124 S 
ATOM     97  O   UNL A   1      37.860  35.644  41.613  1.00  0.00    -0.237 OA
ATOM     98  O   UNL A   1      40.208  36.415  41.618  1.00  0.00    -0.237 OA
ATOM     99  O   UNL A   1      38.501  37.676  40.366  1.00  0.00    -0.744 OA
ENDBRANCH  95  96
ENDBRANCH  63  88
ENDBRANCH  37  38
ENDBRANCH  30  32
ENDBRANCH  29  30
ENDBRANCH  28  29
ENDBRANCH  27  28
ENDBRANCH   1  27
TORSDOF 20
ENDMDL
