MODEL 1
REMARK VINA RESULT:     -10.2      0.000      0.000
REMARK SMILES CC(C)CN(C(=O)NC(=O)CCCC(=O)OCCOCCOC(=O)c1ccc(-c2c3nc(c(-c4c(F)cc(S(=O)(=O)[O-])cc4F)c4ccc([nH]4)c(-c4c(F)cc(S(=O)(=O)[O-])cc4F)c4nc(c(-c5c(F)cc(S(=O)(=O)[O-])cc5F)c5ccc2[nH]5)C=C4)C=C3)cc1)C1CCCC1
REMARK SMILES IDX 17 1 16 2 14 3 15 4 13 5 12 6 11 7 9 8 6 9 7 10 8 11 10 13
REMARK SMILES IDX 5 14 4 15 2 16 1 17 3 18 91 19 92 20 95 21 93 22 94 23 18 24
REMARK SMILES IDX 19 25 20 26 21 27 22 28 23 29 24 30 25 31 26 32 90 33 27 34
REMARK SMILES IDX 89 35 28 36 29 37 30 38 83 39 31 40 88 41 82 42 84 43 32 44
REMARK SMILES IDX 87 45 81 46 80 47 33 49 67 50 46 51 66 52 47 53 50 54 65 55
REMARK SMILES IDX 85 56 48 57 49 58 64 60 86 61 51 62 34 63 35 64 44 65 36 66
REMARK SMILES IDX 37 67 43 68 45 69 38 70 39 71 40 72 41 73 42 74 68 75 69 76
REMARK SMILES IDX 78 77 70 78 71 79 77 80 79 81 72 82 73 83 74 84 75 85 76 86
REMARK SMILES IDX 52 87 53 88 62 89 54 90 55 91 61 92 63 93 56 94 57 95 58 96
REMARK SMILES IDX 59 97 60 98
REMARK H PARENT 8 12 84 48 50 59
REMARK Flexibility Score: inf
ROOT
ATOM      1  C   UNL A   1      36.330  21.448  25.003  1.00  0.00     0.261 C 
ENDROOT
BRANCH   1   2
ATOM      2  O   UNL A   1      35.051  21.636  24.296  1.00  0.00    -0.463 OA
BRANCH   2   3
ATOM      3  C   UNL A   1      33.765  21.827  24.628  1.00  0.00     0.305 C 
ATOM      4  O   UNL A   1      33.108  20.967  25.204  1.00  0.00    -0.252 OA
BRANCH   3   5
ATOM      5  C   UNL A   1      33.146  23.281  24.260  1.00  0.00     0.123 C 
BRANCH   5   6
ATOM      6  C   UNL A   1      31.920  23.985  23.489  1.00  0.00     0.022 C 
BRANCH   6   7
ATOM      7  C   UNL A   1      31.723  25.303  22.679  1.00  0.00     0.101 C 
BRANCH   7   8
ATOM      8  C   UNL A   1      32.735  26.024  21.743  1.00  0.00     0.228 C 
ATOM      9  C   UNL A   1      32.982  28.290  22.744  1.00  0.00     0.324 C 
ATOM     10  O   UNL A   1      33.925  29.033  23.006  1.00  0.00    -0.248 OA
ATOM     11  N   UNL A   1      33.133  27.325  21.805  1.00  0.00    -0.278 N 
ATOM     12  H   UNL A   1      33.631  27.623  21.009  1.00  0.00     0.174 HD
ATOM     13  O   UNL A   1      33.261  25.362  20.833  1.00  0.00    -0.275 OA
BRANCH   9  14
ATOM     14  N   UNL A   1      31.766  28.318  23.396  1.00  0.00    -0.321 N 
BRANCH  14  15
ATOM     15  C   UNL A   1      30.576  28.926  22.540  1.00  0.00     0.124 C 
BRANCH  15  16
ATOM     16  C   UNL A   1      28.991  29.205  22.953  1.00  0.00     0.002 C 
ATOM     17  C   UNL A   1      27.900  29.984  22.165  1.00  0.00     0.009 C 
ATOM     18  C   UNL A   1      28.291  27.855  23.204  1.00  0.00     0.009 C 
ENDBRANCH  15  16
ENDBRANCH  14  15
BRANCH  14  19
ATOM     19  C   UNL A   1      31.953  28.328  24.901  1.00  0.00     0.087 C 
ATOM     20  C   UNL A   1      31.725  29.670  25.667  1.00  0.00     0.025 C 
ATOM     21  C   UNL A   1      31.181  27.399  25.848  1.00  0.00     0.025 C 
ATOM     22  C   UNL A   1      32.075  29.307  27.110  1.00  0.00     0.002 C 
ATOM     23  C   UNL A   1      31.728  27.822  27.232  1.00  0.00     0.002 C 
ENDBRANCH  14  19
ENDBRANCH   9  14
ENDBRANCH   7   8
ENDBRANCH   6   7
ENDBRANCH   5   6
ENDBRANCH   3   5
ENDBRANCH   2   3
ENDBRANCH   1   2
BRANCH   1  24
ATOM     24  C   UNL A   1      37.330  20.351  24.704  1.00  0.00     0.202 C 
BRANCH  24  25
ATOM     25  O   UNL A   1      38.561  20.569  25.412  1.00  0.00    -0.374 OA
BRANCH  25  26
ATOM     26  C   UNL A   1      38.680  21.879  25.958  1.00  0.00     0.202 C 
BRANCH  26  27
ATOM     27  C   UNL A   1      40.140  22.269  26.272  1.00  0.00     0.261 C 
BRANCH  27  28
ATOM     28  O   UNL A   1      40.378  23.693  26.412  1.00  0.00    -0.460 OA
BRANCH  28  29
ATOM     29  C   UNL A   1      41.184  24.029  27.455  1.00  0.00     0.338 C 
ATOM     30  O   UNL A   1      42.124  23.370  27.867  1.00  0.00    -0.246 OA
BRANCH  29  31
ATOM     31  C   UNL A   1      40.842  25.340  28.073  1.00  0.00     0.060 A 
ATOM     32  C   UNL A   1      41.880  26.274  28.185  1.00  0.00     0.016 A 
ATOM     33  C   UNL A   1      39.624  25.593  28.716  1.00  0.00     0.016 A 
ATOM     34  C   UNL A   1      41.741  27.401  29.002  1.00  0.00     0.010 A 
ATOM     35  C   UNL A   1      39.478  26.738  29.525  1.00  0.00     0.010 A 
ATOM     36  C   UNL A   1      40.562  27.614  29.727  1.00  0.00    -0.014 A 
BRANCH  36  37
ATOM     37  C   UNL A   1      40.576  28.600  30.851  1.00  0.00     0.031 A 
ATOM     38  C   UNL A   1      39.567  29.727  30.839  1.00  0.00     0.074 A 
ATOM     39  C   UNL A   1      41.394  28.459  31.912  1.00  0.00     0.049 A 
ATOM     40  N   UNL A   1      39.345  30.657  31.735  1.00  0.00    -0.248 NA
ATOM     41  C   UNL A   1      38.687  29.814  29.662  1.00  0.00     0.031 C 
ATOM     42  C   UNL A   1      42.394  27.406  32.077  1.00  0.00     0.029 A 
ATOM     43  N   UNL A   1      41.506  29.208  33.061  1.00  0.00    -0.354 N 
ATOM     44  C   UNL A   1      38.304  31.432  31.233  1.00  0.00     0.074 A 
ATOM     45  C   UNL A   1      37.958  30.885  29.939  1.00  0.00     0.031 C 
ATOM     46  C   UNL A   1      43.022  27.578  33.254  1.00  0.00     0.029 A 
ATOM     47  C   UNL A   1      42.480  28.760  33.925  1.00  0.00     0.049 A 
ATOM     48  H   UNL A   1      40.941  29.992  33.249  1.00  0.00     0.167 HD
ATOM     49  C   UNL A   1      37.680  32.493  31.797  1.00  0.00     0.037 A 
ATOM     50  C   UNL A   1      42.894  29.250  35.113  1.00  0.00     0.037 A 
ATOM     51  C   UNL A   1      38.003  33.036  33.090  1.00  0.00     0.049 A 
ATOM     52  C   UNL A   1      42.210  30.459  35.704  1.00  0.00     0.074 A 
ATOM     53  C   UNL A   1      37.405  34.095  33.753  1.00  0.00     0.029 A 
ATOM     54  N   UNL A   1      39.012  32.567  33.915  1.00  0.00    -0.354 N 
ATOM     55  N   UNL A   1      41.203  31.153  35.228  1.00  0.00    -0.248 NA
ATOM     56  C   UNL A   1      42.713  30.947  36.999  1.00  0.00     0.031 C 
ATOM     57  C   UNL A   1      38.078  34.291  34.963  1.00  0.00     0.029 A 
ATOM     58  C   UNL A   1      39.069  33.330  35.071  1.00  0.00     0.049 A 
ATOM     59  H   UNL A   1      39.601  31.805  33.712  1.00  0.00     0.167 HD
ATOM     60  C   UNL A   1      40.942  32.142  36.173  1.00  0.00     0.074 A 
ATOM     61  C   UNL A   1      41.885  31.951  37.253  1.00  0.00     0.031 C 
ATOM     62  C   UNL A   1      40.006  33.122  36.145  1.00  0.00     0.037 A 
BRANCH  49  63
ATOM     63  C   UNL A   1      36.579  33.157  31.016  1.00  0.00     0.058 A 
ATOM     64  C   UNL A   1      35.229  32.983  31.354  1.00  0.00     0.135 A 
ATOM     65  C   UNL A   1      36.884  34.024  29.955  1.00  0.00     0.135 A 
ATOM     66  F   UNL A   1      34.883  32.151  32.349  1.00  0.00    -0.206 F 
ATOM     67  C   UNL A   1      34.216  33.637  30.659  1.00  0.00     0.059 A 
ATOM     68  C   UNL A   1      35.889  34.705  29.259  1.00  0.00     0.059 A 
ATOM     69  F   UNL A   1      38.160  34.223  29.591  1.00  0.00    -0.206 F 
ATOM     70  C   UNL A   1      34.557  34.497  29.612  1.00  0.00     0.060 A 
BRANCH  70  71
ATOM     71  S   UNL A   1      33.233  35.356  28.734  1.00  0.00     0.124 S 
ATOM     72  O   UNL A   1      32.563  34.248  28.062  1.00  0.00    -0.237 OA
ATOM     73  O   UNL A   1      32.490  35.983  29.821  1.00  0.00    -0.237 OA
ATOM     74  O   UNL A   1      33.952  36.278  27.857  1.00  0.00    -0.744 OA
ENDBRANCH  70  71
ENDBRANCH  49  63
BRANCH  50  75
ATOM     75  C   UNL A   1      44.035  28.614  35.828  1.00  0.00     0.058 A 
ATOM     76  C   UNL A   1      45.362  28.993  35.576  1.00  0.00     0.135 A 
ATOM     77  C   UNL A   1      43.817  27.584  36.756  1.00  0.00     0.135 A 
ATOM     78  F   UNL A   1      45.626  29.960  34.685  1.00  0.00    -0.206 F 
ATOM     79  C   UNL A   1      46.434  28.361  36.203  1.00  0.00     0.059 A 
ATOM     80  C   UNL A   1      44.870  26.954  37.412  1.00  0.00     0.059 A 
ATOM     81  F   UNL A   1      42.567  27.186  37.036  1.00  0.00    -0.206 F 
ATOM     82  C   UNL A   1      46.176  27.340  37.119  1.00  0.00     0.060 A 
BRANCH  82  83
ATOM     83  S   UNL A   1      47.567  26.544  37.955  1.00  0.00     0.124 S 
ATOM     84  O   UNL A   1      47.139  25.149  37.972  1.00  0.00    -0.237 OA
ATOM     85  O   UNL A   1      48.683  26.859  37.070  1.00  0.00    -0.237 OA
ATOM     86  O   UNL A   1      47.600  27.211  39.254  1.00  0.00    -0.744 OA
ENDBRANCH  82  83
ENDBRANCH  50  75
BRANCH  62  87
ATOM     87  C   UNL A   1      39.931  34.052  37.325  1.00  0.00     0.058 A 
ATOM     88  C   UNL A   1      40.583  35.294  37.323  1.00  0.00     0.135 A 
ATOM     89  C   UNL A   1      39.150  33.723  38.445  1.00  0.00     0.135 A 
ATOM     90  F   UNL A   1      41.345  35.656  36.278  1.00  0.00    -0.206 F 
ATOM     91  C   UNL A   1      40.479  36.171  38.398  1.00  0.00     0.059 A 
ATOM     92  C   UNL A   1      39.014  34.594  39.522  1.00  0.00     0.059 A 
ATOM     93  F   UNL A   1      38.496  32.551  38.491  1.00  0.00    -0.206 F 
ATOM     94  C   UNL A   1      39.692  35.812  39.494  1.00  0.00     0.060 A 
BRANCH  94  95
ATOM     95  S   UNL A   1      39.534  36.972  40.870  1.00  0.00     0.124 S 
ATOM     96  O   UNL A   1      38.495  36.334  41.672  1.00  0.00    -0.237 OA
ATOM     97  O   UNL A   1      40.875  36.961  41.447  1.00  0.00    -0.237 OA
ATOM     98  O   UNL A   1      39.149  38.220  40.219  1.00  0.00    -0.744 OA
ENDBRANCH  94  95
ENDBRANCH  62  87
ENDBRANCH  36  37
ENDBRANCH  29  31
ENDBRANCH  28  29
ENDBRANCH  27  28
ENDBRANCH  26  27
ENDBRANCH  25  26
ENDBRANCH  24  25
ENDBRANCH   1  24
TORSDOF 24
ENDMDL
MODEL 2
REMARK VINA RESULT:     -10.2      1.451      8.310
REMARK SMILES CC(C)CN(C(=O)NC(=O)CCCC(=O)OCCOCCOC(=O)c1ccc(-c2c3nc(c(-c4c(F)cc(S(=O)(=O)[O-])cc4F)c4ccc([nH]4)c(-c4c(F)cc(S(=O)(=O)[O-])cc4F)c4nc(c(-c5c(F)cc(S(=O)(=O)[O-])cc5F)c5ccc2[nH]5)C=C4)C=C3)cc1)C1CCCC1
REMARK SMILES IDX 17 1 16 2 14 3 15 4 13 5 12 6 11 7 9 8 6 9 7 10 8 11 10 13
REMARK SMILES IDX 5 14 4 15 2 16 1 17 3 18 91 19 92 20 95 21 93 22 94 23 18 24
REMARK SMILES IDX 19 25 20 26 21 27 22 28 23 29 24 30 25 31 26 32 90 33 27 34
REMARK SMILES IDX 89 35 28 36 29 37 30 38 83 39 31 40 88 41 82 42 84 43 32 44
REMARK SMILES IDX 87 45 81 46 80 47 33 49 67 50 46 51 66 52 47 53 50 54 65 55
REMARK SMILES IDX 85 56 48 57 49 58 64 60 86 61 51 62 34 63 35 64 44 65 36 66
REMARK SMILES IDX 37 67 43 68 45 69 38 70 39 71 40 72 41 73 42 74 68 75 69 76
REMARK SMILES IDX 78 77 70 78 71 79 77 80 79 81 72 82 73 83 74 84 75 85 76 86
REMARK SMILES IDX 52 87 53 88 62 89 54 90 55 91 61 92 63 93 56 94 57 95 58 96
REMARK SMILES IDX 59 97 60 98
REMARK H PARENT 8 12 84 48 50 59
REMARK Flexibility Score: inf
ROOT
ATOM      1  C   UNL A   1      38.646  21.424  25.428  1.00  0.00     0.261 C 
ENDROOT
BRANCH   1   2
ATOM      2  O   UNL A   1      37.337  22.099  25.366  1.00  0.00    -0.463 OA
BRANCH   2   3
ATOM      3  C   UNL A   1      36.844  23.312  25.656  1.00  0.00     0.305 C 
ATOM      4  O   UNL A   1      37.538  24.196  26.146  1.00  0.00    -0.252 OA
BRANCH   3   5
ATOM      5  C   UNL A   1      35.283  23.552  25.279  1.00  0.00     0.123 C 
BRANCH   5   6
ATOM      6  C   UNL A   1      34.102  24.640  25.382  1.00  0.00     0.022 C 
BRANCH   6   7
ATOM      7  C   UNL A   1      33.162  25.363  24.368  1.00  0.00     0.101 C 
BRANCH   7   8
ATOM      8  C   UNL A   1      33.494  25.875  22.936  1.00  0.00     0.228 C 
ATOM      9  C   UNL A   1      33.352  28.353  23.127  1.00  0.00     0.324 C 
ATOM     10  O   UNL A   1      34.041  29.299  22.755  1.00  0.00    -0.248 OA
ATOM     11  N   UNL A   1      33.457  27.160  22.490  1.00  0.00    -0.278 N 
ATOM     12  H   UNL A   1      33.518  27.239  21.511  1.00  0.00     0.174 HD
ATOM     13  O   UNL A   1      33.842  25.038  22.085  1.00  0.00    -0.275 OA
BRANCH   9  14
ATOM     14  N   UNL A   1      32.505  28.388  24.215  1.00  0.00    -0.321 N 
BRANCH  14  15
ATOM     15  C   UNL A   1      30.963  28.310  23.848  1.00  0.00     0.124 C 
BRANCH  15  16
ATOM     16  C   UNL A   1      29.902  27.035  23.945  1.00  0.00     0.002 C 
ATOM     17  C   UNL A   1      29.561  26.139  25.171  1.00  0.00     0.009 C 
ATOM     18  C   UNL A   1      28.503  27.509  23.506  1.00  0.00     0.009 C 
ENDBRANCH  15  16
ENDBRANCH  14  15
BRANCH  14  19
ATOM     19  C   UNL A   1      33.165  29.067  25.400  1.00  0.00     0.087 C 
ATOM     20  C   UNL A   1      32.262  29.856  26.400  1.00  0.00     0.025 C 
ATOM     21  C   UNL A   1      34.025  28.314  26.426  1.00  0.00     0.025 C 
ATOM     22  C   UNL A   1      33.271  30.446  27.384  1.00  0.00     0.002 C 
ATOM     23  C   UNL A   1      34.428  29.446  27.400  1.00  0.00     0.002 C 
ENDBRANCH  14  19
ENDBRANCH   9  14
ENDBRANCH   7   8
ENDBRANCH   6   7
ENDBRANCH   5   6
ENDBRANCH   3   5
ENDBRANCH   2   3
ENDBRANCH   1   2
BRANCH   1  24
ATOM     24  C   UNL A   1      39.755  21.777  26.397  1.00  0.00     0.202 C 
BRANCH  24  25
ATOM     25  O   UNL A   1      40.966  21.077  26.070  1.00  0.00    -0.374 OA
BRANCH  25  26
ATOM     26  C   UNL A   1      42.052  21.377  26.941  1.00  0.00     0.202 C 
BRANCH  26  27
ATOM     27  C   UNL A   1      43.228  22.069  26.218  1.00  0.00     0.261 C 
BRANCH  27  28
ATOM     28  O   UNL A   1      43.513  23.419  26.665  1.00  0.00    -0.460 OA
BRANCH  28  29
ATOM     29  C   UNL A   1      42.982  24.395  25.881  1.00  0.00     0.338 C 
ATOM     30  O   UNL A   1      43.074  24.459  24.666  1.00  0.00    -0.246 OA
BRANCH  29  31
ATOM     31  C   UNL A   1      42.213  25.417  26.643  1.00  0.00     0.060 A 
ATOM     32  C   UNL A   1      42.795  26.686  26.761  1.00  0.00     0.016 A 
ATOM     33  C   UNL A   1      41.074  25.117  27.400  1.00  0.00     0.016 A 
ATOM     34  C   UNL A   1      42.307  27.613  27.688  1.00  0.00     0.010 A 
ATOM     35  C   UNL A   1      40.572  26.057  28.322  1.00  0.00     0.010 A 
ATOM     36  C   UNL A   1      41.228  27.287  28.520  1.00  0.00    -0.014 A 
BRANCH  36  37
ATOM     37  C   UNL A   1      40.969  28.131  29.725  1.00  0.00     0.031 A 
ATOM     38  C   UNL A   1      41.858  27.956  30.937  1.00  0.00     0.074 A 
ATOM     39  C   UNL A   1      40.034  29.101  29.730  1.00  0.00     0.049 A 
ATOM     40  N   UNL A   1      41.867  28.619  32.067  1.00  0.00    -0.248 NA
ATOM     41  C   UNL A   1      42.875  26.894  30.862  1.00  0.00     0.031 C 
ATOM     42  C   UNL A   1      39.127  29.407  28.625  1.00  0.00     0.029 A 
ATOM     43  N   UNL A   1      39.698  30.016  30.701  1.00  0.00    -0.354 N 
ATOM     44  C   UNL A   1      42.888  28.059  32.831  1.00  0.00     0.074 A 
ATOM     45  C   UNL A   1      43.455  26.981  32.051  1.00  0.00     0.031 C 
ATOM     46  C   UNL A   1      38.333  30.433  28.982  1.00  0.00     0.029 A 
ATOM     47  C   UNL A   1      38.665  30.853  30.344  1.00  0.00     0.049 A 
ATOM     48  H   UNL A   1      40.154  30.069  31.571  1.00  0.00     0.167 HD
ATOM     49  C   UNL A   1      43.326  28.414  34.063  1.00  0.00     0.037 A 
ATOM     50  C   UNL A   1      38.051  31.836  31.036  1.00  0.00     0.037 A 
ATOM     51  C   UNL A   1      42.782  29.496  34.841  1.00  0.00     0.049 A 
ATOM     52  C   UNL A   1      38.530  32.188  32.423  1.00  0.00     0.074 A 
ATOM     53  C   UNL A   1      43.182  29.943  36.089  1.00  0.00     0.029 A 
ATOM     54  N   UNL A   1      41.722  30.297  34.451  1.00  0.00    -0.354 N 
ATOM     55  N   UNL A   1      39.520  31.669  33.110  1.00  0.00    -0.248 NA
ATOM     56  C   UNL A   1      37.814  33.265  33.127  1.00  0.00     0.031 C 
ATOM     57  C   UNL A   1      42.337  30.991  36.470  1.00  0.00     0.029 A 
ATOM     58  C   UNL A   1      41.438  31.221  35.443  1.00  0.00     0.049 A 
ATOM     59  H   UNL A   1      41.241  30.221  33.595  1.00  0.00     0.167 HD
ATOM     60  C   UNL A   1      39.556  32.369  34.314  1.00  0.00     0.074 A 
ATOM     61  C   UNL A   1      38.501  33.356  34.257  1.00  0.00     0.031 C 
ATOM     62  C   UNL A   1      40.389  32.206  35.371  1.00  0.00     0.037 A 
BRANCH  49  63
ATOM     63  C   UNL A   1      44.452  27.619  34.662  1.00  0.00     0.058 A 
ATOM     64  C   UNL A   1      45.784  28.054  34.584  1.00  0.00     0.135 A 
ATOM     65  C   UNL A   1      44.188  26.439  35.375  1.00  0.00     0.135 A 
ATOM     66  F   UNL A   1      46.092  29.167  33.900  1.00  0.00    -0.206 F 
ATOM     67  C   UNL A   1      46.818  27.340  35.183  1.00  0.00     0.059 A 
ATOM     68  C   UNL A   1      45.203  25.719  35.999  1.00  0.00     0.059 A 
ATOM     69  F   UNL A   1      42.931  25.979  35.478  1.00  0.00    -0.206 F 
ATOM     70  C   UNL A   1      46.517  26.173  35.889  1.00  0.00     0.060 A 
BRANCH  70  71
ATOM     71  S   UNL A   1      47.865  25.269  36.679  1.00  0.00     0.124 S 
ATOM     72  O   UNL A   1      48.405  26.281  37.581  1.00  0.00    -0.237 OA
ATOM     73  O   UNL A   1      47.169  24.158  37.316  1.00  0.00    -0.237 OA
ATOM     74  O   UNL A   1      48.730  24.903  35.559  1.00  0.00    -0.744 OA
ENDBRANCH  70  71
ENDBRANCH  49  63
BRANCH  50  75
ATOM     75  C   UNL A   1      36.890  32.557  30.442  1.00  0.00     0.058 A 
ATOM     76  C   UNL A   1      37.061  33.723  29.682  1.00  0.00     0.135 A 
ATOM     77  C   UNL A   1      35.579  32.107  30.659  1.00  0.00     0.135 A 
ATOM     78  F   UNL A   1      38.294  34.205  29.460  1.00  0.00    -0.206 F 
ATOM     79  C   UNL A   1      35.974  34.430  29.172  1.00  0.00     0.059 A 
ATOM     80  C   UNL A   1      34.477  32.782  30.141  1.00  0.00     0.059 A 
ATOM     81  F   UNL A   1      35.360  30.995  31.377  1.00  0.00    -0.206 F 
ATOM     82  C   UNL A   1      34.685  33.951  29.410  1.00  0.00     0.060 A 
BRANCH  82  83
ATOM     83  S   UNL A   1      33.277  34.851  28.721  1.00  0.00     0.124 S 
ATOM     84  O   UNL A   1      33.944  35.913  27.975  1.00  0.00    -0.237 OA
ATOM     85  O   UNL A   1      32.615  33.827  27.921  1.00  0.00    -0.237 OA
ATOM     86  O   UNL A   1      32.543  35.279  29.909  1.00  0.00    -0.744 OA
ENDBRANCH  82  83
ENDBRANCH  50  75
BRANCH  62  87
ATOM     87  C   UNL A   1      40.216  33.127  36.546  1.00  0.00     0.058 A 
ATOM     88  C   UNL A   1      39.298  32.847  37.570  1.00  0.00     0.135 A 
ATOM     89  C   UNL A   1      41.020  34.272  36.681  1.00  0.00     0.135 A 
ATOM     90  F   UNL A   1      38.505  31.767  37.488  1.00  0.00    -0.206 F 
ATOM     91  C   UNL A   1      39.169  33.679  38.678  1.00  0.00     0.059 A 
ATOM     92  C   UNL A   1      40.923  35.106  37.791  1.00  0.00     0.059 A 
ATOM     93  F   UNL A   1      41.922  34.579  35.736  1.00  0.00    -0.206 F 
ATOM     94  C   UNL A   1      39.985  34.806  38.780  1.00  0.00     0.060 A 
BRANCH  94  95
ATOM     95  S   UNL A   1      39.835  35.862  40.239  1.00  0.00     0.124 S 
ATOM     96  O   UNL A   1      38.518  35.483  40.739  1.00  0.00    -0.237 OA
ATOM     97  O   UNL A   1      40.969  35.435  41.054  1.00  0.00    -0.237 OA
ATOM     98  O   UNL A   1      39.938  37.211  39.692  1.00  0.00    -0.744 OA
ENDBRANCH  94  95
ENDBRANCH  62  87
ENDBRANCH  36  37
ENDBRANCH  29  31
ENDBRANCH  28  29
ENDBRANCH  27  28
ENDBRANCH  26  27
ENDBRANCH  25  26
ENDBRANCH  24  25
ENDBRANCH   1  24
TORSDOF 24
ENDMDL
MODEL 3
REMARK VINA RESULT:     -10.0      0.819      8.144
REMARK SMILES CC(C)CN(C(=O)NC(=O)CCCC(=O)OCCOCCOC(=O)c1ccc(-c2c3nc(c(-c4c(F)cc(S(=O)(=O)[O-])cc4F)c4ccc([nH]4)c(-c4c(F)cc(S(=O)(=O)[O-])cc4F)c4nc(c(-c5c(F)cc(S(=O)(=O)[O-])cc5F)c5ccc2[nH]5)C=C4)C=C3)cc1)C1CCCC1
REMARK SMILES IDX 17 1 16 2 14 3 15 4 13 5 12 6 11 7 9 8 6 9 7 10 8 11 10 13
REMARK SMILES IDX 5 14 4 15 2 16 1 17 3 18 91 19 92 20 95 21 93 22 94 23 18 24
REMARK SMILES IDX 19 25 20 26 21 27 22 28 23 29 24 30 25 31 26 32 90 33 27 34
REMARK SMILES IDX 89 35 28 36 29 37 30 38 83 39 31 40 88 41 82 42 84 43 32 44
REMARK SMILES IDX 87 45 81 46 80 47 33 49 67 50 46 51 66 52 47 53 50 54 65 55
REMARK SMILES IDX 85 56 48 57 49 58 64 60 86 61 51 62 34 63 35 64 44 65 36 66
REMARK SMILES IDX 37 67 43 68 45 69 38 70 39 71 40 72 41 73 42 74 68 75 69 76
REMARK SMILES IDX 78 77 70 78 71 79 77 80 79 81 72 82 73 83 74 84 75 85 76 86
REMARK SMILES IDX 52 87 53 88 62 89 54 90 55 91 61 92 63 93 56 94 57 95 58 96
REMARK SMILES IDX 59 97 60 98
REMARK H PARENT 8 12 84 48 50 59
REMARK Flexibility Score: inf
ROOT
ATOM      1  C   UNL A   1      37.027  21.340  24.464  1.00  0.00     0.261 C 
ENDROOT
BRANCH   1   2
ATOM      2  O   UNL A   1      36.147  22.349  25.082  1.00  0.00    -0.463 OA
BRANCH   2   3
ATOM      3  C   UNL A   1      36.271  23.593  25.567  1.00  0.00     0.305 C 
ATOM      4  O   UNL A   1      37.231  23.933  26.249  1.00  0.00    -0.252 OA
BRANCH   3   5
ATOM      5  C   UNL A   1      35.093  24.633  25.159  1.00  0.00     0.123 C 
BRANCH   5   6
ATOM      6  C   UNL A   1      33.520  24.707  24.823  1.00  0.00     0.022 C 
BRANCH   6   7
ATOM      7  C   UNL A   1      32.656  25.277  23.656  1.00  0.00     0.101 C 
BRANCH   7   8
ATOM      8  C   UNL A   1      33.131  26.008  22.367  1.00  0.00     0.228 C 
ATOM      9  C   UNL A   1      32.566  28.397  22.778  1.00  0.00     0.324 C 
ATOM     10  O   UNL A   1      33.145  29.470  22.635  1.00  0.00    -0.248 OA
ATOM     11  N   UNL A   1      32.962  27.322  22.054  1.00  0.00    -0.278 N 
ATOM     12  H   UNL A   1      33.169  27.533  21.115  1.00  0.00     0.174 HD
ATOM     13  O   UNL A   1      33.743  25.344  21.513  1.00  0.00    -0.275 OA
BRANCH   9  14
ATOM     14  N   UNL A   1      31.557  28.175  23.693  1.00  0.00    -0.321 N 
BRANCH  14  15
ATOM     15  C   UNL A   1      30.092  28.342  23.107  1.00  0.00     0.124 C 
BRANCH  15  16
ATOM     16  C   UNL A   1      29.121  29.688  23.015  1.00  0.00     0.002 C 
ATOM     17  C   UNL A   1      29.234  31.028  23.798  1.00  0.00     0.009 C 
ATOM     18  C   UNL A   1      29.080  30.180  21.555  1.00  0.00     0.009 C 
ENDBRANCH  15  16
ENDBRANCH  14  15
BRANCH  14  19
ATOM     19  C   UNL A   1      32.044  28.406  25.111  1.00  0.00     0.087 C 
ATOM     20  C   UNL A   1      31.462  27.511  26.250  1.00  0.00     0.025 C 
ATOM     21  C   UNL A   1      33.525  28.335  25.510  1.00  0.00     0.025 C 
ATOM     22  C   UNL A   1      32.117  28.082  27.506  1.00  0.00     0.002 C 
ATOM     23  C   UNL A   1      33.464  28.628  27.028  1.00  0.00     0.002 C 
ENDBRANCH  14  19
ENDBRANCH   9  14
ENDBRANCH   7   8
ENDBRANCH   6   7
ENDBRANCH   5   6
ENDBRANCH   3   5
ENDBRANCH   2   3
ENDBRANCH   1   2
BRANCH   1  24
ATOM     24  C   UNL A   1      37.988  20.449  25.224  1.00  0.00     0.202 C 
BRANCH  24  25
ATOM     25  O   UNL A   1      39.294  21.042  25.293  1.00  0.00    -0.374 OA
BRANCH  25  26
ATOM     26  C   UNL A   1      39.704  21.364  26.619  1.00  0.00     0.202 C 
BRANCH  26  27
ATOM     27  C   UNL A   1      41.066  22.089  26.666  1.00  0.00     0.261 C 
BRANCH  27  28
ATOM     28  O   UNL A   1      40.996  23.533  26.549  1.00  0.00    -0.460 OA
BRANCH  28  29
ATOM     29  C   UNL A   1      41.916  24.203  27.295  1.00  0.00     0.338 C 
ATOM     30  O   UNL A   1      43.071  23.857  27.477  1.00  0.00    -0.246 OA
BRANCH  29  31
ATOM     31  C   UNL A   1      41.398  25.471  27.879  1.00  0.00     0.060 A 
ATOM     32  C   UNL A   1      42.341  26.469  28.156  1.00  0.00     0.016 A 
ATOM     33  C   UNL A   1      40.086  25.625  28.343  1.00  0.00     0.016 A 
ATOM     34  C   UNL A   1      42.009  27.562  28.964  1.00  0.00     0.010 A 
ATOM     35  C   UNL A   1      39.746  26.735  29.142  1.00  0.00     0.010 A 
ATOM     36  C   UNL A   1      40.726  27.677  29.514  1.00  0.00    -0.014 A 
BRANCH  36  37
ATOM     37  C   UNL A   1      40.510  28.630  30.644  1.00  0.00     0.031 A 
ATOM     38  C   UNL A   1      41.402  28.525  31.862  1.00  0.00     0.074 A 
ATOM     39  C   UNL A   1      39.613  29.632  30.570  1.00  0.00     0.049 A 
ATOM     40  N   UNL A   1      41.447  29.282  32.931  1.00  0.00    -0.248 NA
ATOM     41  C   UNL A   1      42.377  27.421  31.873  1.00  0.00     0.031 C 
ATOM     42  C   UNL A   1      38.708  29.878  29.449  1.00  0.00     0.029 A 
ATOM     43  N   UNL A   1      39.321  30.640  31.461  1.00  0.00    -0.354 N 
ATOM     44  C   UNL A   1      42.452  28.750  33.734  1.00  0.00     0.074 A 
ATOM     45  C   UNL A   1      42.971  27.587  33.047  1.00  0.00     0.031 C 
ATOM     46  C   UNL A   1      37.958  30.961  29.720  1.00  0.00     0.029 A 
ATOM     47  C   UNL A   1      38.317  31.482  31.040  1.00  0.00     0.049 A 
ATOM     48  H   UNL A   1      39.787  30.748  32.322  1.00  0.00     0.167 HD
ATOM     49  C   UNL A   1      42.915  29.192  34.928  1.00  0.00     0.037 A 
ATOM     50  C   UNL A   1      37.747  32.544  31.648  1.00  0.00     0.037 A 
ATOM     51  C   UNL A   1      42.420  30.356  35.613  1.00  0.00     0.049 A 
ATOM     52  C   UNL A   1      38.252  32.994  32.997  1.00  0.00     0.074 A 
ATOM     53  C   UNL A   1      42.847  30.893  36.816  1.00  0.00     0.029 A 
ATOM     54  N   UNL A   1      41.387  31.161  35.162  1.00  0.00    -0.354 N 
ATOM     55  N   UNL A   1      39.228  32.498  33.721  1.00  0.00    -0.248 NA
ATOM     56  C   UNL A   1      37.584  34.155  33.610  1.00  0.00     0.031 C 
ATOM     57  C   UNL A   1      42.047  32.001  37.111  1.00  0.00     0.029 A 
ATOM     58  C   UNL A   1      41.148  32.177  36.073  1.00  0.00     0.049 A 
ATOM     59  H   UNL A   1      40.897  31.031  34.318  1.00  0.00     0.167 HD
ATOM     60  C   UNL A   1      39.302  33.297  34.860  1.00  0.00     0.074 A 
ATOM     61  C   UNL A   1      38.284  34.316  34.724  1.00  0.00     0.031 C 
ATOM     62  C   UNL A   1      40.137  33.193  35.922  1.00  0.00     0.037 A 
BRANCH  49  63
ATOM     63  C   UNL A   1      44.015  28.407  35.588  1.00  0.00     0.058 A 
ATOM     64  C   UNL A   1      43.739  27.366  36.487  1.00  0.00     0.135 A 
ATOM     65  C   UNL A   1      45.359  28.661  35.269  1.00  0.00     0.135 A 
ATOM     66  F   UNL A   1      42.473  27.094  36.838  1.00  0.00    -0.206 F 
ATOM     67  C   UNL A   1      44.759  26.610  37.058  1.00  0.00     0.059 A 
ATOM     68  C   UNL A   1      46.394  27.905  35.812  1.00  0.00     0.059 A 
ATOM     69  F   UNL A   1      45.675  29.647  34.416  1.00  0.00    -0.206 F 
ATOM     70  C   UNL A   1      46.084  26.887  36.713  1.00  0.00     0.060 A 
BRANCH  70  71
ATOM     71  S   UNL A   1      47.395  25.884  37.445  1.00  0.00     0.124 S 
ATOM     72  O   UNL A   1      48.584  26.472  36.838  1.00  0.00    -0.237 OA
ATOM     73  O   UNL A   1      47.222  26.132  38.871  1.00  0.00    -0.237 OA
ATOM     74  O   UNL A   1      47.071  24.529  37.004  1.00  0.00    -0.744 OA
ENDBRANCH  70  71
ENDBRANCH  49  63
BRANCH  50  75
ATOM     75  C   UNL A   1      36.610  33.256  31.001  1.00  0.00     0.058 A 
ATOM     76  C   UNL A   1      35.300  33.143  31.489  1.00  0.00     0.135 A 
ATOM     77  C   UNL A   1      36.812  34.038  29.853  1.00  0.00     0.135 A 
ATOM     78  F   UNL A   1      35.051  32.393  32.574  1.00  0.00    -0.206 F 
ATOM     79  C   UNL A   1      34.227  33.763  30.854  1.00  0.00     0.059 A 
ATOM     80  C   UNL A   1      35.760  34.687  29.214  1.00  0.00     0.059 A 
ATOM     81  F   UNL A   1      38.046  34.182  29.347  1.00  0.00    -0.206 F 
ATOM     82  C   UNL A   1      34.468  34.532  29.714  1.00  0.00     0.060 A 
BRANCH  82  83
ATOM     83  S   UNL A   1      33.079  35.361  28.909  1.00  0.00     0.124 S 
ATOM     84  O   UNL A   1      32.593  34.318  28.013  1.00  0.00    -0.237 OA
ATOM     85  O   UNL A   1      32.214  35.687  30.038  1.00  0.00    -0.237 OA
ATOM     86  O   UNL A   1      33.708  36.509  28.260  1.00  0.00    -0.744 OA
ENDBRANCH  82  83
ENDBRANCH  50  75
BRANCH  62  87
ATOM     87  C   UNL A   1      40.010  34.217  37.015  1.00  0.00     0.058 A 
ATOM     88  C   UNL A   1      40.598  35.487  36.903  1.00  0.00     0.135 A 
ATOM     89  C   UNL A   1      39.243  33.948  38.160  1.00  0.00     0.135 A 
ATOM     90  F   UNL A   1      41.344  35.794  35.830  1.00  0.00    -0.206 F 
ATOM     91  C   UNL A   1      40.445  36.449  37.898  1.00  0.00     0.059 A 
ATOM     92  C   UNL A   1      39.058  34.902  39.156  1.00  0.00     0.059 A 
ATOM     93  F   UNL A   1      38.649  32.753  38.310  1.00  0.00    -0.206 F 
ATOM     94  C   UNL A   1      39.673  36.147  39.021  1.00  0.00     0.060 A 
BRANCH  94  95
ATOM     95  S   UNL A   1      39.450  37.413  40.290  1.00  0.00     0.124 S 
ATOM     96  O   UNL A   1      40.832  37.758  40.605  1.00  0.00    -0.237 OA
ATOM     97  O   UNL A   1      38.687  38.437  39.583  1.00  0.00    -0.237 OA
ATOM     98  O   UNL A   1      38.720  36.713  41.343  1.00  0.00    -0.744 OA
ENDBRANCH  94  95
ENDBRANCH  62  87
ENDBRANCH  36  37
ENDBRANCH  29  31
ENDBRANCH  28  29
ENDBRANCH  27  28
ENDBRANCH  26  27
ENDBRANCH  25  26
ENDBRANCH  24  25
ENDBRANCH   1  24
TORSDOF 24
ENDMDL
