MODEL 1
REMARK VINA RESULT:      -9.1      0.000      0.000
REMARK SMILES O=C(/C=C/Nc1cc(Cl)ccc1Cl)OCCOCCOC(=O)c1ccc(-c2c3nc(c(-c4c(F)cc(S(=O)(=O)[O-])cc4F)c4ccc([nH]4)c(-c4c(F)cc(S(=O)(=O)[O-])cc4F)c4nc(c(-c5c(F)cc(S(=O)(=O)[O-])cc5F)c5ccc2[nH]5)C=C4)C=C3)cc1
REMARK SMILES IDX 18 1 17 2 16 3 15 4 14 5 2 6 1 7 3 8 4 9 5 10 6 12 7 13
REMARK SMILES IDX 12 14 8 15 11 16 13 17 9 18 10 19 19 20 20 21 21 22 22 23
REMARK SMILES IDX 23 24 24 25 88 26 25 27 87 28 26 29 27 30 28 31 81 32 29 33
REMARK SMILES IDX 86 34 80 35 82 36 30 37 85 38 79 39 78 40 31 42 65 43 44 44
REMARK SMILES IDX 64 45 45 46 48 47 63 48 83 49 46 50 47 51 62 53 84 54 49 55
REMARK SMILES IDX 32 56 33 57 42 58 34 59 35 60 41 61 43 62 36 63 37 64 38 65
REMARK SMILES IDX 39 66 40 67 66 68 67 69 76 70 68 71 69 72 75 73 77 74 70 75
REMARK SMILES IDX 71 76 72 77 73 78 74 79 50 80 51 81 60 82 52 83 53 84 59 85
REMARK SMILES IDX 61 86 54 87 55 88 56 89 57 90 58 91
REMARK H PARENT 5 11 82 41 48 52
REMARK Flexibility Score: inf
ROOT
ATOM      1  C   UNL A   1      41.114  19.774  26.434  1.00  0.00     0.202 C 
ENDROOT
BRANCH   1   2
ATOM      2  O   UNL A   1      42.538  19.618  26.451  1.00  0.00    -0.374 OA
BRANCH   2   3
ATOM      3  C   UNL A   1      43.003  18.463  25.751  1.00  0.00     0.202 C 
BRANCH   3   4
ATOM      4  C   UNL A   1      44.515  18.261  25.767  1.00  0.00     0.261 C 
BRANCH   4   5
ATOM      5  O   UNL A   1      45.211  18.805  24.628  1.00  0.00    -0.460 OA
BRANCH   5   6
ATOM      6  C   UNL A   1      46.120  19.804  24.601  1.00  0.00     0.332 C 
ATOM      7  O   UNL A   1      47.278  19.579  24.251  1.00  0.00    -0.247 OA
BRANCH   6   8
ATOM      8  C   UNL A   1      45.813  21.141  25.131  1.00  0.00     0.111 C 
ATOM      9  C   UNL A   1      45.310  22.182  24.462  1.00  0.00     0.090 C 
BRANCH   9  10
ATOM     10  N   UNL A   1      44.923  23.394  24.977  1.00  0.00    -0.360 N 
ATOM     11  H   UNL A   1      44.635  24.103  24.358  1.00  0.00     0.166 HD
BRANCH  10  12
ATOM     12  C   UNL A   1      44.925  23.660  26.361  1.00  0.00     0.058 A 
ATOM     13  C   UNL A   1      43.821  23.279  27.145  1.00  0.00     0.048 A 
ATOM     14  C   UNL A   1      46.044  24.215  27.002  1.00  0.00     0.064 A 
ATOM     15  C   UNL A   1      43.810  23.525  28.517  1.00  0.00     0.043 A 
ATOM     16  C   UNL A   1      46.026  24.469  28.376  1.00  0.00     0.024 A 
ATOM     17  Cl  UNL A   1      47.463  24.641  26.111  1.00  0.00    -0.082 Cl
ATOM     18  Cl  UNL A   1      42.441  23.080  29.458  1.00  0.00    -0.084 Cl
ATOM     19  C   UNL A   1      44.902  24.131  29.134  1.00  0.00     0.022 A 
ENDBRANCH  10  12
ENDBRANCH   9  10
ENDBRANCH   6   8
ENDBRANCH   5   6
ENDBRANCH   4   5
ENDBRANCH   3   4
ENDBRANCH   2   3
ENDBRANCH   1   2
BRANCH   1  20
ATOM     20  C   UNL A   1      40.631  21.089  27.057  1.00  0.00     0.261 C 
BRANCH  20  21
ATOM     21  O   UNL A   1      40.254  22.033  26.044  1.00  0.00    -0.460 OA
BRANCH  21  22
ATOM     22  C   UNL A   1      39.127  22.739  26.311  1.00  0.00     0.338 C 
ATOM     23  O   UNL A   1      37.983  22.317  26.325  1.00  0.00    -0.246 OA
BRANCH  22  24
ATOM     24  C   UNL A   1      39.511  24.079  26.806  1.00  0.00     0.060 A 
ATOM     25  C   UNL A   1      40.040  24.990  25.881  1.00  0.00     0.016 A 
ATOM     26  C   UNL A   1      39.324  24.454  28.140  1.00  0.00     0.016 A 
ATOM     27  C   UNL A   1      40.403  26.272  26.291  1.00  0.00     0.010 A 
ATOM     28  C   UNL A   1      39.699  25.735  28.551  1.00  0.00     0.010 A 
ATOM     29  C   UNL A   1      40.262  26.639  27.636  1.00  0.00    -0.014 A 
BRANCH  29  30
ATOM     30  C   UNL A   1      40.852  27.908  28.121  1.00  0.00     0.031 A 
ATOM     31  C   UNL A   1      42.342  28.083  28.032  1.00  0.00     0.074 A 
ATOM     32  C   UNL A   1      40.076  28.884  28.626  1.00  0.00     0.049 A 
ATOM     33  N   UNL A   1      43.089  29.068  28.454  1.00  0.00    -0.248 NA
ATOM     34  C   UNL A   1      43.094  26.992  27.386  1.00  0.00     0.031 C 
ATOM     35  C   UNL A   1      38.618  28.836  28.731  1.00  0.00     0.029 A 
ATOM     36  N   UNL A   1      40.410  30.103  29.159  1.00  0.00    -0.354 N 
ATOM     37  C   UNL A   1      44.395  28.716  28.136  1.00  0.00     0.074 A 
ATOM     38  C   UNL A   1      44.344  27.413  27.510  1.00  0.00     0.031 C 
ATOM     39  C   UNL A   1      38.184  29.969  29.312  1.00  0.00     0.029 A 
ATOM     40  C   UNL A   1      39.335  30.806  29.649  1.00  0.00     0.049 A 
ATOM     41  H   UNL A   1      41.334  30.442  29.189  1.00  0.00     0.167 HD
ATOM     42  C   UNL A   1      45.531  29.421  28.340  1.00  0.00     0.037 A 
ATOM     43  C   UNL A   1      39.291  31.976  30.316  1.00  0.00     0.037 A 
ATOM     44  C   UNL A   1      45.568  30.720  28.959  1.00  0.00     0.049 A 
ATOM     45  C   UNL A   1      40.579  32.715  30.585  1.00  0.00     0.074 A 
ATOM     46  C   UNL A   1      46.666  31.529  29.190  1.00  0.00     0.029 A 
ATOM     47  N   UNL A   1      44.461  31.394  29.453  1.00  0.00    -0.354 N 
ATOM     48  N   UNL A   1      41.805  32.386  30.250  1.00  0.00    -0.248 NA
ATOM     49  C   UNL A   1      40.479  33.984  31.320  1.00  0.00     0.031 C 
ATOM     50  C   UNL A   1      46.230  32.670  29.873  1.00  0.00     0.029 A 
ATOM     51  C   UNL A   1      44.853  32.598  30.012  1.00  0.00     0.049 A 
ATOM     52  H   UNL A   1      43.535  31.065  29.412  1.00  0.00     0.167 HD
ATOM     53  C   UNL A   1      42.616  33.421  30.705  1.00  0.00     0.074 A 
ATOM     54  C   UNL A   1      41.741  34.392  31.328  1.00  0.00     0.031 C 
ATOM     55  C   UNL A   1      43.963  33.559  30.617  1.00  0.00     0.037 A 
BRANCH  42  56
ATOM     56  C   UNL A   1      46.831  28.798  27.911  1.00  0.00     0.058 A 
ATOM     57  C   UNL A   1      47.564  27.955  28.762  1.00  0.00     0.135 A 
ATOM     58  C   UNL A   1      47.322  29.004  26.612  1.00  0.00     0.135 A 
ATOM     59  F   UNL A   1      47.152  27.742  30.022  1.00  0.00    -0.206 F 
ATOM     60  C   UNL A   1      48.743  27.348  28.343  1.00  0.00     0.059 A 
ATOM     61  C   UNL A   1      48.484  28.386  26.163  1.00  0.00     0.059 A 
ATOM     62  F   UNL A   1      46.664  29.808  25.761  1.00  0.00    -0.206 F 
ATOM     63  C   UNL A   1      49.191  27.564  27.038  1.00  0.00     0.060 A 
BRANCH  63  64
ATOM     64  S   UNL A   1      50.706  26.741  26.500  1.00  0.00     0.124 S 
ATOM     65  O   UNL A   1      51.674  27.831  26.580  1.00  0.00    -0.237 OA
ATOM     66  O   UNL A   1      50.855  25.686  27.498  1.00  0.00    -0.237 OA
ATOM     67  O   UNL A   1      50.385  26.285  25.151  1.00  0.00    -0.744 OA
ENDBRANCH  63  64
ENDBRANCH  42  56
BRANCH  43  68
ATOM     68  C   UNL A   1      37.992  32.519  30.799  1.00  0.00     0.058 A 
ATOM     69  C   UNL A   1      37.207  33.354  29.990  1.00  0.00     0.135 A 
ATOM     70  C   UNL A   1      37.518  32.231  32.089  1.00  0.00     0.135 A 
ATOM     71  F   UNL A   1      37.619  33.669  28.752  1.00  0.00    -0.206 F 
ATOM     72  C   UNL A   1      36.014  33.905  30.449  1.00  0.00     0.059 A 
ATOM     73  C   UNL A   1      36.315  32.745  32.561  1.00  0.00     0.059 A 
ATOM     74  F   UNL A   1      38.224  31.428  32.900  1.00  0.00    -0.206 F 
ATOM     75  C   UNL A   1      35.577  33.594  31.737  1.00  0.00     0.060 A 
BRANCH  75  76
ATOM     76  S   UNL A   1      34.012  34.290  32.313  1.00  0.00     0.124 S 
ATOM     77  O   UNL A   1      34.469  35.450  33.070  1.00  0.00    -0.237 OA
ATOM     78  O   UNL A   1      33.325  34.575  31.058  1.00  0.00    -0.237 OA
ATOM     79  O   UNL A   1      33.435  33.207  33.104  1.00  0.00    -0.744 OA
ENDBRANCH  75  76
ENDBRANCH  43  68
BRANCH  55  80
ATOM     80  C   UNL A   1      44.572  34.821  31.165  1.00  0.00     0.058 A 
ATOM     81  C   UNL A   1      45.059  34.900  32.478  1.00  0.00     0.135 A 
ATOM     82  C   UNL A   1      44.723  35.950  30.342  1.00  0.00     0.135 A 
ATOM     83  F   UNL A   1      44.936  33.851  33.308  1.00  0.00    -0.206 F 
ATOM     84  C   UNL A   1      45.649  36.061  32.966  1.00  0.00     0.059 A 
ATOM     85  C   UNL A   1      45.338  37.111  30.798  1.00  0.00     0.059 A 
ATOM     86  F   UNL A   1      44.287  35.924  29.072  1.00  0.00    -0.206 F 
ATOM     87  C   UNL A   1      45.787  37.161  32.116  1.00  0.00     0.060 A 
BRANCH  87  88
ATOM     88  S   UNL A   1      46.584  38.651  32.753  1.00  0.00     0.124 S 
ATOM     89  O   UNL A   1      47.945  38.181  32.986  1.00  0.00    -0.237 OA
ATOM     90  O   UNL A   1      46.417  39.590  31.647  1.00  0.00    -0.237 OA
ATOM     91  O   UNL A   1      45.813  38.963  33.953  1.00  0.00    -0.744 OA
ENDBRANCH  87  88
ENDBRANCH  55  80
ENDBRANCH  29  30
ENDBRANCH  22  24
ENDBRANCH  21  22
ENDBRANCH  20  21
ENDBRANCH   1  20
TORSDOF 19
ENDMDL
MODEL 2
REMARK VINA RESULT:      -9.1      5.269      7.108
REMARK SMILES O=C(/C=C/Nc1cc(Cl)ccc1Cl)OCCOCCOC(=O)c1ccc(-c2c3nc(c(-c4c(F)cc(S(=O)(=O)[O-])cc4F)c4ccc([nH]4)c(-c4c(F)cc(S(=O)(=O)[O-])cc4F)c4nc(c(-c5c(F)cc(S(=O)(=O)[O-])cc5F)c5ccc2[nH]5)C=C4)C=C3)cc1
REMARK SMILES IDX 18 1 17 2 16 3 15 4 14 5 2 6 1 7 3 8 4 9 5 10 6 12 7 13
REMARK SMILES IDX 12 14 8 15 11 16 13 17 9 18 10 19 19 20 20 21 21 22 22 23
REMARK SMILES IDX 23 24 24 25 88 26 25 27 87 28 26 29 27 30 28 31 81 32 29 33
REMARK SMILES IDX 86 34 80 35 82 36 30 37 85 38 79 39 78 40 31 42 65 43 44 44
REMARK SMILES IDX 64 45 45 46 48 47 63 48 83 49 46 50 47 51 62 53 84 54 49 55
REMARK SMILES IDX 32 56 33 57 42 58 34 59 35 60 41 61 43 62 36 63 37 64 38 65
REMARK SMILES IDX 39 66 40 67 66 68 67 69 76 70 68 71 69 72 75 73 77 74 70 75
REMARK SMILES IDX 71 76 72 77 73 78 74 79 50 80 51 81 60 82 52 83 53 84 59 85
REMARK SMILES IDX 61 86 54 87 55 88 56 89 57 90 58 91
REMARK H PARENT 5 11 82 41 48 52
REMARK Flexibility Score: inf
ROOT
ATOM      1  C   UNL A   1      43.859  22.182  25.622  1.00  0.00     0.202 C 
ENDROOT
BRANCH   1   2
ATOM      2  O   UNL A   1      43.326  20.975  25.064  1.00  0.00    -0.374 OA
BRANCH   2   3
ATOM      3  C   UNL A   1      43.060  19.958  26.031  1.00  0.00     0.202 C 
BRANCH   3   4
ATOM      4  C   UNL A   1      41.623  19.448  26.056  1.00  0.00     0.261 C 
BRANCH   4   5
ATOM      5  O   UNL A   1      40.767  20.095  27.019  1.00  0.00    -0.460 OA
BRANCH   5   6
ATOM      6  C   UNL A   1      40.570  21.418  27.210  1.00  0.00     0.332 C 
ATOM      7  O   UNL A   1      41.105  21.994  28.156  1.00  0.00    -0.247 OA
BRANCH   6   8
ATOM      8  C   UNL A   1      39.600  22.177  26.406  1.00  0.00     0.111 C 
ATOM      9  C   UNL A   1      38.430  21.747  25.929  1.00  0.00     0.090 C 
BRANCH   9  10
ATOM     10  N   UNL A   1      37.476  22.484  25.272  1.00  0.00    -0.360 N 
ATOM     11  H   UNL A   1      37.719  23.372  24.924  1.00  0.00     0.166 HD
BRANCH  10  12
ATOM     12  C   UNL A   1      36.161  22.016  25.081  1.00  0.00     0.058 A 
ATOM     13  C   UNL A   1      35.928  20.636  24.937  1.00  0.00     0.048 A 
ATOM     14  C   UNL A   1      35.058  22.883  25.123  1.00  0.00     0.064 A 
ATOM     15  C   UNL A   1      34.632  20.154  24.757  1.00  0.00     0.043 A 
ATOM     16  C   UNL A   1      33.761  22.397  24.932  1.00  0.00     0.024 A 
ATOM     17  Cl  UNL A   1      35.266  24.582  25.368  1.00  0.00    -0.082 Cl
ATOM     18  Cl  UNL A   1      34.365  18.467  24.554  1.00  0.00    -0.084 Cl
ATOM     19  C   UNL A   1      33.549  21.030  24.740  1.00  0.00     0.022 A 
ENDBRANCH  10  12
ENDBRANCH   9  10
ENDBRANCH   6   8
ENDBRANCH   5   6
ENDBRANCH   4   5
ENDBRANCH   3   4
ENDBRANCH   2   3
ENDBRANCH   1   2
BRANCH   1  20
ATOM     20  C   UNL A   1      43.112  23.447  25.180  1.00  0.00     0.261 C 
BRANCH  20  21
ATOM     21  O   UNL A   1      42.662  24.203  26.313  1.00  0.00    -0.460 OA
BRANCH  21  22
ATOM     22  C   UNL A   1      41.906  25.289  26.012  1.00  0.00     0.338 C 
ATOM     23  O   UNL A   1      41.242  25.464  25.004  1.00  0.00    -0.246 OA
BRANCH  22  24
ATOM     24  C   UNL A   1      41.827  26.159  27.205  1.00  0.00     0.060 A 
ATOM     25  C   UNL A   1      40.792  25.921  28.120  1.00  0.00     0.016 A 
ATOM     26  C   UNL A   1      42.766  27.166  27.447  1.00  0.00     0.016 A 
ATOM     27  C   UNL A   1      40.681  26.701  29.269  1.00  0.00     0.010 A 
ATOM     28  C   UNL A   1      42.647  27.955  28.593  1.00  0.00     0.010 A 
ATOM     29  C   UNL A   1      41.591  27.743  29.495  1.00  0.00    -0.014 A 
BRANCH  29  30
ATOM     30  C   UNL A   1      41.347  28.714  30.587  1.00  0.00     0.031 A 
ATOM     31  C   UNL A   1      42.204  28.632  31.819  1.00  0.00     0.074 A 
ATOM     32  C   UNL A   1      40.386  29.649  30.480  1.00  0.00     0.049 A 
ATOM     33  N   UNL A   1      42.134  29.322  32.926  1.00  0.00    -0.248 NA
ATOM     34  C   UNL A   1      43.284  27.628  31.803  1.00  0.00     0.031 C 
ATOM     35  C   UNL A   1      39.517  29.840  29.320  1.00  0.00     0.029 A 
ATOM     36  N   UNL A   1      39.971  30.605  31.372  1.00  0.00    -0.354 N 
ATOM     37  C   UNL A   1      43.149  28.834  33.741  1.00  0.00     0.074 A 
ATOM     38  C   UNL A   1      43.804  27.769  33.012  1.00  0.00     0.031 C 
ATOM     39  C   UNL A   1      38.658  30.843  29.578  1.00  0.00     0.029 A 
ATOM     40  C   UNL A   1      38.895  31.341  30.932  1.00  0.00     0.049 A 
ATOM     41  H   UNL A   1      40.404  30.753  32.244  1.00  0.00     0.167 HD
ATOM     42  C   UNL A   1      43.505  29.243  34.979  1.00  0.00     0.037 A 
ATOM     43  C   UNL A   1      38.171  32.284  31.564  1.00  0.00     0.037 A 
ATOM     44  C   UNL A   1      42.848  30.308  35.691  1.00  0.00     0.049 A 
ATOM     45  C   UNL A   1      38.551  32.682  32.969  1.00  0.00     0.074 A 
ATOM     46  C   UNL A   1      43.148  30.817  36.942  1.00  0.00     0.029 A 
ATOM     47  N   UNL A   1      41.755  31.020  35.220  1.00  0.00    -0.354 N 
ATOM     48  N   UNL A   1      39.533  32.235  33.717  1.00  0.00    -0.248 NA
ATOM     49  C   UNL A   1      37.727  33.713  33.616  1.00  0.00     0.031 C 
ATOM     50  C   UNL A   1      42.202  31.800  37.250  1.00  0.00     0.029 A 
ATOM     51  C   UNL A   1      41.351  31.946  36.166  1.00  0.00     0.049 A 
ATOM     52  H   UNL A   1      41.329  30.886  34.343  1.00  0.00     0.167 HD
ATOM     53  C   UNL A   1      39.463  32.952  34.907  1.00  0.00     0.074 A 
ATOM     54  C   UNL A   1      38.351  33.870  34.775  1.00  0.00     0.031 C 
ATOM     55  C   UNL A   1      40.247  32.861  36.011  1.00  0.00     0.037 A 
BRANCH  42  56
ATOM     56  C   UNL A   1      44.641  28.528  35.656  1.00  0.00     0.058 A 
ATOM     57  C   UNL A   1      44.425  27.428  36.501  1.00  0.00     0.135 A 
ATOM     58  C   UNL A   1      45.969  28.915  35.413  1.00  0.00     0.135 A 
ATOM     59  F   UNL A   1      43.175  27.029  36.786  1.00  0.00    -0.206 F 
ATOM     60  C   UNL A   1      45.485  26.744  37.089  1.00  0.00     0.059 A 
ATOM     61  C   UNL A   1      47.044  28.230  35.968  1.00  0.00     0.059 A 
ATOM     62  F   UNL A   1      46.230  29.967  34.619  1.00  0.00    -0.206 F 
ATOM     63  C   UNL A   1      46.791  27.149  36.810  1.00  0.00     0.060 A 
BRANCH  63  64
ATOM     64  S   UNL A   1      48.155  26.229  37.555  1.00  0.00     0.124 S 
ATOM     65  O   UNL A   1      47.446  25.127  38.197  1.00  0.00    -0.237 OA
ATOM     66  O   UNL A   1      48.960  25.873  36.390  1.00  0.00    -0.237 OA
ATOM     67  O   UNL A   1      48.763  27.197  38.462  1.00  0.00    -0.744 OA
ENDBRANCH  63  64
ENDBRANCH  42  56
BRANCH  43  68
ATOM     68  C   UNL A   1      36.999  32.910  30.891  1.00  0.00     0.058 A 
ATOM     69  C   UNL A   1      37.167  33.891  29.901  1.00  0.00     0.135 A 
ATOM     70  C   UNL A   1      35.686  32.555  31.239  1.00  0.00     0.135 A 
ATOM     71  F   UNL A   1      38.401  34.274  29.539  1.00  0.00    -0.206 F 
ATOM     72  C   UNL A   1      36.078  34.515  29.300  1.00  0.00     0.059 A 
ATOM     73  C   UNL A   1      34.581  33.143  30.631  1.00  0.00     0.059 A 
ATOM     74  F   UNL A   1      35.469  31.614  32.171  1.00  0.00    -0.206 F 
ATOM     75  C   UNL A   1      34.788  34.134  29.673  1.00  0.00     0.060 A 
BRANCH  75  76
ATOM     76  S   UNL A   1      33.382  34.929  28.865  1.00  0.00     0.124 S 
ATOM     77  O   UNL A   1      33.983  36.168  28.385  1.00  0.00    -0.237 OA
ATOM     78  O   UNL A   1      33.026  33.953  27.841  1.00  0.00    -0.237 OA
ATOM     79  O   UNL A   1      32.412  35.075  29.947  1.00  0.00    -0.744 OA
ENDBRANCH  75  76
ENDBRANCH  43  68
BRANCH  55  80
ATOM     80  C   UNL A   1      39.963  33.806  37.148  1.00  0.00     0.058 A 
ATOM     81  C   UNL A   1      40.515  35.096  37.195  1.00  0.00     0.135 A 
ATOM     82  C   UNL A   1      39.079  33.434  38.174  1.00  0.00     0.135 A 
ATOM     83  F   UNL A   1      41.368  35.500  36.241  1.00  0.00    -0.206 F 
ATOM     84  C   UNL A   1      40.221  35.973  38.234  1.00  0.00     0.059 A 
ATOM     85  C   UNL A   1      38.747  34.306  39.205  1.00  0.00     0.059 A 
ATOM     86  F   UNL A   1      38.513  32.216  38.170  1.00  0.00    -0.206 F 
ATOM     87  C   UNL A   1      39.333  35.570  39.233  1.00  0.00     0.060 A 
BRANCH  87  88
ATOM     88  S   UNL A   1      38.936  36.731  40.558  1.00  0.00     0.124 S 
ATOM     89  O   UNL A   1      40.233  36.893  41.204  1.00  0.00    -0.237 OA
ATOM     90  O   UNL A   1      38.445  37.891  39.819  1.00  0.00    -0.237 OA
ATOM     91  O   UNL A   1      37.928  36.022  41.340  1.00  0.00    -0.744 OA
ENDBRANCH  87  88
ENDBRANCH  55  80
ENDBRANCH  29  30
ENDBRANCH  22  24
ENDBRANCH  21  22
ENDBRANCH  20  21
ENDBRANCH   1  20
TORSDOF 19
ENDMDL
MODEL 3
REMARK VINA RESULT:      -9.0      4.007     11.867
REMARK SMILES O=C(/C=C/Nc1cc(Cl)ccc1Cl)OCCOCCOC(=O)c1ccc(-c2c3nc(c(-c4c(F)cc(S(=O)(=O)[O-])cc4F)c4ccc([nH]4)c(-c4c(F)cc(S(=O)(=O)[O-])cc4F)c4nc(c(-c5c(F)cc(S(=O)(=O)[O-])cc5F)c5ccc2[nH]5)C=C4)C=C3)cc1
REMARK SMILES IDX 18 1 17 2 16 3 15 4 14 5 2 6 1 7 3 8 4 9 5 10 6 12 7 13
REMARK SMILES IDX 12 14 8 15 11 16 13 17 9 18 10 19 19 20 20 21 21 22 22 23
REMARK SMILES IDX 23 24 24 25 88 26 25 27 87 28 26 29 27 30 28 31 81 32 29 33
REMARK SMILES IDX 86 34 80 35 82 36 30 37 85 38 79 39 78 40 31 42 65 43 44 44
REMARK SMILES IDX 64 45 45 46 48 47 63 48 83 49 46 50 47 51 62 53 84 54 49 55
REMARK SMILES IDX 32 56 33 57 42 58 34 59 35 60 41 61 43 62 36 63 37 64 38 65
REMARK SMILES IDX 39 66 40 67 66 68 67 69 76 70 68 71 69 72 75 73 77 74 70 75
REMARK SMILES IDX 71 76 72 77 73 78 74 79 50 80 51 81 60 82 52 83 53 84 59 85
REMARK SMILES IDX 61 86 54 87 55 88 56 89 57 90 58 91
REMARK H PARENT 5 11 82 41 48 52
REMARK Flexibility Score: inf
ROOT
ATOM      1  C   UNL A   1      35.147  33.458  31.603  1.00  0.00     0.202 C 
ENDROOT
BRANCH   1   2
ATOM      2  O   UNL A   1      35.001  34.118  32.866  1.00  0.00    -0.374 OA
BRANCH   2   3
ATOM      3  C   UNL A   1      33.645  34.389  33.225  1.00  0.00     0.202 C 
BRANCH   3   4
ATOM      4  C   UNL A   1      33.104  35.731  32.742  1.00  0.00     0.261 C 
BRANCH   4   5
ATOM      5  O   UNL A   1      32.527  35.712  31.421  1.00  0.00    -0.460 OA
BRANCH   5   6
ATOM      6  C   UNL A   1      32.956  36.352  30.311  1.00  0.00     0.332 C 
ATOM      7  O   UNL A   1      32.903  37.579  30.243  1.00  0.00    -0.247 OA
BRANCH   6   8
ATOM      8  C   UNL A   1      33.346  35.616  29.099  1.00  0.00     0.111 C 
ATOM      9  C   UNL A   1      33.134  34.325  28.831  1.00  0.00     0.090 C 
BRANCH   9  10
ATOM     10  N   UNL A   1      33.400  33.662  27.659  1.00  0.00    -0.360 N 
ATOM     11  H   UNL A   1      33.363  34.162  26.812  1.00  0.00     0.166 HD
BRANCH  10  12
ATOM     12  C   UNL A   1      33.724  32.291  27.625  1.00  0.00     0.058 A 
ATOM     13  C   UNL A   1      32.744  31.353  27.257  1.00  0.00     0.048 A 
ATOM     14  C   UNL A   1      35.033  31.839  27.861  1.00  0.00     0.064 A 
ATOM     15  C   UNL A   1      33.050  29.994  27.208  1.00  0.00     0.043 A 
ATOM     16  C   UNL A   1      35.333  30.475  27.821  1.00  0.00     0.024 A 
ATOM     17  Cl  UNL A   1      36.303  32.945  28.249  1.00  0.00    -0.082 Cl
ATOM     18  Cl  UNL A   1      31.833  28.855  26.784  1.00  0.00    -0.084 Cl
ATOM     19  C   UNL A   1      34.337  29.549  27.503  1.00  0.00     0.022 A 
ENDBRANCH  10  12
ENDBRANCH   9  10
ENDBRANCH   6   8
ENDBRANCH   5   6
ENDBRANCH   4   5
ENDBRANCH   3   4
ENDBRANCH   2   3
ENDBRANCH   1   2
BRANCH   1  20
ATOM     20  C   UNL A   1      35.430  31.955  31.721  1.00  0.00     0.261 C 
BRANCH  20  21
ATOM     21  O   UNL A   1      36.780  31.652  31.341  1.00  0.00    -0.460 OA
BRANCH  21  22
ATOM     22  C   UNL A   1      37.057  30.329  31.225  1.00  0.00     0.338 C 
ATOM     23  O   UNL A   1      36.278  29.400  31.358  1.00  0.00    -0.246 OA
BRANCH  22  24
ATOM     24  C   UNL A   1      38.428  30.176  30.689  1.00  0.00     0.060 A 
ATOM     25  C   UNL A   1      38.604  30.289  29.303  1.00  0.00     0.016 A 
ATOM     26  C   UNL A   1      39.528  29.963  31.526  1.00  0.00     0.016 A 
ATOM     27  C   UNL A   1      39.876  30.170  28.747  1.00  0.00     0.010 A 
ATOM     28  C   UNL A   1      40.800  29.832  30.966  1.00  0.00     0.010 A 
ATOM     29  C   UNL A   1      40.976  29.910  29.574  1.00  0.00    -0.014 A 
BRANCH  29  30
ATOM     30  C   UNL A   1      42.284  29.558  28.976  1.00  0.00     0.031 A 
ATOM     31  C   UNL A   1      42.494  28.148  28.498  1.00  0.00     0.074 A 
ATOM     32  C   UNL A   1      43.262  30.474  28.859  1.00  0.00     0.049 A 
ATOM     33  N   UNL A   1      43.569  27.589  28.008  1.00  0.00    -0.248 NA
ATOM     34  C   UNL A   1      41.335  27.242  28.592  1.00  0.00     0.031 C 
ATOM     35  C   UNL A   1      43.159  31.877  29.260  1.00  0.00     0.029 A 
ATOM     36  N   UNL A   1      44.542  30.356  28.380  1.00  0.00    -0.354 N 
ATOM     37  C   UNL A   1      43.222  26.269  27.745  1.00  0.00     0.074 A 
ATOM     38  C   UNL A   1      41.845  26.102  28.155  1.00  0.00     0.031 C 
ATOM     39  C   UNL A   1      44.335  32.486  29.027  1.00  0.00     0.029 A 
ATOM     40  C   UNL A   1      45.282  31.510  28.491  1.00  0.00     0.049 A 
ATOM     41  H   UNL A   1      44.897  29.524  27.993  1.00  0.00     0.167 HD
ATOM     42  C   UNL A   1      43.982  25.291  27.202  1.00  0.00     0.037 A 
ATOM     43  C   UNL A   1      46.581  31.739  28.218  1.00  0.00     0.037 A 
ATOM     44  C   UNL A   1      45.350  25.472  26.793  1.00  0.00     0.049 A 
ATOM     45  C   UNL A   1      47.425  30.614  27.670  1.00  0.00     0.074 A 
ATOM     46  C   UNL A   1      46.200  24.551  26.209  1.00  0.00     0.029 A 
ATOM     47  N   UNL A   1      46.069  26.650  26.933  1.00  0.00    -0.354 N 
ATOM     48  N   UNL A   1      47.076  29.379  27.395  1.00  0.00    -0.248 NA
ATOM     49  C   UNL A   1      48.837  30.914  27.392  1.00  0.00     0.031 C 
ATOM     50  C   UNL A   1      47.451  25.155  26.046  1.00  0.00     0.029 A 
ATOM     51  C   UNL A   1      47.362  26.471  26.471  1.00  0.00     0.049 A 
ATOM     52  H   UNL A   1      45.713  27.489  27.305  1.00  0.00     0.167 HD
ATOM     53  C   UNL A   1      48.216  28.765  26.884  1.00  0.00     0.074 A 
ATOM     54  C   UNL A   1      49.260  29.768  26.876  1.00  0.00     0.031 C 
ATOM     55  C   UNL A   1      48.385  27.488  26.459  1.00  0.00     0.037 A 
BRANCH  42  56
ATOM     56  C   UNL A   1      43.363  23.930  27.038  1.00  0.00     0.058 A 
ATOM     57  C   UNL A   1      42.792  23.518  25.824  1.00  0.00     0.135 A 
ATOM     58  C   UNL A   1      43.394  23.005  28.094  1.00  0.00     0.135 A 
ATOM     59  F   UNL A   1      42.715  24.371  24.789  1.00  0.00    -0.206 F 
ATOM     60  C   UNL A   1      42.261  22.242  25.667  1.00  0.00     0.059 A 
ATOM     61  C   UNL A   1      42.894  21.715  27.951  1.00  0.00     0.059 A 
ATOM     62  F   UNL A   1      43.922  23.351  29.280  1.00  0.00    -0.206 F 
ATOM     63  C   UNL A   1      42.323  21.345  26.735  1.00  0.00     0.060 A 
BRANCH  63  64
ATOM     64  S   UNL A   1      41.661  19.682  26.502  1.00  0.00     0.124 S 
ATOM     65  O   UNL A   1      41.946  19.070  27.796  1.00  0.00    -0.237 OA
ATOM     66  O   UNL A   1      40.253  19.946  26.222  1.00  0.00    -0.237 OA
ATOM     67  O   UNL A   1      42.434  19.161  25.379  1.00  0.00    -0.744 OA
ENDBRANCH  63  64
ENDBRANCH  42  56
BRANCH  43  68
ATOM     68  C   UNL A   1      47.179  33.078  28.474  1.00  0.00     0.058 A 
ATOM     69  C   UNL A   1      47.221  34.060  27.472  1.00  0.00     0.135 A 
ATOM     70  C   UNL A   1      47.741  33.397  29.721  1.00  0.00     0.135 A 
ATOM     71  F   UNL A   1      46.707  33.803  26.259  1.00  0.00    -0.206 F 
ATOM     72  C   UNL A   1      47.820  35.298  27.687  1.00  0.00     0.059 A 
ATOM     73  C   UNL A   1      48.319  34.638  29.970  1.00  0.00     0.059 A 
ATOM     74  F   UNL A   1      47.718  32.499  30.717  1.00  0.00    -0.206 F 
ATOM     75  C   UNL A   1      48.367  35.577  28.940  1.00  0.00     0.060 A 
BRANCH  75  76
ATOM     76  S   UNL A   1      49.115  37.197  29.218  1.00  0.00     0.124 S 
ATOM     77  O   UNL A   1      48.872  37.392  30.642  1.00  0.00    -0.237 OA
ATOM     78  O   UNL A   1      50.502  36.963  28.832  1.00  0.00    -0.237 OA
ATOM     79  O   UNL A   1      48.362  38.072  28.323  1.00  0.00    -0.744 OA
ENDBRANCH  75  76
ENDBRANCH  43  68
BRANCH  55  80
ATOM     80  C   UNL A   1      49.733  27.110  25.907  1.00  0.00     0.058 A 
ATOM     81  C   UNL A   1      50.727  26.531  26.710  1.00  0.00     0.135 A 
ATOM     82  C   UNL A   1      50.011  27.277  24.539  1.00  0.00     0.135 A 
ATOM     83  F   UNL A   1      50.515  26.353  28.024  1.00  0.00    -0.206 F 
ATOM     84  C   UNL A   1      51.959  26.156  26.184  1.00  0.00     0.059 A 
ATOM     85  C   UNL A   1      51.223  26.880  23.986  1.00  0.00     0.059 A 
ATOM     86  F   UNL A   1      49.089  27.813  23.723  1.00  0.00    -0.206 F 
ATOM     87  C   UNL A   1      52.196  26.331  24.819  1.00  0.00     0.060 A 
BRANCH  87  88
ATOM     88  S   UNL A   1      53.788  25.811  24.143  1.00  0.00     0.124 S 
ATOM     89  O   UNL A   1      53.559  25.953  22.710  1.00  0.00    -0.237 OA
ATOM     90  O   UNL A   1      54.709  26.775  24.737  1.00  0.00    -0.237 OA
ATOM     91  O   UNL A   1      53.929  24.440  24.624  1.00  0.00    -0.744 OA
ENDBRANCH  87  88
ENDBRANCH  55  80
ENDBRANCH  29  30
ENDBRANCH  22  24
ENDBRANCH  21  22
ENDBRANCH  20  21
ENDBRANCH   1  20
TORSDOF 19
ENDMDL
