MODEL 1
REMARK VINA RESULT:     -11.4      0.000      0.000
REMARK SMILES CC(C)Cc1cc2c(cc1Cl)C=C(C(=O)OCCOCCOC(=O)c1ccc(-c3c4nc(c(-c5c(F)cc(S(=O)(=O)[O-])cc5F)c5ccc([nH]5)c(-c5c(F)cc(S(=O)(=O)[O-])cc5F)c5nc(c(-c6c(F)cc(S(=O)(=O)[O-])cc6F)c6ccc3[nH]6)C=C5)C=C4)cc1)[C@@H](C(F)(F)F)O2
REMARK SMILES IDX 20 1 19 2 18 3 17 4 16 5 14 6 15 7 13 8 5 9 6 10 10 11 7 12
REMARK SMILES IDX 9 13 11 14 8 15 96 16 12 17 91 18 4 19 2 20 1 21 3 22 92 23
REMARK SMILES IDX 93 24 94 25 95 26 21 27 22 28 23 29 24 30 25 31 26 32 90 33
REMARK SMILES IDX 27 34 89 35 28 36 29 37 30 38 83 39 31 40 88 41 82 42 84 43
REMARK SMILES IDX 32 44 87 45 81 46 80 47 33 49 67 50 46 51 66 52 47 53 50 54
REMARK SMILES IDX 65 55 85 56 48 57 49 58 64 60 86 61 51 62 34 63 35 64 44 65
REMARK SMILES IDX 36 66 37 67 43 68 45 69 38 70 39 71 40 72 41 73 42 74 68 75
REMARK SMILES IDX 69 76 78 77 70 78 71 79 77 80 79 81 72 82 73 83 74 84 75 85
REMARK SMILES IDX 76 86 52 87 53 88 62 89 54 90 55 91 61 92 63 93 56 94 57 95
REMARK SMILES IDX 58 96 59 97 60 98
REMARK H PARENT 84 48 50 59
REMARK Flexibility Score: inf
ROOT
ATOM      1  C   UNL A   1      33.243  30.882  27.314  1.00  0.00     0.202 C 
ENDROOT
BRANCH   1   2
ATOM      2  O   UNL A   1      33.212  29.952  26.232  1.00  0.00    -0.374 OA
BRANCH   2   3
ATOM      3  C   UNL A   1      32.004  29.803  25.492  1.00  0.00     0.202 C 
BRANCH   3   4
ATOM      4  C   UNL A   1      31.718  28.449  24.835  1.00  0.00     0.261 C 
BRANCH   4   5
ATOM      5  O   UNL A   1      32.612  27.425  25.294  1.00  0.00    -0.460 OA
BRANCH   5   6
ATOM      6  C   UNL A   1      33.196  26.713  24.302  1.00  0.00     0.338 C 
ATOM      7  O   UNL A   1      33.808  27.153  23.342  1.00  0.00    -0.246 OA
BRANCH   6   8
ATOM      8  C   UNL A   1      33.125  25.275  24.620  1.00  0.00     0.087 C 
ATOM      9  C   UNL A   1      34.307  20.432  24.839  1.00  0.00    -0.025 A 
ATOM     10  C   UNL A   1      33.099  21.150  24.936  1.00  0.00     0.052 A 
ATOM     11  C   UNL A   1      35.516  21.140  24.931  1.00  0.00     0.045 A 
ATOM     12  C   UNL A   1      33.097  22.542  24.980  1.00  0.00     0.128 A 
ATOM     13  C   UNL A   1      35.512  22.534  25.007  1.00  0.00     0.032 A 
ATOM     14  Cl  UNL A   1      37.057  20.360  24.892  1.00  0.00    -0.084 Cl
ATOM     15  C   UNL A   1      34.305  23.234  24.975  1.00  0.00     0.019 A 
ATOM     16  O   UNL A   1      31.876  23.150  25.000  1.00  0.00    -0.475 OA
ATOM     17  C   UNL A   1      34.303  24.676  24.830  1.00  0.00     0.027 C 
ATOM     18  C   UNL A   1      31.799  24.566  24.661  1.00  0.00     0.316 C 
BRANCH   9  19
ATOM     19  C   UNL A   1      34.238  18.952  24.528  1.00  0.00     0.040 C 
BRANCH  19  20
ATOM     20  C   UNL A   1      32.789  18.453  24.305  1.00  0.00    -0.013 C 
ATOM     21  C   UNL A   1      32.521  18.037  22.854  1.00  0.00     0.008 C 
ATOM     22  C   UNL A   1      32.490  17.279  25.238  1.00  0.00     0.008 C 
ENDBRANCH  19  20
ENDBRANCH   9  19
BRANCH  18  23
ATOM     23  C   UNL A   1      31.010  24.715  23.350  1.00  0.00     0.430 C 
ATOM     24  F   UNL A   1      31.842  24.761  22.282  1.00  0.00    -0.167 F 
ATOM     25  F   UNL A   1      30.171  23.675  23.151  1.00  0.00    -0.167 F 
ATOM     26  F   UNL A   1      30.269  25.847  23.337  1.00  0.00    -0.167 F 
ENDBRANCH  18  23
ENDBRANCH   6   8
ENDBRANCH   5   6
ENDBRANCH   4   5
ENDBRANCH   3   4
ENDBRANCH   2   3
ENDBRANCH   1   2
BRANCH   1  27
ATOM     27  C   UNL A   1      34.591  31.462  27.763  1.00  0.00     0.261 C 
BRANCH  27  28
ATOM     28  O   UNL A   1      35.459  30.483  28.356  1.00  0.00    -0.460 OA
BRANCH  28  29
ATOM     29  C   UNL A   1      36.413  30.998  29.172  1.00  0.00     0.338 C 
ATOM     30  O   UNL A   1      36.250  31.792  30.086  1.00  0.00    -0.246 OA
BRANCH  29  31
ATOM     31  C   UNL A   1      37.691  30.299  28.940  1.00  0.00     0.060 A 
ATOM     32  C   UNL A   1      38.057  29.858  27.669  1.00  0.00     0.016 A 
ATOM     33  C   UNL A   1      38.558  30.137  30.030  1.00  0.00     0.016 A 
ATOM     34  C   UNL A   1      39.320  29.288  27.485  1.00  0.00     0.010 A 
ATOM     35  C   UNL A   1      39.816  29.569  29.843  1.00  0.00     0.010 A 
ATOM     36  C   UNL A   1      40.219  29.166  28.564  1.00  0.00    -0.014 A 
BRANCH  36  37
ATOM     37  C   UNL A   1      41.630  28.777  28.316  1.00  0.00     0.031 A 
ATOM     38  C   UNL A   1      42.016  27.362  28.005  1.00  0.00     0.074 A 
ATOM     39  C   UNL A   1      42.574  29.734  28.401  1.00  0.00     0.049 A 
ATOM     40  N   UNL A   1      43.193  26.889  27.682  1.00  0.00    -0.248 NA
ATOM     41  C   UNL A   1      40.956  26.347  28.074  1.00  0.00     0.031 C 
ATOM     42  C   UNL A   1      42.317  31.132  28.755  1.00  0.00     0.029 A 
ATOM     43  N   UNL A   1      43.928  29.689  28.191  1.00  0.00    -0.354 N 
ATOM     44  C   UNL A   1      43.015  25.527  27.481  1.00  0.00     0.074 A 
ATOM     45  C   UNL A   1      41.626  25.239  27.776  1.00  0.00     0.031 C 
ATOM     46  C   UNL A   1      43.467  31.820  28.691  1.00  0.00     0.029 A 
ATOM     47  C   UNL A   1      44.547  30.909  28.324  1.00  0.00     0.049 A 
ATOM     48  H   UNL A   1      44.411  28.861  27.964  1.00  0.00     0.167 HD
ATOM     49  C   UNL A   1      43.922  24.611  27.063  1.00  0.00     0.037 A 
ATOM     50  C   UNL A   1      45.837  31.262  28.161  1.00  0.00     0.037 A 
ATOM     51  C   UNL A   1      45.308  24.910  26.795  1.00  0.00     0.049 A 
ATOM     52  C   UNL A   1      46.833  30.219  27.737  1.00  0.00     0.074 A 
ATOM     53  C   UNL A   1      46.297  24.056  26.338  1.00  0.00     0.029 A 
ATOM     54  N   UNL A   1      45.905  26.150  26.971  1.00  0.00    -0.354 N 
ATOM     55  N   UNL A   1      46.631  28.951  27.470  1.00  0.00    -0.248 NA
ATOM     56  C   UNL A   1      48.230  30.651  27.587  1.00  0.00     0.031 C 
ATOM     57  C   UNL A   1      47.501  24.763  26.293  1.00  0.00     0.029 A 
ATOM     58  C   UNL A   1      47.254  26.075  26.659  1.00  0.00     0.049 A 
ATOM     59  H   UNL A   1      45.440  26.963  27.274  1.00  0.00     0.167 HD
ATOM     60  C   UNL A   1      47.868  28.440  27.092  1.00  0.00     0.074 A 
ATOM     61  C   UNL A   1      48.811  29.536  27.160  1.00  0.00     0.031 C 
ATOM     62  C   UNL A   1      48.187  27.176  26.719  1.00  0.00     0.037 A 
BRANCH  49  63
ATOM     63  C   UNL A   1      43.452  23.196  26.853  1.00  0.00     0.058 A 
ATOM     64  C   UNL A   1      43.335  22.651  25.564  1.00  0.00     0.135 A 
ATOM     65  C   UNL A   1      43.195  22.350  27.945  1.00  0.00     0.135 A 
ATOM     66  F   UNL A   1      43.562  23.416  24.483  1.00  0.00    -0.206 F 
ATOM     67  C   UNL A   1      42.958  21.328  25.365  1.00  0.00     0.059 A 
ATOM     68  C   UNL A   1      42.845  21.015  27.770  1.00  0.00     0.059 A 
ATOM     69  F   UNL A   1      43.297  22.817  29.200  1.00  0.00    -0.206 F 
ATOM     70  C   UNL A   1      42.719  20.516  26.473  1.00  0.00     0.060 A 
BRANCH  70  71
ATOM     71  S   UNL A   1      42.240  18.798  26.190  1.00  0.00     0.124 S 
ATOM     72  O   UNL A   1      40.842  18.947  25.794  1.00  0.00    -0.237 OA
ATOM     73  O   UNL A   1      43.158  18.391  25.132  1.00  0.00    -0.237 OA
ATOM     74  O   UNL A   1      42.456  18.164  27.486  1.00  0.00    -0.744 OA
ENDBRANCH  70  71
ENDBRANCH  49  63
BRANCH  50  75
ATOM     75  C   UNL A   1      46.238  32.681  28.351  1.00  0.00     0.058 A 
ATOM     76  C   UNL A   1      46.688  33.142  29.596  1.00  0.00     0.135 A 
ATOM     77  C   UNL A   1      46.229  33.591  27.280  1.00  0.00     0.135 A 
ATOM     78  F   UNL A   1      46.712  32.311  30.650  1.00  0.00    -0.206 F 
ATOM     79  C   UNL A   1      47.110  34.454  29.779  1.00  0.00     0.059 A 
ATOM     80  C   UNL A   1      46.673  34.901  27.431  1.00  0.00     0.059 A 
ATOM     81  F   UNL A   1      45.825  33.194  26.064  1.00  0.00    -0.206 F 
ATOM     82  C   UNL A   1      47.106  35.325  28.687  1.00  0.00     0.060 A 
BRANCH  82  83
ATOM     83  S   UNL A   1      47.715  37.007  28.925  1.00  0.00     0.124 S 
ATOM     84  O   UNL A   1      47.232  37.668  27.719  1.00  0.00    -0.237 OA
ATOM     85  O   UNL A   1      47.061  37.392  30.171  1.00  0.00    -0.237 OA
ATOM     86  O   UNL A   1      49.162  36.832  29.013  1.00  0.00    -0.744 OA
ENDBRANCH  82  83
ENDBRANCH  50  75
BRANCH  62  87
ATOM     87  C   UNL A   1      49.611  26.893  26.324  1.00  0.00     0.058 A 
ATOM     88  C   UNL A   1      50.544  26.385  27.239  1.00  0.00     0.135 A 
ATOM     89  C   UNL A   1      50.014  27.028  24.984  1.00  0.00     0.135 A 
ATOM     90  F   UNL A   1      50.215  26.246  28.533  1.00  0.00    -0.206 F 
ATOM     91  C   UNL A   1      51.825  26.016  26.842  1.00  0.00     0.059 A 
ATOM     92  C   UNL A   1      51.280  26.640  24.558  1.00  0.00     0.059 A 
ATOM     93  F   UNL A   1      49.158  27.505  24.066  1.00  0.00    -0.206 F 
ATOM     94  C   UNL A   1      52.179  26.133  25.496  1.00  0.00     0.060 A 
BRANCH  94  95
ATOM     95  S   UNL A   1      53.817  25.572  24.984  1.00  0.00     0.124 S 
ATOM     96  O   UNL A   1      53.718  24.132  25.201  1.00  0.00    -0.237 OA
ATOM     97  O   UNL A   1      53.868  26.001  23.590  1.00  0.00    -0.237 OA
ATOM     98  O   UNL A   1      54.719  26.281  25.887  1.00  0.00    -0.744 OA
ENDBRANCH  94  95
ENDBRANCH  62  87
ENDBRANCH  36  37
ENDBRANCH  29  31
ENDBRANCH  28  29
ENDBRANCH  27  28
ENDBRANCH   1  27
TORSDOF 20
ENDMDL
MODEL 2
REMARK VINA RESULT:     -11.1      6.856     11.807
REMARK SMILES CC(C)Cc1cc2c(cc1Cl)C=C(C(=O)OCCOCCOC(=O)c1ccc(-c3c4nc(c(-c5c(F)cc(S(=O)(=O)[O-])cc5F)c5ccc([nH]5)c(-c5c(F)cc(S(=O)(=O)[O-])cc5F)c5nc(c(-c6c(F)cc(S(=O)(=O)[O-])cc6F)c6ccc3[nH]6)C=C5)C=C4)cc1)[C@@H](C(F)(F)F)O2
REMARK SMILES IDX 20 1 19 2 18 3 17 4 16 5 14 6 15 7 13 8 5 9 6 10 10 11 7 12
REMARK SMILES IDX 9 13 11 14 8 15 96 16 12 17 91 18 4 19 2 20 1 21 3 22 92 23
REMARK SMILES IDX 93 24 94 25 95 26 21 27 22 28 23 29 24 30 25 31 26 32 90 33
REMARK SMILES IDX 27 34 89 35 28 36 29 37 30 38 83 39 31 40 88 41 82 42 84 43
REMARK SMILES IDX 32 44 87 45 81 46 80 47 33 49 67 50 46 51 66 52 47 53 50 54
REMARK SMILES IDX 65 55 85 56 48 57 49 58 64 60 86 61 51 62 34 63 35 64 44 65
REMARK SMILES IDX 36 66 37 67 43 68 45 69 38 70 39 71 40 72 41 73 42 74 68 75
REMARK SMILES IDX 69 76 78 77 70 78 71 79 77 80 79 81 72 82 73 83 74 84 75 85
REMARK SMILES IDX 76 86 52 87 53 88 62 89 54 90 55 91 61 92 63 93 56 94 57 95
REMARK SMILES IDX 58 96 59 97 60 98
REMARK H PARENT 84 48 50 59
REMARK Flexibility Score: inf
ROOT
ATOM      1  C   UNL A   1      39.533  22.163  26.633  1.00  0.00     0.202 C 
ENDROOT
BRANCH   1   2
ATOM      2  O   UNL A   1      39.123  21.478  25.450  1.00  0.00    -0.374 OA
BRANCH   2   3
ATOM      3  C   UNL A   1      37.732  21.255  25.236  1.00  0.00     0.202 C 
BRANCH   3   4
ATOM      4  C   UNL A   1      36.995  22.164  24.247  1.00  0.00     0.261 C 
BRANCH   4   5
ATOM      5  O   UNL A   1      36.663  23.435  24.823  1.00  0.00    -0.460 OA
BRANCH   5   6
ATOM      6  C   UNL A   1      35.485  23.452  25.489  1.00  0.00     0.338 C 
ATOM      7  O   UNL A   1      35.232  22.908  26.551  1.00  0.00    -0.246 OA
BRANCH   6   8
ATOM      8  C   UNL A   1      34.552  24.374  24.815  1.00  0.00     0.087 C 
ATOM      9  C   UNL A   1      31.119  27.927  24.115  1.00  0.00    -0.025 A 
ATOM     10  C   UNL A   1      31.541  26.812  23.365  1.00  0.00     0.052 A 
ATOM     11  C   UNL A   1      31.921  28.355  25.186  1.00  0.00     0.045 A 
ATOM     12  C   UNL A   1      32.647  26.063  23.758  1.00  0.00     0.128 A 
ATOM     13  C   UNL A   1      33.047  27.621  25.560  1.00  0.00     0.032 A 
ATOM     14  Cl  UNL A   1      31.541  29.748  26.134  1.00  0.00    -0.084 Cl
ATOM     15  C   UNL A   1      33.376  26.446  24.880  1.00  0.00     0.019 A 
ATOM     16  O   UNL A   1      32.934  24.959  23.010  1.00  0.00    -0.475 OA
ATOM     17  C   UNL A   1      34.406  25.569  25.400  1.00  0.00     0.027 C 
ATOM     18  C   UNL A   1      33.813  23.943  23.578  1.00  0.00     0.316 C 
BRANCH   9  19
ATOM     19  C   UNL A   1      29.771  28.537  23.797  1.00  0.00     0.040 C 
BRANCH  19  20
ATOM     20  C   UNL A   1      29.883  29.847  22.979  1.00  0.00    -0.013 C 
ATOM     21  C   UNL A   1      29.122  29.783  21.648  1.00  0.00     0.008 C 
ATOM     22  C   UNL A   1      29.370  31.027  23.806  1.00  0.00     0.008 C 
ENDBRANCH  19  20
ENDBRANCH   9  19
BRANCH  18  23
ATOM     23  C   UNL A   1      33.002  22.657  23.794  1.00  0.00     0.430 C 
ATOM     24  F   UNL A   1      32.053  22.510  22.838  1.00  0.00    -0.167 F 
ATOM     25  F   UNL A   1      33.786  21.557  23.742  1.00  0.00    -0.167 F 
ATOM     26  F   UNL A   1      32.374  22.655  24.992  1.00  0.00    -0.167 F 
ENDBRANCH  18  23
ENDBRANCH   6   8
ENDBRANCH   5   6
ENDBRANCH   4   5
ENDBRANCH   3   4
ENDBRANCH   2   3
ENDBRANCH   1   2
BRANCH   1  27
ATOM     27  C   UNL A   1      40.521  23.331  26.516  1.00  0.00     0.261 C 
BRANCH  27  28
ATOM     28  O   UNL A   1      39.877  24.598  26.309  1.00  0.00    -0.460 OA
BRANCH  28  29
ATOM     29  C   UNL A   1      40.726  25.652  26.210  1.00  0.00     0.338 C 
ATOM     30  O   UNL A   1      41.253  26.080  25.194  1.00  0.00    -0.246 OA
BRANCH  29  31
ATOM     31  C   UNL A   1      40.778  26.367  27.498  1.00  0.00     0.060 A 
ATOM     32  C   UNL A   1      41.753  27.330  27.757  1.00  0.00     0.016 A 
ATOM     33  C   UNL A   1      39.780  26.090  28.443  1.00  0.00     0.016 A 
ATOM     34  C   UNL A   1      41.698  28.048  28.955  1.00  0.00     0.010 A 
ATOM     35  C   UNL A   1      39.728  26.807  29.637  1.00  0.00     0.010 A 
ATOM     36  C   UNL A   1      40.671  27.812  29.890  1.00  0.00    -0.014 A 
BRANCH  36  37
ATOM     37  C   UNL A   1      40.488  28.729  31.042  1.00  0.00     0.031 A 
ATOM     38  C   UNL A   1      41.333  28.626  32.276  1.00  0.00     0.074 A 
ATOM     39  C   UNL A   1      39.514  29.658  30.964  1.00  0.00     0.049 A 
ATOM     40  N   UNL A   1      41.348  29.409  33.325  1.00  0.00    -0.248 NA
ATOM     41  C   UNL A   1      42.274  27.500  32.352  1.00  0.00     0.031 C 
ATOM     42  C   UNL A   1      38.594  29.809  29.834  1.00  0.00     0.029 A 
ATOM     43  N   UNL A   1      39.139  30.649  31.833  1.00  0.00    -0.354 N 
ATOM     44  C   UNL A   1      42.315  28.891  34.175  1.00  0.00     0.074 A 
ATOM     45  C   UNL A   1      42.825  27.690  33.545  1.00  0.00     0.031 C 
ATOM     46  C   UNL A   1      37.793  30.861  30.059  1.00  0.00     0.029 A 
ATOM     47  C   UNL A   1      38.119  31.439  31.360  1.00  0.00     0.049 A 
ATOM     48  H   UNL A   1      39.561  30.783  32.713  1.00  0.00     0.167 HD
ATOM     49  C   UNL A   1      42.751  29.389  35.358  1.00  0.00     0.037 A 
ATOM     50  C   UNL A   1      37.517  32.515  31.903  1.00  0.00     0.037 A 
ATOM     51  C   UNL A   1      42.216  30.574  35.983  1.00  0.00     0.049 A 
ATOM     52  C   UNL A   1      37.991  33.024  33.235  1.00  0.00     0.074 A 
ATOM     53  C   UNL A   1      42.614  31.175  37.165  1.00  0.00     0.029 A 
ATOM     54  N   UNL A   1      41.163  31.330  35.488  1.00  0.00    -0.354 N 
ATOM     55  N   UNL A   1      38.965  32.571  33.988  1.00  0.00    -0.248 NA
ATOM     56  C   UNL A   1      37.293  34.191  33.792  1.00  0.00     0.031 C 
ATOM     57  C   UNL A   1      41.766  32.257  37.414  1.00  0.00     0.029 A 
ATOM     58  C   UNL A   1      40.880  32.374  36.357  1.00  0.00     0.049 A 
ATOM     59  H   UNL A   1      40.686  31.152  34.646  1.00  0.00     0.167 HD
ATOM     60  C   UNL A   1      39.015  33.414  35.093  1.00  0.00     0.074 A 
ATOM     61  C   UNL A   1      37.978  34.408  34.908  1.00  0.00     0.031 C 
ATOM     62  C   UNL A   1      39.851  33.368  36.160  1.00  0.00     0.037 A 
BRANCH  49  63
ATOM     63  C   UNL A   1      43.873  28.669  36.056  1.00  0.00     0.058 A 
ATOM     64  C   UNL A   1      45.205  29.094  35.926  1.00  0.00     0.135 A 
ATOM     65  C   UNL A   1      43.613  27.597  36.928  1.00  0.00     0.135 A 
ATOM     66  F   UNL A   1      45.514  30.108  35.102  1.00  0.00    -0.206 F 
ATOM     67  C   UNL A   1      46.240  28.470  36.615  1.00  0.00     0.059 A 
ATOM     68  C   UNL A   1      44.628  26.977  37.649  1.00  0.00     0.059 A 
ATOM     69  F   UNL A   1      42.357  27.153  37.095  1.00  0.00    -0.206 F 
ATOM     70  C   UNL A   1      45.941  27.414  37.477  1.00  0.00     0.060 A 
BRANCH  70  71
ATOM     71  S   UNL A   1      47.299  26.625  38.368  1.00  0.00     0.124 S 
ATOM     72  O   UNL A   1      46.593  25.998  39.481  1.00  0.00    -0.237 OA
ATOM     73  O   UNL A   1      47.838  25.713  37.365  1.00  0.00    -0.237 OA
ATOM     74  O   UNL A   1      48.166  27.742  38.729  1.00  0.00    -0.744 OA
ENDBRANCH  70  71
ENDBRANCH  49  63
BRANCH  50  75
ATOM     75  C   UNL A   1      36.435  33.207  31.152  1.00  0.00     0.058 A 
ATOM     76  C   UNL A   1      35.105  33.148  31.590  1.00  0.00     0.135 A 
ATOM     77  C   UNL A   1      36.717  33.981  30.014  1.00  0.00     0.135 A 
ATOM     78  F   UNL A   1      34.785  32.420  32.670  1.00  0.00    -0.206 F 
ATOM     79  C   UNL A   1      34.089  33.827  30.926  1.00  0.00     0.059 A 
ATOM     80  C   UNL A   1      35.723  34.691  29.349  1.00  0.00     0.059 A 
ATOM     81  F   UNL A   1      37.978  34.084  29.567  1.00  0.00    -0.206 F 
ATOM     82  C   UNL A   1      34.410  34.603  29.810  1.00  0.00     0.060 A 
BRANCH  82  83
ATOM     83  S   UNL A   1      33.090  35.527  28.996  1.00  0.00     0.124 S 
ATOM     84  O   UNL A   1      32.312  35.996  30.137  1.00  0.00    -0.237 OA
ATOM     85  O   UNL A   1      33.839  36.548  28.270  1.00  0.00    -0.237 OA
ATOM     86  O   UNL A   1      32.441  34.522  28.160  1.00  0.00    -0.744 OA
ENDBRANCH  82  83
ENDBRANCH  50  75
BRANCH  62  87
ATOM     87  C   UNL A   1      39.712  34.433  37.214  1.00  0.00     0.058 A 
ATOM     88  C   UNL A   1      39.070  34.182  38.436  1.00  0.00     0.135 A 
ATOM     89  C   UNL A   1      40.329  35.683  37.042  1.00  0.00     0.135 A 
ATOM     90  F   UNL A   1      38.456  33.007  38.649  1.00  0.00    -0.206 F 
ATOM     91  C   UNL A   1      39.046  35.132  39.452  1.00  0.00     0.059 A 
ATOM     92  C   UNL A   1      40.342  36.638  38.054  1.00  0.00     0.059 A 
ATOM     93  F   UNL A   1      40.960  35.973  35.893  1.00  0.00    -0.206 F 
ATOM     94  C   UNL A   1      39.698  36.352  39.257  1.00  0.00     0.060 A 
BRANCH  94  95
ATOM     95  S   UNL A   1      39.728  37.540  40.617  1.00  0.00     0.124 S 
ATOM     96  O   UNL A   1      38.833  36.908  41.582  1.00  0.00    -0.237 OA
ATOM     97  O   UNL A   1      41.141  37.557  40.980  1.00  0.00    -0.237 OA
ATOM     98  O   UNL A   1      39.226  38.769  40.009  1.00  0.00    -0.744 OA
ENDBRANCH  94  95
ENDBRANCH  62  87
ENDBRANCH  36  37
ENDBRANCH  29  31
ENDBRANCH  28  29
ENDBRANCH  27  28
ENDBRANCH   1  27
TORSDOF 20
ENDMDL
MODEL 3
REMARK VINA RESULT:     -11.1      2.759      8.545
REMARK SMILES CC(C)Cc1cc2c(cc1Cl)C=C(C(=O)OCCOCCOC(=O)c1ccc(-c3c4nc(c(-c5c(F)cc(S(=O)(=O)[O-])cc5F)c5ccc([nH]5)c(-c5c(F)cc(S(=O)(=O)[O-])cc5F)c5nc(c(-c6c(F)cc(S(=O)(=O)[O-])cc6F)c6ccc3[nH]6)C=C5)C=C4)cc1)[C@@H](C(F)(F)F)O2
REMARK SMILES IDX 20 1 19 2 18 3 17 4 16 5 14 6 15 7 13 8 5 9 6 10 10 11 7 12
REMARK SMILES IDX 9 13 11 14 8 15 96 16 12 17 91 18 4 19 2 20 1 21 3 22 92 23
REMARK SMILES IDX 93 24 94 25 95 26 21 27 22 28 23 29 24 30 25 31 26 32 90 33
REMARK SMILES IDX 27 34 89 35 28 36 29 37 30 38 83 39 31 40 88 41 82 42 84 43
REMARK SMILES IDX 32 44 87 45 81 46 80 47 33 49 67 50 46 51 66 52 47 53 50 54
REMARK SMILES IDX 65 55 85 56 48 57 49 58 64 60 86 61 51 62 34 63 35 64 44 65
REMARK SMILES IDX 36 66 37 67 43 68 45 69 38 70 39 71 40 72 41 73 42 74 68 75
REMARK SMILES IDX 69 76 78 77 70 78 71 79 77 80 79 81 72 82 73 83 74 84 75 85
REMARK SMILES IDX 76 86 52 87 53 88 62 89 54 90 55 91 61 92 63 93 56 94 57 95
REMARK SMILES IDX 58 96 59 97 60 98
REMARK H PARENT 84 48 50 59
REMARK Flexibility Score: inf
ROOT
ATOM      1  C   UNL A   1      31.771  29.687  26.990  1.00  0.00     0.202 C 
ENDROOT
BRANCH   1   2
ATOM      2  O   UNL A   1      31.427  29.098  25.737  1.00  0.00    -0.374 OA
BRANCH   2   3
ATOM      3  C   UNL A   1      31.443  27.678  25.620  1.00  0.00     0.202 C 
BRANCH   3   4
ATOM      4  C   UNL A   1      32.648  26.917  26.184  1.00  0.00     0.261 C 
BRANCH   4   5
ATOM      5  O   UNL A   1      33.793  27.002  25.325  1.00  0.00    -0.460 OA
BRANCH   5   6
ATOM      6  C   UNL A   1      33.688  26.277  24.187  1.00  0.00     0.338 C 
ATOM      7  O   UNL A   1      33.790  26.686  23.041  1.00  0.00    -0.246 OA
BRANCH   6   8
ATOM      8  C   UNL A   1      33.580  24.845  24.523  1.00  0.00     0.087 C 
ATOM      9  C   UNL A   1      34.642  19.978  24.816  1.00  0.00    -0.025 A 
ATOM     10  C   UNL A   1      33.451  20.727  24.895  1.00  0.00     0.052 A 
ATOM     11  C   UNL A   1      35.867  20.658  24.908  1.00  0.00     0.045 A 
ATOM     12  C   UNL A   1      33.483  22.119  24.920  1.00  0.00     0.128 A 
ATOM     13  C   UNL A   1      35.897  22.053  24.965  1.00  0.00     0.032 A 
ATOM     14  Cl  UNL A   1      37.389  19.841  24.892  1.00  0.00    -0.084 Cl
ATOM     15  C   UNL A   1      34.707  22.782  24.915  1.00  0.00     0.019 A 
ATOM     16  O   UNL A   1      32.276  22.757  24.923  1.00  0.00    -0.475 OA
ATOM     17  C   UNL A   1      34.742  24.221  24.750  1.00  0.00     0.027 C 
ATOM     18  C   UNL A   1      32.237  24.170  24.564  1.00  0.00     0.316 C 
BRANCH   9  19
ATOM     19  C   UNL A   1      34.539  18.497  24.525  1.00  0.00     0.040 C 
BRANCH  19  20
ATOM     20  C   UNL A   1      33.088  18.042  24.234  1.00  0.00    -0.013 C 
ATOM     21  C   UNL A   1      32.902  17.525  22.802  1.00  0.00     0.008 C 
ATOM     22  C   UNL A   1      32.669  16.957  25.228  1.00  0.00     0.008 C 
ENDBRANCH  19  20
ENDBRANCH   9  19
BRANCH  18  23
ATOM     23  C   UNL A   1      31.462  24.320  23.246  1.00  0.00     0.430 C 
ATOM     24  F   UNL A   1      30.842  25.523  23.177  1.00  0.00    -0.167 F 
ATOM     25  F   UNL A   1      32.279  24.237  22.173  1.00  0.00    -0.167 F 
ATOM     26  F   UNL A   1      30.512  23.365  23.111  1.00  0.00    -0.167 F 
ENDBRANCH  18  23
ENDBRANCH   6   8
ENDBRANCH   5   6
ENDBRANCH   4   5
ENDBRANCH   3   4
ENDBRANCH   2   3
ENDBRANCH   1   2
BRANCH   1  27
ATOM     27  C   UNL A   1      32.905  30.721  27.044  1.00  0.00     0.261 C 
BRANCH  27  28
ATOM     28  O   UNL A   1      34.189  30.138  27.311  1.00  0.00    -0.460 OA
BRANCH  28  29
ATOM     29  C   UNL A   1      34.903  30.768  28.279  1.00  0.00     0.338 C 
ATOM     30  O   UNL A   1      34.491  31.599  29.073  1.00  0.00    -0.246 OA
BRANCH  29  31
ATOM     31  C   UNL A   1      36.239  30.153  28.387  1.00  0.00     0.060 A 
ATOM     32  C   UNL A   1      37.123  30.141  27.308  1.00  0.00     0.016 A 
ATOM     33  C   UNL A   1      36.620  29.625  29.628  1.00  0.00     0.016 A 
ATOM     34  C   UNL A   1      38.412  29.633  27.492  1.00  0.00     0.010 A 
ATOM     35  C   UNL A   1      37.906  29.119  29.808  1.00  0.00     0.010 A 
ATOM     36  C   UNL A   1      38.822  29.145  28.749  1.00  0.00    -0.014 A 
BRANCH  36  37
ATOM     37  C   UNL A   1      40.250  28.825  28.992  1.00  0.00     0.031 A 
ATOM     38  C   UNL A   1      41.184  29.809  29.629  1.00  0.00     0.074 A 
ATOM     39  C   UNL A   1      40.703  27.617  28.600  1.00  0.00     0.049 A 
ATOM     40  N   UNL A   1      42.433  29.641  29.983  1.00  0.00    -0.248 NA
ATOM     41  C   UNL A   1      40.659  31.155  29.896  1.00  0.00     0.031 C 
ATOM     42  C   UNL A   1      39.896  26.604  27.917  1.00  0.00     0.029 A 
ATOM     43  N   UNL A   1      41.937  27.032  28.723  1.00  0.00    -0.354 N 
ATOM     44  C   UNL A   1      42.839  30.846  30.539  1.00  0.00     0.074 A 
ATOM     45  C   UNL A   1      41.719  31.758  30.422  1.00  0.00     0.031 C 
ATOM     46  C   UNL A   1      40.641  25.506  27.724  1.00  0.00     0.029 A 
ATOM     47  C   UNL A   1      41.986  25.746  28.239  1.00  0.00     0.049 A 
ATOM     48  H   UNL A   1      42.713  27.488  29.122  1.00  0.00     0.167 HD
ATOM     49  C   UNL A   1      44.027  31.151  31.115  1.00  0.00     0.037 A 
ATOM     50  C   UNL A   1      42.995  24.854  28.218  1.00  0.00     0.037 A 
ATOM     51  C   UNL A   1      45.140  30.237  31.204  1.00  0.00     0.049 A 
ATOM     52  C   UNL A   1      44.317  25.229  28.828  1.00  0.00     0.074 A 
ATOM     53  C   UNL A   1      46.374  30.443  31.797  1.00  0.00     0.029 A 
ATOM     54  N   UNL A   1      45.163  28.954  30.675  1.00  0.00    -0.354 N 
ATOM     55  N   UNL A   1      44.658  26.346  29.425  1.00  0.00    -0.248 NA
ATOM     56  C   UNL A   1      45.389  24.227  28.767  1.00  0.00     0.031 C 
ATOM     57  C   UNL A   1      47.161  29.310  31.577  1.00  0.00     0.029 A 
ATOM     58  C   UNL A   1      46.400  28.370  30.904  1.00  0.00     0.049 A 
ATOM     59  H   UNL A   1      44.414  28.523  30.205  1.00  0.00     0.167 HD
ATOM     60  C   UNL A   1      45.975  26.170  29.837  1.00  0.00     0.074 A 
ATOM     61  C   UNL A   1      46.366  24.838  29.427  1.00  0.00     0.031 C 
ATOM     62  C   UNL A   1      46.780  27.036  30.500  1.00  0.00     0.037 A 
BRANCH  49  63
ATOM     63  C   UNL A   1      44.191  32.522  31.713  1.00  0.00     0.058 A 
ATOM     64  C   UNL A   1      44.657  33.602  30.945  1.00  0.00     0.135 A 
ATOM     65  C   UNL A   1      43.805  32.783  33.039  1.00  0.00     0.135 A 
ATOM     66  F   UNL A   1      45.047  33.409  29.675  1.00  0.00    -0.206 F 
ATOM     67  C   UNL A   1      44.755  34.883  31.475  1.00  0.00     0.059 A 
ATOM     68  C   UNL A   1      43.867  34.064  33.581  1.00  0.00     0.059 A 
ATOM     69  F   UNL A   1      43.347  31.789  33.818  1.00  0.00    -0.206 F 
ATOM     70  C   UNL A   1      44.354  35.106  32.793  1.00  0.00     0.060 A 
BRANCH  70  71
ATOM     71  S   UNL A   1      44.482  36.780  33.456  1.00  0.00     0.124 S 
ATOM     72  O   UNL A   1      43.094  37.227  33.389  1.00  0.00    -0.237 OA
ATOM     73  O   UNL A   1      45.007  36.543  34.796  1.00  0.00    -0.237 OA
ATOM     74  O   UNL A   1      45.397  37.445  32.534  1.00  0.00    -0.744 OA
ENDBRANCH  70  71
ENDBRANCH  49  63
BRANCH  50  75
ATOM     75  C   UNL A   1      42.766  23.501  27.644  1.00  0.00     0.058 A 
ATOM     76  C   UNL A   1      42.978  23.253  26.281  1.00  0.00     0.135 A 
ATOM     77  C   UNL A   1      42.381  22.420  28.454  1.00  0.00     0.135 A 
ATOM     78  F   UNL A   1      43.344  24.254  25.465  1.00  0.00    -0.206 F 
ATOM     79  C   UNL A   1      42.813  21.985  25.736  1.00  0.00     0.059 A 
ATOM     80  C   UNL A   1      42.236  21.136  27.938  1.00  0.00     0.059 A 
ATOM     81  F   UNL A   1      42.184  22.602  29.769  1.00  0.00    -0.206 F 
ATOM     82  C   UNL A   1      42.449  20.930  26.576  1.00  0.00     0.060 A 
BRANCH  82  83
ATOM     83  S   UNL A   1      42.298  19.277  25.867  1.00  0.00     0.124 S 
ATOM     84  O   UNL A   1      40.859  19.178  25.653  1.00  0.00    -0.237 OA
ATOM     85  O   UNL A   1      43.117  19.388  24.663  1.00  0.00    -0.237 OA
ATOM     86  O   UNL A   1      42.842  18.412  26.909  1.00  0.00    -0.744 OA
ENDBRANCH  82  83
ENDBRANCH  50  75
BRANCH  62  87
ATOM     87  C   UNL A   1      48.168  26.578  30.858  1.00  0.00     0.058 A 
ATOM     88  C   UNL A   1      49.276  26.886  30.054  1.00  0.00     0.135 A 
ATOM     89  C   UNL A   1      48.405  25.922  32.078  1.00  0.00     0.135 A 
ATOM     90  F   UNL A   1      49.106  27.502  28.874  1.00  0.00    -0.206 F 
ATOM     91  C   UNL A   1      50.571  26.561  30.447  1.00  0.00     0.059 A 
ATOM     92  C   UNL A   1      49.692  25.613  32.504  1.00  0.00     0.059 A 
ATOM     93  F   UNL A   1      47.380  25.609  32.886  1.00  0.00    -0.206 F 
ATOM     94  C   UNL A   1      50.770  25.938  31.682  1.00  0.00     0.060 A 
BRANCH  94  95
ATOM     95  S   UNL A   1      52.463  25.600  32.213  1.00  0.00     0.124 S 
ATOM     96  O   UNL A   1      52.535  26.348  33.464  1.00  0.00    -0.237 OA
ATOM     97  O   UNL A   1      52.461  24.147  32.341  1.00  0.00    -0.237 OA
ATOM     98  O   UNL A   1      53.275  26.127  31.120  1.00  0.00    -0.744 OA
ENDBRANCH  94  95
ENDBRANCH  62  87
ENDBRANCH  36  37
ENDBRANCH  29  31
ENDBRANCH  28  29
ENDBRANCH  27  28
ENDBRANCH   1  27
TORSDOF 20
ENDMDL
