MODEL 1
REMARK VINA RESULT:     -11.4      0.000      0.000
REMARK SMILES Cc1ccccc1CSc1cccc(C(=O)OCCOCCOC(=O)c2ccc(-c3c4nc(c(-c5c(F)cc(S(=O)(=O)[O-])cc5F)c5ccc([nH]5)c(-c5c(F)cc(S(=O)(=O)[O-])cc5F)c5nc(c(-c6c(F)cc(S(=O)(=O)[O-])cc6F)c6ccc3[nH]6)C=C5)C=C4)cc2)n1
REMARK SMILES IDX 20 1 19 2 18 3 17 4 15 5 16 6 14 7 10 8 11 9 92 10 12 11
REMARK SMILES IDX 13 12 9 13 8 14 7 15 1 16 2 17 3 18 4 19 6 20 5 21 21 22
REMARK SMILES IDX 22 23 23 24 24 25 25 26 26 27 27 28 91 29 28 30 90 31 29 32
REMARK SMILES IDX 30 33 31 34 84 35 32 36 89 37 83 38 85 39 33 40 88 41 82 42
REMARK SMILES IDX 81 43 34 45 68 46 47 47 67 48 48 49 51 50 66 51 86 52 49 53
REMARK SMILES IDX 50 54 65 56 87 57 52 58 35 59 36 60 45 61 37 62 38 63 44 64
REMARK SMILES IDX 46 65 39 66 40 67 41 68 42 69 43 70 69 71 70 72 79 73 71 74
REMARK SMILES IDX 72 75 78 76 80 77 73 78 74 79 75 80 76 81 77 82 53 83 54 84
REMARK SMILES IDX 63 85 55 86 56 87 62 88 64 89 57 90 58 91 59 92 60 93 61 94
REMARK H PARENT 85 44 51 55
REMARK Flexibility Score: inf
ROOT
ATOM      1  O   UNL A   1      31.618  28.968  25.339  1.00  0.00    -0.374 OA
ENDROOT
BRANCH   1   2
ATOM      2  C   UNL A   1      31.343  28.889  23.949  1.00  0.00     0.202 C 
BRANCH   2   3
ATOM      3  C   UNL A   1      32.700  28.829  23.317  1.00  0.00     0.261 C 
BRANCH   3   4
ATOM      4  O   UNL A   1      33.477  27.738  23.861  1.00  0.00    -0.459 OA
BRANCH   4   5
ATOM      5  C   UNL A   1      33.626  26.579  23.149  1.00  0.00     0.357 C 
ATOM      6  O   UNL A   1      33.867  26.465  21.972  1.00  0.00    -0.244 OA
BRANCH   5   7
ATOM      7  C   UNL A   1      33.549  25.448  24.125  1.00  0.00     0.149 A 
ATOM      8  C   UNL A   1      34.480  23.462  24.856  1.00  0.00     0.097 A 
ATOM      9  C   UNL A   1      33.699  23.488  26.008  1.00  0.00     0.035 A 
ATOM     10  N   UNL A   1      34.423  24.429  23.927  1.00  0.00    -0.234 NA
ATOM     11  C   UNL A   1      32.796  24.531  26.194  1.00  0.00     0.005 A 
ATOM     12  C   UNL A   1      32.701  25.518  25.227  1.00  0.00     0.036 A 
BRANCH   8  13
ATOM     13  S   UNL A   1      35.514  22.045  24.543  1.00  0.00    -0.102 SA
BRANCH  13  14
ATOM     14  C   UNL A   1      34.601  20.728  25.415  1.00  0.00     0.112 C 
BRANCH  14  15
ATOM     15  C   UNL A   1      34.115  19.538  24.614  1.00  0.00    -0.035 A 
ATOM     16  C   UNL A   1      32.125  20.878  23.723  1.00  0.00     0.044 C 
ATOM     17  C   UNL A   1      32.939  19.619  23.831  1.00  0.00    -0.047 A 
ATOM     18  C   UNL A   1      32.475  18.474  23.157  1.00  0.00     0.004 A 
ATOM     19  C   UNL A   1      33.200  17.284  23.184  1.00  0.00     0.000 A 
ATOM     20  C   UNL A   1      34.857  18.343  24.579  1.00  0.00     0.005 A 
ATOM     21  C   UNL A   1      34.401  17.226  23.877  1.00  0.00     0.000 A 
ENDBRANCH  14  15
ENDBRANCH  13  14
ENDBRANCH   8  13
ENDBRANCH   5   7
ENDBRANCH   4   5
ENDBRANCH   3   4
ENDBRANCH   2   3
ENDBRANCH   1   2
BRANCH   1  22
ATOM     22  C   UNL A   1      31.983  30.220  25.852  1.00  0.00     0.202 C 
BRANCH  22  23
ATOM     23  C   UNL A   1      32.888  30.119  27.077  1.00  0.00     0.261 C 
BRANCH  23  24
ATOM     24  O   UNL A   1      34.140  30.806  26.859  1.00  0.00    -0.460 OA
BRANCH  24  25
ATOM     25  C   UNL A   1      34.735  31.338  27.970  1.00  0.00     0.338 C 
ATOM     26  O   UNL A   1      34.397  32.396  28.470  1.00  0.00    -0.246 OA
BRANCH  25  27
ATOM     27  C   UNL A   1      35.809  30.437  28.480  1.00  0.00     0.060 A 
ATOM     28  C   UNL A   1      35.764  29.903  29.781  1.00  0.00     0.016 A 
ATOM     29  C   UNL A   1      36.967  30.307  27.724  1.00  0.00     0.016 A 
ATOM     30  C   UNL A   1      36.928  29.384  30.379  1.00  0.00     0.010 A 
ATOM     31  C   UNL A   1      38.127  29.918  28.355  1.00  0.00     0.010 A 
ATOM     32  C   UNL A   1      38.131  29.466  29.687  1.00  0.00    -0.014 A 
BRANCH  32  33
ATOM     33  C   UNL A   1      39.477  29.132  30.168  1.00  0.00     0.031 A 
ATOM     34  C   UNL A   1      40.054  27.863  29.656  1.00  0.00     0.074 A 
ATOM     35  C   UNL A   1      40.301  30.087  30.673  1.00  0.00     0.049 A 
ATOM     36  N   UNL A   1      41.248  27.459  29.895  1.00  0.00    -0.248 NA
ATOM     37  C   UNL A   1      39.314  26.915  28.820  1.00  0.00     0.031 C 
ATOM     38  C   UNL A   1      41.755  30.188  30.516  1.00  0.00     0.029 A 
ATOM     39  N   UNL A   1      40.013  31.230  31.427  1.00  0.00    -0.354 N 
ATOM     40  C   UNL A   1      41.555  26.465  28.995  1.00  0.00     0.074 A 
ATOM     41  C   UNL A   1      40.286  26.080  28.438  1.00  0.00     0.031 C 
ATOM     42  C   UNL A   1      42.245  31.102  31.373  1.00  0.00     0.029 A 
ATOM     43  C   UNL A   1      41.138  31.526  32.210  1.00  0.00     0.049 A 
ATOM     44  H   UNL A   1      39.169  31.737  31.412  1.00  0.00     0.167 HD
ATOM     45  C   UNL A   1      42.876  26.206  28.774  1.00  0.00     0.037 A 
ATOM     46  C   UNL A   1      41.063  31.517  33.567  1.00  0.00     0.037 A 
ATOM     47  C   UNL A   1      43.691  26.973  29.732  1.00  0.00     0.049 A 
ATOM     48  C   UNL A   1      41.982  30.442  34.070  1.00  0.00     0.074 A 
ATOM     49  C   UNL A   1      44.488  28.102  29.631  1.00  0.00     0.029 A 
ATOM     50  N   UNL A   1      43.475  26.773  31.095  1.00  0.00    -0.354 N 
ATOM     51  N   UNL A   1      42.311  29.406  33.344  1.00  0.00    -0.248 NA
ATOM     52  C   UNL A   1      42.728  30.512  35.319  1.00  0.00     0.031 C 
ATOM     53  C   UNL A   1      44.706  28.600  30.950  1.00  0.00     0.029 A 
ATOM     54  C   UNL A   1      44.056  27.770  31.853  1.00  0.00     0.049 A 
ATOM     55  H   UNL A   1      42.970  26.016  31.470  1.00  0.00     0.167 HD
ATOM     56  C   UNL A   1      43.353  28.753  33.928  1.00  0.00     0.074 A 
ATOM     57  C   UNL A   1      43.551  29.456  35.184  1.00  0.00     0.031 C 
ATOM     58  C   UNL A   1      44.002  27.720  33.313  1.00  0.00     0.037 A 
BRANCH  45  59
ATOM     59  C   UNL A   1      43.483  25.410  27.625  1.00  0.00     0.058 A 
ATOM     60  C   UNL A   1      43.300  24.007  27.566  1.00  0.00     0.135 A 
ATOM     61  C   UNL A   1      44.281  25.923  26.580  1.00  0.00     0.135 A 
ATOM     62  F   UNL A   1      42.569  23.355  28.480  1.00  0.00    -0.206 F 
ATOM     63  C   UNL A   1      43.863  23.195  26.574  1.00  0.00     0.059 A 
ATOM     64  C   UNL A   1      44.847  25.133  25.571  1.00  0.00     0.059 A 
ATOM     65  F   UNL A   1      44.567  27.219  26.462  1.00  0.00    -0.206 F 
ATOM     66  C   UNL A   1      44.635  23.766  25.576  1.00  0.00     0.060 A 
BRANCH  66  67
ATOM     67  S   UNL A   1      45.333  22.716  24.291  1.00  0.00     0.124 S 
ATOM     68  O   UNL A   1      46.370  23.574  23.726  1.00  0.00    -0.237 OA
ATOM     69  O   UNL A   1      45.805  21.567  25.056  1.00  0.00    -0.237 OA
ATOM     70  O   UNL A   1      44.199  22.452  23.409  1.00  0.00    -0.744 OA
ENDBRANCH  66  67
ENDBRANCH  45  59
BRANCH  46  71
ATOM     71  C   UNL A   1      39.717  31.968  34.048  1.00  0.00     0.058 A 
ATOM     72  C   UNL A   1      39.502  33.366  34.084  1.00  0.00     0.135 A 
ATOM     73  C   UNL A   1      38.578  31.161  33.890  1.00  0.00     0.135 A 
ATOM     74  F   UNL A   1      40.548  34.199  34.223  1.00  0.00    -0.206 F 
ATOM     75  C   UNL A   1      38.258  33.939  33.803  1.00  0.00     0.059 A 
ATOM     76  C   UNL A   1      37.324  31.717  33.591  1.00  0.00     0.059 A 
ATOM     77  F   UNL A   1      38.700  29.826  33.847  1.00  0.00    -0.206 F 
ATOM     78  C   UNL A   1      37.188  33.105  33.490  1.00  0.00     0.060 A 
BRANCH  78  79
ATOM     79  S   UNL A   1      35.713  33.840  32.716  1.00  0.00     0.124 S 
ATOM     80  O   UNL A   1      35.803  33.337  31.351  1.00  0.00    -0.237 OA
ATOM     81  O   UNL A   1      34.619  33.287  33.515  1.00  0.00    -0.237 OA
ATOM     82  O   UNL A   1      35.929  35.271  32.885  1.00  0.00    -0.744 OA
ENDBRANCH  78  79
ENDBRANCH  46  71
BRANCH  58  83
ATOM     83  C   UNL A   1      44.706  26.601  34.043  1.00  0.00     0.058 A 
ATOM     84  C   UNL A   1      44.061  25.437  34.497  1.00  0.00     0.135 A 
ATOM     85  C   UNL A   1      46.120  26.584  34.153  1.00  0.00     0.135 A 
ATOM     86  F   UNL A   1      42.747  25.238  34.332  1.00  0.00    -0.206 F 
ATOM     87  C   UNL A   1      44.747  24.388  35.099  1.00  0.00     0.059 A 
ATOM     88  C   UNL A   1      46.831  25.510  34.674  1.00  0.00     0.059 A 
ATOM     89  F   UNL A   1      46.884  27.602  33.733  1.00  0.00    -0.206 F 
ATOM     90  C   UNL A   1      46.132  24.432  35.183  1.00  0.00     0.060 A 
BRANCH  90  91
ATOM     91  S   UNL A   1      46.997  23.057  35.941  1.00  0.00     0.124 S 
ATOM     92  O   UNL A   1      48.241  23.697  36.357  1.00  0.00    -0.237 OA
ATOM     93  O   UNL A   1      46.092  22.672  37.020  1.00  0.00    -0.237 OA
ATOM     94  O   UNL A   1      47.117  22.088  34.856  1.00  0.00    -0.744 OA
ENDBRANCH  90  91
ENDBRANCH  58  83
ENDBRANCH  32  33
ENDBRANCH  25  27
ENDBRANCH  24  25
ENDBRANCH  23  24
ENDBRANCH  22  23
ENDBRANCH   1  22
TORSDOF 20
ENDMDL
MODEL 2
REMARK VINA RESULT:     -11.4      1.528      2.191
REMARK SMILES Cc1ccccc1CSc1cccc(C(=O)OCCOCCOC(=O)c2ccc(-c3c4nc(c(-c5c(F)cc(S(=O)(=O)[O-])cc5F)c5ccc([nH]5)c(-c5c(F)cc(S(=O)(=O)[O-])cc5F)c5nc(c(-c6c(F)cc(S(=O)(=O)[O-])cc6F)c6ccc3[nH]6)C=C5)C=C4)cc2)n1
REMARK SMILES IDX 20 1 19 2 18 3 17 4 15 5 16 6 14 7 10 8 11 9 92 10 12 11
REMARK SMILES IDX 13 12 9 13 8 14 7 15 1 16 2 17 3 18 4 19 6 20 5 21 21 22
REMARK SMILES IDX 22 23 23 24 24 25 25 26 26 27 27 28 91 29 28 30 90 31 29 32
REMARK SMILES IDX 30 33 31 34 84 35 32 36 89 37 83 38 85 39 33 40 88 41 82 42
REMARK SMILES IDX 81 43 34 45 68 46 47 47 67 48 48 49 51 50 66 51 86 52 49 53
REMARK SMILES IDX 50 54 65 56 87 57 52 58 35 59 36 60 45 61 37 62 38 63 44 64
REMARK SMILES IDX 46 65 39 66 40 67 41 68 42 69 43 70 69 71 70 72 79 73 71 74
REMARK SMILES IDX 72 75 78 76 80 77 73 78 74 79 75 80 76 81 77 82 53 83 54 84
REMARK SMILES IDX 63 85 55 86 56 87 62 88 64 89 57 90 58 91 59 92 60 93 61 94
REMARK H PARENT 85 44 51 55
REMARK Flexibility Score: inf
ROOT
ATOM      1  O   UNL A   1      31.876  29.371  24.084  1.00  0.00    -0.374 OA
ENDROOT
BRANCH   1   2
ATOM      2  C   UNL A   1      30.615  29.045  23.519  1.00  0.00     0.202 C 
BRANCH   2   3
ATOM      3  C   UNL A   1      30.950  28.076  22.428  1.00  0.00     0.261 C 
BRANCH   3   4
ATOM      4  O   UNL A   1      30.239  26.830  22.605  1.00  0.00    -0.459 OA
BRANCH   4   5
ATOM      5  C   UNL A   1      30.400  26.105  23.754  1.00  0.00     0.357 C 
ATOM      6  O   UNL A   1      29.818  26.249  24.802  1.00  0.00    -0.244 OA
BRANCH   5   7
ATOM      7  C   UNL A   1      31.362  25.001  23.449  1.00  0.00     0.149 A 
ATOM      8  C   UNL A   1      32.043  22.845  23.932  1.00  0.00     0.097 A 
ATOM      9  C   UNL A   1      32.855  22.819  22.801  1.00  0.00     0.035 A 
ATOM     10  N   UNL A   1      31.293  23.910  24.254  1.00  0.00    -0.234 NA
ATOM     11  C   UNL A   1      32.929  23.949  21.991  1.00  0.00     0.005 A 
ATOM     12  C   UNL A   1      32.187  25.068  22.331  1.00  0.00     0.036 A 
BRANCH   8  13
ATOM     13  S   UNL A   1      32.077  21.461  25.054  1.00  0.00    -0.102 SA
BRANCH  13  14
ATOM     14  C   UNL A   1      33.393  21.963  26.213  1.00  0.00     0.112 C 
BRANCH  14  15
ATOM     15  C   UNL A   1      34.799  22.133  25.677  1.00  0.00    -0.035 A 
ATOM     16  C   UNL A   1      34.581  24.682  25.745  1.00  0.00     0.044 C 
ATOM     17  C   UNL A   1      35.343  23.419  25.450  1.00  0.00    -0.047 A 
ATOM     18  C   UNL A   1      36.625  23.539  24.883  1.00  0.00     0.004 A 
ATOM     19  C   UNL A   1      37.400  22.413  24.618  1.00  0.00     0.000 A 
ATOM     20  C   UNL A   1      35.623  21.013  25.455  1.00  0.00     0.005 A 
ATOM     21  C   UNL A   1      36.907  21.152  24.925  1.00  0.00     0.000 A 
ENDBRANCH  14  15
ENDBRANCH  13  14
ENDBRANCH   8  13
ENDBRANCH   5   7
ENDBRANCH   4   5
ENDBRANCH   3   4
ENDBRANCH   2   3
ENDBRANCH   1   2
BRANCH   1  22
ATOM     22  C   UNL A   1      32.161  28.860  25.358  1.00  0.00     0.202 C 
BRANCH  22  23
ATOM     23  C   UNL A   1      33.636  28.519  25.544  1.00  0.00     0.261 C 
BRANCH  23  24
ATOM     24  O   UNL A   1      33.998  28.514  26.943  1.00  0.00    -0.460 OA
BRANCH  24  25
ATOM     25  C   UNL A   1      34.119  29.741  27.536  1.00  0.00     0.338 C 
ATOM     26  O   UNL A   1      33.199  30.534  27.634  1.00  0.00    -0.246 OA
BRANCH  25  27
ATOM     27  C   UNL A   1      35.502  29.945  28.057  1.00  0.00     0.060 A 
ATOM     28  C   UNL A   1      36.594  30.139  27.190  1.00  0.00     0.016 A 
ATOM     29  C   UNL A   1      35.730  29.725  29.410  1.00  0.00     0.016 A 
ATOM     30  C   UNL A   1      37.911  29.952  27.650  1.00  0.00     0.010 A 
ATOM     31  C   UNL A   1      37.007  29.419  29.822  1.00  0.00     0.010 A 
ATOM     32  C   UNL A   1      38.110  29.512  28.954  1.00  0.00    -0.014 A 
BRANCH  32  33
ATOM     33  C   UNL A   1      39.370  29.111  29.592  1.00  0.00     0.031 A 
ATOM     34  C   UNL A   1      39.959  27.832  29.119  1.00  0.00     0.074 A 
ATOM     35  C   UNL A   1      40.158  30.018  30.225  1.00  0.00     0.049 A 
ATOM     36  N   UNL A   1      41.096  27.374  29.495  1.00  0.00    -0.248 NA
ATOM     37  C   UNL A   1      39.297  26.936  28.168  1.00  0.00     0.031 C 
ATOM     38  C   UNL A   1      41.623  30.064  30.257  1.00  0.00     0.029 A 
ATOM     39  N   UNL A   1      39.818  31.153  30.970  1.00  0.00    -0.354 N 
ATOM     40  C   UNL A   1      41.479  26.390  28.612  1.00  0.00     0.074 A 
ATOM     41  C   UNL A   1      40.277  26.072  27.888  1.00  0.00     0.031 C 
ATOM     42  C   UNL A   1      42.033  30.935  31.196  1.00  0.00     0.029 A 
ATOM     43  C   UNL A   1      40.845  31.383  31.898  1.00  0.00     0.049 A 
ATOM     44  H   UNL A   1      39.003  31.694  30.864  1.00  0.00     0.167 HD
ATOM     45  C   UNL A   1      42.807  26.083  28.553  1.00  0.00     0.037 A 
ATOM     46  C   UNL A   1      40.596  31.343  33.234  1.00  0.00     0.037 A 
ATOM     47  C   UNL A   1      43.521  26.792  29.629  1.00  0.00     0.049 A 
ATOM     48  C   UNL A   1      41.402  30.220  33.817  1.00  0.00     0.074 A 
ATOM     49  C   UNL A   1      44.366  27.889  29.664  1.00  0.00     0.029 A 
ATOM     50  N   UNL A   1      43.125  26.568  30.948  1.00  0.00    -0.354 N 
ATOM     51  N   UNL A   1      41.782  29.190  33.108  1.00  0.00    -0.248 NA
ATOM     52  C   UNL A   1      41.985  30.228  35.152  1.00  0.00     0.031 C 
ATOM     53  C   UNL A   1      44.432  28.345  31.014  1.00  0.00     0.029 A 
ATOM     54  C   UNL A   1      43.641  27.521  31.802  1.00  0.00     0.049 A 
ATOM     55  H   UNL A   1      42.547  25.822  31.233  1.00  0.00     0.167 HD
ATOM     56  C   UNL A   1      42.717  28.480  33.799  1.00  0.00     0.074 A 
ATOM     57  C   UNL A   1      42.778  29.143  35.091  1.00  0.00     0.031 C 
ATOM     58  C   UNL A   1      43.399  27.437  33.242  1.00  0.00     0.037 A 
BRANCH  45  59
ATOM     59  C   UNL A   1      43.525  25.291  27.467  1.00  0.00     0.058 A 
ATOM     60  C   UNL A   1      43.626  23.883  27.572  1.00  0.00     0.135 A 
ATOM     61  C   UNL A   1      44.171  25.824  26.331  1.00  0.00     0.135 A 
ATOM     62  F   UNL A   1      43.070  23.212  28.590  1.00  0.00    -0.206 F 
ATOM     63  C   UNL A   1      44.309  23.085  26.646  1.00  0.00     0.059 A 
ATOM     64  C   UNL A   1      44.852  25.047  25.385  1.00  0.00     0.059 A 
ATOM     65  F   UNL A   1      44.187  27.127  26.056  1.00  0.00    -0.206 F 
ATOM     66  C   UNL A   1      44.919  23.675  25.551  1.00  0.00     0.060 A 
BRANCH  66  67
ATOM     67  S   UNL A   1      45.774  22.639  24.352  1.00  0.00     0.124 S 
ATOM     68  O   UNL A   1      44.691  22.254  23.454  1.00  0.00    -0.237 OA
ATOM     69  O   UNL A   1      46.762  23.560  23.800  1.00  0.00    -0.237 OA
ATOM     70  O   UNL A   1      46.321  21.555  25.164  1.00  0.00    -0.744 OA
ENDBRANCH  66  67
ENDBRANCH  45  59
BRANCH  46  71
ATOM     71  C   UNL A   1      39.218  31.837  33.554  1.00  0.00     0.058 A 
ATOM     72  C   UNL A   1      38.998  33.226  33.394  1.00  0.00     0.135 A 
ATOM     73  C   UNL A   1      38.095  31.005  33.418  1.00  0.00     0.135 A 
ATOM     74  F   UNL A   1      40.031  34.082  33.502  1.00  0.00    -0.206 F 
ATOM     75  C   UNL A   1      37.778  33.744  32.952  1.00  0.00     0.059 A 
ATOM     76  C   UNL A   1      36.866  31.504  32.959  1.00  0.00     0.059 A 
ATOM     77  F   UNL A   1      38.222  29.676  33.555  1.00  0.00    -0.206 F 
ATOM     78  C   UNL A   1      36.735  32.866  32.672  1.00  0.00     0.060 A 
BRANCH  78  79
ATOM     79  S   UNL A   1      35.320  33.479  31.704  1.00  0.00     0.124 S 
ATOM     80  O   UNL A   1      35.933  33.757  30.411  1.00  0.00    -0.237 OA
ATOM     81  O   UNL A   1      34.396  32.345  31.727  1.00  0.00    -0.237 OA
ATOM     82  O   UNL A   1      34.878  34.642  32.464  1.00  0.00    -0.744 OA
ENDBRANCH  78  79
ENDBRANCH  46  71
BRANCH  58  83
ATOM     83  C   UNL A   1      43.961  26.271  34.022  1.00  0.00     0.058 A 
ATOM     84  C   UNL A   1      43.179  25.408  34.808  1.00  0.00     0.135 A 
ATOM     85  C   UNL A   1      45.312  25.871  33.853  1.00  0.00     0.135 A 
ATOM     86  F   UNL A   1      41.856  25.568  34.945  1.00  0.00    -0.206 F 
ATOM     87  C   UNL A   1      43.711  24.298  35.455  1.00  0.00     0.059 A 
ATOM     88  C   UNL A   1      45.841  24.719  34.421  1.00  0.00     0.059 A 
ATOM     89  F   UNL A   1      46.177  26.567  33.103  1.00  0.00    -0.206 F 
ATOM     90  C   UNL A   1      45.042  23.961  35.256  1.00  0.00     0.060 A 
BRANCH  90  91
ATOM     91  S   UNL A   1      45.701  22.510  36.080  1.00  0.00     0.124 S 
ATOM     92  O   UNL A   1      45.036  21.439  35.346  1.00  0.00    -0.237 OA
ATOM     93  O   UNL A   1      47.136  22.641  35.848  1.00  0.00    -0.237 OA
ATOM     94  O   UNL A   1      45.279  22.683  37.466  1.00  0.00    -0.744 OA
ENDBRANCH  90  91
ENDBRANCH  58  83
ENDBRANCH  32  33
ENDBRANCH  25  27
ENDBRANCH  24  25
ENDBRANCH  23  24
ENDBRANCH  22  23
ENDBRANCH   1  22
TORSDOF 20
ENDMDL
MODEL 3
REMARK VINA RESULT:     -11.4      4.174     10.510
REMARK SMILES Cc1ccccc1CSc1cccc(C(=O)OCCOCCOC(=O)c2ccc(-c3c4nc(c(-c5c(F)cc(S(=O)(=O)[O-])cc5F)c5ccc([nH]5)c(-c5c(F)cc(S(=O)(=O)[O-])cc5F)c5nc(c(-c6c(F)cc(S(=O)(=O)[O-])cc6F)c6ccc3[nH]6)C=C5)C=C4)cc2)n1
REMARK SMILES IDX 20 1 19 2 18 3 17 4 15 5 16 6 14 7 10 8 11 9 92 10 12 11
REMARK SMILES IDX 13 12 9 13 8 14 7 15 1 16 2 17 3 18 4 19 6 20 5 21 21 22
REMARK SMILES IDX 22 23 23 24 24 25 25 26 26 27 27 28 91 29 28 30 90 31 29 32
REMARK SMILES IDX 30 33 31 34 84 35 32 36 89 37 83 38 85 39 33 40 88 41 82 42
REMARK SMILES IDX 81 43 34 45 68 46 47 47 67 48 48 49 51 50 66 51 86 52 49 53
REMARK SMILES IDX 50 54 65 56 87 57 52 58 35 59 36 60 45 61 37 62 38 63 44 64
REMARK SMILES IDX 46 65 39 66 40 67 41 68 42 69 43 70 69 71 70 72 79 73 71 74
REMARK SMILES IDX 72 75 78 76 80 77 73 78 74 79 75 80 76 81 77 82 53 83 54 84
REMARK SMILES IDX 63 85 55 86 56 87 62 88 64 89 57 90 58 91 59 92 60 93 61 94
REMARK H PARENT 85 44 51 55
REMARK Flexibility Score: inf
ROOT
ATOM      1  O   UNL A   1      36.269  22.311  25.038  1.00  0.00    -0.374 OA
ENDROOT
BRANCH   1   2
ATOM      2  C   UNL A   1      34.903  22.012  25.282  1.00  0.00     0.202 C 
BRANCH   2   3
ATOM      3  C   UNL A   1      34.295  23.344  25.600  1.00  0.00     0.261 C 
BRANCH   3   4
ATOM      4  O   UNL A   1      33.424  23.785  24.534  1.00  0.00    -0.459 OA
BRANCH   4   5
ATOM      5  C   UNL A   1      33.952  24.195  23.341  1.00  0.00     0.357 C 
ATOM      6  O   UNL A   1      34.397  23.504  22.457  1.00  0.00    -0.244 OA
BRANCH   5   7
ATOM      7  C   UNL A   1      33.776  25.679  23.268  1.00  0.00     0.149 A 
ATOM      8  C   UNL A   1      33.872  27.693  24.398  1.00  0.00     0.097 A 
ATOM      9  C   UNL A   1      33.770  28.400  23.203  1.00  0.00     0.035 A 
ATOM     10  N   UNL A   1      33.888  26.352  24.441  1.00  0.00    -0.234 NA
ATOM     11  C   UNL A   1      33.641  27.699  22.008  1.00  0.00     0.005 A 
ATOM     12  C   UNL A   1      33.621  26.315  22.039  1.00  0.00     0.036 A 
BRANCH   8  13
ATOM     13  S   UNL A   1      33.871  28.591  25.938  1.00  0.00    -0.102 SA
BRANCH  13  14
ATOM     14  C   UNL A   1      32.088  28.676  26.310  1.00  0.00     0.112 C 
BRANCH  14  15
ATOM     15  C   UNL A   1      31.106  28.528  25.167  1.00  0.00    -0.035 A 
ATOM     16  C   UNL A   1      30.706  26.069  25.749  1.00  0.00     0.044 C 
ATOM     17  C   UNL A   1      30.471  27.291  24.906  1.00  0.00    -0.047 A 
ATOM     18  C   UNL A   1      29.619  27.170  23.793  1.00  0.00     0.004 A 
ATOM     19  C   UNL A   1      29.328  28.271  22.990  1.00  0.00     0.000 A 
ATOM     20  C   UNL A   1      30.752  29.638  24.377  1.00  0.00     0.005 A 
ATOM     21  C   UNL A   1      29.877  29.509  23.296  1.00  0.00     0.000 A 
ENDBRANCH  14  15
ENDBRANCH  13  14
ENDBRANCH   8  13
ENDBRANCH   5   7
ENDBRANCH   4   5
ENDBRANCH   3   4
ENDBRANCH   2   3
ENDBRANCH   1   2
BRANCH   1  22
ATOM     22  C   UNL A   1      37.136  21.230  24.826  1.00  0.00     0.202 C 
BRANCH  22  23
ATOM     23  C   UNL A   1      38.537  21.475  25.376  1.00  0.00     0.261 C 
BRANCH  23  24
ATOM     24  O   UNL A   1      38.514  22.435  26.455  1.00  0.00    -0.460 OA
BRANCH  24  25
ATOM     25  C   UNL A   1      39.733  22.843  26.923  1.00  0.00     0.338 C 
ATOM     26  O   UNL A   1      40.649  22.078  27.168  1.00  0.00    -0.246 OA
BRANCH  25  27
ATOM     27  C   UNL A   1      39.781  24.329  27.054  1.00  0.00     0.060 A 
ATOM     28  C   UNL A   1      40.414  25.132  26.087  1.00  0.00     0.016 A 
ATOM     29  C   UNL A   1      39.380  24.891  28.259  1.00  0.00     0.016 A 
ATOM     30  C   UNL A   1      40.785  26.456  26.392  1.00  0.00     0.010 A 
ATOM     31  C   UNL A   1      39.858  26.138  28.596  1.00  0.00     0.010 A 
ATOM     32  C   UNL A   1      40.575  26.930  27.682  1.00  0.00    -0.014 A 
BRANCH  32  33
ATOM     33  C   UNL A   1      41.014  28.206  28.260  1.00  0.00     0.031 A 
ATOM     34  C   UNL A   1      39.965  29.247  28.410  1.00  0.00     0.074 A 
ATOM     35  C   UNL A   1      42.151  28.290  28.998  1.00  0.00     0.049 A 
ATOM     36  N   UNL A   1      40.145  30.383  28.977  1.00  0.00    -0.248 NA
ATOM     37  C   UNL A   1      38.595  29.096  27.914  1.00  0.00     0.031 C 
ATOM     38  C   UNL A   1      42.390  29.119  30.183  1.00  0.00     0.029 A 
ATOM     39  N   UNL A   1      43.368  27.609  28.873  1.00  0.00    -0.354 N 
ATOM     40  C   UNL A   1      38.912  30.926  29.257  1.00  0.00     0.074 A 
ATOM     41  C   UNL A   1      37.991  30.152  28.468  1.00  0.00     0.031 C 
ATOM     42  C   UNL A   1      43.704  29.137  30.471  1.00  0.00     0.029 A 
ATOM     43  C   UNL A   1      44.377  28.428  29.399  1.00  0.00     0.049 A 
ATOM     44  H   UNL A   1      43.493  26.713  28.484  1.00  0.00     0.167 HD
ATOM     45  C   UNL A   1      38.855  31.885  30.226  1.00  0.00     0.037 A 
ATOM     46  C   UNL A   1      45.394  28.869  28.612  1.00  0.00     0.037 A 
ATOM     47  C   UNL A   1      40.223  32.249  30.633  1.00  0.00     0.049 A 
ATOM     48  C   UNL A   1      45.311  30.366  28.550  1.00  0.00     0.074 A 
ATOM     49  C   UNL A   1      40.998  31.984  31.750  1.00  0.00     0.029 A 
ATOM     50  N   UNL A   1      41.100  32.727  29.660  1.00  0.00    -0.354 N 
ATOM     51  N   UNL A   1      44.190  31.013  28.735  1.00  0.00    -0.248 NA
ATOM     52  C   UNL A   1      46.462  31.254  28.453  1.00  0.00     0.031 C 
ATOM     53  C   UNL A   1      42.356  32.266  31.415  1.00  0.00     0.029 A 
ATOM     54  C   UNL A   1      42.407  32.714  30.103  1.00  0.00     0.049 A 
ATOM     55  H   UNL A   1      40.821  33.034  28.767  1.00  0.00     0.167 HD
ATOM     56  C   UNL A   1      44.451  32.339  28.901  1.00  0.00     0.074 A 
ATOM     57  C   UNL A   1      45.882  32.448  28.672  1.00  0.00     0.031 C 
ATOM     58  C   UNL A   1      43.483  33.233  29.259  1.00  0.00     0.037 A 
BRANCH  45  59
ATOM     59  C   UNL A   1      37.614  32.403  30.942  1.00  0.00     0.058 A 
ATOM     60  C   UNL A   1      36.780  33.355  30.307  1.00  0.00     0.135 A 
ATOM     61  C   UNL A   1      37.196  32.062  32.246  1.00  0.00     0.135 A 
ATOM     62  F   UNL A   1      37.030  33.791  29.065  1.00  0.00    -0.206 F 
ATOM     63  C   UNL A   1      35.649  33.918  30.912  1.00  0.00     0.059 A 
ATOM     64  C   UNL A   1      36.064  32.604  32.869  1.00  0.00     0.059 A 
ATOM     65  F   UNL A   1      37.849  31.183  33.005  1.00  0.00    -0.206 F 
ATOM     66  C   UNL A   1      35.296  33.536  32.195  1.00  0.00     0.060 A 
BRANCH  66  67
ATOM     67  S   UNL A   1      33.826  34.247  32.955  1.00  0.00     0.124 S 
ATOM     68  O   UNL A   1      34.394  35.019  34.055  1.00  0.00    -0.237 OA
ATOM     69  O   UNL A   1      33.260  35.024  31.857  1.00  0.00    -0.237 OA
ATOM     70  O   UNL A   1      33.047  33.078  33.354  1.00  0.00    -0.744 OA
ENDBRANCH  66  67
ENDBRANCH  45  59
BRANCH  46  71
ATOM     71  C   UNL A   1      45.763  27.858  27.568  1.00  0.00     0.058 A 
ATOM     72  C   UNL A   1      45.183  28.039  26.290  1.00  0.00     0.135 A 
ATOM     73  C   UNL A   1      46.994  27.184  27.609  1.00  0.00     0.135 A 
ATOM     74  F   UNL A   1      44.008  28.685  26.175  1.00  0.00    -0.206 F 
ATOM     75  C   UNL A   1      45.863  27.728  25.110  1.00  0.00     0.059 A 
ATOM     76  C   UNL A   1      47.700  26.879  26.434  1.00  0.00     0.059 A 
ATOM     77  F   UNL A   1      47.608  26.974  28.783  1.00  0.00    -0.206 F 
ATOM     78  C   UNL A   1      47.152  27.210  25.191  1.00  0.00     0.060 A 
BRANCH  78  79
ATOM     79  S   UNL A   1      48.186  27.212  23.692  1.00  0.00     0.124 S 
ATOM     80  O   UNL A   1      48.238  25.795  23.356  1.00  0.00    -0.237 OA
ATOM     81  O   UNL A   1      47.414  28.046  22.769  1.00  0.00    -0.237 OA
ATOM     82  O   UNL A   1      49.435  27.807  24.152  1.00  0.00    -0.744 OA
ENDBRANCH  78  79
ENDBRANCH  46  71
BRANCH  58  83
ATOM     83  C   UNL A   1      43.502  34.700  28.900  1.00  0.00     0.058 A 
ATOM     84  C   UNL A   1      43.326  35.187  27.593  1.00  0.00     0.135 A 
ATOM     85  C   UNL A   1      43.519  35.694  29.913  1.00  0.00     0.135 A 
ATOM     86  F   UNL A   1      43.146  34.371  26.546  1.00  0.00    -0.206 F 
ATOM     87  C   UNL A   1      43.272  36.545  27.301  1.00  0.00     0.059 A 
ATOM     88  C   UNL A   1      43.381  37.051  29.650  1.00  0.00     0.059 A 
ATOM     89  F   UNL A   1      43.642  35.390  31.212  1.00  0.00    -0.206 F 
ATOM     90  C   UNL A   1      43.300  37.470  28.336  1.00  0.00     0.060 A 
BRANCH  90  91
ATOM     91  S   UNL A   1      43.204  39.216  27.938  1.00  0.00     0.124 S 
ATOM     92  O   UNL A   1      41.852  39.537  28.386  1.00  0.00    -0.237 OA
ATOM     93  O   UNL A   1      44.286  39.781  28.739  1.00  0.00    -0.237 OA
ATOM     94  O   UNL A   1      43.417  39.251  26.495  1.00  0.00    -0.744 OA
ENDBRANCH  90  91
ENDBRANCH  58  83
ENDBRANCH  32  33
ENDBRANCH  25  27
ENDBRANCH  24  25
ENDBRANCH  23  24
ENDBRANCH  22  23
ENDBRANCH   1  22
TORSDOF 20
ENDMDL
