MODEL 1
REMARK VINA RESULT:     -11.6      0.000      0.000
REMARK SMILES COc1ccc(/C=C2/C(=O)N(c3ccccc3)C(=O)N=C2OCCOCCOC(=O)c2ccc(-c3c4nc(c(-c5c(F)cc(S(=O)(=O)[O-])cc5F)c5ccc([nH]5)c(-c5c(F)cc(S(=O)(=O)[O-])cc5F)c5nc(c(-c6c(F)cc(S(=O)(=O)[O-])cc6F)c6ccc3[nH]6)C=C5)C=C4)cc2)cc1C(=O)[O-]
REMARK SMILES IDX 26 1 25 2 24 3 23 4 22 5 21 6 7 7 8 8 9 9 10 10 11 11 20 12
REMARK SMILES IDX 18 13 19 14 6 15 3 16 4 17 98 18 5 19 97 20 2 21 1 22 99 23
REMARK SMILES IDX 100 24 101 25 12 26 13 27 17 28 14 29 16 30 15 31 27 32
REMARK SMILES IDX 28 33 29 34 30 35 31 36 32 37 96 38 33 39 95 40 34 41 35 42
REMARK SMILES IDX 36 43 89 44 37 45 94 46 88 47 90 48 38 49 93 50 87 51 86 52
REMARK SMILES IDX 39 54 73 55 52 56 72 57 53 58 56 59 71 60 91 61 54 62 55 63
REMARK SMILES IDX 70 65 92 66 57 67 40 68 41 69 50 70 42 71 43 72 49 73 51 74
REMARK SMILES IDX 44 75 45 76 46 77 47 78 48 79 74 80 75 81 84 82 76 83 77 84
REMARK SMILES IDX 83 85 85 86 78 87 79 88 80 89 81 90 82 91 58 92 59 93 68 94
REMARK SMILES IDX 60 95 61 96 67 97 69 98 62 99 63 100 64 101 65 102 66 103
REMARK H PARENT 90 53 56 64
REMARK Flexibility Score: inf
ROOT
ATOM      1  C   UNL A   1      32.101  27.781  27.486  1.00  0.00     0.202 C 
ENDROOT
BRANCH   1   2
ATOM      2  O   UNL A   1      31.616  26.501  27.081  1.00  0.00    -0.374 OA
BRANCH   2   3
ATOM      3  C   UNL A   1      30.402  26.475  26.326  1.00  0.00     0.202 C 
BRANCH   3   4
ATOM      4  C   UNL A   1      30.019  25.107  25.760  1.00  0.00     0.260 C 
BRANCH   4   5
ATOM      5  O   UNL A   1      30.002  25.175  24.316  1.00  0.00    -0.475 OA
BRANCH   5   6
ATOM      6  C   UNL A   1      29.680  26.330  23.729  1.00  0.00     0.231 C 
ATOM      7  C   UNL A   1      32.152  26.782  23.129  1.00  0.00     0.027 C 
ATOM      8  C   UNL A   1      30.821  27.081  23.167  1.00  0.00     0.103 C 
ATOM      9  C   UNL A   1      30.411  28.455  22.659  1.00  0.00     0.272 C 
ATOM     10  O   UNL A   1      31.234  29.194  22.116  1.00  0.00    -0.268 OA
ATOM     11  N   UNL A   1      29.085  28.821  22.914  1.00  0.00    -0.226 N 
ATOM     12  N   UNL A   1      28.468  26.707  23.784  1.00  0.00    -0.156 NA
ATOM     13  C   UNL A   1      28.093  27.941  23.372  1.00  0.00     0.358 C 
ATOM     14  O   UNL A   1      26.907  28.227  23.407  1.00  0.00    -0.245 OA
BRANCH   7  15
ATOM     15  C   UNL A   1      33.052  25.666  23.593  1.00  0.00    -0.024 A 
ATOM     16  C   UNL A   1      34.729  23.425  24.352  1.00  0.00     0.127 A 
ATOM     17  C   UNL A   1      34.919  24.712  24.858  1.00  0.00     0.048 A 
ATOM     18  C   UNL A   1      33.627  23.230  23.520  1.00  0.00     0.040 A 
ATOM     19  C   UNL A   1      34.060  25.775  24.541  1.00  0.00     0.012 A 
ATOM     20  C   UNL A   1      32.835  24.354  23.115  1.00  0.00     0.022 A 
BRANCH  16  21
ATOM     21  O   UNL A   1      35.572  22.536  24.949  1.00  0.00    -0.496 OA
ATOM     22  C   UNL A   1      36.577  22.986  25.844  1.00  0.00     0.278 C 
ENDBRANCH  16  21
BRANCH  18  23
ATOM     23  C   UNL A   1      33.026  21.913  23.209  1.00  0.00     0.075 C 
ATOM     24  O   UNL A   1      33.048  20.955  23.963  1.00  0.00    -0.545 OA
ATOM     25  O   UNL A   1      32.359  21.850  22.051  1.00  0.00    -0.545 OA
ENDBRANCH  18  23
ENDBRANCH   7  15
BRANCH  11  26
ATOM     26  C   UNL A   1      28.606  30.124  22.564  1.00  0.00     0.054 A 
ATOM     27  C   UNL A   1      28.300  30.417  21.221  1.00  0.00     0.027 A 
ATOM     28  C   UNL A   1      28.654  31.168  23.493  1.00  0.00     0.027 A 
ATOM     29  C   UNL A   1      28.109  31.733  20.803  1.00  0.00     0.002 A 
ATOM     30  C   UNL A   1      28.488  32.488  23.064  1.00  0.00     0.002 A 
ATOM     31  C   UNL A   1      28.227  32.770  21.722  1.00  0.00     0.000 A 
ENDBRANCH  11  26
ENDBRANCH   5   6
ENDBRANCH   4   5
ENDBRANCH   3   4
ENDBRANCH   2   3
ENDBRANCH   1   2
BRANCH   1  32
ATOM     32  C   UNL A   1      33.020  28.512  26.504  1.00  0.00     0.261 C 
BRANCH  32  33
ATOM     33  O   UNL A   1      34.361  28.609  27.004  1.00  0.00    -0.460 OA
BRANCH  33  34
ATOM     34  C   UNL A   1      34.632  29.777  27.633  1.00  0.00     0.338 C 
ATOM     35  O   UNL A   1      33.843  30.668  27.898  1.00  0.00    -0.246 OA
BRANCH  34  36
ATOM     36  C   UNL A   1      36.019  29.769  28.132  1.00  0.00     0.060 A 
ATOM     37  C   UNL A   1      37.043  30.008  27.205  1.00  0.00     0.016 A 
ATOM     38  C   UNL A   1      36.317  29.453  29.458  1.00  0.00     0.016 A 
ATOM     39  C   UNL A   1      38.374  29.857  27.582  1.00  0.00     0.010 A 
ATOM     40  C   UNL A   1      37.653  29.300  29.832  1.00  0.00     0.010 A 
ATOM     41  C   UNL A   1      38.684  29.456  28.885  1.00  0.00    -0.014 A 
BRANCH  41  42
ATOM     42  C   UNL A   1      40.068  29.053  29.236  1.00  0.00     0.031 A 
ATOM     43  C   UNL A   1      41.024  30.098  29.740  1.00  0.00     0.074 A 
ATOM     44  C   UNL A   1      40.479  27.784  29.069  1.00  0.00     0.049 A 
ATOM     45  N   UNL A   1      42.304  30.001  29.983  1.00  0.00    -0.248 NA
ATOM     46  C   UNL A   1      40.459  31.432  30.001  1.00  0.00     0.031 C 
ATOM     47  C   UNL A   1      39.638  26.676  28.619  1.00  0.00     0.029 A 
ATOM     48  N   UNL A   1      41.727  27.230  29.194  1.00  0.00    -0.354 N 
ATOM     49  C   UNL A   1      42.699  31.256  30.430  1.00  0.00     0.074 A 
ATOM     50  C   UNL A   1      41.534  32.112  30.370  1.00  0.00     0.031 C 
ATOM     51  C   UNL A   1      40.412  25.597  28.414  1.00  0.00     0.029 A 
ATOM     52  C   UNL A   1      41.799  25.944  28.714  1.00  0.00     0.049 A 
ATOM     53  H   UNL A   1      42.495  27.705  29.588  1.00  0.00     0.167 HD
ATOM     54  C   UNL A   1      43.918  31.650  30.871  1.00  0.00     0.037 A 
ATOM     55  C   UNL A   1      42.867  25.154  28.493  1.00  0.00     0.037 A 
ATOM     56  C   UNL A   1      45.069  30.787  30.922  1.00  0.00     0.049 A 
ATOM     57  C   UNL A   1      44.233  25.632  28.896  1.00  0.00     0.074 A 
ATOM     58  C   UNL A   1      46.331  31.064  31.417  1.00  0.00     0.029 A 
ATOM     59  N   UNL A   1      45.105  29.486  30.442  1.00  0.00    -0.354 N 
ATOM     60  N   UNL A   1      44.586  26.797  29.385  1.00  0.00    -0.248 NA
ATOM     61  C   UNL A   1      45.341  24.679  28.751  1.00  0.00     0.031 C 
ATOM     62  C   UNL A   1      47.147  29.952  31.177  1.00  0.00     0.029 A 
ATOM     63  C   UNL A   1      46.377  28.959  30.593  1.00  0.00     0.049 A 
ATOM     64  H   UNL A   1      44.338  29.007  30.052  1.00  0.00     0.167 HD
ATOM     65  C   UNL A   1      45.946  26.703  29.653  1.00  0.00     0.074 A 
ATOM     66  C   UNL A   1      46.355  25.369  29.258  1.00  0.00     0.031 C 
ATOM     67  C   UNL A   1      46.775  27.628  30.197  1.00  0.00     0.037 A 
BRANCH  54  68
ATOM     68  C   UNL A   1      44.067  33.082  31.313  1.00  0.00     0.058 A 
ATOM     69  C   UNL A   1      43.750  33.495  32.618  1.00  0.00     0.135 A 
ATOM     70  C   UNL A   1      44.549  34.054  30.421  1.00  0.00     0.135 A 
ATOM     71  F   UNL A   1      43.275  32.612  33.510  1.00  0.00    -0.206 F 
ATOM     72  C   UNL A   1      43.860  34.825  33.008  1.00  0.00     0.059 A 
ATOM     73  C   UNL A   1      44.698  35.386  30.800  1.00  0.00     0.059 A 
ATOM     74  F   UNL A   1      44.871  33.717  29.162  1.00  0.00    -0.206 F 
ATOM     75  C   UNL A   1      44.331  35.765  32.090  1.00  0.00     0.060 A 
BRANCH  75  76
ATOM     76  S   UNL A   1      44.446  37.491  32.604  1.00  0.00     0.124 S 
ATOM     77  O   UNL A   1      45.817  37.556  33.099  1.00  0.00    -0.237 OA
ATOM     78  O   UNL A   1      44.188  38.206  31.359  1.00  0.00    -0.237 OA
ATOM     79  O   UNL A   1      43.406  37.613  33.621  1.00  0.00    -0.744 OA
ENDBRANCH  75  76
ENDBRANCH  54  68
BRANCH  55  80
ATOM     80  C   UNL A   1      42.666  23.830  27.853  1.00  0.00     0.058 A 
ATOM     81  C   UNL A   1      42.705  23.683  26.461  1.00  0.00     0.135 A 
ATOM     82  C   UNL A   1      42.489  22.674  28.633  1.00  0.00     0.135 A 
ATOM     83  F   UNL A   1      42.865  24.760  25.677  1.00  0.00    -0.206 F 
ATOM     84  C   UNL A   1      42.575  22.436  25.859  1.00  0.00     0.059 A 
ATOM     85  C   UNL A   1      42.378  21.413  28.055  1.00  0.00     0.059 A 
ATOM     86  F   UNL A   1      42.458  22.765  29.972  1.00  0.00    -0.206 F 
ATOM     87  C   UNL A   1      42.423  21.306  26.665  1.00  0.00     0.060 A 
BRANCH  87  88
ATOM     88  S   UNL A   1      42.339  19.687  25.869  1.00  0.00     0.124 S 
ATOM     89  O   UNL A   1      43.341  19.822  24.818  1.00  0.00    -0.237 OA
ATOM     90  O   UNL A   1      42.685  18.791  26.969  1.00  0.00    -0.237 OA
ATOM     91  O   UNL A   1      40.955  19.606  25.413  1.00  0.00    -0.744 OA
ENDBRANCH  87  88
ENDBRANCH  55  80
BRANCH  67  92
ATOM     92  C   UNL A   1      48.202  27.223  30.453  1.00  0.00     0.058 A 
ATOM     93  C   UNL A   1      49.237  27.539  29.560  1.00  0.00     0.135 A 
ATOM     94  C   UNL A   1      48.542  26.555  31.641  1.00  0.00     0.135 A 
ATOM     95  F   UNL A   1      48.967  28.168  28.406  1.00  0.00    -0.206 F 
ATOM     96  C   UNL A   1      50.558  27.187  29.827  1.00  0.00     0.059 A 
ATOM     97  C   UNL A   1      49.859  26.222  31.943  1.00  0.00     0.059 A 
ATOM     98  F   UNL A   1      47.592  26.236  32.534  1.00  0.00    -0.206 F 
ATOM     99  C   UNL A   1      50.859  26.534  31.023  1.00  0.00     0.060 A 
BRANCH  99 100
ATOM    100  S   UNL A   1      52.581  26.118  31.374  1.00  0.00     0.124 S 
ATOM    101  O   UNL A   1      52.978  27.220  32.243  1.00  0.00    -0.237 OA
ATOM    102  O   UNL A   1      52.461  24.813  32.016  1.00  0.00    -0.237 OA
ATOM    103  O   UNL A   1      53.204  26.105  30.053  1.00  0.00    -0.744 OA
ENDBRANCH  99 100
ENDBRANCH  67  92
ENDBRANCH  41  42
ENDBRANCH  34  36
ENDBRANCH  33  34
ENDBRANCH  32  33
ENDBRANCH   1  32
TORSDOF 20
ENDMDL
MODEL 2
REMARK VINA RESULT:     -11.6      1.534      4.688
REMARK SMILES COc1ccc(/C=C2/C(=O)N(c3ccccc3)C(=O)N=C2OCCOCCOC(=O)c2ccc(-c3c4nc(c(-c5c(F)cc(S(=O)(=O)[O-])cc5F)c5ccc([nH]5)c(-c5c(F)cc(S(=O)(=O)[O-])cc5F)c5nc(c(-c6c(F)cc(S(=O)(=O)[O-])cc6F)c6ccc3[nH]6)C=C5)C=C4)cc2)cc1C(=O)[O-]
REMARK SMILES IDX 26 1 25 2 24 3 23 4 22 5 21 6 7 7 8 8 9 9 10 10 11 11 20 12
REMARK SMILES IDX 18 13 19 14 6 15 3 16 4 17 98 18 5 19 97 20 2 21 1 22 99 23
REMARK SMILES IDX 100 24 101 25 12 26 13 27 17 28 14 29 16 30 15 31 27 32
REMARK SMILES IDX 28 33 29 34 30 35 31 36 32 37 96 38 33 39 95 40 34 41 35 42
REMARK SMILES IDX 36 43 89 44 37 45 94 46 88 47 90 48 38 49 93 50 87 51 86 52
REMARK SMILES IDX 39 54 73 55 52 56 72 57 53 58 56 59 71 60 91 61 54 62 55 63
REMARK SMILES IDX 70 65 92 66 57 67 40 68 41 69 50 70 42 71 43 72 49 73 51 74
REMARK SMILES IDX 44 75 45 76 46 77 47 78 48 79 74 80 75 81 84 82 76 83 77 84
REMARK SMILES IDX 83 85 85 86 78 87 79 88 80 89 81 90 82 91 58 92 59 93 68 94
REMARK SMILES IDX 60 95 61 96 67 97 69 98 62 99 63 100 64 101 65 102 66 103
REMARK H PARENT 90 53 56 64
REMARK Flexibility Score: inf
ROOT
ATOM      1  C   UNL A   1      32.058  30.583  26.011  1.00  0.00     0.202 C 
ENDROOT
BRANCH   1   2
ATOM      2  O   UNL A   1      32.365  29.226  25.693  1.00  0.00    -0.374 OA
BRANCH   2   3
ATOM      3  C   UNL A   1      31.691  28.213  26.446  1.00  0.00     0.202 C 
BRANCH   3   4
ATOM      4  C   UNL A   1      32.469  26.908  26.619  1.00  0.00     0.260 C 
BRANCH   4   5
ATOM      5  O   UNL A   1      31.600  25.791  26.319  1.00  0.00    -0.475 OA
BRANCH   5   6
ATOM      6  C   UNL A   1      32.148  24.623  25.976  1.00  0.00     0.231 C 
ATOM      7  C   UNL A   1      31.752  25.107  23.469  1.00  0.00     0.027 C 
ATOM      8  C   UNL A   1      32.177  24.352  24.524  1.00  0.00     0.103 C 
ATOM      9  C   UNL A   1      32.662  22.945  24.211  1.00  0.00     0.272 C 
ATOM     10  O   UNL A   1      32.791  22.571  23.044  1.00  0.00    -0.268 OA
ATOM     11  N   UNL A   1      32.878  22.121  25.321  1.00  0.00    -0.226 N 
ATOM     12  N   UNL A   1      32.505  23.837  26.909  1.00  0.00    -0.156 NA
ATOM     13  C   UNL A   1      32.903  22.570  26.650  1.00  0.00     0.358 C 
ATOM     14  O   UNL A   1      33.279  21.879  27.584  1.00  0.00    -0.245 OA
BRANCH   7  15
ATOM     15  C   UNL A   1      31.102  26.449  23.256  1.00  0.00    -0.024 A 
ATOM     16  C   UNL A   1      29.729  28.987  22.959  1.00  0.00     0.127 A 
ATOM     17  C   UNL A   1      31.045  28.789  22.537  1.00  0.00     0.048 A 
ATOM     18  C   UNL A   1      29.053  27.874  23.458  1.00  0.00     0.040 A 
ATOM     19  C   UNL A   1      31.678  27.539  22.619  1.00  0.00     0.012 A 
ATOM     20  C   UNL A   1      29.757  26.640  23.644  1.00  0.00     0.022 A 
BRANCH  16  21
ATOM     21  O   UNL A   1      29.283  30.225  22.605  1.00  0.00    -0.496 OA
ATOM     22  C   UNL A   1      29.045  31.214  23.593  1.00  0.00     0.278 C 
ENDBRANCH  16  21
BRANCH  18  23
ATOM     23  C   UNL A   1      27.581  27.765  23.581  1.00  0.00     0.075 C 
ATOM     24  O   UNL A   1      26.795  28.581  23.129  1.00  0.00    -0.545 OA
ATOM     25  O   UNL A   1      27.139  26.643  24.159  1.00  0.00    -0.545 OA
ENDBRANCH  18  23
ENDBRANCH   7  15
BRANCH  11  26
ATOM     26  C   UNL A   1      33.249  20.748  25.152  1.00  0.00     0.054 A 
ATOM     27  C   UNL A   1      34.610  20.403  25.048  1.00  0.00     0.027 A 
ATOM     28  C   UNL A   1      32.280  19.784  24.861  1.00  0.00     0.027 A 
ATOM     29  C   UNL A   1      34.995  19.139  24.603  1.00  0.00     0.002 A 
ATOM     30  C   UNL A   1      32.670  18.526  24.390  1.00  0.00     0.002 A 
ATOM     31  C   UNL A   1      34.022  18.209  24.252  1.00  0.00     0.000 A 
ENDBRANCH  11  26
ENDBRANCH   5   6
ENDBRANCH   4   5
ENDBRANCH   3   4
ENDBRANCH   2   3
ENDBRANCH   1   2
BRANCH   1  32
ATOM     32  C   UNL A   1      32.777  31.188  27.218  1.00  0.00     0.261 C 
BRANCH  32  33
ATOM     33  O   UNL A   1      33.969  30.459  27.547  1.00  0.00    -0.460 OA
BRANCH  33  34
ATOM     34  C   UNL A   1      34.747  31.065  28.475  1.00  0.00     0.338 C 
ATOM     35  O   UNL A   1      34.428  31.978  29.218  1.00  0.00    -0.246 OA
BRANCH  34  36
ATOM     36  C   UNL A   1      36.028  30.346  28.604  1.00  0.00     0.060 A 
ATOM     37  C   UNL A   1      36.428  29.961  29.891  1.00  0.00     0.016 A 
ATOM     38  C   UNL A   1      36.857  30.128  27.503  1.00  0.00     0.016 A 
ATOM     39  C   UNL A   1      37.695  29.422  30.094  1.00  0.00     0.010 A 
ATOM     40  C   UNL A   1      38.128  29.590  27.711  1.00  0.00     0.010 A 
ATOM     41  C   UNL A   1      38.569  29.278  29.012  1.00  0.00    -0.014 A 
BRANCH  41  42
ATOM     42  C   UNL A   1      39.996  28.942  29.241  1.00  0.00     0.031 A 
ATOM     43  C   UNL A   1      40.946  30.036  29.638  1.00  0.00     0.074 A 
ATOM     44  C   UNL A   1      40.445  27.688  29.057  1.00  0.00     0.049 A 
ATOM     45  N   UNL A   1      42.246  29.999  29.765  1.00  0.00    -0.248 NA
ATOM     46  C   UNL A   1      40.349  31.350  29.929  1.00  0.00     0.031 C 
ATOM     47  C   UNL A   1      39.618  26.537  28.703  1.00  0.00     0.029 A 
ATOM     48  N   UNL A   1      41.723  27.191  29.077  1.00  0.00    -0.354 N 
ATOM     49  C   UNL A   1      42.624  31.279  30.155  1.00  0.00     0.074 A 
ATOM     50  C   UNL A   1      41.421  32.083  30.188  1.00  0.00     0.031 C 
ATOM     51  C   UNL A   1      40.417  25.489  28.446  1.00  0.00     0.029 A 
ATOM     52  C   UNL A   1      41.808  25.900  28.612  1.00  0.00     0.049 A 
ATOM     53  H   UNL A   1      42.502  27.706  29.391  1.00  0.00     0.167 HD
ATOM     54  C   UNL A   1      43.859  31.733  30.476  1.00  0.00     0.037 A 
ATOM     55  C   UNL A   1      42.886  25.152  28.307  1.00  0.00     0.037 A 
ATOM     56  C   UNL A   1      45.047  30.921  30.435  1.00  0.00     0.049 A 
ATOM     57  C   UNL A   1      44.260  25.696  28.576  1.00  0.00     0.074 A 
ATOM     58  C   UNL A   1      46.336  31.262  30.807  1.00  0.00     0.029 A 
ATOM     59  N   UNL A   1      45.097  29.614  29.975  1.00  0.00    -0.354 N 
ATOM     60  N   UNL A   1      44.604  26.885  29.012  1.00  0.00    -0.248 NA
ATOM     61  C   UNL A   1      45.391  24.789  28.345  1.00  0.00     0.031 C 
ATOM     62  C   UNL A   1      47.175  30.181  30.512  1.00  0.00     0.029 A 
ATOM     63  C   UNL A   1      46.400  29.144  30.016  1.00  0.00     0.049 A 
ATOM     64  H   UNL A   1      44.320  29.095  29.664  1.00  0.00     0.167 HD
ATOM     65  C   UNL A   1      45.986  26.854  29.156  1.00  0.00     0.074 A 
ATOM     66  C   UNL A   1      46.416  25.531  28.746  1.00  0.00     0.031 C 
ATOM     67  C   UNL A   1      46.819  27.825  29.607  1.00  0.00     0.037 A 
BRANCH  54  68
ATOM     68  C   UNL A   1      43.984  33.179  30.879  1.00  0.00     0.058 A 
ATOM     69  C   UNL A   1      43.992  33.577  32.227  1.00  0.00     0.135 A 
ATOM     70  C   UNL A   1      44.112  34.180  29.903  1.00  0.00     0.135 A 
ATOM     71  F   UNL A   1      43.863  32.664  33.203  1.00  0.00    -0.206 F 
ATOM     72  C   UNL A   1      44.076  34.917  32.590  1.00  0.00     0.059 A 
ATOM     73  C   UNL A   1      44.230  35.525  30.245  1.00  0.00     0.059 A 
ATOM     74  F   UNL A   1      44.113  33.858  28.599  1.00  0.00    -0.206 F 
ATOM     75  C   UNL A   1      44.190  35.885  31.590  1.00  0.00     0.060 A 
BRANCH  75  76
ATOM     76  S   UNL A   1      44.274  37.621  32.077  1.00  0.00     0.124 S 
ATOM     77  O   UNL A   1      45.675  37.746  32.467  1.00  0.00    -0.237 OA
ATOM     78  O   UNL A   1      43.894  38.308  30.847  1.00  0.00    -0.237 OA
ATOM     79  O   UNL A   1      43.308  37.715  33.168  1.00  0.00    -0.744 OA
ENDBRANCH  75  76
ENDBRANCH  54  68
BRANCH  55  80
ATOM     80  C   UNL A   1      42.687  23.808  27.709  1.00  0.00     0.058 A 
ATOM     81  C   UNL A   1      42.708  23.620  26.322  1.00  0.00     0.135 A 
ATOM     82  C   UNL A   1      42.529  22.675  28.525  1.00  0.00     0.135 A 
ATOM     83  F   UNL A   1      42.850  24.674  25.505  1.00  0.00    -0.206 F 
ATOM     84  C   UNL A   1      42.581  22.355  25.759  1.00  0.00     0.059 A 
ATOM     85  C   UNL A   1      42.420  21.397  27.986  1.00  0.00     0.059 A 
ATOM     86  F   UNL A   1      42.514  22.805  29.861  1.00  0.00    -0.206 F 
ATOM     87  C   UNL A   1      42.447  21.248  26.600  1.00  0.00     0.060 A 
BRANCH  87  88
ATOM     88  S   UNL A   1      42.366  19.606  25.853  1.00  0.00     0.124 S 
ATOM     89  O   UNL A   1      42.702  18.749  26.984  1.00  0.00    -0.237 OA
ATOM     90  O   UNL A   1      40.979  19.549  25.399  1.00  0.00    -0.237 OA
ATOM     91  O   UNL A   1      43.365  19.668  24.790  1.00  0.00    -0.744 OA
ENDBRANCH  87  88
ENDBRANCH  55  80
BRANCH  67  92
ATOM     92  C   UNL A   1      48.280  27.485  29.738  1.00  0.00     0.058 A 
ATOM     93  C   UNL A   1      49.202  27.759  28.716  1.00  0.00     0.135 A 
ATOM     94  C   UNL A   1      48.770  26.927  30.930  1.00  0.00     0.135 A 
ATOM     95  F   UNL A   1      48.787  28.284  27.553  1.00  0.00    -0.206 F 
ATOM     96  C   UNL A   1      50.556  27.472  28.866  1.00  0.00     0.059 A 
ATOM     97  C   UNL A   1      50.122  26.661  31.113  1.00  0.00     0.059 A 
ATOM     98  F   UNL A   1      47.932  26.653  31.943  1.00  0.00    -0.206 F 
ATOM     99  C   UNL A   1      51.007  26.927  30.069  1.00  0.00     0.060 A 
BRANCH  99 100
ATOM    100  S   UNL A   1      52.771  26.595  30.262  1.00  0.00     0.124 S 
ATOM    101  O   UNL A   1      53.269  27.894  30.701  1.00  0.00    -0.237 OA
ATOM    102  O   UNL A   1      52.780  25.539  31.269  1.00  0.00    -0.237 OA
ATOM    103  O   UNL A   1      53.189  26.182  28.926  1.00  0.00    -0.744 OA
ENDBRANCH  99 100
ENDBRANCH  67  92
ENDBRANCH  41  42
ENDBRANCH  34  36
ENDBRANCH  33  34
ENDBRANCH  32  33
ENDBRANCH   1  32
TORSDOF 20
ENDMDL
MODEL 3
REMARK VINA RESULT:     -11.4      4.829     10.087
REMARK SMILES COc1ccc(/C=C2/C(=O)N(c3ccccc3)C(=O)N=C2OCCOCCOC(=O)c2ccc(-c3c4nc(c(-c5c(F)cc(S(=O)(=O)[O-])cc5F)c5ccc([nH]5)c(-c5c(F)cc(S(=O)(=O)[O-])cc5F)c5nc(c(-c6c(F)cc(S(=O)(=O)[O-])cc6F)c6ccc3[nH]6)C=C5)C=C4)cc2)cc1C(=O)[O-]
REMARK SMILES IDX 26 1 25 2 24 3 23 4 22 5 21 6 7 7 8 8 9 9 10 10 11 11 20 12
REMARK SMILES IDX 18 13 19 14 6 15 3 16 4 17 98 18 5 19 97 20 2 21 1 22 99 23
REMARK SMILES IDX 100 24 101 25 12 26 13 27 17 28 14 29 16 30 15 31 27 32
REMARK SMILES IDX 28 33 29 34 30 35 31 36 32 37 96 38 33 39 95 40 34 41 35 42
REMARK SMILES IDX 36 43 89 44 37 45 94 46 88 47 90 48 38 49 93 50 87 51 86 52
REMARK SMILES IDX 39 54 73 55 52 56 72 57 53 58 56 59 71 60 91 61 54 62 55 63
REMARK SMILES IDX 70 65 92 66 57 67 40 68 41 69 50 70 42 71 43 72 49 73 51 74
REMARK SMILES IDX 44 75 45 76 46 77 47 78 48 79 74 80 75 81 84 82 76 83 77 84
REMARK SMILES IDX 83 85 85 86 78 87 79 88 80 89 81 90 82 91 58 92 59 93 68 94
REMARK SMILES IDX 60 95 61 96 67 97 69 98 62 99 63 100 64 101 65 102 66 103
REMARK H PARENT 90 53 56 64
REMARK Flexibility Score: inf
ROOT
ATOM      1  C   UNL A   1      38.312  23.174  26.349  1.00  0.00     0.202 C 
ENDROOT
BRANCH   1   2
ATOM      2  O   UNL A   1      37.813  23.284  25.017  1.00  0.00    -0.374 OA
BRANCH   2   3
ATOM      3  C   UNL A   1      37.182  22.126  24.462  1.00  0.00     0.202 C 
BRANCH   3   4
ATOM      4  C   UNL A   1      35.814  22.375  23.826  1.00  0.00     0.260 C 
BRANCH   4   5
ATOM      5  O   UNL A   1      34.821  22.513  24.869  1.00  0.00    -0.475 OA
BRANCH   5   6
ATOM      6  C   UNL A   1      33.954  23.527  24.802  1.00  0.00     0.231 C 
ATOM      7  C   UNL A   1      31.953  21.896  24.919  1.00  0.00     0.027 C 
ATOM      8  C   UNL A   1      32.532  23.129  24.823  1.00  0.00     0.103 C 
ATOM      9  C   UNL A   1      31.601  24.308  24.583  1.00  0.00     0.272 C 
ATOM     10  O   UNL A   1      30.378  24.159  24.615  1.00  0.00    -0.268 OA
ATOM     11  N   UNL A   1      32.230  25.518  24.267  1.00  0.00    -0.226 N 
ATOM     12  N   UNL A   1      34.419  24.698  24.643  1.00  0.00    -0.156 NA
ATOM     13  C   UNL A   1      33.607  25.751  24.391  1.00  0.00     0.358 C 
ATOM     14  O   UNL A   1      34.111  26.860  24.295  1.00  0.00    -0.245 OA
BRANCH   7  15
ATOM     15  C   UNL A   1      32.405  20.464  25.031  1.00  0.00    -0.024 A 
ATOM     16  C   UNL A   1      33.340  17.719  25.089  1.00  0.00     0.127 A 
ATOM     17  C   UNL A   1      32.991  18.420  26.245  1.00  0.00     0.048 A 
ATOM     18  C   UNL A   1      33.136  18.369  23.871  1.00  0.00     0.040 A 
ATOM     19  C   UNL A   1      32.472  19.722  26.203  1.00  0.00     0.012 A 
ATOM     20  C   UNL A   1      32.719  19.740  23.860  1.00  0.00     0.022 A 
BRANCH  16  21
ATOM     21  O   UNL A   1      33.636  16.420  25.375  1.00  0.00    -0.496 OA
ATOM     22  C   UNL A   1      32.612  15.516  25.757  1.00  0.00     0.278 C 
ENDBRANCH  16  21
BRANCH  18  23
ATOM     23  C   UNL A   1      33.059  17.693  22.556  1.00  0.00     0.075 C 
ATOM     24  O   UNL A   1      32.237  17.962  21.696  1.00  0.00    -0.545 OA
ATOM     25  O   UNL A   1      34.024  16.799  22.319  1.00  0.00    -0.545 OA
ENDBRANCH  18  23
ENDBRANCH   7  15
BRANCH  11  26
ATOM     26  C   UNL A   1      31.459  26.677  23.932  1.00  0.00     0.054 A 
ATOM     27  C   UNL A   1      31.054  26.883  22.600  1.00  0.00     0.027 A 
ATOM     28  C   UNL A   1      31.300  27.711  24.859  1.00  0.00     0.027 A 
ATOM     29  C   UNL A   1      30.559  28.119  22.186  1.00  0.00     0.002 A 
ATOM     30  C   UNL A   1      30.826  28.957  24.434  1.00  0.00     0.002 A 
ATOM     31  C   UNL A   1      30.467  29.163  23.101  1.00  0.00     0.000 A 
ENDBRANCH  11  26
ENDBRANCH   5   6
ENDBRANCH   4   5
ENDBRANCH   3   4
ENDBRANCH   2   3
ENDBRANCH   1   2
BRANCH   1  32
ATOM     32  C   UNL A   1      39.723  22.604  26.513  1.00  0.00     0.261 C 
BRANCH  32  33
ATOM     33  O   UNL A   1      40.396  23.168  27.647  1.00  0.00    -0.460 OA
BRANCH  33  34
ATOM     34  C   UNL A   1      41.353  24.071  27.327  1.00  0.00     0.338 C 
ATOM     35  O   UNL A   1      42.231  23.944  26.490  1.00  0.00    -0.246 OA
BRANCH  34  36
ATOM     36  C   UNL A   1      41.094  25.346  28.019  1.00  0.00     0.060 A 
ATOM     37  C   UNL A   1      42.150  26.262  28.109  1.00  0.00     0.016 A 
ATOM     38  C   UNL A   1      39.871  25.604  28.640  1.00  0.00     0.016 A 
ATOM     39  C   UNL A   1      42.014  27.409  28.885  1.00  0.00     0.010 A 
ATOM     40  C   UNL A   1      39.738  26.755  29.419  1.00  0.00     0.010 A 
ATOM     41  C   UNL A   1      40.824  27.638  29.582  1.00  0.00    -0.014 A 
BRANCH  41  42
ATOM     42  C   UNL A   1      40.746  28.714  30.599  1.00  0.00     0.031 A 
ATOM     43  C   UNL A   1      41.560  28.587  31.856  1.00  0.00     0.074 A 
ATOM     44  C   UNL A   1      39.931  29.769  30.424  1.00  0.00     0.049 A 
ATOM     45  N   UNL A   1      41.552  29.335  32.928  1.00  0.00    -0.248 NA
ATOM     46  C   UNL A   1      42.509  27.463  31.912  1.00  0.00     0.031 C 
ATOM     47  C   UNL A   1      39.117  30.020  29.237  1.00  0.00     0.029 A 
ATOM     48  N   UNL A   1      39.604  30.790  31.279  1.00  0.00    -0.354 N 
ATOM     49  C   UNL A   1      42.495  28.778  33.784  1.00  0.00     0.074 A 
ATOM     50  C   UNL A   1      43.014  27.596  33.129  1.00  0.00     0.031 C 
ATOM     51  C   UNL A   1      38.314  31.070  29.474  1.00  0.00     0.029 A 
ATOM     52  C   UNL A   1      38.555  31.557  30.829  1.00  0.00     0.049 A 
ATOM     53  H   UNL A   1      40.072  30.958  32.130  1.00  0.00     0.167 HD
ATOM     54  C   UNL A   1      42.904  29.225  34.995  1.00  0.00     0.037 A 
ATOM     55  C   UNL A   1      37.838  32.508  31.457  1.00  0.00     0.037 A 
ATOM     56  C   UNL A   1      42.376  30.402  35.635  1.00  0.00     0.049 A 
ATOM     57  C   UNL A   1      38.236  32.938  32.841  1.00  0.00     0.074 A 
ATOM     58  C   UNL A   1      42.768  30.983  36.828  1.00  0.00     0.029 A 
ATOM     59  N   UNL A   1      41.325  31.164  35.146  1.00  0.00    -0.354 N 
ATOM     60  N   UNL A   1      39.176  32.450  33.615  1.00  0.00    -0.248 NA
ATOM     61  C   UNL A   1      37.500  34.067  33.424  1.00  0.00     0.031 C 
ATOM     62  C   UNL A   1      41.912  32.059  37.091  1.00  0.00     0.029 A 
ATOM     63  C   UNL A   1      41.029  32.189  36.031  1.00  0.00     0.049 A 
ATOM     64  H   UNL A   1      40.858  31.002  34.295  1.00  0.00     0.167 HD
ATOM     65  C   UNL A   1      39.180  33.244  34.756  1.00  0.00     0.074 A 
ATOM     66  C   UNL A   1      38.137  34.235  34.576  1.00  0.00     0.031 C 
ATOM     67  C   UNL A   1      39.988  33.171  35.843  1.00  0.00     0.037 A 
BRANCH  54  68
ATOM     68  C   UNL A   1      43.960  28.425  35.711  1.00  0.00     0.058 A 
ATOM     69  C   UNL A   1      45.332  28.669  35.525  1.00  0.00     0.135 A 
ATOM     70  C   UNL A   1      43.595  27.408  36.607  1.00  0.00     0.135 A 
ATOM     71  F   UNL A   1      45.739  29.623  34.672  1.00  0.00    -0.206 F 
ATOM     72  C   UNL A   1      46.301  27.905  36.166  1.00  0.00     0.059 A 
ATOM     73  C   UNL A   1      44.549  26.651  37.284  1.00  0.00     0.059 A 
ATOM     74  F   UNL A   1      42.299  27.132  36.826  1.00  0.00    -0.206 F 
ATOM     75  C   UNL A   1      45.899  26.894  37.040  1.00  0.00     0.060 A 
BRANCH  75  76
ATOM     76  S   UNL A   1      47.168  25.895  37.845  1.00  0.00     0.124 S 
ATOM     77  O   UNL A   1      46.640  25.790  39.201  1.00  0.00    -0.237 OA
ATOM     78  O   UNL A   1      47.144  24.666  37.059  1.00  0.00    -0.237 OA
ATOM     79  O   UNL A   1      48.377  26.703  37.704  1.00  0.00    -0.744 OA
ENDBRANCH  75  76
ENDBRANCH  54  68
BRANCH  55  80
ATOM     80  C   UNL A   1      36.670  33.107  30.765  1.00  0.00     0.058 A 
ATOM     81  C   UNL A   1      35.361  32.834  31.181  1.00  0.00     0.135 A 
ATOM     82  C   UNL A   1      36.848  34.014  29.705  1.00  0.00     0.135 A 
ATOM     83  F   UNL A   1      35.143  31.970  32.183  1.00  0.00    -0.206 F 
ATOM     84  C   UNL A   1      34.265  33.438  30.574  1.00  0.00     0.059 A 
ATOM     85  C   UNL A   1      35.770  34.647  29.096  1.00  0.00     0.059 A 
ATOM     86  F   UNL A   1      38.086  34.315  29.281  1.00  0.00    -0.206 F 
ATOM     87  C   UNL A   1      34.481  34.351  29.538  1.00  0.00     0.060 A 
BRANCH  87  88
ATOM     88  S   UNL A   1      33.051  35.186  28.818  1.00  0.00     0.124 S 
ATOM     89  O   UNL A   1      32.606  34.211  27.829  1.00  0.00    -0.237 OA
ATOM     90  O   UNL A   1      32.184  35.358  29.980  1.00  0.00    -0.237 OA
ATOM     91  O   UNL A   1      33.617  36.419  28.278  1.00  0.00    -0.744 OA
ENDBRANCH  87  88
ENDBRANCH  55  80
BRANCH  67  92
ATOM     92  C   UNL A   1      39.821  34.222  36.908  1.00  0.00     0.058 A 
ATOM     93  C   UNL A   1      39.037  34.006  38.052  1.00  0.00     0.135 A 
ATOM     94  C   UNL A   1      40.505  35.445  36.804  1.00  0.00     0.135 A 
ATOM     95  F   UNL A   1      38.356  32.859  38.197  1.00  0.00    -0.206 F 
ATOM     96  C   UNL A   1      38.921  34.974  39.045  1.00  0.00     0.059 A 
ATOM     97  C   UNL A   1      40.428  36.414  37.799  1.00  0.00     0.059 A 
ATOM     98  F   UNL A   1      41.276  35.701  35.735  1.00  0.00    -0.206 F 
ATOM     99  C   UNL A   1      39.624  36.173  38.912  1.00  0.00     0.060 A 
BRANCH  99 100
ATOM    100  S   UNL A   1      39.494  37.404  40.226  1.00  0.00     0.124 S 
ATOM    101  O   UNL A   1      38.593  38.382  39.625  1.00  0.00    -0.237 OA
ATOM    102  O   UNL A   1      38.940  36.625  41.329  1.00  0.00    -0.237 OA
ATOM    103  O   UNL A   1      40.871  37.852  40.412  1.00  0.00    -0.744 OA
ENDBRANCH  99 100
ENDBRANCH  67  92
ENDBRANCH  41  42
ENDBRANCH  34  36
ENDBRANCH  33  34
ENDBRANCH  32  33
ENDBRANCH   1  32
TORSDOF 20
ENDMDL
