MODEL 1
REMARK VINA RESULT:     -11.3      0.000      0.000
REMARK SMILES Cc1cc(OC(F)F)ccc1NC(=O)[C@@H]1CCCC[C@@H]1C(=O)OCCOCCOC(=O)c1ccc(-c2c3nc(c(-c4c(F)cc(S(=O)(=O)[O-])cc4F)c4ccc([nH]4)c(-c4c(F)cc(S(=O)(=O)[O-])cc4F)c4nc(c(-c5c(F)cc(S(=O)(=O)[O-])cc5F)c5ccc2[nH]5)C=C4)C=C3)cc1
REMARK SMILES IDX 25 1 24 2 23 3 21 4 22 5 20 6 15 7 16 8 17 9 19 10 18 11
REMARK SMILES IDX 13 12 12 13 14 15 11 16 1 17 2 18 3 19 4 20 10 21 9 22 5 23
REMARK SMILES IDX 6 24 7 25 8 26 26 27 27 28 28 29 29 30 30 31 31 32 32 33
REMARK SMILES IDX 33 34 97 35 34 36 96 37 35 38 36 39 37 40 90 41 38 42 95 43
REMARK SMILES IDX 89 44 91 45 39 46 94 47 88 48 87 49 40 51 74 52 53 53 73 54
REMARK SMILES IDX 54 55 57 56 72 57 92 58 55 59 56 60 71 62 93 63 58 64 41 65
REMARK SMILES IDX 42 66 51 67 43 68 44 69 50 70 52 71 45 72 46 73 47 74 48 75
REMARK SMILES IDX 49 76 75 77 76 78 85 79 77 80 78 81 84 82 86 83 79 84 80 85
REMARK SMILES IDX 81 86 82 87 83 88 59 89 60 90 69 91 61 92 62 93 68 94 70 95
REMARK SMILES IDX 63 96 64 97 65 98 66 99 67 100
REMARK H PARENT 12 14 91 50 57 61
REMARK Flexibility Score: inf
ROOT
ATOM      1  C   UNL A   1      34.653  20.897  25.701  1.00  0.00     0.202 C 
ENDROOT
BRANCH   1   2
ATOM      2  C   UNL A   1      33.439  21.139  24.851  1.00  0.00     0.261 C 
BRANCH   2   3
ATOM      3  O   UNL A   1      33.396  22.496  24.342  1.00  0.00    -0.463 OA
BRANCH   3   4
ATOM      4  C   UNL A   1      33.150  23.576  25.136  1.00  0.00     0.309 C 
ATOM      5  O   UNL A   1      32.751  23.565  26.280  1.00  0.00    -0.252 OA
BRANCH   4   6
ATOM      6  C   UNL A   1      33.371  24.848  24.334  1.00  0.00     0.111 C 
ATOM      7  C   UNL A   1      32.108  25.733  24.132  1.00  0.00     0.093 C 
ATOM      8  C   UNL A   1      31.265  25.290  22.908  1.00  0.00     0.014 C 
ATOM      9  C   UNL A   1      32.062  24.950  21.654  1.00  0.00     0.001 C 
ATOM     10  C   UNL A   1      34.113  24.571  23.015  1.00  0.00     0.016 C 
ATOM     11  C   UNL A   1      33.206  23.993  21.941  1.00  0.00     0.001 C 
BRANCH   7  12
ATOM     12  C   UNL A   1      31.171  25.934  25.368  1.00  0.00     0.228 C 
ATOM     13  N   UNL A   1      31.303  26.980  26.262  1.00  0.00    -0.326 N 
ATOM     14  H   UNL A   1      30.685  26.966  27.027  1.00  0.00     0.169 HD
ATOM     15  O   UNL A   1      30.263  25.123  25.592  1.00  0.00    -0.274 OA
BRANCH  13  16
ATOM     16  C   UNL A   1      32.202  28.063  26.228  1.00  0.00     0.044 A 
ATOM     17  C   UNL A   1      30.879  29.466  24.551  1.00  0.00     0.047 C 
ATOM     18  C   UNL A   1      31.812  29.307  25.717  1.00  0.00    -0.024 A 
ATOM     19  C   UNL A   1      32.411  30.456  26.267  1.00  0.00     0.052 A 
ATOM     20  C   UNL A   1      33.450  30.344  27.194  1.00  0.00     0.126 A 
ATOM     21  C   UNL A   1      33.433  27.966  26.860  1.00  0.00     0.030 A 
ATOM     22  C   UNL A   1      34.046  29.103  27.373  1.00  0.00     0.049 A 
BRANCH  20  23
ATOM     23  O   UNL A   1      33.829  31.485  27.840  1.00  0.00    -0.435 OA
BRANCH  23  24
ATOM     24  C   UNL A   1      35.229  31.618  28.099  1.00  0.00     0.542 C 
ATOM     25  F   UNL A   1      35.663  32.870  27.807  1.00  0.00    -0.167 F 
ATOM     26  F   UNL A   1      35.457  31.397  29.419  1.00  0.00    -0.167 F 
ENDBRANCH  23  24
ENDBRANCH  20  23
ENDBRANCH  13  16
ENDBRANCH   7  12
ENDBRANCH   4   6
ENDBRANCH   3   4
ENDBRANCH   2   3
ENDBRANCH   1   2
BRANCH   1  27
ATOM     27  O   UNL A   1      35.376  19.908  24.989  1.00  0.00    -0.374 OA
BRANCH  27  28
ATOM     28  C   UNL A   1      36.770  20.043  24.926  1.00  0.00     0.202 C 
BRANCH  28  29
ATOM     29  C   UNL A   1      37.197  21.425  24.463  1.00  0.00     0.261 C 
BRANCH  29  30
ATOM     30  O   UNL A   1      37.969  22.134  25.459  1.00  0.00    -0.460 OA
BRANCH  30  31
ATOM     31  C   UNL A   1      37.818  23.493  25.501  1.00  0.00     0.338 C 
ATOM     32  O   UNL A   1      36.903  24.085  24.950  1.00  0.00    -0.246 OA
BRANCH  31  33
ATOM     33  C   UNL A   1      38.827  24.125  26.398  1.00  0.00     0.060 A 
ATOM     34  C   UNL A   1      38.648  24.186  27.790  1.00  0.00     0.016 A 
ATOM     35  C   UNL A   1      39.862  24.836  25.808  1.00  0.00     0.016 A 
ATOM     36  C   UNL A   1      39.392  25.100  28.559  1.00  0.00     0.010 A 
ATOM     37  C   UNL A   1      40.465  25.836  26.537  1.00  0.00     0.010 A 
ATOM     38  C   UNL A   1      40.225  26.001  27.914  1.00  0.00    -0.014 A 
BRANCH  38  39
ATOM     39  C   UNL A   1      40.945  27.144  28.498  1.00  0.00     0.031 A 
ATOM     40  C   UNL A   1      40.143  28.392  28.631  1.00  0.00     0.074 A 
ATOM     41  C   UNL A   1      42.119  27.011  29.170  1.00  0.00     0.049 A 
ATOM     42  N   UNL A   1      40.530  29.442  29.255  1.00  0.00    -0.248 NA
ATOM     43  C   UNL A   1      38.795  28.556  28.078  1.00  0.00     0.031 C 
ATOM     44  C   UNL A   1      42.658  27.876  30.225  1.00  0.00     0.029 A 
ATOM     45  N   UNL A   1      43.145  26.061  29.039  1.00  0.00    -0.354 N 
ATOM     46  C   UNL A   1      39.449  30.271  29.448  1.00  0.00     0.074 A 
ATOM     47  C   UNL A   1      38.404  29.702  28.641  1.00  0.00     0.031 C 
ATOM     48  C   UNL A   1      43.977  27.654  30.361  1.00  0.00     0.029 A 
ATOM     49  C   UNL A   1      44.349  26.716  29.319  1.00  0.00     0.049 A 
ATOM     50  H   UNL A   1      43.039  25.113  28.796  1.00  0.00     0.167 HD
ATOM     51  C   UNL A   1      39.596  31.279  30.352  1.00  0.00     0.037 A 
ATOM     52  C   UNL A   1      45.298  26.892  28.362  1.00  0.00     0.037 A 
ATOM     53  C   UNL A   1      41.022  31.407  30.699  1.00  0.00     0.049 A 
ATOM     54  C   UNL A   1      45.502  28.366  28.238  1.00  0.00     0.074 A 
ATOM     55  C   UNL A   1      41.783  31.075  31.806  1.00  0.00     0.029 A 
ATOM     56  N   UNL A   1      41.929  31.637  29.661  1.00  0.00    -0.354 N 
ATOM     57  N   UNL A   1      44.512  29.225  28.286  1.00  0.00    -0.248 NA
ATOM     58  C   UNL A   1      46.819  28.973  28.424  1.00  0.00     0.031 C 
ATOM     59  C   UNL A   1      43.151  31.023  31.390  1.00  0.00     0.029 A 
ATOM     60  C   UNL A   1      43.222  31.326  30.035  1.00  0.00     0.049 A 
ATOM     61  H   UNL A   1      41.678  31.978  28.772  1.00  0.00     0.167 HD
ATOM     62  C   UNL A   1      45.030  30.432  28.666  1.00  0.00     0.074 A 
ATOM     63  C   UNL A   1      46.473  30.238  28.709  1.00  0.00     0.031 C 
ATOM     64  C   UNL A   1      44.323  31.511  29.099  1.00  0.00     0.037 A 
BRANCH  51  65
ATOM     65  C   UNL A   1      38.487  32.079  31.020  1.00  0.00     0.058 A 
ATOM     66  C   UNL A   1      37.923  31.622  32.234  1.00  0.00     0.135 A 
ATOM     67  C   UNL A   1      37.874  33.247  30.511  1.00  0.00     0.135 A 
ATOM     68  F   UNL A   1      38.373  30.511  32.837  1.00  0.00    -0.206 F 
ATOM     69  C   UNL A   1      36.861  32.262  32.881  1.00  0.00     0.059 A 
ATOM     70  C   UNL A   1      36.825  33.918  31.151  1.00  0.00     0.059 A 
ATOM     71  F   UNL A   1      38.229  33.798  29.349  1.00  0.00    -0.206 F 
ATOM     72  C   UNL A   1      36.320  33.417  32.336  1.00  0.00     0.060 A 
BRANCH  72  73
ATOM     73  S   UNL A   1      34.967  34.246  33.191  1.00  0.00     0.124 S 
ATOM     74  O   UNL A   1      35.495  35.596  33.361  1.00  0.00    -0.237 OA
ATOM     75  O   UNL A   1      33.872  34.107  32.237  1.00  0.00    -0.237 OA
ATOM     76  O   UNL A   1      34.818  33.478  34.424  1.00  0.00    -0.744 OA
ENDBRANCH  72  73
ENDBRANCH  51  65
BRANCH  52  77
ATOM     77  C   UNL A   1      45.351  25.772  27.372  1.00  0.00     0.058 A 
ATOM     78  C   UNL A   1      45.747  24.525  27.895  1.00  0.00     0.135 A 
ATOM     79  C   UNL A   1      44.530  25.736  26.233  1.00  0.00     0.135 A 
ATOM     80  F   UNL A   1      46.572  24.484  28.956  1.00  0.00    -0.206 F 
ATOM     81  C   UNL A   1      45.191  23.321  27.460  1.00  0.00     0.059 A 
ATOM     82  C   UNL A   1      43.960  24.533  25.780  1.00  0.00     0.059 A 
ATOM     83  F   UNL A   1      44.134  26.878  25.651  1.00  0.00    -0.206 F 
ATOM     84  C   UNL A   1      44.233  23.344  26.454  1.00  0.00     0.060 A 
BRANCH  84  85
ATOM     85  S   UNL A   1      43.207  21.860  26.219  1.00  0.00     0.124 S 
ATOM     86  O   UNL A   1      42.295  22.285  25.166  1.00  0.00    -0.237 OA
ATOM     87  O   UNL A   1      44.191  20.853  25.823  1.00  0.00    -0.237 OA
ATOM     88  O   UNL A   1      42.617  21.653  27.535  1.00  0.00    -0.744 OA
ENDBRANCH  84  85
ENDBRANCH  52  77
BRANCH  64  89
ATOM     89  C   UNL A   1      44.696  32.877  28.589  1.00  0.00     0.058 A 
ATOM     90  C   UNL A   1      44.432  33.294  27.267  1.00  0.00     0.135 A 
ATOM     91  C   UNL A   1      45.180  33.878  29.459  1.00  0.00     0.135 A 
ATOM     92  F   UNL A   1      43.844  32.493  26.366  1.00  0.00    -0.206 F 
ATOM     93  C   UNL A   1      44.734  34.567  26.813  1.00  0.00     0.059 A 
ATOM     94  C   UNL A   1      45.423  35.180  29.042  1.00  0.00     0.059 A 
ATOM     95  F   UNL A   1      45.416  33.636  30.757  1.00  0.00    -0.206 F 
ATOM     96  C   UNL A   1      45.239  35.500  27.706  1.00  0.00     0.060 A 
BRANCH  96  97
ATOM     97  S   UNL A   1      45.652  37.130  27.087  1.00  0.00     0.124 S 
ATOM     98  O   UNL A   1      46.540  37.612  28.141  1.00  0.00    -0.237 OA
ATOM     99  O   UNL A   1      46.292  36.830  25.810  1.00  0.00    -0.237 OA
ATOM    100  O   UNL A   1      44.357  37.795  26.994  1.00  0.00    -0.744 OA
ENDBRANCH  96  97
ENDBRANCH  64  89
ENDBRANCH  38  39
ENDBRANCH  31  33
ENDBRANCH  30  31
ENDBRANCH  29  30
ENDBRANCH  28  29
ENDBRANCH  27  28
ENDBRANCH   1  27
TORSDOF 21
ENDMDL
MODEL 2
REMARK VINA RESULT:     -10.4      6.784     10.438
REMARK SMILES Cc1cc(OC(F)F)ccc1NC(=O)[C@@H]1CCCC[C@@H]1C(=O)OCCOCCOC(=O)c1ccc(-c2c3nc(c(-c4c(F)cc(S(=O)(=O)[O-])cc4F)c4ccc([nH]4)c(-c4c(F)cc(S(=O)(=O)[O-])cc4F)c4nc(c(-c5c(F)cc(S(=O)(=O)[O-])cc5F)c5ccc2[nH]5)C=C4)C=C3)cc1
REMARK SMILES IDX 25 1 24 2 23 3 21 4 22 5 20 6 15 7 16 8 17 9 19 10 18 11
REMARK SMILES IDX 13 12 12 13 14 15 11 16 1 17 2 18 3 19 4 20 10 21 9 22 5 23
REMARK SMILES IDX 6 24 7 25 8 26 26 27 27 28 28 29 29 30 30 31 31 32 32 33
REMARK SMILES IDX 33 34 97 35 34 36 96 37 35 38 36 39 37 40 90 41 38 42 95 43
REMARK SMILES IDX 89 44 91 45 39 46 94 47 88 48 87 49 40 51 74 52 53 53 73 54
REMARK SMILES IDX 54 55 57 56 72 57 92 58 55 59 56 60 71 62 93 63 58 64 41 65
REMARK SMILES IDX 42 66 51 67 43 68 44 69 50 70 52 71 45 72 46 73 47 74 48 75
REMARK SMILES IDX 49 76 75 77 76 78 85 79 77 80 78 81 84 82 86 83 79 84 80 85
REMARK SMILES IDX 81 86 82 87 83 88 59 89 60 90 69 91 61 92 62 93 68 94 70 95
REMARK SMILES IDX 63 96 64 97 65 98 66 99 67 100
REMARK H PARENT 12 14 91 50 57 61
REMARK Flexibility Score: inf
ROOT
ATOM      1  C   UNL A   1      46.986  28.442  25.964  1.00  0.00     0.202 C 
ENDROOT
BRANCH   1   2
ATOM      2  C   UNL A   1      46.215  28.216  27.232  1.00  0.00     0.261 C 
BRANCH   2   3
ATOM      3  O   UNL A   1      44.910  27.638  26.977  1.00  0.00    -0.463 OA
BRANCH   3   4
ATOM      4  C   UNL A   1      43.757  28.361  27.044  1.00  0.00     0.309 C 
ATOM      5  O   UNL A   1      43.535  29.434  26.526  1.00  0.00    -0.252 OA
BRANCH   4   6
ATOM      6  C   UNL A   1      42.774  27.653  27.963  1.00  0.00     0.111 C 
ATOM      7  C   UNL A   1      41.466  27.160  27.282  1.00  0.00     0.093 C 
ATOM      8  C   UNL A   1      40.378  28.264  27.222  1.00  0.00     0.014 C 
ATOM      9  C   UNL A   1      40.211  29.088  28.493  1.00  0.00     0.001 C 
ATOM     10  C   UNL A   1      42.503  28.463  29.242  1.00  0.00     0.016 C 
ATOM     11  C   UNL A   1      41.537  29.614  29.015  1.00  0.00     0.001 C 
BRANCH   7  12
ATOM     12  C   UNL A   1      41.601  26.482  25.879  1.00  0.00     0.228 C 
ATOM     13  N   UNL A   1      41.516  25.116  25.682  1.00  0.00    -0.326 N 
ATOM     14  H   UNL A   1      41.671  24.809  24.760  1.00  0.00     0.169 HD
ATOM     15  O   UNL A   1      41.811  27.176  24.876  1.00  0.00    -0.274 OA
BRANCH  13  16
ATOM     16  C   UNL A   1      41.238  24.104  26.620  1.00  0.00     0.044 A 
ATOM     17  C   UNL A   1      38.693  24.271  26.460  1.00  0.00     0.047 C 
ATOM     18  C   UNL A   1      39.969  23.515  26.689  1.00  0.00    -0.024 A 
ATOM     19  C   UNL A   1      39.897  22.169  27.096  1.00  0.00     0.052 A 
ATOM     20  C   UNL A   1      41.036  21.495  27.538  1.00  0.00     0.126 A 
ATOM     21  C   UNL A   1      42.264  23.551  27.372  1.00  0.00     0.030 A 
ATOM     22  C   UNL A   1      42.180  22.234  27.807  1.00  0.00     0.049 A 
BRANCH  20  23
ATOM     23  O   UNL A   1      40.931  20.144  27.706  1.00  0.00    -0.435 OA
BRANCH  23  24
ATOM     24  C   UNL A   1      42.053  19.372  27.270  1.00  0.00     0.542 C 
ATOM     25  F   UNL A   1      42.413  18.460  28.207  1.00  0.00    -0.167 F 
ATOM     26  F   UNL A   1      41.714  18.697  26.142  1.00  0.00    -0.167 F 
ENDBRANCH  23  24
ENDBRANCH  20  23
ENDBRANCH  13  16
ENDBRANCH   7  12
ENDBRANCH   4   6
ENDBRANCH   3   4
ENDBRANCH   2   3
ENDBRANCH   1   2
BRANCH   1  27
ATOM     27  O   UNL A   1      46.873  27.210  25.272  1.00  0.00    -0.374 OA
BRANCH  27  28
ATOM     28  C   UNL A   1      47.930  26.298  25.394  1.00  0.00     0.202 C 
BRANCH  28  29
ATOM     29  C   UNL A   1      47.445  24.877  25.623  1.00  0.00     0.261 C 
BRANCH  29  30
ATOM     30  O   UNL A   1      47.458  24.499  27.019  1.00  0.00    -0.460 OA
BRANCH  30  31
ATOM     31  C   UNL A   1      46.278  24.054  27.546  1.00  0.00     0.338 C 
ATOM     32  O   UNL A   1      45.672  23.084  27.117  1.00  0.00    -0.246 OA
BRANCH  31  33
ATOM     33  C   UNL A   1      45.906  24.819  28.770  1.00  0.00     0.060 A 
ATOM     34  C   UNL A   1      46.871  25.451  29.572  1.00  0.00     0.016 A 
ATOM     35  C   UNL A   1      44.595  24.727  29.217  1.00  0.00     0.016 A 
ATOM     36  C   UNL A   1      46.558  25.825  30.892  1.00  0.00     0.010 A 
ATOM     37  C   UNL A   1      44.346  24.944  30.553  1.00  0.00     0.010 A 
ATOM     38  C   UNL A   1      45.323  25.471  31.417  1.00  0.00    -0.014 A 
BRANCH  38  39
ATOM     39  C   UNL A   1      44.863  25.599  32.809  1.00  0.00     0.031 A 
ATOM     40  C   UNL A   1      44.382  26.956  33.192  1.00  0.00     0.074 A 
ATOM     41  C   UNL A   1      44.576  24.526  33.593  1.00  0.00     0.049 A 
ATOM     42  N   UNL A   1      43.797  27.235  34.296  1.00  0.00    -0.248 NA
ATOM     43  C   UNL A   1      44.502  28.135  32.328  1.00  0.00     0.031 C 
ATOM     44  C   UNL A   1      43.643  24.458  34.723  1.00  0.00     0.029 A 
ATOM     45  N   UNL A   1      45.091  23.219  33.579  1.00  0.00    -0.354 N 
ATOM     46  C   UNL A   1      43.219  28.479  34.194  1.00  0.00     0.074 A 
ATOM     47  C   UNL A   1      43.741  29.025  32.970  1.00  0.00     0.031 C 
ATOM     48  C   UNL A   1      43.917  23.374  35.470  1.00  0.00     0.029 A 
ATOM     49  C   UNL A   1      45.110  22.771  34.904  1.00  0.00     0.049 A 
ATOM     50  H   UNL A   1      45.385  22.714  32.787  1.00  0.00     0.167 HD
ATOM     51  C   UNL A   1      42.302  28.816  35.144  1.00  0.00     0.037 A 
ATOM     52  C   UNL A   1      46.278  22.511  35.547  1.00  0.00     0.037 A 
ATOM     53  C   UNL A   1      42.373  27.840  36.245  1.00  0.00     0.049 A 
ATOM     54  C   UNL A   1      46.311  23.410  36.739  1.00  0.00     0.074 A 
ATOM     55  C   UNL A   1      41.572  26.792  36.662  1.00  0.00     0.029 A 
ATOM     56  N   UNL A   1      43.601  27.667  36.888  1.00  0.00    -0.354 N 
ATOM     57  N   UNL A   1      45.894  24.654  36.700  1.00  0.00    -0.248 NA
ATOM     58  C   UNL A   1      46.456  22.878  38.093  1.00  0.00     0.031 C 
ATOM     59  C   UNL A   1      42.369  25.942  37.493  1.00  0.00     0.029 A 
ATOM     60  C   UNL A   1      43.650  26.475  37.584  1.00  0.00     0.049 A 
ATOM     61  H   UNL A   1      44.341  28.316  36.850  1.00  0.00     0.167 HD
ATOM     62  C   UNL A   1      45.565  25.018  37.976  1.00  0.00     0.074 A 
ATOM     63  C   UNL A   1      45.961  23.895  38.815  1.00  0.00     0.031 C 
ATOM     64  C   UNL A   1      44.842  26.113  38.339  1.00  0.00     0.037 A 
BRANCH  51  65
ATOM     65  C   UNL A   1      41.267  29.929  35.064  1.00  0.00     0.058 A 
ATOM     66  C   UNL A   1      41.264  30.957  36.036  1.00  0.00     0.135 A 
ATOM     67  C   UNL A   1      40.212  30.025  34.128  1.00  0.00     0.135 A 
ATOM     68  F   UNL A   1      42.183  30.997  37.012  1.00  0.00    -0.206 F 
ATOM     69  C   UNL A   1      40.312  31.981  36.072  1.00  0.00     0.059 A 
ATOM     70  C   UNL A   1      39.261  31.053  34.131  1.00  0.00     0.059 A 
ATOM     71  F   UNL A   1      40.014  29.118  33.170  1.00  0.00    -0.206 F 
ATOM     72  C   UNL A   1      39.314  32.028  35.109  1.00  0.00     0.060 A 
BRANCH  72  73
ATOM     73  S   UNL A   1      38.107  33.365  35.153  1.00  0.00     0.124 S 
ATOM     74  O   UNL A   1      38.052  33.771  33.752  1.00  0.00    -0.237 OA
ATOM     75  O   UNL A   1      36.921  32.689  35.666  1.00  0.00    -0.237 OA
ATOM     76  O   UNL A   1      38.708  34.340  36.059  1.00  0.00    -0.744 OA
ENDBRANCH  72  73
ENDBRANCH  51  65
BRANCH  52  77
ATOM     77  C   UNL A   1      47.345  21.987  34.640  1.00  0.00     0.058 A 
ATOM     78  C   UNL A   1      48.471  22.822  34.489  1.00  0.00     0.135 A 
ATOM     79  C   UNL A   1      47.561  20.612  34.449  1.00  0.00     0.135 A 
ATOM     80  F   UNL A   1      48.328  24.153  34.611  1.00  0.00    -0.206 F 
ATOM     81  C   UNL A   1      49.768  22.316  34.378  1.00  0.00     0.059 A 
ATOM     82  C   UNL A   1      48.860  20.084  34.335  1.00  0.00     0.059 A 
ATOM     83  F   UNL A   1      46.539  19.750  34.541  1.00  0.00    -0.206 F 
ATOM     84  C   UNL A   1      49.959  20.941  34.386  1.00  0.00     0.060 A 
BRANCH  84  85
ATOM     85  S   UNL A   1      51.639  20.316  34.695  1.00  0.00     0.124 S 
ATOM     86  O   UNL A   1      52.287  20.537  33.409  1.00  0.00    -0.237 OA
ATOM     87  O   UNL A   1      52.103  21.176  35.783  1.00  0.00    -0.237 OA
ATOM     88  O   UNL A   1      51.413  18.926  35.070  1.00  0.00    -0.744 OA
ENDBRANCH  84  85
ENDBRANCH  52  77
BRANCH  64  89
ATOM     89  C   UNL A   1      45.302  26.931  39.516  1.00  0.00     0.058 A 
ATOM     90  C   UNL A   1      46.135  28.061  39.378  1.00  0.00     0.135 A 
ATOM     91  C   UNL A   1      44.785  26.708  40.811  1.00  0.00     0.135 A 
ATOM     92  F   UNL A   1      46.589  28.477  38.186  1.00  0.00    -0.206 F 
ATOM     93  C   UNL A   1      46.519  28.839  40.458  1.00  0.00     0.059 A 
ATOM     94  C   UNL A   1      45.101  27.518  41.894  1.00  0.00     0.059 A 
ATOM     95  F   UNL A   1      43.934  25.705  41.071  1.00  0.00    -0.206 F 
ATOM     96  C   UNL A   1      46.006  28.552  41.713  1.00  0.00     0.060 A 
BRANCH  96  97
ATOM     97  S   UNL A   1      46.543  29.554  43.099  1.00  0.00     0.124 S 
ATOM     98  O   UNL A   1      46.456  28.589  44.191  1.00  0.00    -0.237 OA
ATOM     99  O   UNL A   1      47.894  29.940  42.703  1.00  0.00    -0.237 OA
ATOM    100  O   UNL A   1      45.570  30.639  43.130  1.00  0.00    -0.744 OA
ENDBRANCH  96  97
ENDBRANCH  64  89
ENDBRANCH  38  39
ENDBRANCH  31  33
ENDBRANCH  30  31
ENDBRANCH  29  30
ENDBRANCH  28  29
ENDBRANCH  27  28
ENDBRANCH   1  27
TORSDOF 21
ENDMDL
MODEL 3
REMARK VINA RESULT:     -10.2      5.127     11.008
REMARK SMILES Cc1cc(OC(F)F)ccc1NC(=O)[C@@H]1CCCC[C@@H]1C(=O)OCCOCCOC(=O)c1ccc(-c2c3nc(c(-c4c(F)cc(S(=O)(=O)[O-])cc4F)c4ccc([nH]4)c(-c4c(F)cc(S(=O)(=O)[O-])cc4F)c4nc(c(-c5c(F)cc(S(=O)(=O)[O-])cc5F)c5ccc2[nH]5)C=C4)C=C3)cc1
REMARK SMILES IDX 25 1 24 2 23 3 21 4 22 5 20 6 15 7 16 8 17 9 19 10 18 11
REMARK SMILES IDX 13 12 12 13 14 15 11 16 1 17 2 18 3 19 4 20 10 21 9 22 5 23
REMARK SMILES IDX 6 24 7 25 8 26 26 27 27 28 28 29 29 30 30 31 31 32 32 33
REMARK SMILES IDX 33 34 97 35 34 36 96 37 35 38 36 39 37 40 90 41 38 42 95 43
REMARK SMILES IDX 89 44 91 45 39 46 94 47 88 48 87 49 40 51 74 52 53 53 73 54
REMARK SMILES IDX 54 55 57 56 72 57 92 58 55 59 56 60 71 62 93 63 58 64 41 65
REMARK SMILES IDX 42 66 51 67 43 68 44 69 50 70 52 71 45 72 46 73 47 74 48 75
REMARK SMILES IDX 49 76 75 77 76 78 85 79 77 80 78 81 84 82 86 83 79 84 80 85
REMARK SMILES IDX 81 86 82 87 83 88 59 89 60 90 69 91 61 92 62 93 68 94 70 95
REMARK SMILES IDX 63 96 64 97 65 98 66 99 67 100
REMARK H PARENT 12 14 91 50 57 61
REMARK Flexibility Score: inf
ROOT
ATOM      1  C   UNL A   1      39.459  30.579  34.092  1.00  0.00     0.202 C 
ENDROOT
BRANCH   1   2
ATOM      2  C   UNL A   1      40.084  30.297  32.757  1.00  0.00     0.261 C 
BRANCH   2   3
ATOM      3  O   UNL A   1      39.883  28.922  32.344  1.00  0.00    -0.463 OA
BRANCH   3   4
ATOM      4  C   UNL A   1      39.553  28.574  31.068  1.00  0.00     0.309 C 
ATOM      5  O   UNL A   1      39.400  27.454  30.632  1.00  0.00    -0.252 OA
BRANCH   4   6
ATOM      6  C   UNL A   1      39.483  29.827  30.210  1.00  0.00     0.111 C 
ATOM      7  C   UNL A   1      38.101  30.105  29.554  1.00  0.00     0.093 C 
ATOM      8  C   UNL A   1      37.924  29.358  28.207  1.00  0.00     0.014 C 
ATOM      9  C   UNL A   1      39.133  29.386  27.279  1.00  0.00     0.001 C 
ATOM     10  C   UNL A   1      40.639  29.891  29.197  1.00  0.00     0.016 C 
ATOM     11  C   UNL A   1      40.414  28.992  27.992  1.00  0.00     0.001 C 
BRANCH   7  12
ATOM     12  C   UNL A   1      36.831  29.891  30.442  1.00  0.00     0.228 C 
ATOM     13  N   UNL A   1      35.721  30.713  30.393  1.00  0.00    -0.326 N 
ATOM     14  H   UNL A   1      35.009  30.504  31.040  1.00  0.00     0.169 HD
ATOM     15  O   UNL A   1      36.795  28.954  31.250  1.00  0.00    -0.274 OA
BRANCH  13  16
ATOM     16  C   UNL A   1      35.469  31.809  29.546  1.00  0.00     0.044 A 
ATOM     17  C   UNL A   1      34.514  30.444  27.608  1.00  0.00     0.047 C 
ATOM     18  C   UNL A   1      34.611  31.686  28.446  1.00  0.00    -0.024 A 
ATOM     19  C   UNL A   1      33.884  32.827  28.055  1.00  0.00     0.052 A 
ATOM     20  C   UNL A   1      34.114  34.062  28.663  1.00  0.00     0.126 A 
ATOM     21  C   UNL A   1      35.927  33.073  29.887  1.00  0.00     0.030 A 
ATOM     22  C   UNL A   1      35.233  34.202  29.472  1.00  0.00     0.049 A 
BRANCH  20  23
ATOM     23  O   UNL A   1      33.228  35.063  28.386  1.00  0.00    -0.435 OA
BRANCH  23  24
ATOM     24  C   UNL A   1      33.351  36.242  29.186  1.00  0.00     0.542 C 
ATOM     25  F   UNL A   1      33.241  37.361  28.428  1.00  0.00    -0.167 F 
ATOM     26  F   UNL A   1      32.348  36.261  30.102  1.00  0.00    -0.167 F 
ENDBRANCH  23  24
ENDBRANCH  20  23
ENDBRANCH  13  16
ENDBRANCH   7  12
ENDBRANCH   4   6
ENDBRANCH   3   4
ENDBRANCH   2   3
ENDBRANCH   1   2
BRANCH   1  27
ATOM     27  O   UNL A   1      38.145  31.001  33.771  1.00  0.00    -0.374 OA
BRANCH  27  28
ATOM     28  C   UNL A   1      37.504  31.866  34.669  1.00  0.00     0.202 C 
BRANCH  28  29
ATOM     29  C   UNL A   1      36.613  32.874  33.964  1.00  0.00     0.261 C 
BRANCH  29  30
ATOM     30  O   UNL A   1      37.298  33.584  32.907  1.00  0.00    -0.460 OA
BRANCH  30  31
ATOM     31  C   UNL A   1      38.311  34.422  33.284  1.00  0.00     0.338 C 
ATOM     32  O   UNL A   1      38.213  35.227  34.197  1.00  0.00    -0.246 OA
BRANCH  31  33
ATOM     33  C   UNL A   1      39.564  34.134  32.531  1.00  0.00     0.060 A 
ATOM     34  C   UNL A   1      40.817  34.594  32.969  1.00  0.00     0.016 A 
ATOM     35  C   UNL A   1      39.444  33.567  31.269  1.00  0.00     0.016 A 
ATOM     36  C   UNL A   1      41.902  34.649  32.075  1.00  0.00     0.010 A 
ATOM     37  C   UNL A   1      40.458  33.775  30.362  1.00  0.00     0.010 A 
ATOM     38  C   UNL A   1      41.690  34.339  30.739  1.00  0.00    -0.014 A 
BRANCH  38  39
ATOM     39  C   UNL A   1      42.625  34.503  29.616  1.00  0.00     0.031 A 
ATOM     40  C   UNL A   1      43.537  33.348  29.381  1.00  0.00     0.074 A 
ATOM     41  C   UNL A   1      42.470  35.455  28.658  1.00  0.00     0.049 A 
ATOM     42  N   UNL A   1      44.308  33.224  28.366  1.00  0.00    -0.248 NA
ATOM     43  C   UNL A   1      43.639  32.196  30.283  1.00  0.00     0.031 C 
ATOM     44  C   UNL A   1      42.935  35.422  27.267  1.00  0.00     0.029 A 
ATOM     45  N   UNL A   1      41.870  36.724  28.719  1.00  0.00    -0.354 N 
ATOM     46  C   UNL A   1      44.764  31.928  28.306  1.00  0.00     0.074 A 
ATOM     47  C   UNL A   1      44.369  31.344  29.559  1.00  0.00     0.031 C 
ATOM     48  C   UNL A   1      42.939  36.668  26.762  1.00  0.00     0.029 A 
ATOM     49  C   UNL A   1      42.582  37.557  27.851  1.00  0.00     0.049 A 
ATOM     50  H   UNL A   1      41.094  36.979  29.270  1.00  0.00     0.167 HD
ATOM     51  C   UNL A   1      45.341  31.528  27.139  1.00  0.00     0.037 A 
ATOM     52  C   UNL A   1      43.303  38.612  28.316  1.00  0.00     0.037 A 
ATOM     53  C   UNL A   1      45.597  32.712  26.301  1.00  0.00     0.049 A 
ATOM     54  C   UNL A   1      44.715  38.375  27.891  1.00  0.00     0.074 A 
ATOM     55  C   UNL A   1      45.010  33.239  25.164  1.00  0.00     0.029 A 
ATOM     56  N   UNL A   1      46.391  33.731  26.834  1.00  0.00    -0.354 N 
ATOM     57  N   UNL A   1      45.274  37.188  27.920  1.00  0.00    -0.248 NA
ATOM     58  C   UNL A   1      45.444  39.350  27.082  1.00  0.00     0.031 C 
ATOM     59  C   UNL A   1      45.395  34.615  25.077  1.00  0.00     0.029 A 
ATOM     60  C   UNL A   1      46.216  34.921  26.156  1.00  0.00     0.049 A 
ATOM     61  H   UNL A   1      46.999  33.615  27.599  1.00  0.00     0.167 HD
ATOM     62  C   UNL A   1      46.308  37.197  27.026  1.00  0.00     0.074 A 
ATOM     63  C   UNL A   1      46.399  38.572  26.551  1.00  0.00     0.031 C 
ATOM     64  C   UNL A   1      46.968  36.107  26.546  1.00  0.00     0.037 A 
BRANCH  51  65
ATOM     65  C   UNL A   1      45.579  30.097  26.678  1.00  0.00     0.058 A 
ATOM     66  C   UNL A   1      44.480  29.224  26.501  1.00  0.00     0.135 A 
ATOM     67  C   UNL A   1      46.834  29.484  26.463  1.00  0.00     0.135 A 
ATOM     68  F   UNL A   1      43.220  29.641  26.691  1.00  0.00    -0.206 F 
ATOM     69  C   UNL A   1      44.614  27.879  26.140  1.00  0.00     0.059 A 
ATOM     70  C   UNL A   1      46.993  28.147  26.081  1.00  0.00     0.059 A 
ATOM     71  F   UNL A   1      47.989  30.129  26.637  1.00  0.00    -0.206 F 
ATOM     72  C   UNL A   1      45.876  27.347  25.924  1.00  0.00     0.060 A 
BRANCH  72  73
ATOM     73  S   UNL A   1      46.035  25.619  25.438  1.00  0.00     0.124 S 
ATOM     74  O   UNL A   1      44.679  25.301  24.999  1.00  0.00    -0.237 OA
ATOM     75  O   UNL A   1      47.043  25.688  24.386  1.00  0.00    -0.237 OA
ATOM     76  O   UNL A   1      46.461  24.954  26.666  1.00  0.00    -0.744 OA
ENDBRANCH  72  73
ENDBRANCH  51  65
BRANCH  52  77
ATOM     77  C   UNL A   1      42.700  39.251  29.525  1.00  0.00     0.058 A 
ATOM     78  C   UNL A   1      43.452  39.125  30.711  1.00  0.00     0.135 A 
ATOM     79  C   UNL A   1      41.853  40.369  29.441  1.00  0.00     0.135 A 
ATOM     80  F   UNL A   1      44.247  38.055  30.879  1.00  0.00    -0.206 F 
ATOM     81  C   UNL A   1      43.533  40.149  31.657  1.00  0.00     0.059 A 
ATOM     82  C   UNL A   1      41.921  41.410  30.385  1.00  0.00     0.059 A 
ATOM     83  F   UNL A   1      41.078  40.549  28.362  1.00  0.00    -0.206 F 
ATOM     84  C   UNL A   1      42.826  41.325  31.442  1.00  0.00     0.060 A 
BRANCH  84  85
ATOM     85  S   UNL A   1      43.287  42.787  32.420  1.00  0.00     0.124 S 
ATOM     86  O   UNL A   1      44.650  43.036  31.970  1.00  0.00    -0.237 OA
ATOM     87  O   UNL A   1      42.300  43.779  31.995  1.00  0.00    -0.237 OA
ATOM     88  O   UNL A   1      43.138  42.328  33.795  1.00  0.00    -0.744 OA
ENDBRANCH  84  85
ENDBRANCH  52  77
BRANCH  64  89
ATOM     89  C   UNL A   1      48.469  36.154  26.440  1.00  0.00     0.058 A 
ATOM     90  C   UNL A   1      49.137  36.831  25.398  1.00  0.00     0.135 A 
ATOM     91  C   UNL A   1      49.292  35.663  27.476  1.00  0.00     0.135 A 
ATOM     92  F   UNL A   1      48.479  37.467  24.418  1.00  0.00    -0.206 F 
ATOM     93  C   UNL A   1      50.517  36.912  25.328  1.00  0.00     0.059 A 
ATOM     94  C   UNL A   1      50.675  35.796  27.461  1.00  0.00     0.059 A 
ATOM     95  F   UNL A   1      48.785  35.052  28.557  1.00  0.00    -0.206 F 
ATOM     96  C   UNL A   1      51.278  36.382  26.359  1.00  0.00     0.060 A 
BRANCH  96  97
ATOM     97  S   UNL A   1      53.063  36.471  26.230  1.00  0.00     0.124 S 
ATOM     98  O   UNL A   1      53.383  37.336  27.362  1.00  0.00    -0.237 OA
ATOM     99  O   UNL A   1      53.460  35.073  26.371  1.00  0.00    -0.237 OA
ATOM    100  O   UNL A   1      53.279  37.050  24.909  1.00  0.00    -0.744 OA
ENDBRANCH  96  97
ENDBRANCH  64  89
ENDBRANCH  38  39
ENDBRANCH  31  33
ENDBRANCH  30  31
ENDBRANCH  29  30
ENDBRANCH  28  29
ENDBRANCH  27  28
ENDBRANCH   1  27
TORSDOF 21
ENDMDL
