MODEL 1
REMARK VINA RESULT:     -11.3      0.000      0.000
REMARK SMILES C[C@@H](Cc1cnn(-c2ccccc2)n1)C(=O)OCCOCCOC(=O)c1ccc(-c2c3nc(c(-c4c(F)cc(S(=O)(=O)[O-])cc4F)c4ccc([nH]4)c(-c4c(F)cc(S(=O)(=O)[O-])cc4F)c4nc(c(-c5c(F)cc(S(=O)(=O)[O-])cc5F)c5ccc2[nH]5)C=C4)C=C3)cc1
REMARK SMILES IDX 20 1 19 2 18 3 17 4 15 5 16 6 2 7 1 8 3 9 4 10 5 11 14 12
REMARK SMILES IDX 6 13 7 14 8 15 9 16 13 17 10 18 12 19 11 20 21 21 22 22
REMARK SMILES IDX 23 23 24 24 25 25 26 26 27 27 91 28 28 29 90 30 29 31 30 32
REMARK SMILES IDX 31 33 84 34 32 35 89 36 83 37 85 38 33 39 88 40 82 41 81 42
REMARK SMILES IDX 34 44 68 45 47 46 67 47 48 48 51 49 66 50 86 51 49 52 50 53
REMARK SMILES IDX 65 55 87 56 52 57 35 58 36 59 45 60 37 61 38 62 44 63 46 64
REMARK SMILES IDX 39 65 40 66 41 67 42 68 43 69 69 70 70 71 79 72 71 73 72 74
REMARK SMILES IDX 78 75 80 76 73 77 74 78 75 79 76 80 77 81 53 82 54 83 63 84
REMARK SMILES IDX 55 85 56 86 62 87 64 88 57 89 58 90 59 91 60 92 61 93
REMARK H PARENT 85 43 51 54
REMARK Flexibility Score: inf
ROOT
ATOM      1  O   UNL A   1      40.515  20.618  27.195  1.00  0.00    -0.374 OA
ENDROOT
BRANCH   1   2
ATOM      2  C   UNL A   1      40.077  21.577  26.234  1.00  0.00     0.202 C 
BRANCH   2   3
ATOM      3  C   UNL A   1      38.716  21.339  25.578  1.00  0.00     0.261 C 
BRANCH   3   4
ATOM      4  O   UNL A   1      37.670  22.094  26.214  1.00  0.00    -0.463 OA
BRANCH   4   5
ATOM      5  C   UNL A   1      37.480  23.361  25.760  1.00  0.00     0.309 C 
ATOM      6  O   UNL A   1      38.244  24.300  25.943  1.00  0.00    -0.252 OA
BRANCH   5   7
ATOM      7  C   UNL A   1      36.177  23.510  24.989  1.00  0.00     0.102 C 
ATOM      8  C   UNL A   1      36.182  22.904  23.583  1.00  0.00     0.020 C 
BRANCH   7   9
ATOM      9  C   UNL A   1      35.002  23.046  25.862  1.00  0.00     0.075 C 
BRANCH   9  10
ATOM     10  C   UNL A   1      34.165  21.966  25.269  1.00  0.00     0.084 A 
ATOM     11  C   UNL A   1      33.186  22.020  24.263  1.00  0.00     0.161 A 
ATOM     12  N   UNL A   1      34.314  20.693  25.660  1.00  0.00    -0.153 NA
ATOM     13  N   UNL A   1      32.872  20.790  23.866  1.00  0.00    -0.157 NA
ATOM     14  N   UNL A   1      33.552  20.025  24.754  1.00  0.00    -0.151 N 
BRANCH  14  15
ATOM     15  C   UNL A   1      33.461  18.619  24.734  1.00  0.00     0.086 A 
ATOM     16  C   UNL A   1      32.705  17.964  25.715  1.00  0.00     0.030 A 
ATOM     17  C   UNL A   1      34.154  17.892  23.761  1.00  0.00     0.030 A 
ATOM     18  C   UNL A   1      32.637  16.573  25.714  1.00  0.00     0.002 A 
ATOM     19  C   UNL A   1      34.131  16.499  23.807  1.00  0.00     0.002 A 
ATOM     20  C   UNL A   1      33.366  15.842  24.775  1.00  0.00     0.000 A 
ENDBRANCH  14  15
ENDBRANCH   9  10
ENDBRANCH   7   9
ENDBRANCH   5   7
ENDBRANCH   4   5
ENDBRANCH   3   4
ENDBRANCH   2   3
ENDBRANCH   1   2
BRANCH   1  21
ATOM     21  C   UNL A   1      41.898  20.296  27.270  1.00  0.00     0.202 C 
BRANCH  21  22
ATOM     22  C   UNL A   1      42.473  19.343  26.231  1.00  0.00     0.261 C 
BRANCH  22  23
ATOM     23  O   UNL A   1      42.995  20.008  25.087  1.00  0.00    -0.460 OA
BRANCH  23  24
ATOM     24  C   UNL A   1      44.282  20.410  25.245  1.00  0.00     0.338 C 
ATOM     25  O   UNL A   1      45.255  19.695  25.374  1.00  0.00    -0.246 OA
BRANCH  24  26
ATOM     26  C   UNL A   1      44.302  21.863  25.456  1.00  0.00     0.060 A 
ATOM     27  C   UNL A   1      45.025  22.303  26.565  1.00  0.00     0.016 A 
ATOM     28  C   UNL A   1      43.410  22.702  24.772  1.00  0.00     0.016 A 
ATOM     29  C   UNL A   1      44.695  23.521  27.114  1.00  0.00     0.010 A 
ATOM     30  C   UNL A   1      43.077  23.918  25.328  1.00  0.00     0.010 A 
ATOM     31  C   UNL A   1      43.667  24.277  26.535  1.00  0.00    -0.014 A 
BRANCH  31  32
ATOM     32  C   UNL A   1      43.377  25.563  27.134  1.00  0.00     0.031 A 
ATOM     33  C   UNL A   1      44.450  26.536  26.840  1.00  0.00     0.074 A 
ATOM     34  C   UNL A   1      42.268  25.847  27.842  1.00  0.00     0.049 A 
ATOM     35  N   UNL A   1      45.413  26.873  27.629  1.00  0.00    -0.248 NA
ATOM     36  C   UNL A   1      44.631  26.975  25.448  1.00  0.00     0.031 C 
ATOM     37  C   UNL A   1      41.046  25.057  27.983  1.00  0.00     0.029 A 
ATOM     38  N   UNL A   1      41.983  26.975  28.549  1.00  0.00    -0.354 N 
ATOM     39  C   UNL A   1      46.168  27.790  26.911  1.00  0.00     0.074 A 
ATOM     40  C   UNL A   1      45.796  27.619  25.533  1.00  0.00     0.031 C 
ATOM     41  C   UNL A   1      40.078  25.828  28.537  1.00  0.00     0.029 A 
ATOM     42  C   UNL A   1      40.647  27.112  28.917  1.00  0.00     0.049 A 
ATOM     43  H   UNL A   1      42.668  27.642  28.783  1.00  0.00     0.167 HD
ATOM     44  C   UNL A   1      46.794  28.812  27.555  1.00  0.00     0.037 A 
ATOM     45  C   UNL A   1      40.068  28.225  29.445  1.00  0.00     0.037 A 
ATOM     46  C   UNL A   1      46.892  28.540  28.970  1.00  0.00     0.049 A 
ATOM     47  C   UNL A   1      41.163  29.048  30.028  1.00  0.00     0.074 A 
ATOM     48  C   UNL A   1      47.456  27.534  29.732  1.00  0.00     0.029 A 
ATOM     49  N   UNL A   1      45.995  29.181  29.791  1.00  0.00    -0.354 N 
ATOM     50  N   UNL A   1      41.852  28.693  31.078  1.00  0.00    -0.248 NA
ATOM     51  C   UNL A   1      41.806  30.029  29.166  1.00  0.00     0.031 C 
ATOM     52  C   UNL A   1      46.549  27.332  30.812  1.00  0.00     0.029 A 
ATOM     53  C   UNL A   1      45.525  28.273  30.702  1.00  0.00     0.049 A 
ATOM     54  H   UNL A   1      45.737  30.129  29.734  1.00  0.00     0.167 HD
ATOM     55  C   UNL A   1      43.160  29.042  30.776  1.00  0.00     0.074 A 
ATOM     56  C   UNL A   1      43.056  29.936  29.623  1.00  0.00     0.031 C 
ATOM     57  C   UNL A   1      44.211  28.348  31.302  1.00  0.00     0.037 A 
BRANCH  44  58
ATOM     58  C   UNL A   1      46.913  30.210  26.993  1.00  0.00     0.058 A 
ATOM     59  C   UNL A   1      48.168  30.849  27.035  1.00  0.00     0.135 A 
ATOM     60  C   UNL A   1      45.816  31.047  26.688  1.00  0.00     0.135 A 
ATOM     61  F   UNL A   1      49.281  30.157  27.325  1.00  0.00    -0.206 F 
ATOM     62  C   UNL A   1      48.311  32.226  26.865  1.00  0.00     0.059 A 
ATOM     63  C   UNL A   1      45.943  32.410  26.459  1.00  0.00     0.059 A 
ATOM     64  F   UNL A   1      44.550  30.616  26.687  1.00  0.00    -0.206 F 
ATOM     65  C   UNL A   1      47.189  32.997  26.587  1.00  0.00     0.060 A 
BRANCH  65  66
ATOM     66  S   UNL A   1      47.357  34.780  26.423  1.00  0.00     0.124 S 
ATOM     67  O   UNL A   1      47.844  34.901  25.054  1.00  0.00    -0.237 OA
ATOM     68  O   UNL A   1      45.990  35.231  26.661  1.00  0.00    -0.237 OA
ATOM     69  O   UNL A   1      48.315  35.124  27.469  1.00  0.00    -0.744 OA
ENDBRANCH  65  66
ENDBRANCH  44  58
BRANCH  45  70
ATOM     70  C   UNL A   1      38.716  28.797  29.180  1.00  0.00     0.058 A 
ATOM     71  C   UNL A   1      37.799  29.016  30.229  1.00  0.00     0.135 A 
ATOM     72  C   UNL A   1      38.410  29.426  27.959  1.00  0.00     0.135 A 
ATOM     73  F   UNL A   1      38.012  28.470  31.437  1.00  0.00    -0.206 F 
ATOM     74  C   UNL A   1      36.687  29.858  30.094  1.00  0.00     0.059 A 
ATOM     75  C   UNL A   1      37.305  30.263  27.797  1.00  0.00     0.059 A 
ATOM     76  F   UNL A   1      39.233  29.325  26.904  1.00  0.00    -0.206 F 
ATOM     77  C   UNL A   1      36.463  30.499  28.878  1.00  0.00     0.060 A 
BRANCH  77  78
ATOM     78  S   UNL A   1      35.148  31.737  28.748  1.00  0.00     0.124 S 
ATOM     79  O   UNL A   1      34.902  32.065  30.147  1.00  0.00    -0.237 OA
ATOM     80  O   UNL A   1      35.782  32.781  27.950  1.00  0.00    -0.237 OA
ATOM     81  O   UNL A   1      34.069  31.015  28.077  1.00  0.00    -0.744 OA
ENDBRANCH  77  78
ENDBRANCH  45  70
BRANCH  57  82
ATOM     82  C   UNL A   1      43.960  27.452  32.487  1.00  0.00     0.058 A 
ATOM     83  C   UNL A   1      43.851  26.050  32.443  1.00  0.00     0.135 A 
ATOM     84  C   UNL A   1      43.968  28.055  33.755  1.00  0.00     0.135 A 
ATOM     85  F   UNL A   1      43.937  25.386  31.281  1.00  0.00    -0.206 F 
ATOM     86  C   UNL A   1      43.709  25.291  33.608  1.00  0.00     0.059 A 
ATOM     87  C   UNL A   1      43.866  27.317  34.928  1.00  0.00     0.059 A 
ATOM     88  F   UNL A   1      44.125  29.384  33.867  1.00  0.00    -0.206 F 
ATOM     89  C   UNL A   1      43.719  25.936  34.847  1.00  0.00     0.060 A 
BRANCH  89  90
ATOM     90  S   UNL A   1      43.589  24.957  36.359  1.00  0.00     0.124 S 
ATOM     91  O   UNL A   1      44.281  23.727  35.989  1.00  0.00    -0.237 OA
ATOM     92  O   UNL A   1      44.268  25.798  37.340  1.00  0.00    -0.237 OA
ATOM     93  O   UNL A   1      42.147  24.824  36.558  1.00  0.00    -0.744 OA
ENDBRANCH  89  90
ENDBRANCH  57  82
ENDBRANCH  31  32
ENDBRANCH  24  26
ENDBRANCH  23  24
ENDBRANCH  22  23
ENDBRANCH  21  22
ENDBRANCH   1  21
TORSDOF 20
ENDMDL
MODEL 2
REMARK VINA RESULT:     -10.8      1.296      2.402
REMARK SMILES C[C@@H](Cc1cnn(-c2ccccc2)n1)C(=O)OCCOCCOC(=O)c1ccc(-c2c3nc(c(-c4c(F)cc(S(=O)(=O)[O-])cc4F)c4ccc([nH]4)c(-c4c(F)cc(S(=O)(=O)[O-])cc4F)c4nc(c(-c5c(F)cc(S(=O)(=O)[O-])cc5F)c5ccc2[nH]5)C=C4)C=C3)cc1
REMARK SMILES IDX 20 1 19 2 18 3 17 4 15 5 16 6 2 7 1 8 3 9 4 10 5 11 14 12
REMARK SMILES IDX 6 13 7 14 8 15 9 16 13 17 10 18 12 19 11 20 21 21 22 22
REMARK SMILES IDX 23 23 24 24 25 25 26 26 27 27 91 28 28 29 90 30 29 31 30 32
REMARK SMILES IDX 31 33 84 34 32 35 89 36 83 37 85 38 33 39 88 40 82 41 81 42
REMARK SMILES IDX 34 44 68 45 47 46 67 47 48 48 51 49 66 50 86 51 49 52 50 53
REMARK SMILES IDX 65 55 87 56 52 57 35 58 36 59 45 60 37 61 38 62 44 63 46 64
REMARK SMILES IDX 39 65 40 66 41 67 42 68 43 69 69 70 70 71 79 72 71 73 72 74
REMARK SMILES IDX 78 75 80 76 73 77 74 78 75 79 76 80 77 81 53 82 54 83 63 84
REMARK SMILES IDX 55 85 56 86 62 87 64 88 57 89 58 90 59 91 60 92 61 93
REMARK H PARENT 85 43 51 54
REMARK Flexibility Score: inf
ROOT
ATOM      1  O   UNL A   1      40.734  20.689  27.307  1.00  0.00    -0.374 OA
ENDROOT
BRANCH   1   2
ATOM      2  C   UNL A   1      40.286  21.537  26.251  1.00  0.00     0.202 C 
BRANCH   2   3
ATOM      3  C   UNL A   1      38.994  21.140  25.535  1.00  0.00     0.261 C 
BRANCH   3   4
ATOM      4  O   UNL A   1      37.841  21.790  26.098  1.00  0.00    -0.463 OA
BRANCH   4   5
ATOM      5  C   UNL A   1      37.488  22.980  25.542  1.00  0.00     0.309 C 
ATOM      6  O   UNL A   1      38.015  24.058  25.784  1.00  0.00    -0.252 OA
BRANCH   5   7
ATOM      7  C   UNL A   1      36.329  22.840  24.566  1.00  0.00     0.102 C 
ATOM      8  C   UNL A   1      36.724  22.820  23.087  1.00  0.00     0.020 C 
BRANCH   7   9
ATOM      9  C   UNL A   1      35.436  21.665  24.988  1.00  0.00     0.075 C 
BRANCH   9  10
ATOM     10  C   UNL A   1      33.981  21.976  25.066  1.00  0.00     0.084 A 
ATOM     11  C   UNL A   1      32.911  21.210  25.558  1.00  0.00     0.161 A 
ATOM     12  N   UNL A   1      33.513  23.164  24.661  1.00  0.00    -0.153 NA
ATOM     13  N   UNL A   1      31.822  21.967  25.670  1.00  0.00    -0.157 NA
ATOM     14  N   UNL A   1      32.223  23.125  25.091  1.00  0.00    -0.151 N 
BRANCH  14  15
ATOM     15  C   UNL A   1      31.344  24.216  24.942  1.00  0.00     0.086 A 
ATOM     16  C   UNL A   1      30.545  24.609  26.024  1.00  0.00     0.030 A 
ATOM     17  C   UNL A   1      31.253  24.871  23.710  1.00  0.00     0.030 A 
ATOM     18  C   UNL A   1      29.656  25.669  25.869  1.00  0.00     0.002 A 
ATOM     19  C   UNL A   1      30.315  25.888  23.547  1.00  0.00     0.002 A 
ATOM     20  C   UNL A   1      29.526  26.293  24.627  1.00  0.00     0.000 A 
ENDBRANCH  14  15
ENDBRANCH   9  10
ENDBRANCH   7   9
ENDBRANCH   5   7
ENDBRANCH   4   5
ENDBRANCH   3   4
ENDBRANCH   2   3
ENDBRANCH   1   2
BRANCH   1  21
ATOM     21  C   UNL A   1      42.073  20.210  27.288  1.00  0.00     0.202 C 
BRANCH  21  22
ATOM     22  C   UNL A   1      42.501  19.315  26.133  1.00  0.00     0.261 C 
BRANCH  22  23
ATOM     23  O   UNL A   1      43.051  20.036  25.036  1.00  0.00    -0.460 OA
BRANCH  23  24
ATOM     24  C   UNL A   1      44.330  20.437  25.249  1.00  0.00     0.338 C 
ATOM     25  O   UNL A   1      45.296  19.722  25.420  1.00  0.00    -0.246 OA
BRANCH  24  26
ATOM     26  C   UNL A   1      44.342  21.890  25.460  1.00  0.00     0.060 A 
ATOM     27  C   UNL A   1      45.021  22.331  26.596  1.00  0.00     0.016 A 
ATOM     28  C   UNL A   1      43.477  22.730  24.741  1.00  0.00     0.016 A 
ATOM     29  C   UNL A   1      44.671  23.549  27.131  1.00  0.00     0.010 A 
ATOM     30  C   UNL A   1      43.123  23.946  25.284  1.00  0.00     0.010 A 
ATOM     31  C   UNL A   1      43.666  24.306  26.512  1.00  0.00    -0.014 A 
BRANCH  31  32
ATOM     32  C   UNL A   1      43.353  25.592  27.099  1.00  0.00     0.031 A 
ATOM     33  C   UNL A   1      44.427  26.570  26.829  1.00  0.00     0.074 A 
ATOM     34  C   UNL A   1      42.225  25.872  27.777  1.00  0.00     0.049 A 
ATOM     35  N   UNL A   1      45.368  26.916  27.641  1.00  0.00    -0.248 NA
ATOM     36  C   UNL A   1      44.641  27.005  25.441  1.00  0.00     0.031 C 
ATOM     37  C   UNL A   1      41.004  25.075  27.890  1.00  0.00     0.029 A 
ATOM     38  N   UNL A   1      41.915  27.000  28.472  1.00  0.00    -0.354 N 
ATOM     39  C   UNL A   1      46.135  27.835  26.939  1.00  0.00     0.074 A 
ATOM     40  C   UNL A   1      45.800  27.656  25.552  1.00  0.00     0.031 C 
ATOM     41  C   UNL A   1      40.017  25.842  28.417  1.00  0.00     0.029 A 
ATOM     42  C   UNL A   1      40.570  27.130  28.806  1.00  0.00     0.049 A 
ATOM     43  H   UNL A   1      42.590  27.672  28.721  1.00  0.00     0.167 HD
ATOM     44  C   UNL A   1      46.739  28.862  27.595  1.00  0.00     0.037 A 
ATOM     45  C   UNL A   1      39.970  28.242  29.315  1.00  0.00     0.037 A 
ATOM     46  C   UNL A   1      46.802  28.596  29.013  1.00  0.00     0.049 A 
ATOM     47  C   UNL A   1      41.045  29.073  29.923  1.00  0.00     0.074 A 
ATOM     48  C   UNL A   1      47.353  27.596  29.793  1.00  0.00     0.029 A 
ATOM     49  N   UNL A   1      45.881  29.234  29.808  1.00  0.00    -0.354 N 
ATOM     50  N   UNL A   1      41.709  28.727  30.991  1.00  0.00    -0.248 NA
ATOM     51  C   UNL A   1      41.704  30.055  29.074  1.00  0.00     0.031 C 
ATOM     52  C   UNL A   1      46.419  27.392  30.850  1.00  0.00     0.029 A 
ATOM     53  C   UNL A   1      45.393  28.327  30.710  1.00  0.00     0.049 A 
ATOM     54  H   UNL A   1      45.619  30.181  29.741  1.00  0.00     0.167 HD
ATOM     55  C   UNL A   1      43.023  29.082  30.722  1.00  0.00     0.074 A 
ATOM     56  C   UNL A   1      42.943  29.971  29.563  1.00  0.00     0.031 C 
ATOM     57  C   UNL A   1      44.064  28.396  31.276  1.00  0.00     0.037 A 
BRANCH  44  58
ATOM     58  C   UNL A   1      46.863  30.259  27.031  1.00  0.00     0.058 A 
ATOM     59  C   UNL A   1      48.110  30.912  27.116  1.00  0.00     0.135 A 
ATOM     60  C   UNL A   1      45.770  31.083  26.682  1.00  0.00     0.135 A 
ATOM     61  F   UNL A   1      49.219  30.233  27.449  1.00  0.00    -0.206 F 
ATOM     62  C   UNL A   1      48.245  32.289  26.945  1.00  0.00     0.059 A 
ATOM     63  C   UNL A   1      45.891  32.446  26.452  1.00  0.00     0.059 A 
ATOM     64  F   UNL A   1      44.509  30.639  26.637  1.00  0.00    -0.206 F 
ATOM     65  C   UNL A   1      47.125  33.048  26.622  1.00  0.00     0.060 A 
BRANCH  65  66
ATOM     66  S   UNL A   1      47.281  34.832  26.456  1.00  0.00     0.124 S 
ATOM     67  O   UNL A   1      48.681  35.034  26.807  1.00  0.00    -0.237 OA
ATOM     68  O   UNL A   1      46.935  35.031  25.053  1.00  0.00    -0.237 OA
ATOM     69  O   UNL A   1      46.307  35.343  27.415  1.00  0.00    -0.744 OA
ENDBRANCH  65  66
ENDBRANCH  44  58
BRANCH  45  70
ATOM     70  C   UNL A   1      38.622  28.805  29.014  1.00  0.00     0.058 A 
ATOM     71  C   UNL A   1      37.656  28.963  30.028  1.00  0.00     0.135 A 
ATOM     72  C   UNL A   1      38.361  29.483  27.808  1.00  0.00     0.135 A 
ATOM     73  F   UNL A   1      37.823  28.367  31.220  1.00  0.00    -0.206 F 
ATOM     74  C   UNL A   1      36.537  29.793  29.880  1.00  0.00     0.059 A 
ATOM     75  C   UNL A   1      37.250  30.309  27.633  1.00  0.00     0.059 A 
ATOM     76  F   UNL A   1      39.233  29.441  26.790  1.00  0.00    -0.206 F 
ATOM     77  C   UNL A   1      36.357  30.484  28.683  1.00  0.00     0.060 A 
BRANCH  77  78
ATOM     78  S   UNL A   1      35.028  31.707  28.548  1.00  0.00     0.124 S 
ATOM     79  O   UNL A   1      33.950  30.920  27.963  1.00  0.00    -0.237 OA
ATOM     80  O   UNL A   1      34.839  32.115  29.936  1.00  0.00    -0.237 OA
ATOM     81  O   UNL A   1      35.599  32.730  27.675  1.00  0.00    -0.744 OA
ENDBRANCH  77  78
ENDBRANCH  45  70
BRANCH  57  82
ATOM     82  C   UNL A   1      43.788  27.503  32.459  1.00  0.00     0.058 A 
ATOM     83  C   UNL A   1      43.735  26.098  32.425  1.00  0.00     0.135 A 
ATOM     84  C   UNL A   1      43.709  28.119  33.718  1.00  0.00     0.135 A 
ATOM     85  F   UNL A   1      43.905  25.426  31.277  1.00  0.00    -0.206 F 
ATOM     86  C   UNL A   1      43.565  25.346  33.591  1.00  0.00     0.059 A 
ATOM     87  C   UNL A   1      43.577  27.388  34.892  1.00  0.00     0.059 A 
ATOM     88  F   UNL A   1      43.809  29.454  33.821  1.00  0.00    -0.206 F 
ATOM     89  C   UNL A   1      43.487  26.002  34.821  1.00  0.00     0.060 A 
BRANCH  89  90
ATOM     90  S   UNL A   1      43.319  25.034  36.336  1.00  0.00     0.124 S 
ATOM     91  O   UNL A   1      44.505  24.186  36.292  1.00  0.00    -0.237 OA
ATOM     92  O   UNL A   1      43.313  26.064  37.371  1.00  0.00    -0.237 OA
ATOM     93  O   UNL A   1      42.048  24.336  36.158  1.00  0.00    -0.744 OA
ENDBRANCH  89  90
ENDBRANCH  57  82
ENDBRANCH  31  32
ENDBRANCH  24  26
ENDBRANCH  23  24
ENDBRANCH  22  23
ENDBRANCH  21  22
ENDBRANCH   1  21
TORSDOF 20
ENDMDL
MODEL 3
REMARK VINA RESULT:     -10.8      4.886     11.970
REMARK SMILES C[C@@H](Cc1cnn(-c2ccccc2)n1)C(=O)OCCOCCOC(=O)c1ccc(-c2c3nc(c(-c4c(F)cc(S(=O)(=O)[O-])cc4F)c4ccc([nH]4)c(-c4c(F)cc(S(=O)(=O)[O-])cc4F)c4nc(c(-c5c(F)cc(S(=O)(=O)[O-])cc5F)c5ccc2[nH]5)C=C4)C=C3)cc1
REMARK SMILES IDX 20 1 19 2 18 3 17 4 15 5 16 6 2 7 1 8 3 9 4 10 5 11 14 12
REMARK SMILES IDX 6 13 7 14 8 15 9 16 13 17 10 18 12 19 11 20 21 21 22 22
REMARK SMILES IDX 23 23 24 24 25 25 26 26 27 27 91 28 28 29 90 30 29 31 30 32
REMARK SMILES IDX 31 33 84 34 32 35 89 36 83 37 85 38 33 39 88 40 82 41 81 42
REMARK SMILES IDX 34 44 68 45 47 46 67 47 48 48 51 49 66 50 86 51 49 52 50 53
REMARK SMILES IDX 65 55 87 56 52 57 35 58 36 59 45 60 37 61 38 62 44 63 46 64
REMARK SMILES IDX 39 65 40 66 41 67 42 68 43 69 69 70 70 71 79 72 71 73 72 74
REMARK SMILES IDX 78 75 80 76 73 77 74 78 75 79 76 80 77 81 53 82 54 83 63 84
REMARK SMILES IDX 55 85 56 86 62 87 64 88 57 89 58 90 59 91 60 92 61 93
REMARK H PARENT 85 43 51 54
REMARK Flexibility Score: inf
ROOT
ATOM      1  O   UNL A   1      34.537  35.490  32.122  1.00  0.00    -0.374 OA
ENDROOT
BRANCH   1   2
ATOM      2  C   UNL A   1      34.718  35.245  33.516  1.00  0.00     0.202 C 
BRANCH   2   3
ATOM      3  C   UNL A   1      34.973  33.800  33.946  1.00  0.00     0.261 C 
BRANCH   3   4
ATOM      4  O   UNL A   1      36.332  33.395  33.702  1.00  0.00    -0.463 OA
BRANCH   4   5
ATOM      5  C   UNL A   1      36.941  32.699  34.699  1.00  0.00     0.309 C 
ATOM      6  O   UNL A   1      36.937  33.010  35.883  1.00  0.00    -0.252 OA
BRANCH   5   7
ATOM      7  C   UNL A   1      37.661  31.462  34.183  1.00  0.00     0.102 C 
ATOM      8  C   UNL A   1      37.250  31.009  32.780  1.00  0.00     0.020 C 
BRANCH   7   9
ATOM      9  C   UNL A   1      39.176  31.632  34.363  1.00  0.00     0.075 C 
BRANCH   9  10
ATOM     10  C   UNL A   1      39.751  32.853  33.733  1.00  0.00     0.084 A 
ATOM     11  C   UNL A   1      40.219  34.044  34.315  1.00  0.00     0.161 A 
ATOM     12  N   UNL A   1      39.929  32.920  32.407  1.00  0.00    -0.153 NA
ATOM     13  N   UNL A   1      40.879  34.764  33.412  1.00  0.00    -0.157 NA
ATOM     14  N   UNL A   1      40.653  34.064  32.274  1.00  0.00    -0.151 N 
BRANCH  14  15
ATOM     15  C   UNL A   1      41.139  34.508  31.028  1.00  0.00     0.086 A 
ATOM     16  C   UNL A   1      42.488  34.866  30.903  1.00  0.00     0.030 A 
ATOM     17  C   UNL A   1      40.265  34.622  29.943  1.00  0.00     0.030 A 
ATOM     18  C   UNL A   1      42.963  35.332  29.680  1.00  0.00     0.002 A 
ATOM     19  C   UNL A   1      40.736  35.149  28.741  1.00  0.00     0.002 A 
ATOM     20  C   UNL A   1      42.084  35.494  28.608  1.00  0.00     0.000 A 
ENDBRANCH  14  15
ENDBRANCH   9  10
ENDBRANCH   7   9
ENDBRANCH   5   7
ENDBRANCH   4   5
ENDBRANCH   3   4
ENDBRANCH   2   3
ENDBRANCH   1   2
BRANCH   1  21
ATOM     21  C   UNL A   1      33.982  34.464  31.307  1.00  0.00     0.202 C 
BRANCH  21  22
ATOM     22  C   UNL A   1      34.830  33.910  30.170  1.00  0.00     0.261 C 
BRANCH  22  23
ATOM     23  O   UNL A   1      35.096  32.518  30.294  1.00  0.00    -0.460 OA
BRANCH  23  24
ATOM     24  C   UNL A   1      35.014  31.852  29.114  1.00  0.00     0.338 C 
ATOM     25  O   UNL A   1      34.000  31.567  28.510  1.00  0.00    -0.246 OA
BRANCH  24  26
ATOM     26  C   UNL A   1      36.342  31.327  28.773  1.00  0.00     0.060 A 
ATOM     27  C   UNL A   1      36.403  29.959  28.510  1.00  0.00     0.016 A 
ATOM     28  C   UNL A   1      37.498  32.091  28.999  1.00  0.00     0.016 A 
ATOM     29  C   UNL A   1      37.608  29.317  28.682  1.00  0.00     0.010 A 
ATOM     30  C   UNL A   1      38.701  31.444  29.177  1.00  0.00     0.010 A 
ATOM     31  C   UNL A   1      38.725  30.056  29.093  1.00  0.00    -0.014 A 
BRANCH  31  32
ATOM     32  C   UNL A   1      39.975  29.339  29.233  1.00  0.00     0.031 A 
ATOM     33  C   UNL A   1      40.298  29.116  30.658  1.00  0.00     0.074 A 
ATOM     34  C   UNL A   1      40.732  28.908  28.208  1.00  0.00     0.049 A 
ATOM     35  N   UNL A   1      41.117  29.810  31.374  1.00  0.00    -0.248 NA
ATOM     36  C   UNL A   1      39.436  28.213  31.435  1.00  0.00     0.031 C 
ATOM     37  C   UNL A   1      40.398  28.851  26.785  1.00  0.00     0.029 A 
ATOM     38  N   UNL A   1      41.975  28.355  28.248  1.00  0.00    -0.354 N 
ATOM     39  C   UNL A   1      41.071  29.237  32.637  1.00  0.00     0.074 A 
ATOM     40  C   UNL A   1      39.866  28.453  32.675  1.00  0.00     0.031 C 
ATOM     41  C   UNL A   1      41.318  28.091  26.141  1.00  0.00     0.029 A 
ATOM     42  C   UNL A   1      42.375  27.729  27.072  1.00  0.00     0.049 A 
ATOM     43  H   UNL A   1      42.548  28.396  29.048  1.00  0.00     0.167 HD
ATOM     44  C   UNL A   1      42.185  29.216  33.418  1.00  0.00     0.037 A 
ATOM     45  C   UNL A   1      43.471  26.935  26.914  1.00  0.00     0.037 A 
ATOM     46  C   UNL A   1      43.160  30.169  32.942  1.00  0.00     0.049 A 
ATOM     47  C   UNL A   1      44.410  27.270  28.019  1.00  0.00     0.074 A 
ATOM     48  C   UNL A   1      43.167  31.536  32.736  1.00  0.00     0.029 A 
ATOM     49  N   UNL A   1      44.216  29.670  32.218  1.00  0.00    -0.354 N 
ATOM     50  N   UNL A   1      45.032  28.412  28.117  1.00  0.00    -0.248 NA
ATOM     51  C   UNL A   1      44.288  26.521  29.262  1.00  0.00     0.031 C 
ATOM     52  C   UNL A   1      43.931  31.729  31.548  1.00  0.00     0.029 A 
ATOM     53  C   UNL A   1      44.418  30.487  31.138  1.00  0.00     0.049 A 
ATOM     54  H   UNL A   1      44.737  28.864  32.438  1.00  0.00     0.167 HD
ATOM     55  C   UNL A   1      44.974  28.732  29.466  1.00  0.00     0.074 A 
ATOM     56  C   UNL A   1      44.579  27.491  30.131  1.00  0.00     0.031 C 
ATOM     57  C   UNL A   1      44.967  30.032  29.880  1.00  0.00     0.037 A 
BRANCH  44  58
ATOM     58  C   UNL A   1      42.561  28.056  34.311  1.00  0.00     0.058 A 
ATOM     59  C   UNL A   1      42.686  28.284  35.696  1.00  0.00     0.135 A 
ATOM     60  C   UNL A   1      43.079  26.825  33.850  1.00  0.00     0.135 A 
ATOM     61  F   UNL A   1      42.239  29.424  36.247  1.00  0.00    -0.206 F 
ATOM     62  C   UNL A   1      43.345  27.393  36.543  1.00  0.00     0.059 A 
ATOM     63  C   UNL A   1      43.687  25.898  34.685  1.00  0.00     0.059 A 
ATOM     64  F   UNL A   1      43.112  26.488  32.556  1.00  0.00    -0.206 F 
ATOM     65  C   UNL A   1      43.850  26.207  36.024  1.00  0.00     0.060 A 
BRANCH  65  66
ATOM     66  S   UNL A   1      44.750  25.081  37.098  1.00  0.00     0.124 S 
ATOM     67  O   UNL A   1      44.112  25.336  38.385  1.00  0.00    -0.237 OA
ATOM     68  O   UNL A   1      44.462  23.789  36.484  1.00  0.00    -0.237 OA
ATOM     69  O   UNL A   1      46.132  25.533  36.975  1.00  0.00    -0.744 OA
ENDBRANCH  65  66
ENDBRANCH  44  58
BRANCH  45  70
ATOM     70  C   UNL A   1      43.620  25.687  26.112  1.00  0.00     0.058 A 
ATOM     71  C   UNL A   1      44.766  25.461  25.322  1.00  0.00     0.135 A 
ATOM     72  C   UNL A   1      42.804  24.564  26.341  1.00  0.00     0.135 A 
ATOM     73  F   UNL A   1      45.615  26.468  25.060  1.00  0.00    -0.206 F 
ATOM     74  C   UNL A   1      45.115  24.190  24.847  1.00  0.00     0.059 A 
ATOM     75  C   UNL A   1      43.125  23.289  25.872  1.00  0.00     0.059 A 
ATOM     76  F   UNL A   1      41.711  24.650  27.114  1.00  0.00    -0.206 F 
ATOM     77  C   UNL A   1      44.298  23.103  25.150  1.00  0.00     0.060 A 
BRANCH  77  78
ATOM     78  S   UNL A   1      44.837  21.430  24.712  1.00  0.00     0.124 S 
ATOM     79  O   UNL A   1      44.584  21.397  23.277  1.00  0.00    -0.237 OA
ATOM     80  O   UNL A   1      46.240  21.441  25.113  1.00  0.00    -0.237 OA
ATOM     81  O   UNL A   1      43.969  20.574  25.519  1.00  0.00    -0.744 OA
ENDBRANCH  77  78
ENDBRANCH  45  70
BRANCH  57  82
ATOM     82  C   UNL A   1      45.394  31.099  28.905  1.00  0.00     0.058 A 
ATOM     83  C   UNL A   1      44.594  31.635  27.880  1.00  0.00     0.135 A 
ATOM     84  C   UNL A   1      46.644  31.699  29.123  1.00  0.00     0.135 A 
ATOM     85  F   UNL A   1      43.346  31.189  27.671  1.00  0.00    -0.206 F 
ATOM     86  C   UNL A   1      45.041  32.690  27.080  1.00  0.00     0.059 A 
ATOM     87  C   UNL A   1      47.094  32.773  28.364  1.00  0.00     0.059 A 
ATOM     88  F   UNL A   1      47.432  31.269  30.123  1.00  0.00    -0.206 F 
ATOM     89  C   UNL A   1      46.294  33.253  27.331  1.00  0.00     0.060 A 
BRANCH  89  90
ATOM     90  S   UNL A   1      46.858  34.650  26.336  1.00  0.00     0.124 S 
ATOM     91  O   UNL A   1      47.918  34.047  25.533  1.00  0.00    -0.237 OA
ATOM     92  O   UNL A   1      45.651  35.030  25.610  1.00  0.00    -0.237 OA
ATOM     93  O   UNL A   1      47.308  35.620  27.331  1.00  0.00    -0.744 OA
ENDBRANCH  89  90
ENDBRANCH  57  82
ENDBRANCH  31  32
ENDBRANCH  24  26
ENDBRANCH  23  24
ENDBRANCH  22  23
ENDBRANCH  21  22
ENDBRANCH   1  21
TORSDOF 20
ENDMDL
