MODEL 1
REMARK VINA RESULT:     -10.1      0.000      0.000
REMARK SMILES C[C@H]1[NH2+]CC[C@H]1C(=O)N1CC(C(=O)OCCOCCOC(=O)c2ccc(-c3c4nc(c(-c5c(F)cc(S(=O)(=O)[O-])cc5F)c5ccc([nH]5)c(-c5c(F)cc(S(=O)(=O)[O-])cc5F)c5nc(c(-c6c(F)cc(S(=O)(=O)[O-])cc6F)c6ccc3[nH]6)C=C5)C=C4)cc2)C1
REMARK SMILES IDX 18 1 17 2 16 3 15 4 14 5 12 6 13 7 11 8 7 9 8 10 9 11 10 12
REMARK SMILES IDX 89 13 6 14 1 15 2 16 3 17 4 18 5 21 19 22 20 23 21 24 22 25
REMARK SMILES IDX 23 26 24 27 88 28 25 29 87 30 26 31 27 32 28 33 81 34 29 35
REMARK SMILES IDX 86 36 80 37 82 38 30 39 85 40 79 41 78 42 31 44 65 45 44 46
REMARK SMILES IDX 64 47 45 48 48 49 63 50 83 51 46 52 47 53 62 55 84 56 49 57
REMARK SMILES IDX 32 58 33 59 42 60 34 61 35 62 41 63 43 64 36 65 37 66 38 67
REMARK SMILES IDX 39 68 40 69 66 70 67 71 76 72 68 73 69 74 75 75 77 76 70 77
REMARK SMILES IDX 71 78 72 79 73 80 74 81 50 82 51 83 60 84 52 85 53 86 59 87
REMARK SMILES IDX 61 88 54 89 55 90 56 91 57 92 58 93
REMARK H PARENT 3 19 3 20 82 43 48 54
REMARK Flexibility Score: inf
ROOT
ATOM      1  C   UNL A   1      34.581  34.278  28.024  1.00  0.00     0.202 C 
ENDROOT
BRANCH   1   2
ATOM      2  O   UNL A   1      34.365  35.595  28.530  1.00  0.00    -0.374 OA
BRANCH   2   3
ATOM      3  C   UNL A   1      33.071  35.882  29.066  1.00  0.00     0.202 C 
BRANCH   3   4
ATOM      4  C   UNL A   1      33.068  36.741  30.334  1.00  0.00     0.261 C 
BRANCH   4   5
ATOM      5  O   UNL A   1      33.907  36.139  31.335  1.00  0.00    -0.463 OA
BRANCH   5   6
ATOM      6  C   UNL A   1      33.292  35.390  32.297  1.00  0.00     0.312 C 
ATOM      7  O   UNL A   1      32.074  35.233  32.358  1.00  0.00    -0.252 OA
BRANCH   6   8
ATOM      8  C   UNL A   1      34.295  34.709  33.241  1.00  0.00     0.138 C 
ATOM      9  C   UNL A   1      36.590  32.910  34.391  1.00  0.00     0.231 C 
ATOM     10  O   UNL A   1      36.417  33.383  35.512  1.00  0.00    -0.274 OA
ATOM     11  N   UNL A   1      35.836  33.290  33.298  1.00  0.00    -0.340 N 
ATOM     12  C   UNL A   1      35.762  34.687  32.827  1.00  0.00     0.136 C 
ATOM     13  C   UNL A   1      34.368  33.186  33.301  1.00  0.00     0.136 C 
BRANCH   9  14
ATOM     14  C   UNL A   1      37.580  31.789  34.127  1.00  0.00     0.142 C 
ATOM     15  C   UNL A   1      39.442  33.525  33.603  1.00  0.00     0.076 C 
ATOM     16  C   UNL A   1      38.791  32.182  33.280  1.00  0.00     0.192 C 
ATOM     17  N   UNL A   1      39.747  31.083  33.508  1.00  0.00    -0.343 N 
ATOM     18  C   UNL A   1      39.469  30.487  34.817  1.00  0.00     0.261 C 
ATOM     19  H   UNL A   1      40.699  31.448  33.492  1.00  0.00     0.346 HD
ATOM     20  H   UNL A   1      39.649  30.379  32.777  1.00  0.00     0.346 HD
ATOM     21  C   UNL A   1      38.204  31.139  35.352  1.00  0.00     0.081 C 
ENDBRANCH   9  14
ENDBRANCH   6   8
ENDBRANCH   5   6
ENDBRANCH   4   5
ENDBRANCH   3   4
ENDBRANCH   2   3
ENDBRANCH   1   2
BRANCH   1  22
ATOM     22  C   UNL A   1      35.397  33.333  28.914  1.00  0.00     0.261 C 
BRANCH  22  23
ATOM     23  O   UNL A   1      34.621  32.212  29.377  1.00  0.00    -0.460 OA
BRANCH  23  24
ATOM     24  C   UNL A   1      34.551  31.184  28.499  1.00  0.00     0.338 C 
ATOM     25  O   UNL A   1      33.652  30.971  27.691  1.00  0.00    -0.246 OA
BRANCH  24  26
ATOM     26  C   UNL A   1      35.797  30.395  28.506  1.00  0.00     0.060 A 
ATOM     27  C   UNL A   1      36.260  29.948  29.749  1.00  0.00     0.016 A 
ATOM     28  C   UNL A   1      36.554  30.183  27.350  1.00  0.00     0.016 A 
ATOM     29  C   UNL A   1      37.518  29.361  29.856  1.00  0.00     0.010 A 
ATOM     30  C   UNL A   1      37.821  29.594  27.461  1.00  0.00     0.010 A 
ATOM     31  C   UNL A   1      38.328  29.229  28.721  1.00  0.00    -0.014 A 
BRANCH  31  32
ATOM     32  C   UNL A   1      39.764  28.898  28.904  1.00  0.00     0.031 A 
ATOM     33  C   UNL A   1      40.671  29.928  29.528  1.00  0.00     0.074 A 
ATOM     34  C   UNL A   1      40.241  27.679  28.593  1.00  0.00     0.049 A 
ATOM     35  N   UNL A   1      41.943  29.848  29.818  1.00  0.00    -0.248 NA
ATOM     36  C   UNL A   1      40.057  31.222  29.870  1.00  0.00     0.031 C 
ATOM     37  C   UNL A   1      39.459  26.587  28.018  1.00  0.00     0.029 A 
ATOM     38  N   UNL A   1      41.502  27.157  28.727  1.00  0.00    -0.354 N 
ATOM     39  C   UNL A   1      42.283  31.076  30.377  1.00  0.00     0.074 A 
ATOM     40  C   UNL A   1      41.091  31.896  30.350  1.00  0.00     0.031 C 
ATOM     41  C   UNL A   1      40.260  25.520  27.847  1.00  0.00     0.029 A 
ATOM     42  C   UNL A   1      41.612  25.860  28.285  1.00  0.00     0.049 A 
ATOM     43  H   UNL A   1      42.258  27.662  29.104  1.00  0.00     0.167 HD
ATOM     44  C   UNL A   1      43.473  31.481  30.881  1.00  0.00     0.037 A 
ATOM     45  C   UNL A   1      42.684  25.044  28.236  1.00  0.00     0.037 A 
ATOM     46  C   UNL A   1      44.658  30.663  30.911  1.00  0.00     0.049 A 
ATOM     47  C   UNL A   1      44.007  25.528  28.770  1.00  0.00     0.074 A 
ATOM     48  C   UNL A   1      45.915  30.984  31.394  1.00  0.00     0.029 A 
ATOM     49  N   UNL A   1      44.731  29.360  30.443  1.00  0.00    -0.354 N 
ATOM     50  N   UNL A   1      44.310  26.689  29.300  1.00  0.00    -0.248 NA
ATOM     51  C   UNL A   1      45.132  24.583  28.713  1.00  0.00     0.031 C 
ATOM     52  C   UNL A   1      46.756  29.885  31.188  1.00  0.00     0.029 A 
ATOM     53  C   UNL A   1      46.012  28.865  30.617  1.00  0.00     0.049 A 
ATOM     54  H   UNL A   1      43.981  28.861  30.044  1.00  0.00     0.167 HD
ATOM     55  C   UNL A   1      45.648  26.601  29.673  1.00  0.00     0.074 A 
ATOM     56  C   UNL A   1      46.095  25.271  29.311  1.00  0.00     0.031 C 
ATOM     57  C   UNL A   1      46.435  27.532  30.266  1.00  0.00     0.037 A 
BRANCH  44  58
ATOM     58  C   UNL A   1      43.554  32.880  31.422  1.00  0.00     0.058 A 
ATOM     59  C   UNL A   1      43.943  33.962  30.615  1.00  0.00     0.135 A 
ATOM     60  C   UNL A   1      43.226  33.147  32.761  1.00  0.00     0.135 A 
ATOM     61  F   UNL A   1      44.286  33.760  29.333  1.00  0.00    -0.206 F 
ATOM     62  C   UNL A   1      44.031  35.255  31.124  1.00  0.00     0.059 A 
ATOM     63  C   UNL A   1      43.284  34.436  33.285  1.00  0.00     0.059 A 
ATOM     64  F   UNL A   1      42.852  32.149  33.577  1.00  0.00    -0.206 F 
ATOM     65  C   UNL A   1      43.703  35.480  32.462  1.00  0.00     0.060 A 
BRANCH  65  66
ATOM     66  S   UNL A   1      43.829  37.160  33.113  1.00  0.00     0.124 S 
ATOM     67  O   UNL A   1      43.777  37.949  31.886  1.00  0.00    -0.237 OA
ATOM     68  O   UNL A   1      42.655  37.251  33.975  1.00  0.00    -0.237 OA
ATOM     69  O   UNL A   1      45.113  37.159  33.805  1.00  0.00    -0.744 OA
ENDBRANCH  65  66
ENDBRANCH  44  58
BRANCH  45  70
ATOM     70  C   UNL A   1      42.551  23.675  27.671  1.00  0.00     0.058 A 
ATOM     71  C   UNL A   1      42.359  22.561  28.501  1.00  0.00     0.135 A 
ATOM     72  C   UNL A   1      42.622  23.454  26.286  1.00  0.00     0.135 A 
ATOM     73  F   UNL A   1      42.295  22.720  29.832  1.00  0.00    -0.206 F 
ATOM     74  C   UNL A   1      42.261  21.274  27.983  1.00  0.00     0.059 A 
ATOM     75  C   UNL A   1      42.502  22.180  25.742  1.00  0.00     0.059 A 
ATOM     76  F   UNL A   1      42.793  24.489  25.449  1.00  0.00    -0.206 F 
ATOM     77  C   UNL A   1      42.333  21.094  26.600  1.00  0.00     0.060 A 
BRANCH  77  78
ATOM     78  S   UNL A   1      42.157  19.426  25.930  1.00  0.00     0.124 S 
ATOM     79  O   UNL A   1      40.723  19.363  25.674  1.00  0.00    -0.237 OA
ATOM     80  O   UNL A   1      43.016  19.475  24.750  1.00  0.00    -0.237 OA
ATOM     81  O   UNL A   1      42.645  18.579  27.014  1.00  0.00    -0.744 OA
ENDBRANCH  77  78
ENDBRANCH  45  70
BRANCH  57  82
ATOM     82  C   UNL A   1      47.842  27.128  30.612  1.00  0.00     0.058 A 
ATOM     83  C   UNL A   1      48.923  27.396  29.760  1.00  0.00     0.135 A 
ATOM     84  C   UNL A   1      48.111  26.481  31.831  1.00  0.00     0.135 A 
ATOM     85  F   UNL A   1      48.720  28.011  28.584  1.00  0.00    -0.206 F 
ATOM     86  C   UNL A   1      50.219  27.002  30.084  1.00  0.00     0.059 A 
ATOM     87  C   UNL A   1      49.401  26.102  32.186  1.00  0.00     0.059 A 
ATOM     88  F   UNL A   1      47.115  26.215  32.690  1.00  0.00    -0.206 F 
ATOM     89  C   UNL A   1      50.446  26.349  31.297  1.00  0.00     0.060 A 
BRANCH  89  90
ATOM     90  S   UNL A   1      52.128  25.839  31.709  1.00  0.00     0.124 S 
ATOM     91  O   UNL A   1      52.794  25.954  30.416  1.00  0.00    -0.237 OA
ATOM     92  O   UNL A   1      52.520  26.824  32.713  1.00  0.00    -0.237 OA
ATOM     93  O   UNL A   1      51.956  24.478  32.210  1.00  0.00    -0.744 OA
ENDBRANCH  89  90
ENDBRANCH  57  82
ENDBRANCH  31  32
ENDBRANCH  24  26
ENDBRANCH  23  24
ENDBRANCH  22  23
ENDBRANCH   1  22
TORSDOF 18
ENDMDL
MODEL 2
REMARK VINA RESULT:      -9.7      2.809     12.000
REMARK SMILES C[C@H]1[NH2+]CC[C@H]1C(=O)N1CC(C(=O)OCCOCCOC(=O)c2ccc(-c3c4nc(c(-c5c(F)cc(S(=O)(=O)[O-])cc5F)c5ccc([nH]5)c(-c5c(F)cc(S(=O)(=O)[O-])cc5F)c5nc(c(-c6c(F)cc(S(=O)(=O)[O-])cc6F)c6ccc3[nH]6)C=C5)C=C4)cc2)C1
REMARK SMILES IDX 18 1 17 2 16 3 15 4 14 5 12 6 13 7 11 8 7 9 8 10 9 11 10 12
REMARK SMILES IDX 89 13 6 14 1 15 2 16 3 17 4 18 5 21 19 22 20 23 21 24 22 25
REMARK SMILES IDX 23 26 24 27 88 28 25 29 87 30 26 31 27 32 28 33 81 34 29 35
REMARK SMILES IDX 86 36 80 37 82 38 30 39 85 40 79 41 78 42 31 44 65 45 44 46
REMARK SMILES IDX 64 47 45 48 48 49 63 50 83 51 46 52 47 53 62 55 84 56 49 57
REMARK SMILES IDX 32 58 33 59 42 60 34 61 35 62 41 63 43 64 36 65 37 66 38 67
REMARK SMILES IDX 39 68 40 69 66 70 67 71 76 72 68 73 69 74 75 75 77 76 70 77
REMARK SMILES IDX 71 78 72 79 73 80 74 81 50 82 51 83 60 84 52 85 53 86 59 87
REMARK SMILES IDX 61 88 54 89 55 90 56 91 57 92 58 93
REMARK H PARENT 3 19 3 20 82 43 48 54
REMARK Flexibility Score: inf
ROOT
ATOM      1  C   UNL A   1      41.358  19.913  26.529  1.00  0.00     0.202 C 
ENDROOT
BRANCH   1   2
ATOM      2  O   UNL A   1      42.664  19.362  26.702  1.00  0.00    -0.374 OA
BRANCH   2   3
ATOM      3  C   UNL A   1      43.095  18.396  25.741  1.00  0.00     0.202 C 
BRANCH   3   4
ATOM      4  C   UNL A   1      44.123  18.902  24.725  1.00  0.00     0.261 C 
BRANCH   4   5
ATOM      5  O   UNL A   1      45.374  19.164  25.384  1.00  0.00    -0.463 OA
BRANCH   5   6
ATOM      6  C   UNL A   1      46.151  20.164  24.873  1.00  0.00     0.312 C 
ATOM      7  O   UNL A   1      47.273  19.978  24.404  1.00  0.00    -0.252 OA
BRANCH   6   8
ATOM      8  C   UNL A   1      45.437  21.524  24.880  1.00  0.00     0.138 C 
ATOM      9  C   UNL A   1      44.648  24.497  25.485  1.00  0.00     0.231 C 
ATOM     10  O   UNL A   1      43.711  24.424  24.693  1.00  0.00    -0.274 OA
ATOM     11  N   UNL A   1      45.493  23.435  25.739  1.00  0.00    -0.340 N 
ATOM     12  C   UNL A   1      46.285  22.775  24.681  1.00  0.00     0.136 C 
ATOM     13  C   UNL A   1      44.981  22.135  26.203  1.00  0.00     0.136 C 
BRANCH   9  14
ATOM     14  C   UNL A   1      44.897  25.731  26.336  1.00  0.00     0.142 C 
ATOM     15  C   UNL A   1      46.937  26.367  24.855  1.00  0.00     0.076 C 
ATOM     16  C   UNL A   1      46.313  26.301  26.248  1.00  0.00     0.192 C 
ATOM     17  N   UNL A   1      46.178  27.656  26.812  1.00  0.00    -0.343 N 
ATOM     18  C   UNL A   1      44.799  28.108  26.616  1.00  0.00     0.261 C 
ATOM     19  H   UNL A   1      46.819  28.291  26.335  1.00  0.00     0.346 HD
ATOM     20  H   UNL A   1      46.404  27.644  27.807  1.00  0.00     0.346 HD
ATOM     21  C   UNL A   1      44.015  26.936  26.048  1.00  0.00     0.081 C 
ENDBRANCH   9  14
ENDBRANCH   6   8
ENDBRANCH   5   6
ENDBRANCH   4   5
ENDBRANCH   3   4
ENDBRANCH   2   3
ENDBRANCH   1   2
BRANCH   1  22
ATOM     22  C   UNL A   1      41.089  21.255  27.221  1.00  0.00     0.261 C 
BRANCH  22  23
ATOM     23  O   UNL A   1      40.955  22.337  26.282  1.00  0.00    -0.460 OA
BRANCH  23  24
ATOM     24  C   UNL A   1      39.706  22.855  26.205  1.00  0.00     0.338 C 
ATOM     25  O   UNL A   1      38.702  22.287  25.784  1.00  0.00    -0.246 OA
BRANCH  24  26
ATOM     26  C   UNL A   1      39.639  24.178  26.852  1.00  0.00     0.060 A 
ATOM     27  C   UNL A   1      40.419  25.198  26.295  1.00  0.00     0.016 A 
ATOM     28  C   UNL A   1      38.921  24.400  28.031  1.00  0.00     0.016 A 
ATOM     29  C   UNL A   1      40.553  26.417  26.955  1.00  0.00     0.010 A 
ATOM     30  C   UNL A   1      39.059  25.626  28.695  1.00  0.00     0.010 A 
ATOM     31  C   UNL A   1      39.916  26.619  28.186  1.00  0.00    -0.014 A 
BRANCH  31  32
ATOM     32  C   UNL A   1      40.317  27.784  29.014  1.00  0.00     0.031 A 
ATOM     33  C   UNL A   1      41.692  27.794  29.633  1.00  0.00     0.074 A 
ATOM     34  C   UNL A   1      39.506  28.849  29.154  1.00  0.00     0.049 A 
ATOM     35  N   UNL A   1      42.270  28.715  30.359  1.00  0.00    -0.248 NA
ATOM     36  C   UNL A   1      42.525  26.603  29.399  1.00  0.00     0.031 C 
ATOM     37  C   UNL A   1      38.170  28.976  28.577  1.00  0.00     0.029 A 
ATOM     38  N   UNL A   1      39.699  30.032  29.822  1.00  0.00    -0.354 N 
ATOM     39  C   UNL A   1      43.532  28.218  30.668  1.00  0.00     0.074 A 
ATOM     40  C   UNL A   1      43.621  26.898  30.082  1.00  0.00     0.031 C 
ATOM     41  C   UNL A   1      37.660  30.173  28.917  1.00  0.00     0.029 A 
ATOM     42  C   UNL A   1      38.627  30.888  29.748  1.00  0.00     0.049 A 
ATOM     43  H   UNL A   1      40.527  30.247  30.309  1.00  0.00     0.167 HD
ATOM     44  C   UNL A   1      44.532  28.811  31.362  1.00  0.00     0.037 A 
ATOM     45  C   UNL A   1      38.445  32.107  30.294  1.00  0.00     0.037 A 
ATOM     46  C   UNL A   1      44.445  30.126  31.941  1.00  0.00     0.049 A 
ATOM     47  C   UNL A   1      39.559  32.733  31.092  1.00  0.00     0.074 A 
ATOM     48  C   UNL A   1      45.401  30.813  32.670  1.00  0.00     0.029 A 
ATOM     49  N   UNL A   1      43.338  30.956  31.854  1.00  0.00    -0.354 N 
ATOM     50  N   UNL A   1      40.748  32.252  31.370  1.00  0.00    -0.248 NA
ATOM     51  C   UNL A   1      39.311  34.075  31.640  1.00  0.00     0.031 C 
ATOM     52  C   UNL A   1      44.859  32.046  33.050  1.00  0.00     0.029 A 
ATOM     53  C   UNL A   1      43.582  32.145  32.521  1.00  0.00     0.049 A 
ATOM     54  H   UNL A   1      42.500  30.732  31.387  1.00  0.00     0.167 HD
ATOM     55  C   UNL A   1      41.403  33.247  32.092  1.00  0.00     0.074 A 
ATOM     56  C   UNL A   1      40.478  34.357  32.203  1.00  0.00     0.031 C 
ATOM     57  C   UNL A   1      42.656  33.247  32.609  1.00  0.00     0.037 A 
BRANCH  44  58
ATOM     58  C   UNL A   1      45.801  28.028  31.548  1.00  0.00     0.058 A 
ATOM     59  C   UNL A   1      46.900  28.191  30.689  1.00  0.00     0.135 A 
ATOM     60  C   UNL A   1      45.926  27.113  32.606  1.00  0.00     0.135 A 
ATOM     61  F   UNL A   1      46.828  29.037  29.650  1.00  0.00    -0.206 F 
ATOM     62  C   UNL A   1      48.069  27.452  30.856  1.00  0.00     0.059 A 
ATOM     63  C   UNL A   1      47.094  26.382  32.806  1.00  0.00     0.059 A 
ATOM     64  F   UNL A   1      44.904  26.917  33.454  1.00  0.00    -0.206 F 
ATOM     65  C   UNL A   1      48.153  26.548  31.915  1.00  0.00     0.060 A 
BRANCH  65  66
ATOM     66  S   UNL A   1      49.671  25.590  32.116  1.00  0.00     0.124 S 
ATOM     67  O   UNL A   1      49.837  25.027  30.780  1.00  0.00    -0.237 OA
ATOM     68  O   UNL A   1      50.640  26.612  32.497  1.00  0.00    -0.237 OA
ATOM     69  O   UNL A   1      49.331  24.632  33.163  1.00  0.00    -0.744 OA
ENDBRANCH  65  66
ENDBRANCH  44  58
BRANCH  45  70
ATOM     70  C   UNL A   1      37.161  32.828  30.094  1.00  0.00     0.058 A 
ATOM     71  C   UNL A   1      36.991  33.732  29.035  1.00  0.00     0.135 A 
ATOM     72  C   UNL A   1      36.078  32.631  30.965  1.00  0.00     0.135 A 
ATOM     73  F   UNL A   1      38.001  33.962  28.182  1.00  0.00    -0.206 F 
ATOM     74  C   UNL A   1      35.802  34.431  28.856  1.00  0.00     0.059 A 
ATOM     75  C   UNL A   1      34.871  33.300  30.793  1.00  0.00     0.059 A 
ATOM     76  F   UNL A   1      36.185  31.767  31.986  1.00  0.00    -0.206 F 
ATOM     77  C   UNL A   1      34.746  34.207  29.742  1.00  0.00     0.060 A 
BRANCH  77  78
ATOM     78  S   UNL A   1      33.188  35.082  29.477  1.00  0.00     0.124 S 
ATOM     79  O   UNL A   1      33.658  36.386  29.026  1.00  0.00    -0.237 OA
ATOM     80  O   UNL A   1      32.536  34.252  28.468  1.00  0.00    -0.237 OA
ATOM     81  O   UNL A   1      32.563  35.056  30.795  1.00  0.00    -0.744 OA
ENDBRANCH  77  78
ENDBRANCH  45  70
BRANCH  57  82
ATOM     82  C   UNL A   1      43.121  34.502  33.294  1.00  0.00     0.058 A 
ATOM     83  C   UNL A   1      43.001  34.680  34.680  1.00  0.00     0.135 A 
ATOM     84  C   UNL A   1      43.718  35.533  32.548  1.00  0.00     0.135 A 
ATOM     85  F   UNL A   1      42.438  33.726  35.438  1.00  0.00    -0.206 F 
ATOM     86  C   UNL A   1      43.420  35.855  35.300  1.00  0.00     0.059 A 
ATOM     87  C   UNL A   1      44.167  36.704  33.151  1.00  0.00     0.059 A 
ATOM     88  F   UNL A   1      43.870  35.407  31.220  1.00  0.00    -0.206 F 
ATOM     89  C   UNL A   1      43.996  36.864  34.524  1.00  0.00     0.060 A 
BRANCH  89  90
ATOM     90  S   UNL A   1      44.535  38.384  35.336  1.00  0.00     0.124 S 
ATOM     91  O   UNL A   1      43.871  39.399  34.526  1.00  0.00    -0.237 OA
ATOM     92  O   UNL A   1      44.020  38.218  36.692  1.00  0.00    -0.237 OA
ATOM     93  O   UNL A   1      45.989  38.334  35.214  1.00  0.00    -0.744 OA
ENDBRANCH  89  90
ENDBRANCH  57  82
ENDBRANCH  31  32
ENDBRANCH  24  26
ENDBRANCH  23  24
ENDBRANCH  22  23
ENDBRANCH   1  22
TORSDOF 18
ENDMDL
MODEL 3
REMARK VINA RESULT:      -9.7      4.514     12.261
REMARK SMILES C[C@H]1[NH2+]CC[C@H]1C(=O)N1CC(C(=O)OCCOCCOC(=O)c2ccc(-c3c4nc(c(-c5c(F)cc(S(=O)(=O)[O-])cc5F)c5ccc([nH]5)c(-c5c(F)cc(S(=O)(=O)[O-])cc5F)c5nc(c(-c6c(F)cc(S(=O)(=O)[O-])cc6F)c6ccc3[nH]6)C=C5)C=C4)cc2)C1
REMARK SMILES IDX 18 1 17 2 16 3 15 4 14 5 12 6 13 7 11 8 7 9 8 10 9 11 10 12
REMARK SMILES IDX 89 13 6 14 1 15 2 16 3 17 4 18 5 21 19 22 20 23 21 24 22 25
REMARK SMILES IDX 23 26 24 27 88 28 25 29 87 30 26 31 27 32 28 33 81 34 29 35
REMARK SMILES IDX 86 36 80 37 82 38 30 39 85 40 79 41 78 42 31 44 65 45 44 46
REMARK SMILES IDX 64 47 45 48 48 49 63 50 83 51 46 52 47 53 62 55 84 56 49 57
REMARK SMILES IDX 32 58 33 59 42 60 34 61 35 62 41 63 43 64 36 65 37 66 38 67
REMARK SMILES IDX 39 68 40 69 66 70 67 71 76 72 68 73 69 74 75 75 77 76 70 77
REMARK SMILES IDX 71 78 72 79 73 80 74 81 50 82 51 83 60 84 52 85 53 86 59 87
REMARK SMILES IDX 61 88 54 89 55 90 56 91 57 92 58 93
REMARK H PARENT 3 19 3 20 82 43 48 54
REMARK Flexibility Score: inf
ROOT
ATOM      1  C   UNL A   1      40.157  21.053  26.502  1.00  0.00     0.202 C 
ENDROOT
BRANCH   1   2
ATOM      2  O   UNL A   1      41.495  20.801  26.072  1.00  0.00    -0.374 OA
BRANCH   2   3
ATOM      3  C   UNL A   1      42.208  19.758  26.741  1.00  0.00     0.202 C 
BRANCH   3   4
ATOM      4  C   UNL A   1      43.033  18.845  25.829  1.00  0.00     0.261 C 
BRANCH   4   5
ATOM      5  O   UNL A   1      43.417  19.558  24.640  1.00  0.00    -0.463 OA
BRANCH   5   6
ATOM      6  C   UNL A   1      44.753  19.651  24.372  1.00  0.00     0.312 C 
ATOM      7  O   UNL A   1      45.464  18.679  24.126  1.00  0.00    -0.252 OA
BRANCH   6   8
ATOM      8  C   UNL A   1      45.244  21.106  24.336  1.00  0.00     0.138 C 
ATOM      9  C   UNL A   1      45.673  24.146  24.972  1.00  0.00     0.231 C 
ATOM     10  O   UNL A   1      46.505  24.230  24.070  1.00  0.00    -0.274 OA
ATOM     11  N   UNL A   1      45.012  22.970  25.266  1.00  0.00    -0.340 N 
ATOM     12  C   UNL A   1      45.720  21.730  25.643  1.00  0.00     0.136 C 
ATOM     13  C   UNL A   1      44.233  22.247  24.248  1.00  0.00     0.136 C 
BRANCH   9  14
ATOM     14  C   UNL A   1      45.220  25.354  25.774  1.00  0.00     0.142 C 
ATOM     15  C   UNL A   1      47.085  24.914  27.531  1.00  0.00     0.076 C 
ATOM     16  C   UNL A   1      45.651  25.353  27.240  1.00  0.00     0.192 C 
ATOM     17  N   UNL A   1      45.450  26.751  27.663  1.00  0.00    -0.343 N 
ATOM     18  C   UNL A   1      45.563  27.616  26.486  1.00  0.00     0.261 C 
ATOM     19  H   UNL A   1      46.161  27.008  28.348  1.00  0.00     0.346 HD
ATOM     20  H   UNL A   1      44.528  26.858  28.087  1.00  0.00     0.346 HD
ATOM     21  C   UNL A   1      45.689  26.710  25.271  1.00  0.00     0.081 C 
ENDBRANCH   9  14
ENDBRANCH   6   8
ENDBRANCH   5   6
ENDBRANCH   4   5
ENDBRANCH   3   4
ENDBRANCH   2   3
ENDBRANCH   1   2
BRANCH   1  22
ATOM     22  C   UNL A   1      39.720  22.522  26.538  1.00  0.00     0.261 C 
BRANCH  22  23
ATOM     23  O   UNL A   1      40.357  23.256  27.601  1.00  0.00    -0.460 OA
BRANCH  23  24
ATOM     24  C   UNL A   1      41.112  24.299  27.182  1.00  0.00     0.338 C 
ATOM     25  O   UNL A   1      41.859  24.317  26.209  1.00  0.00    -0.246 OA
BRANCH  24  26
ATOM     26  C   UNL A   1      40.814  25.516  27.959  1.00  0.00     0.060 A 
ATOM     27  C   UNL A   1      41.839  26.462  28.077  1.00  0.00     0.016 A 
ATOM     28  C   UNL A   1      39.608  25.689  28.645  1.00  0.00     0.016 A 
ATOM     29  C   UNL A   1      41.697  27.542  28.944  1.00  0.00     0.010 A 
ATOM     30  C   UNL A   1      39.468  26.775  29.519  1.00  0.00     0.010 A 
ATOM     31  C   UNL A   1      40.532  27.676  29.711  1.00  0.00    -0.014 A 
BRANCH  31  32
ATOM     32  C   UNL A   1      40.528  28.638  30.841  1.00  0.00     0.031 A 
ATOM     33  C   UNL A   1      39.530  29.768  30.828  1.00  0.00     0.074 A 
ATOM     34  C   UNL A   1      41.344  28.472  31.898  1.00  0.00     0.049 A 
ATOM     35  N   UNL A   1      39.318  30.701  31.719  1.00  0.00    -0.248 NA
ATOM     36  C   UNL A   1      38.652  29.853  29.648  1.00  0.00     0.031 C 
ATOM     37  C   UNL A   1      42.328  27.401  32.047  1.00  0.00     0.029 A 
ATOM     38  N   UNL A   1      41.466  29.204  33.052  1.00  0.00    -0.354 N 
ATOM     39  C   UNL A   1      38.286  31.483  31.211  1.00  0.00     0.074 A 
ATOM     40  C   UNL A   1      37.939  30.937  29.917  1.00  0.00     0.031 C 
ATOM     41  C   UNL A   1      42.954  27.545  33.227  1.00  0.00     0.029 A 
ATOM     42  C   UNL A   1      42.428  28.727  33.909  1.00  0.00     0.049 A 
ATOM     43  H   UNL A   1      40.915  29.996  33.249  1.00  0.00     0.167 HD
ATOM     44  C   UNL A   1      37.670  32.549  31.776  1.00  0.00     0.037 A 
ATOM     45  C   UNL A   1      42.840  29.195  35.105  1.00  0.00     0.037 A 
ATOM     46  C   UNL A   1      38.012  33.089  33.066  1.00  0.00     0.049 A 
ATOM     47  C   UNL A   1      42.165  30.404  35.698  1.00  0.00     0.074 A 
ATOM     48  C   UNL A   1      37.453  34.172  33.723  1.00  0.00     0.029 A 
ATOM     49  N   UNL A   1      39.001  32.586  33.897  1.00  0.00    -0.354 N 
ATOM     50  N   UNL A   1      41.186  31.128  35.208  1.00  0.00    -0.248 NA
ATOM     51  C   UNL A   1      42.641  30.850  37.016  1.00  0.00     0.031 C 
ATOM     52  C   UNL A   1      38.127  34.341  34.939  1.00  0.00     0.029 A 
ATOM     53  C   UNL A   1      39.075  33.337  35.057  1.00  0.00     0.049 A 
ATOM     54  H   UNL A   1      39.568  31.807  33.692  1.00  0.00     0.167 HD
ATOM     55  C   UNL A   1      40.905  32.091  36.173  1.00  0.00     0.074 A 
ATOM     56  C   UNL A   1      41.814  31.854  37.276  1.00  0.00     0.031 C 
ATOM     57  C   UNL A   1      39.976  33.078  36.153  1.00  0.00     0.037 A 
BRANCH  44  58
ATOM     58  C   UNL A   1      36.576  33.211  30.989  1.00  0.00     0.058 A 
ATOM     59  C   UNL A   1      36.853  34.003  29.862  1.00  0.00     0.135 A 
ATOM     60  C   UNL A   1      35.231  33.044  31.356  1.00  0.00     0.135 A 
ATOM     61  F   UNL A   1      38.122  34.213  29.479  1.00  0.00    -0.206 F 
ATOM     62  C   UNL A   1      35.837  34.628  29.144  1.00  0.00     0.059 A 
ATOM     63  C   UNL A   1      34.197  33.639  30.638  1.00  0.00     0.059 A 
ATOM     64  F   UNL A   1      34.910  32.301  32.427  1.00  0.00    -0.206 F 
ATOM     65  C   UNL A   1      34.513  34.442  29.543  1.00  0.00     0.060 A 
BRANCH  65  66
ATOM     66  S   UNL A   1      33.204  35.264  28.608  1.00  0.00     0.124 S 
ATOM     67  O   UNL A   1      32.459  35.926  29.674  1.00  0.00    -0.237 OA
ATOM     68  O   UNL A   1      33.957  36.145  27.721  1.00  0.00    -0.237 OA
ATOM     69  O   UNL A   1      32.513  34.160  27.951  1.00  0.00    -0.744 OA
ENDBRANCH  65  66
ENDBRANCH  44  58
BRANCH  45  70
ATOM     70  C   UNL A   1      43.942  28.511  35.831  1.00  0.00     0.058 A 
ATOM     71  C   UNL A   1      45.279  28.892  35.650  1.00  0.00     0.135 A 
ATOM     72  C   UNL A   1      43.678  27.453  36.716  1.00  0.00     0.135 A 
ATOM     73  F   UNL A   1      45.583  29.891  34.806  1.00  0.00    -0.206 F 
ATOM     74  C   UNL A   1      46.319  28.240  36.305  1.00  0.00     0.059 A 
ATOM     75  C   UNL A   1      44.698  26.801  37.400  1.00  0.00     0.059 A 
ATOM     76  F   UNL A   1      42.414  27.058  36.933  1.00  0.00    -0.206 F 
ATOM     77  C   UNL A   1      46.017  27.194  37.179  1.00  0.00     0.060 A 
BRANCH  77  78
ATOM     78  S   UNL A   1      47.367  26.382  38.063  1.00  0.00     0.124 S 
ATOM     79  O   UNL A   1      46.824  25.044  38.263  1.00  0.00    -0.237 OA
ATOM     80  O   UNL A   1      48.468  26.490  37.111  1.00  0.00    -0.237 OA
ATOM     81  O   UNL A   1      47.511  27.193  39.268  1.00  0.00    -0.744 OA
ENDBRANCH  77  78
ENDBRANCH  45  70
BRANCH  57  82
ATOM     82  C   UNL A   1      39.856  33.940  37.379  1.00  0.00     0.058 A 
ATOM     83  C   UNL A   1      40.595  35.122  37.532  1.00  0.00     0.135 A 
ATOM     84  C   UNL A   1      38.968  33.583  38.409  1.00  0.00     0.135 A 
ATOM     85  F   UNL A   1      41.458  35.508  36.578  1.00  0.00    -0.206 F 
ATOM     86  C   UNL A   1      40.488  35.903  38.680  1.00  0.00     0.059 A 
ATOM     87  C   UNL A   1      38.827  34.362  39.553  1.00  0.00     0.059 A 
ATOM     88  F   UNL A   1      38.226  32.469  38.307  1.00  0.00    -0.206 F 
ATOM     89  C   UNL A   1      39.606  35.509  39.688  1.00  0.00     0.060 A 
BRANCH  89  90
ATOM     90  S   UNL A   1      39.474  36.526  41.174  1.00  0.00     0.124 S 
ATOM     91  O   UNL A   1      40.864  36.581  41.616  1.00  0.00    -0.237 OA
ATOM     92  O   UNL A   1      38.925  37.775  40.656  1.00  0.00    -0.237 OA
ATOM     93  O   UNL A   1      38.572  35.760  42.029  1.00  0.00    -0.744 OA
ENDBRANCH  89  90
ENDBRANCH  57  82
ENDBRANCH  31  32
ENDBRANCH  24  26
ENDBRANCH  23  24
ENDBRANCH  22  23
ENDBRANCH   1  22
TORSDOF 18
ENDMDL
