MODEL 1
REMARK VINA RESULT:     -10.8      0.000      0.000
REMARK SMILES O=C(Cc1cn2ccsc2n1)N[C@@H]1C=C[C@H](C(=O)OCCOCCOC(=O)c2ccc(-c3c4nc(c(-c5c(F)cc(S(=O)(=O)[O-])cc5F)c5ccc([nH]5)c(-c5c(F)cc(S(=O)(=O)[O-])cc5F)c5nc(c(-c6c(F)cc(S(=O)(=O)[O-])cc6F)c6ccc3[nH]6)C=C5)C=C4)cc2)C1
REMARK SMILES IDX 22 1 21 2 20 3 19 4 17 5 18 6 16 7 13 8 14 9 94 10 15 11
REMARK SMILES IDX 12 12 1 13 2 14 3 16 4 17 5 18 11 19 6 20 10 21 7 22 9 23
REMARK SMILES IDX 8 24 23 25 24 26 25 27 26 28 27 29 28 30 29 31 93 32 30 33
REMARK SMILES IDX 92 34 31 35 32 36 33 37 86 38 34 39 91 40 85 41 87 42 35 43
REMARK SMILES IDX 90 44 84 45 83 46 36 48 70 49 49 50 69 51 50 52 53 53 68 54
REMARK SMILES IDX 88 55 51 56 52 57 67 59 89 60 54 61 37 62 38 63 47 64 39 65
REMARK SMILES IDX 40 66 46 67 48 68 41 69 42 70 43 71 44 72 45 73 71 74 72 75
REMARK SMILES IDX 81 76 73 77 74 78 80 79 82 80 75 81 76 82 77 83 78 84 79 85
REMARK SMILES IDX 55 86 56 87 65 88 57 89 58 90 64 91 66 92 59 93 60 94 61 95
REMARK SMILES IDX 62 96 63 97
REMARK H PARENT 12 15 87 47 53 58
REMARK Flexibility Score: inf
ROOT
ATOM      1  O   UNL A   1      38.986  21.860  26.420  1.00  0.00    -0.374 OA
ENDROOT
BRANCH   1   2
ATOM      2  C   UNL A   1      38.052  21.716  25.344  1.00  0.00     0.202 C 
BRANCH   2   3
ATOM      3  C   UNL A   1      36.605  21.522  25.814  1.00  0.00     0.261 C 
BRANCH   3   4
ATOM      4  O   UNL A   1      35.733  21.399  24.671  1.00  0.00    -0.463 OA
BRANCH   4   5
ATOM      5  C   UNL A   1      34.657  22.224  24.654  1.00  0.00     0.312 C 
ATOM      6  O   UNL A   1      33.696  22.095  23.901  1.00  0.00    -0.252 OA
BRANCH   5   7
ATOM      7  C   UNL A   1      34.742  23.355  25.678  1.00  0.00     0.124 C 
ATOM      8  C   UNL A   1      32.950  25.014  26.062  1.00  0.00     0.106 C 
ATOM      9  C   UNL A   1      34.148  25.618  25.416  1.00  0.00    -0.006 C 
ATOM     10  C   UNL A   1      33.392  23.575  26.375  1.00  0.00     0.048 C 
ATOM     11  C   UNL A   1      35.112  24.722  25.189  1.00  0.00    -0.014 C 
BRANCH   8  12
ATOM     12  N   UNL A   1      31.890  25.060  25.096  1.00  0.00    -0.350 N 
ATOM     13  O   UNL A   1      30.265  25.717  26.562  1.00  0.00    -0.275 OA
ATOM     14  C   UNL A   1      30.605  25.450  25.409  1.00  0.00     0.226 C 
ATOM     15  H   UNL A   1      32.088  24.802  24.166  1.00  0.00     0.164 HD
BRANCH  14  16
ATOM     16  C   UNL A   1      29.597  25.480  24.262  1.00  0.00     0.157 C 
BRANCH  16  17
ATOM     17  C   UNL A   1      29.497  26.798  23.572  1.00  0.00     0.070 A 
ATOM     18  C   UNL A   1      30.498  27.539  22.954  1.00  0.00     0.118 A 
ATOM     19  N   UNL A   1      28.296  27.499  23.585  1.00  0.00    -0.223 NA
ATOM     20  N   UNL A   1      29.886  28.692  22.569  1.00  0.00    -0.297 N 
ATOM     21  C   UNL A   1      28.587  28.604  22.960  1.00  0.00     0.193 A 
ATOM     22  C   UNL A   1      30.237  29.865  21.940  1.00  0.00     0.104 A 
ATOM     23  S   UNL A   1      27.717  30.037  22.537  1.00  0.00    -0.105 S 
ATOM     24  C   UNL A   1      29.188  30.698  21.829  1.00  0.00     0.087 A 
ENDBRANCH  16  17
ENDBRANCH  14  16
ENDBRANCH   8  12
ENDBRANCH   5   7
ENDBRANCH   4   5
ENDBRANCH   3   4
ENDBRANCH   2   3
ENDBRANCH   1   2
BRANCH   1  25
ATOM     25  C   UNL A   1      40.316  21.449  26.106  1.00  0.00     0.202 C 
BRANCH  25  26
ATOM     26  C   UNL A   1      41.383  22.543  26.220  1.00  0.00     0.261 C 
BRANCH  26  27
ATOM     27  O   UNL A   1      40.821  23.861  26.382  1.00  0.00    -0.460 OA
BRANCH  27  28
ATOM     28  C   UNL A   1      41.694  24.892  26.255  1.00  0.00     0.338 C 
ATOM     29  O   UNL A   1      42.424  25.105  25.297  1.00  0.00    -0.246 OA
BRANCH  28  30
ATOM     30  C   UNL A   1      41.598  25.825  27.407  1.00  0.00     0.060 A 
ATOM     31  C   UNL A   1      40.552  25.631  28.321  1.00  0.00     0.016 A 
ATOM     32  C   UNL A   1      42.497  26.881  27.604  1.00  0.00     0.016 A 
ATOM     33  C   UNL A   1      40.410  26.473  29.431  1.00  0.00     0.010 A 
ATOM     34  C   UNL A   1      42.346  27.732  28.712  1.00  0.00     0.010 A 
ATOM     35  C   UNL A   1      41.301  27.536  29.632  1.00  0.00    -0.014 A 
BRANCH  35  36
ATOM     36  C   UNL A   1      41.056  28.520  30.724  1.00  0.00     0.031 A 
ATOM     37  C   UNL A   1      41.874  28.423  31.975  1.00  0.00     0.074 A 
ATOM     38  C   UNL A   1      40.128  29.490  30.621  1.00  0.00     0.049 A 
ATOM     39  N   UNL A   1      41.889  29.218  33.010  1.00  0.00    -0.248 NA
ATOM     40  C   UNL A   1      42.806  27.288  32.062  1.00  0.00     0.031 C 
ATOM     41  C   UNL A   1      39.280  29.711  29.463  1.00  0.00     0.029 A 
ATOM     42  N   UNL A   1      39.729  30.466  31.504  1.00  0.00    -0.354 N 
ATOM     43  C   UNL A   1      42.866  28.712  33.854  1.00  0.00     0.074 A 
ATOM     44  C   UNL A   1      43.377  27.505  33.237  1.00  0.00     0.031 C 
ATOM     45  C   UNL A   1      38.429  30.720  29.704  1.00  0.00     0.029 A 
ATOM     46  C   UNL A   1      38.677  31.230  31.047  1.00  0.00     0.049 A 
ATOM     47  H   UNL A   1      40.155  30.606  32.380  1.00  0.00     0.167 HD
ATOM     48  C   UNL A   1      43.313  29.218  35.026  1.00  0.00     0.037 A 
ATOM     49  C   UNL A   1      37.988  32.223  31.643  1.00  0.00     0.037 A 
ATOM     50  C   UNL A   1      42.754  30.372  35.677  1.00  0.00     0.049 A 
ATOM     51  C   UNL A   1      38.415  32.690  33.008  1.00  0.00     0.074 A 
ATOM     52  C   UNL A   1      43.134  30.954  36.874  1.00  0.00     0.029 A 
ATOM     53  N   UNL A   1      41.671  31.098  35.206  1.00  0.00    -0.354 N 
ATOM     54  N   UNL A   1      39.412  32.264  33.746  1.00  0.00    -0.248 NA
ATOM     55  C   UNL A   1      37.643  33.785  33.613  1.00  0.00     0.031 C 
ATOM     56  C   UNL A   1      42.248  32.001  37.150  1.00  0.00     0.029 A 
ATOM     57  C   UNL A   1      41.346  32.103  36.103  1.00  0.00     0.049 A 
ATOM     58  H   UNL A   1      41.201  30.926  34.358  1.00  0.00     0.167 HD
ATOM     59  C   UNL A   1      39.417  33.069  34.879  1.00  0.00     0.074 A 
ATOM     60  C   UNL A   1      38.319  34.004  34.733  1.00  0.00     0.031 C 
ATOM     61  C   UNL A   1      40.263  33.041  35.938  1.00  0.00     0.037 A 
BRANCH  48  62
ATOM     62  C   UNL A   1      44.457  28.496  35.669  1.00  0.00     0.058 A 
ATOM     63  C   UNL A   1      44.234  27.509  36.644  1.00  0.00     0.135 A 
ATOM     64  C   UNL A   1      45.784  28.818  35.347  1.00  0.00     0.135 A 
ATOM     65  F   UNL A   1      42.982  27.183  37.002  1.00  0.00    -0.206 F 
ATOM     66  C   UNL A   1      45.288  26.896  37.309  1.00  0.00     0.059 A 
ATOM     67  C   UNL A   1      46.855  28.201  35.985  1.00  0.00     0.059 A 
ATOM     68  F   UNL A   1      46.047  29.759  34.427  1.00  0.00    -0.206 F 
ATOM     69  C   UNL A   1      46.596  27.258  36.980  1.00  0.00     0.060 A 
BRANCH  69  70
ATOM     70  S   UNL A   1      47.954  26.489  37.886  1.00  0.00     0.124 S 
ATOM     71  O   UNL A   1      48.567  27.649  38.527  1.00  0.00    -0.237 OA
ATOM     72  O   UNL A   1      47.255  25.568  38.776  1.00  0.00    -0.237 OA
ATOM     73  O   UNL A   1      48.749  25.860  36.835  1.00  0.00    -0.744 OA
ENDBRANCH  69  70
ENDBRANCH  48  62
BRANCH  49  74
ATOM     74  C   UNL A   1      36.834  32.861  30.953  1.00  0.00     0.058 A 
ATOM     75  C   UNL A   1      37.028  33.826  29.954  1.00  0.00     0.135 A 
ATOM     76  C   UNL A   1      35.512  32.539  31.300  1.00  0.00     0.135 A 
ATOM     77  F   UNL A   1      38.272  34.173  29.590  1.00  0.00    -0.206 F 
ATOM     78  C   UNL A   1      35.955  34.468  29.341  1.00  0.00     0.059 A 
ATOM     79  C   UNL A   1      34.424  33.152  30.687  1.00  0.00     0.059 A 
ATOM     80  F   UNL A   1      35.270  31.610  32.239  1.00  0.00    -0.206 F 
ATOM     81  C   UNL A   1      34.657  34.125  29.716  1.00  0.00     0.060 A 
BRANCH  81  82
ATOM     82  S   UNL A   1      33.272  34.939  28.889  1.00  0.00     0.124 S 
ATOM     83  O   UNL A   1      32.375  35.204  30.008  1.00  0.00    -0.237 OA
ATOM     84  O   UNL A   1      33.918  36.105  28.295  1.00  0.00    -0.237 OA
ATOM     85  O   UNL A   1      32.815  33.933  27.935  1.00  0.00    -0.744 OA
ENDBRANCH  81  82
ENDBRANCH  49  74
BRANCH  61  86
ATOM     86  C   UNL A   1      40.074  34.081  37.006  1.00  0.00     0.058 A 
ATOM     87  C   UNL A   1      40.580  35.383  36.871  1.00  0.00     0.135 A 
ATOM     88  C   UNL A   1      39.316  33.786  38.152  1.00  0.00     0.135 A 
ATOM     89  F   UNL A   1      41.322  35.712  35.801  1.00  0.00    -0.206 F 
ATOM     90  C   UNL A   1      40.349  36.355  37.839  1.00  0.00     0.059 A 
ATOM     91  C   UNL A   1      39.051  34.750  39.118  1.00  0.00     0.059 A 
ATOM     92  F   UNL A   1      38.806  32.557  38.327  1.00  0.00    -0.206 F 
ATOM     93  C   UNL A   1      39.577  36.030  38.957  1.00  0.00     0.060 A 
BRANCH  93  94
ATOM     94  S   UNL A   1      39.230  37.316  40.175  1.00  0.00     0.124 S 
ATOM     95  O   UNL A   1      38.501  36.569  41.194  1.00  0.00    -0.237 OA
ATOM     96  O   UNL A   1      40.568  37.762  40.550  1.00  0.00    -0.237 OA
ATOM     97  O   UNL A   1      38.442  38.290  39.425  1.00  0.00    -0.744 OA
ENDBRANCH  93  94
ENDBRANCH  61  86
ENDBRANCH  35  36
ENDBRANCH  28  30
ENDBRANCH  27  28
ENDBRANCH  26  27
ENDBRANCH  25  26
ENDBRANCH   1  25
TORSDOF 20
ENDMDL
MODEL 2
REMARK VINA RESULT:     -10.5      6.780      9.208
REMARK SMILES O=C(Cc1cn2ccsc2n1)N[C@@H]1C=C[C@H](C(=O)OCCOCCOC(=O)c2ccc(-c3c4nc(c(-c5c(F)cc(S(=O)(=O)[O-])cc5F)c5ccc([nH]5)c(-c5c(F)cc(S(=O)(=O)[O-])cc5F)c5nc(c(-c6c(F)cc(S(=O)(=O)[O-])cc6F)c6ccc3[nH]6)C=C5)C=C4)cc2)C1
REMARK SMILES IDX 22 1 21 2 20 3 19 4 17 5 18 6 16 7 13 8 14 9 94 10 15 11
REMARK SMILES IDX 12 12 1 13 2 14 3 16 4 17 5 18 11 19 6 20 10 21 7 22 9 23
REMARK SMILES IDX 8 24 23 25 24 26 25 27 26 28 27 29 28 30 29 31 93 32 30 33
REMARK SMILES IDX 92 34 31 35 32 36 33 37 86 38 34 39 91 40 85 41 87 42 35 43
REMARK SMILES IDX 90 44 84 45 83 46 36 48 70 49 49 50 69 51 50 52 53 53 68 54
REMARK SMILES IDX 88 55 51 56 52 57 67 59 89 60 54 61 37 62 38 63 47 64 39 65
REMARK SMILES IDX 40 66 46 67 48 68 41 69 42 70 43 71 44 72 45 73 71 74 72 75
REMARK SMILES IDX 81 76 73 77 74 78 80 79 82 80 75 81 76 82 77 83 78 84 79 85
REMARK SMILES IDX 55 86 56 87 65 88 57 89 58 90 64 91 66 92 59 93 60 94 61 95
REMARK SMILES IDX 62 96 63 97
REMARK H PARENT 12 15 87 47 53 58
REMARK Flexibility Score: inf
ROOT
ATOM      1  O   UNL A   1      41.073  21.044  27.232  1.00  0.00    -0.374 OA
ENDROOT
BRANCH   1   2
ATOM      2  C   UNL A   1      41.013  22.273  26.499  1.00  0.00     0.202 C 
BRANCH   2   3
ATOM      3  C   UNL A   1      39.614  22.901  26.476  1.00  0.00     0.261 C 
BRANCH   3   4
ATOM      4  O   UNL A   1      38.612  21.863  26.493  1.00  0.00    -0.463 OA
BRANCH   4   5
ATOM      5  C   UNL A   1      37.882  21.723  25.359  1.00  0.00     0.312 C 
ATOM      6  O   UNL A   1      37.670  20.652  24.798  1.00  0.00    -0.252 OA
BRANCH   5   7
ATOM      7  C   UNL A   1      37.331  23.045  24.825  1.00  0.00     0.124 C 
ATOM      8  C   UNL A   1      34.928  23.627  24.785  1.00  0.00     0.106 C 
ATOM      9  C   UNL A   1      35.476  23.397  23.419  1.00  0.00    -0.006 C 
ATOM     10  C   UNL A   1      36.167  23.551  25.691  1.00  0.00     0.048 C 
ATOM     11  C   UNL A   1      36.769  23.064  23.436  1.00  0.00    -0.014 C 
BRANCH   8  12
ATOM     12  N   UNL A   1      33.998  22.565  25.042  1.00  0.00    -0.350 N 
ATOM     13  O   UNL A   1      32.127  23.877  24.999  1.00  0.00    -0.275 OA
ATOM     14  C   UNL A   1      32.634  22.758  25.098  1.00  0.00     0.226 C 
ATOM     15  H   UNL A   1      34.349  21.656  25.186  1.00  0.00     0.164 HD
BRANCH  14  16
ATOM     16  C   UNL A   1      31.774  21.521  25.347  1.00  0.00     0.157 C 
BRANCH  16  17
ATOM     17  C   UNL A   1      32.367  20.252  24.836  1.00  0.00     0.070 A 
ATOM     18  C   UNL A   1      32.331  19.726  23.549  1.00  0.00     0.118 A 
ATOM     19  N   UNL A   1      32.973  19.364  25.719  1.00  0.00    -0.223 NA
ATOM     20  N   UNL A   1      32.945  18.516  23.654  1.00  0.00    -0.297 N 
ATOM     21  C   UNL A   1      33.310  18.365  24.955  1.00  0.00     0.193 A 
ATOM     22  C   UNL A   1      33.252  17.459  22.827  1.00  0.00     0.104 A 
ATOM     23  S   UNL A   1      34.084  16.839  25.206  1.00  0.00    -0.105 S 
ATOM     24  C   UNL A   1      33.876  16.474  23.495  1.00  0.00     0.087 A 
ENDBRANCH  16  17
ENDBRANCH  14  16
ENDBRANCH   8  12
ENDBRANCH   5   7
ENDBRANCH   4   5
ENDBRANCH   3   4
ENDBRANCH   2   3
ENDBRANCH   1   2
BRANCH   1  25
ATOM     25  C   UNL A   1      40.898  19.873  26.436  1.00  0.00     0.202 C 
BRANCH  25  26
ATOM     26  C   UNL A   1      42.182  19.098  26.120  1.00  0.00     0.261 C 
BRANCH  26  27
ATOM     27  O   UNL A   1      42.748  19.448  24.841  1.00  0.00    -0.460 OA
BRANCH  27  28
ATOM     28  C   UNL A   1      44.090  19.646  24.827  1.00  0.00     0.338 C 
ATOM     29  O   UNL A   1      44.938  18.818  24.524  1.00  0.00    -0.246 OA
BRANCH  28  30
ATOM     30  C   UNL A   1      44.430  21.058  25.140  1.00  0.00     0.060 A 
ATOM     31  C   UNL A   1      44.768  21.372  26.464  1.00  0.00     0.016 A 
ATOM     32  C   UNL A   1      44.416  22.072  24.175  1.00  0.00     0.016 A 
ATOM     33  C   UNL A   1      45.104  22.684  26.822  1.00  0.00     0.010 A 
ATOM     34  C   UNL A   1      44.742  23.390  24.537  1.00  0.00     0.010 A 
ATOM     35  C   UNL A   1      45.085  23.706  25.864  1.00  0.00    -0.014 A 
BRANCH  35  36
ATOM     36  C   UNL A   1      45.291  25.122  26.278  1.00  0.00     0.031 A 
ATOM     37  C   UNL A   1      46.680  25.681  26.260  1.00  0.00     0.074 A 
ATOM     38  C   UNL A   1      44.272  25.913  26.665  1.00  0.00     0.049 A 
ATOM     39  N   UNL A   1      47.078  26.903  26.497  1.00  0.00    -0.248 NA
ATOM     40  C   UNL A   1      47.760  24.744  25.916  1.00  0.00     0.031 C 
ATOM     41  C   UNL A   1      42.877  25.507  26.714  1.00  0.00     0.029 A 
ATOM     42  N   UNL A   1      44.244  27.215  27.105  1.00  0.00    -0.354 N 
ATOM     43  C   UNL A   1      48.448  26.896  26.283  1.00  0.00     0.074 A 
ATOM     44  C   UNL A   1      48.821  25.535  25.958  1.00  0.00     0.031 C 
ATOM     45  C   UNL A   1      42.126  26.510  27.195  1.00  0.00     0.029 A 
ATOM     46  C   UNL A   1      42.993  27.646  27.486  1.00  0.00     0.049 A 
ATOM     47  H   UNL A   1      45.045  27.786  27.144  1.00  0.00     0.167 HD
ATOM     48  C   UNL A   1      49.313  27.934  26.331  1.00  0.00     0.037 A 
ATOM     49  C   UNL A   1      42.590  28.818  28.014  1.00  0.00     0.037 A 
ATOM     50  C   UNL A   1      48.958  29.269  26.729  1.00  0.00     0.049 A 
ATOM     51  C   UNL A   1      43.594  29.924  28.185  1.00  0.00     0.074 A 
ATOM     52  C   UNL A   1      49.771  30.386  26.819  1.00  0.00     0.029 A 
ATOM     53  N   UNL A   1      47.693  29.661  27.140  1.00  0.00    -0.354 N 
ATOM     54  N   UNL A   1      44.868  29.931  27.878  1.00  0.00    -0.248 NA
ATOM     55  C   UNL A   1      43.106  31.190  28.752  1.00  0.00     0.031 C 
ATOM     56  C   UNL A   1      49.007  31.441  27.332  1.00  0.00     0.029 A 
ATOM     57  C   UNL A   1      47.708  30.994  27.517  1.00  0.00     0.049 A 
ATOM     58  H   UNL A   1      46.900  29.078  27.161  1.00  0.00     0.167 HD
ATOM     59  C   UNL A   1      45.324  31.212  28.167  1.00  0.00     0.074 A 
ATOM     60  C   UNL A   1      44.189  31.952  28.682  1.00  0.00     0.031 C 
ATOM     61  C   UNL A   1      46.568  31.727  28.010  1.00  0.00     0.037 A 
BRANCH  48  62
ATOM     62  C   UNL A   1      50.732  27.635  25.953  1.00  0.00     0.058 A 
ATOM     63  C   UNL A   1      51.153  27.694  24.614  1.00  0.00     0.135 A 
ATOM     64  C   UNL A   1      51.668  27.243  26.923  1.00  0.00     0.135 A 
ATOM     65  F   UNL A   1      50.287  28.043  23.649  1.00  0.00    -0.206 F 
ATOM     66  C   UNL A   1      52.441  27.334  24.243  1.00  0.00     0.059 A 
ATOM     67  C   UNL A   1      52.970  26.899  26.576  1.00  0.00     0.059 A 
ATOM     68  F   UNL A   1      51.311  27.164  28.214  1.00  0.00    -0.206 F 
ATOM     69  C   UNL A   1      53.340  26.926  25.230  1.00  0.00     0.060 A 
BRANCH  69  70
ATOM     70  S   UNL A   1      54.996  26.415  24.728  1.00  0.00     0.124 S 
ATOM     71  O   UNL A   1      55.001  26.795  23.319  1.00  0.00    -0.237 OA
ATOM     72  O   UNL A   1      55.849  27.213  25.603  1.00  0.00    -0.237 OA
ATOM     73  O   UNL A   1      55.002  24.979  24.992  1.00  0.00    -0.744 OA
ENDBRANCH  69  70
ENDBRANCH  48  62
BRANCH  49  74
ATOM     74  C   UNL A   1      41.167  29.021  28.404  1.00  0.00     0.058 A 
ATOM     75  C   UNL A   1      40.178  29.271  27.442  1.00  0.00     0.135 A 
ATOM     76  C   UNL A   1      40.774  28.998  29.752  1.00  0.00     0.135 A 
ATOM     77  F   UNL A   1      40.504  29.308  26.140  1.00  0.00    -0.206 F 
ATOM     78  C   UNL A   1      38.856  29.516  27.800  1.00  0.00     0.059 A 
ATOM     79  C   UNL A   1      39.454  29.220  30.133  1.00  0.00     0.059 A 
ATOM     80  F   UNL A   1      41.678  28.747  30.712  1.00  0.00    -0.206 F 
ATOM     81  C   UNL A   1      38.504  29.490  29.150  1.00  0.00     0.060 A 
BRANCH  81  82
ATOM     82  S   UNL A   1      36.778  29.775  29.602  1.00  0.00     0.124 S 
ATOM     83  O   UNL A   1      36.652  28.967  30.808  1.00  0.00    -0.237 OA
ATOM     84  O   UNL A   1      36.751  31.222  29.793  1.00  0.00    -0.237 OA
ATOM     85  O   UNL A   1      36.044  29.293  28.435  1.00  0.00    -0.744 OA
ENDBRANCH  81  82
ENDBRANCH  49  74
BRANCH  61  86
ATOM     86  C   UNL A   1      46.766  33.178  28.349  1.00  0.00     0.058 A 
ATOM     87  C   UNL A   1      46.574  34.194  27.401  1.00  0.00     0.135 A 
ATOM     88  C   UNL A   1      47.088  33.558  29.663  1.00  0.00     0.135 A 
ATOM     89  F   UNL A   1      46.278  33.884  26.128  1.00  0.00    -0.206 F 
ATOM     90  C   UNL A   1      46.702  35.537  27.740  1.00  0.00     0.059 A 
ATOM     91  C   UNL A   1      47.195  34.895  30.030  1.00  0.00     0.059 A 
ATOM     92  F   UNL A   1      47.278  32.624  30.609  1.00  0.00    -0.206 F 
ATOM     93  C   UNL A   1      47.007  35.878  29.060  1.00  0.00     0.060 A 
BRANCH  93  94
ATOM     94  S   UNL A   1      47.109  37.624  29.504  1.00  0.00     0.124 S 
ATOM     95  O   UNL A   1      45.873  37.810  30.256  1.00  0.00    -0.237 OA
ATOM     96  O   UNL A   1      48.341  37.678  30.285  1.00  0.00    -0.237 OA
ATOM     97  O   UNL A   1      47.166  38.300  28.211  1.00  0.00    -0.744 OA
ENDBRANCH  93  94
ENDBRANCH  61  86
ENDBRANCH  35  36
ENDBRANCH  28  30
ENDBRANCH  27  28
ENDBRANCH  26  27
ENDBRANCH  25  26
ENDBRANCH   1  25
TORSDOF 20
ENDMDL
MODEL 3
REMARK VINA RESULT:     -10.4      6.483      8.629
REMARK SMILES O=C(Cc1cn2ccsc2n1)N[C@@H]1C=C[C@H](C(=O)OCCOCCOC(=O)c2ccc(-c3c4nc(c(-c5c(F)cc(S(=O)(=O)[O-])cc5F)c5ccc([nH]5)c(-c5c(F)cc(S(=O)(=O)[O-])cc5F)c5nc(c(-c6c(F)cc(S(=O)(=O)[O-])cc6F)c6ccc3[nH]6)C=C5)C=C4)cc2)C1
REMARK SMILES IDX 22 1 21 2 20 3 19 4 17 5 18 6 16 7 13 8 14 9 94 10 15 11
REMARK SMILES IDX 12 12 1 13 2 14 3 16 4 17 5 18 11 19 6 20 10 21 7 22 9 23
REMARK SMILES IDX 8 24 23 25 24 26 25 27 26 28 27 29 28 30 29 31 93 32 30 33
REMARK SMILES IDX 92 34 31 35 32 36 33 37 86 38 34 39 91 40 85 41 87 42 35 43
REMARK SMILES IDX 90 44 84 45 83 46 36 48 70 49 49 50 69 51 50 52 53 53 68 54
REMARK SMILES IDX 88 55 51 56 52 57 67 59 89 60 54 61 37 62 38 63 47 64 39 65
REMARK SMILES IDX 40 66 46 67 48 68 41 69 42 70 43 71 44 72 45 73 71 74 72 75
REMARK SMILES IDX 81 76 73 77 74 78 80 79 82 80 75 81 76 82 77 83 78 84 79 85
REMARK SMILES IDX 55 86 56 87 65 88 57 89 58 90 64 91 66 92 59 93 60 94 61 95
REMARK SMILES IDX 62 96 63 97
REMARK H PARENT 12 15 87 47 53 58
REMARK Flexibility Score: inf
ROOT
ATOM      1  O   UNL A   1      41.681  20.933  26.964  1.00  0.00    -0.374 OA
ENDROOT
BRANCH   1   2
ATOM      2  C   UNL A   1      41.045  21.917  26.140  1.00  0.00     0.202 C 
BRANCH   2   3
ATOM      3  C   UNL A   1      39.595  22.208  26.546  1.00  0.00     0.261 C 
BRANCH   3   4
ATOM      4  O   UNL A   1      38.700  21.789  25.496  1.00  0.00    -0.463 OA
BRANCH   4   5
ATOM      5  C   UNL A   1      37.581  22.537  25.334  1.00  0.00     0.312 C 
ATOM      6  O   UNL A   1      37.370  23.603  25.906  1.00  0.00    -0.252 OA
BRANCH   5   7
ATOM      7  C   UNL A   1      36.579  21.927  24.354  1.00  0.00     0.124 C 
ATOM      8  C   UNL A   1      34.728  23.185  23.303  1.00  0.00     0.106 C 
ATOM      9  C   UNL A   1      34.240  22.188  24.296  1.00  0.00    -0.006 C 
ATOM     10  C   UNL A   1      36.238  22.911  23.225  1.00  0.00     0.048 C 
ATOM     11  C   UNL A   1      35.238  21.519  24.881  1.00  0.00    -0.014 C 
BRANCH   8  12
ATOM     12  N   UNL A   1      34.437  24.483  23.842  1.00  0.00    -0.350 N 
ATOM     13  O   UNL A   1      33.625  25.366  21.897  1.00  0.00    -0.275 OA
ATOM     14  C   UNL A   1      33.862  25.492  23.099  1.00  0.00     0.226 C 
ATOM     15  H   UNL A   1      34.657  24.662  24.785  1.00  0.00     0.164 HD
BRANCH  14  16
ATOM     16  C   UNL A   1      33.583  26.807  23.825  1.00  0.00     0.157 C 
BRANCH  16  17
ATOM     17  C   UNL A   1      32.196  27.322  23.642  1.00  0.00     0.070 A 
ATOM     18  C   UNL A   1      30.986  26.661  23.825  1.00  0.00     0.118 A 
ATOM     19  N   UNL A   1      31.991  28.597  23.126  1.00  0.00    -0.223 NA
ATOM     20  N   UNL A   1      30.040  27.558  23.437  1.00  0.00    -0.297 N 
ATOM     21  C   UNL A   1      30.695  28.684  23.045  1.00  0.00     0.193 A 
ATOM     22  C   UNL A   1      28.668  27.602  23.326  1.00  0.00     0.104 A 
ATOM     23  S   UNL A   1      29.579  29.890  22.507  1.00  0.00    -0.105 S 
ATOM     24  C   UNL A   1      28.249  28.788  22.852  1.00  0.00     0.087 A 
ENDBRANCH  16  17
ENDBRANCH  14  16
ENDBRANCH   8  12
ENDBRANCH   5   7
ENDBRANCH   4   5
ENDBRANCH   3   4
ENDBRANCH   2   3
ENDBRANCH   1   2
BRANCH   1  25
ATOM     25  C   UNL A   1      41.444  19.585  26.563  1.00  0.00     0.202 C 
BRANCH  25  26
ATOM     26  C   UNL A   1      42.643  18.869  25.932  1.00  0.00     0.261 C 
BRANCH  26  27
ATOM     27  O   UNL A   1      43.074  19.476  24.698  1.00  0.00    -0.460 OA
BRANCH  27  28
ATOM     28  C   UNL A   1      44.404  19.728  24.599  1.00  0.00     0.338 C 
ATOM     29  O   UNL A   1      45.258  18.949  24.202  1.00  0.00    -0.246 OA
BRANCH  28  30
ATOM     30  C   UNL A   1      44.712  21.139  24.951  1.00  0.00     0.060 A 
ATOM     31  C   UNL A   1      45.058  21.421  26.280  1.00  0.00     0.016 A 
ATOM     32  C   UNL A   1      44.661  22.180  24.016  1.00  0.00     0.016 A 
ATOM     33  C   UNL A   1      45.365  22.730  26.673  1.00  0.00     0.010 A 
ATOM     34  C   UNL A   1      44.959  23.494  24.415  1.00  0.00     0.010 A 
ATOM     35  C   UNL A   1      45.310  23.779  25.746  1.00  0.00    -0.014 A 
BRANCH  35  36
ATOM     36  C   UNL A   1      45.486  25.187  26.201  1.00  0.00     0.031 A 
ATOM     37  C   UNL A   1      46.868  25.763  26.238  1.00  0.00     0.074 A 
ATOM     38  C   UNL A   1      44.446  25.956  26.575  1.00  0.00     0.049 A 
ATOM     39  N   UNL A   1      47.243  26.982  26.517  1.00  0.00    -0.248 NA
ATOM     40  C   UNL A   1      47.969  24.846  25.905  1.00  0.00     0.031 C 
ATOM     41  C   UNL A   1      43.056  25.534  26.571  1.00  0.00     0.029 A 
ATOM     42  N   UNL A   1      44.389  27.247  27.045  1.00  0.00    -0.354 N 
ATOM     43  C   UNL A   1      48.619  26.997  26.344  1.00  0.00     0.074 A 
ATOM     44  C   UNL A   1      49.018  25.649  25.998  1.00  0.00     0.031 C 
ATOM     45  C   UNL A   1      42.278  26.516  27.053  1.00  0.00     0.029 A 
ATOM     46  C   UNL A   1      43.121  27.654  27.397  1.00  0.00     0.049 A 
ATOM     47  H   UNL A   1      45.181  27.826  27.122  1.00  0.00     0.167 HD
ATOM     48  C   UNL A   1      49.470  28.044  26.444  1.00  0.00     0.037 A 
ATOM     49  C   UNL A   1      42.688  28.808  27.941  1.00  0.00     0.037 A 
ATOM     50  C   UNL A   1      49.086  29.364  26.863  1.00  0.00     0.049 A 
ATOM     51  C   UNL A   1      43.673  29.922  28.169  1.00  0.00     0.074 A 
ATOM     52  C   UNL A   1      49.882  30.488  27.004  1.00  0.00     0.029 A 
ATOM     53  N   UNL A   1      47.804  29.731  27.244  1.00  0.00    -0.354 N 
ATOM     54  N   UNL A   1      44.956  29.950  27.901  1.00  0.00    -0.248 NA
ATOM     55  C   UNL A   1      43.152  31.168  28.752  1.00  0.00     0.031 C 
ATOM     56  C   UNL A   1      49.090  31.521  27.519  1.00  0.00     0.029 A 
ATOM     57  C   UNL A   1      47.792  31.055  27.653  1.00  0.00     0.049 A 
ATOM     58  H   UNL A   1      47.018  29.139  27.227  1.00  0.00     0.167 HD
ATOM     59  C   UNL A   1      45.386  31.229  28.236  1.00  0.00     0.074 A 
ATOM     60  C   UNL A   1      44.228  31.943  28.733  1.00  0.00     0.031 C 
ATOM     61  C   UNL A   1      46.628  31.762  28.129  1.00  0.00     0.037 A 
BRANCH  48  62
ATOM     62  C   UNL A   1      50.903  27.770  26.103  1.00  0.00     0.058 A 
ATOM     63  C   UNL A   1      51.356  27.837  24.775  1.00  0.00     0.135 A 
ATOM     64  C   UNL A   1      51.820  27.395  27.096  1.00  0.00     0.135 A 
ATOM     65  F   UNL A   1      50.510  28.170  23.787  1.00  0.00    -0.206 F 
ATOM     66  C   UNL A   1      52.660  27.500  24.437  1.00  0.00     0.059 A 
ATOM     67  C   UNL A   1      53.137  27.075  26.782  1.00  0.00     0.059 A 
ATOM     68  F   UNL A   1      51.432  27.310  28.378  1.00  0.00    -0.206 F 
ATOM     69  C   UNL A   1      53.541  27.109  25.447  1.00  0.00     0.060 A 
BRANCH  69  70
ATOM     70  S   UNL A   1      55.218  26.627  24.988  1.00  0.00     0.124 S 
ATOM     71  O   UNL A   1      55.015  25.249  24.552  1.00  0.00    -0.237 OA
ATOM     72  O   UNL A   1      55.541  27.584  23.934  1.00  0.00    -0.237 OA
ATOM     73  O   UNL A   1      55.969  26.789  26.229  1.00  0.00    -0.744 OA
ENDBRANCH  69  70
ENDBRANCH  48  62
BRANCH  49  74
ATOM     74  C   UNL A   1      41.252  28.986  28.292  1.00  0.00     0.058 A 
ATOM     75  C   UNL A   1      40.283  29.202  27.302  1.00  0.00     0.135 A 
ATOM     76  C   UNL A   1      40.825  28.971  29.630  1.00  0.00     0.135 A 
ATOM     77  F   UNL A   1      40.641  29.229  26.009  1.00  0.00    -0.206 F 
ATOM     78  C   UNL A   1      38.946  29.422  27.624  1.00  0.00     0.059 A 
ATOM     79  C   UNL A   1      39.491  29.168  29.975  1.00  0.00     0.059 A 
ATOM     80  F   UNL A   1      41.709  28.752  30.616  1.00  0.00    -0.206 F 
ATOM     81  C   UNL A   1      38.561  29.406  28.964  1.00  0.00     0.060 A 
BRANCH  81  82
ATOM     82  S   UNL A   1      36.818  29.659  29.368  1.00  0.00     0.124 S 
ATOM     83  O   UNL A   1      36.159  29.113  28.188  1.00  0.00    -0.237 OA
ATOM     84  O   UNL A   1      36.678  28.885  30.597  1.00  0.00    -0.237 OA
ATOM     85  O   UNL A   1      36.722  31.106  29.536  1.00  0.00    -0.744 OA
ENDBRANCH  81  82
ENDBRANCH  49  74
BRANCH  61  86
ATOM     86  C   UNL A   1      46.798  33.207  28.509  1.00  0.00     0.058 A 
ATOM     87  C   UNL A   1      46.606  34.244  27.584  1.00  0.00     0.135 A 
ATOM     88  C   UNL A   1      47.093  33.557  29.837  1.00  0.00     0.135 A 
ATOM     89  F   UNL A   1      46.335  33.963  26.299  1.00  0.00    -0.206 F 
ATOM     90  C   UNL A   1      46.707  35.580  27.960  1.00  0.00     0.059 A 
ATOM     91  C   UNL A   1      47.173  34.885  30.240  1.00  0.00     0.059 A 
ATOM     92  F   UNL A   1      47.282  32.602  30.761  1.00  0.00    -0.206 F 
ATOM     93  C   UNL A   1      46.986  35.890  29.293  1.00  0.00     0.060 A 
BRANCH  93  94
ATOM     94  S   UNL A   1      47.053  37.626  29.784  1.00  0.00     0.124 S 
ATOM     95  O   UNL A   1      46.149  38.240  28.818  1.00  0.00    -0.237 OA
ATOM     96  O   UNL A   1      46.575  37.582  31.162  1.00  0.00    -0.237 OA
ATOM     97  O   UNL A   1      48.464  37.967  29.629  1.00  0.00    -0.744 OA
ENDBRANCH  93  94
ENDBRANCH  61  86
ENDBRANCH  35  36
ENDBRANCH  28  30
ENDBRANCH  27  28
ENDBRANCH  26  27
ENDBRANCH  25  26
ENDBRANCH   1  25
TORSDOF 20
ENDMDL
