MODEL 1
REMARK VINA RESULT:     -10.6      0.000      0.000
REMARK SMILES O=C(C[N@@H+]1C[C@@]2([N+](=O)[O-])CC=C(Cl)[C@@]([N+](=O)[O-])(C1)C2)OCCOCCOC(=O)c1ccc(-c2c3nc(c(-c4c(F)cc(S(=O)(=O)[O-])cc4F)c4ccc([nH]4)c(-c4c(F)cc(S(=O)(=O)[O-])cc4F)c4nc(c(-c5c(F)cc(S(=O)(=O)[O-])cc5F)c5ccc2[nH]5)C=C4)C=C3)cc1
REMARK SMILES IDX 24 1 23 2 22 3 21 4 20 5 2 6 1 7 3 8 4 9 5 10 18 11 6 13
REMARK SMILES IDX 14 14 10 15 19 16 12 17 11 18 13 19 7 20 8 21 9 22 15 23
REMARK SMILES IDX 16 24 17 25 25 26 26 27 27 28 28 29 29 30 30 31 94 32 31 33
REMARK SMILES IDX 93 34 32 35 33 36 34 37 87 38 35 39 92 40 86 41 88 42 36 43
REMARK SMILES IDX 91 44 85 45 84 46 37 48 71 49 50 50 70 51 51 52 54 53 69 54
REMARK SMILES IDX 89 55 52 56 53 57 68 59 90 60 55 61 38 62 39 63 48 64 40 65
REMARK SMILES IDX 41 66 47 67 49 68 42 69 43 70 44 71 45 72 46 73 72 74 73 75
REMARK SMILES IDX 82 76 74 77 75 78 81 79 83 80 76 81 77 82 78 83 79 84 80 85
REMARK SMILES IDX 56 86 57 87 66 88 58 89 59 90 65 91 67 92 60 93 61 94 62 95
REMARK SMILES IDX 63 96 64 97
REMARK H PARENT 4 12 88 47 54 58
REMARK Flexibility Score: inf
ROOT
ATOM      1  C   UNL A   1      32.993  28.677  26.068  1.00  0.00     0.202 C 
ENDROOT
BRANCH   1   2
ATOM      2  O   UNL A   1      31.679  28.238  25.728  1.00  0.00    -0.374 OA
BRANCH   2   3
ATOM      3  C   UNL A   1      31.110  28.683  24.511  1.00  0.00     0.202 C 
BRANCH   3   4
ATOM      4  C   UNL A   1      30.964  27.705  23.351  1.00  0.00     0.261 C 
BRANCH   4   5
ATOM      5  O   UNL A   1      32.095  27.340  22.525  1.00  0.00    -0.459 OA
BRANCH   5   6
ATOM      6  C   UNL A   1      32.642  26.218  22.038  1.00  0.00     0.361 C 
ATOM      7  O   UNL A   1      33.652  26.321  21.336  1.00  0.00    -0.245 OA
BRANCH   6   8
ATOM      8  C   UNL A   1      32.027  24.848  22.240  1.00  0.00     0.386 C 
BRANCH   8   9
ATOM      9  N   UNL A   1      32.219  24.148  23.523  1.00  0.00    -0.313 N 
ATOM     10  C   UNL A   1      31.115  24.383  24.460  1.00  0.00     0.350 C 
ATOM     11  C   UNL A   1      33.577  24.124  24.085  1.00  0.00     0.356 C 
ATOM     12  H   UNL A   1      32.152  23.159  23.281  1.00  0.00     0.349 HD
ATOM     13  C   UNL A   1      31.234  23.590  25.771  1.00  0.00     0.280 C 
ATOM     14  C   UNL A   1      33.683  23.334  25.414  1.00  0.00     0.311 C 
ATOM     15  C   UNL A   1      31.021  22.068  25.575  1.00  0.00     0.121 C 
ATOM     16  C   UNL A   1      32.611  23.859  26.398  1.00  0.00     0.191 C 
ATOM     17  C   UNL A   1      33.483  21.855  25.147  1.00  0.00     0.097 C 
ATOM     18  C   UNL A   1      32.264  21.292  25.212  1.00  0.00     0.004 C 
ATOM     19  Cl  UNL A   1      34.824  20.898  24.625  1.00  0.00    -0.081 Cl
BRANCH  13  20
ATOM     20  N   UNL A   1      30.132  24.131  26.675  1.00  0.00     0.032 N 
ATOM     21  O   UNL A   1      29.612  23.347  27.479  1.00  0.00    -0.264 OA
ATOM     22  O   UNL A   1      29.783  25.307  26.508  1.00  0.00    -0.264 OA
ENDBRANCH  13  20
BRANCH  14  23
ATOM     23  N   UNL A   1      35.043  23.586  26.062  1.00  0.00     0.038 N 
ATOM     24  O   UNL A   1      35.199  23.238  27.241  1.00  0.00    -0.263 OA
ATOM     25  O   UNL A   1      35.926  24.077  25.347  1.00  0.00    -0.263 OA
ENDBRANCH  14  23
ENDBRANCH   8   9
ENDBRANCH   6   8
ENDBRANCH   5   6
ENDBRANCH   4   5
ENDBRANCH   3   4
ENDBRANCH   2   3
ENDBRANCH   1   2
BRANCH   1  26
ATOM     26  C   UNL A   1      33.124  29.588  27.285  1.00  0.00     0.261 C 
BRANCH  26  27
ATOM     27  O   UNL A   1      34.098  30.613  27.052  1.00  0.00    -0.460 OA
BRANCH  27  28
ATOM     28  C   UNL A   1      34.724  31.080  28.161  1.00  0.00     0.338 C 
ATOM     29  O   UNL A   1      34.273  31.831  29.002  1.00  0.00    -0.246 OA
BRANCH  28  30
ATOM     30  C   UNL A   1      35.987  30.337  28.318  1.00  0.00     0.060 A 
ATOM     31  C   UNL A   1      36.284  29.797  29.578  1.00  0.00     0.016 A 
ATOM     32  C   UNL A   1      36.870  30.195  27.248  1.00  0.00     0.016 A 
ATOM     33  C   UNL A   1      37.498  29.151  29.784  1.00  0.00     0.010 A 
ATOM     34  C   UNL A   1      38.092  29.565  27.460  1.00  0.00     0.010 A 
ATOM     35  C   UNL A   1      38.425  29.081  28.738  1.00  0.00    -0.014 A 
BRANCH  35  36
ATOM     36  C   UNL A   1      39.827  28.715  29.025  1.00  0.00     0.031 A 
ATOM     37  C   UNL A   1      40.715  29.764  29.634  1.00  0.00     0.074 A 
ATOM     38  C   UNL A   1      40.292  27.486  28.746  1.00  0.00     0.049 A 
ATOM     39  N   UNL A   1      41.997  29.726  29.877  1.00  0.00    -0.248 NA
ATOM     40  C   UNL A   1      40.066  31.032  30.010  1.00  0.00     0.031 C 
ATOM     41  C   UNL A   1      39.498  26.386  28.200  1.00  0.00     0.029 A 
ATOM     42  N   UNL A   1      41.553  26.966  28.870  1.00  0.00    -0.354 N 
ATOM     43  C   UNL A   1      42.310  30.966  30.423  1.00  0.00     0.074 A 
ATOM     44  C   UNL A   1      41.093  31.746  30.442  1.00  0.00     0.031 C 
ATOM     45  C   UNL A   1      40.300  25.321  28.019  1.00  0.00     0.029 A 
ATOM     46  C   UNL A   1      41.664  25.681  28.399  1.00  0.00     0.049 A 
ATOM     47  H   UNL A   1      42.307  27.466  29.259  1.00  0.00     0.167 HD
ATOM     48  C   UNL A   1      43.507  31.407  30.873  1.00  0.00     0.037 A 
ATOM     49  C   UNL A   1      42.755  24.901  28.265  1.00  0.00     0.037 A 
ATOM     50  C   UNL A   1      44.708  30.617  30.839  1.00  0.00     0.049 A 
ATOM     51  C   UNL A   1      44.093  25.442  28.701  1.00  0.00     0.074 A 
ATOM     52  C   UNL A   1      45.976  30.957  31.273  1.00  0.00     0.029 A 
ATOM     53  N   UNL A   1      44.790  29.325  30.336  1.00  0.00    -0.354 N 
ATOM     54  N   UNL A   1      44.382  26.612  29.223  1.00  0.00    -0.248 NA
ATOM     55  C   UNL A   1      45.254  24.558  28.531  1.00  0.00     0.031 C 
ATOM     56  C   UNL A   1      46.835  29.893  30.981  1.00  0.00     0.029 A 
ATOM     57  C   UNL A   1      46.091  28.863  30.426  1.00  0.00     0.049 A 
ATOM     58  H   UNL A   1      44.033  28.813  29.969  1.00  0.00     0.167 HD
ATOM     59  C   UNL A   1      45.750  26.590  29.475  1.00  0.00     0.074 A 
ATOM     60  C   UNL A   1      46.228  25.289  29.056  1.00  0.00     0.031 C 
ATOM     61  C   UNL A   1      46.540  27.556  30.010  1.00  0.00     0.037 A 
BRANCH  48  62
ATOM     62  C   UNL A   1      43.577  32.810  31.411  1.00  0.00     0.058 A 
ATOM     63  C   UNL A   1      43.448  33.087  32.782  1.00  0.00     0.135 A 
ATOM     64  C   UNL A   1      43.798  33.894  30.545  1.00  0.00     0.135 A 
ATOM     65  F   UNL A   1      43.210  32.092  33.652  1.00  0.00    -0.206 F 
ATOM     66  C   UNL A   1      43.513  34.387  33.272  1.00  0.00     0.059 A 
ATOM     67  C   UNL A   1      43.898  35.199  31.017  1.00  0.00     0.059 A 
ATOM     68  F   UNL A   1      43.919  33.689  29.224  1.00  0.00    -0.206 F 
ATOM     69  C   UNL A   1      43.741  35.437  32.381  1.00  0.00     0.060 A 
BRANCH  69  70
ATOM     70  S   UNL A   1      43.835  37.116  33.036  1.00  0.00     0.124 S 
ATOM     71  O   UNL A   1      42.651  37.163  33.889  1.00  0.00    -0.237 OA
ATOM     72  O   UNL A   1      45.118  37.107  33.732  1.00  0.00    -0.237 OA
ATOM     73  O   UNL A   1      43.779  37.952  31.841  1.00  0.00    -0.744 OA
ENDBRANCH  69  70
ENDBRANCH  48  62
BRANCH  49  74
ATOM     74  C   UNL A   1      42.629  23.534  27.692  1.00  0.00     0.058 A 
ATOM     75  C   UNL A   1      42.386  22.425  28.516  1.00  0.00     0.135 A 
ATOM     76  C   UNL A   1      42.740  23.309  26.311  1.00  0.00     0.135 A 
ATOM     77  F   UNL A   1      42.282  22.588  29.843  1.00  0.00    -0.206 F 
ATOM     78  C   UNL A   1      42.275  21.140  27.995  1.00  0.00     0.059 A 
ATOM     79  C   UNL A   1      42.603  22.036  25.762  1.00  0.00     0.059 A 
ATOM     80  F   UNL A   1      42.961  24.336  25.476  1.00  0.00    -0.206 F 
ATOM     81  C   UNL A   1      42.381  20.956  26.615  1.00  0.00     0.060 A 
BRANCH  81  82
ATOM     82  S   UNL A   1      42.190  19.288  25.949  1.00  0.00     0.124 S 
ATOM     83  O   UNL A   1      43.031  19.350  24.759  1.00  0.00    -0.237 OA
ATOM     84  O   UNL A   1      42.693  18.464  27.043  1.00  0.00    -0.237 OA
ATOM     85  O   UNL A   1      40.755  19.187  25.703  1.00  0.00    -0.744 OA
ENDBRANCH  81  82
ENDBRANCH  49  74
BRANCH  61  86
ATOM     86  C   UNL A   1      47.994  27.229  30.217  1.00  0.00     0.058 A 
ATOM     87  C   UNL A   1      48.948  27.414  29.204  1.00  0.00     0.135 A 
ATOM     88  C   UNL A   1      48.446  26.783  31.470  1.00  0.00     0.135 A 
ATOM     89  F   UNL A   1      48.569  27.833  27.986  1.00  0.00    -0.206 F 
ATOM     90  C   UNL A   1      50.296  27.145  29.419  1.00  0.00     0.059 A 
ATOM     91  C   UNL A   1      49.793  26.540  31.717  1.00  0.00     0.059 A 
ATOM     92  F   UNL A   1      47.578  26.602  32.477  1.00  0.00    -0.206 F 
ATOM     93  C   UNL A   1      50.709  26.712  30.681  1.00  0.00     0.060 A 
BRANCH  93  94
ATOM     94  S   UNL A   1      52.466  26.404  30.955  1.00  0.00     0.124 S 
ATOM     95  O   UNL A   1      52.994  26.487  29.598  1.00  0.00    -0.237 OA
ATOM     96  O   UNL A   1      52.838  27.497  31.849  1.00  0.00    -0.237 OA
ATOM     97  O   UNL A   1      52.489  25.074  31.558  1.00  0.00    -0.744 OA
ENDBRANCH  93  94
ENDBRANCH  61  86
ENDBRANCH  35  36
ENDBRANCH  28  30
ENDBRANCH  27  28
ENDBRANCH  26  27
ENDBRANCH   1  26
TORSDOF 20
ENDMDL
MODEL 2
REMARK VINA RESULT:     -10.4      1.395      2.355
REMARK SMILES O=C(C[N@@H+]1C[C@@]2([N+](=O)[O-])CC=C(Cl)[C@@]([N+](=O)[O-])(C1)C2)OCCOCCOC(=O)c1ccc(-c2c3nc(c(-c4c(F)cc(S(=O)(=O)[O-])cc4F)c4ccc([nH]4)c(-c4c(F)cc(S(=O)(=O)[O-])cc4F)c4nc(c(-c5c(F)cc(S(=O)(=O)[O-])cc5F)c5ccc2[nH]5)C=C4)C=C3)cc1
REMARK SMILES IDX 24 1 23 2 22 3 21 4 20 5 2 6 1 7 3 8 4 9 5 10 18 11 6 13
REMARK SMILES IDX 14 14 10 15 19 16 12 17 11 18 13 19 7 20 8 21 9 22 15 23
REMARK SMILES IDX 16 24 17 25 25 26 26 27 27 28 28 29 29 30 30 31 94 32 31 33
REMARK SMILES IDX 93 34 32 35 33 36 34 37 87 38 35 39 92 40 86 41 88 42 36 43
REMARK SMILES IDX 91 44 85 45 84 46 37 48 71 49 50 50 70 51 51 52 54 53 69 54
REMARK SMILES IDX 89 55 52 56 53 57 68 59 90 60 55 61 38 62 39 63 48 64 40 65
REMARK SMILES IDX 41 66 47 67 49 68 42 69 43 70 44 71 45 72 46 73 72 74 73 75
REMARK SMILES IDX 82 76 74 77 75 78 81 79 83 80 76 81 77 82 78 83 79 84 80 85
REMARK SMILES IDX 56 86 57 87 66 88 58 89 59 90 65 91 67 92 60 93 61 94 62 95
REMARK SMILES IDX 63 96 64 97
REMARK H PARENT 4 12 88 47 54 58
REMARK Flexibility Score: inf
ROOT
ATOM      1  C   UNL A   1      32.848  30.348  25.759  1.00  0.00     0.202 C 
ENDROOT
BRANCH   1   2
ATOM      2  O   UNL A   1      31.654  29.703  25.320  1.00  0.00    -0.374 OA
BRANCH   2   3
ATOM      3  C   UNL A   1      31.618  28.289  25.293  1.00  0.00     0.202 C 
BRANCH   3   4
ATOM      4  C   UNL A   1      32.853  27.517  24.840  1.00  0.00     0.261 C 
BRANCH   4   5
ATOM      5  O   UNL A   1      32.777  26.521  23.793  1.00  0.00    -0.459 OA
BRANCH   5   6
ATOM      6  C   UNL A   1      33.464  26.191  22.691  1.00  0.00     0.361 C 
ATOM      7  O   UNL A   1      33.740  27.088  21.889  1.00  0.00    -0.245 OA
BRANCH   6   8
ATOM      8  C   UNL A   1      33.838  24.763  22.352  1.00  0.00     0.386 C 
BRANCH   8   9
ATOM      9  N   UNL A   1      33.986  23.774  23.434  1.00  0.00    -0.313 N 
ATOM     10  C   UNL A   1      35.375  23.646  23.890  1.00  0.00     0.350 C 
ATOM     11  C   UNL A   1      33.201  22.535  23.333  1.00  0.00     0.356 C 
ATOM     12  H   UNL A   1      33.489  24.188  24.223  1.00  0.00     0.349 HD
ATOM     13  C   UNL A   1      35.552  22.694  25.084  1.00  0.00     0.280 C 
ATOM     14  C   UNL A   1      33.398  21.576  24.535  1.00  0.00     0.311 C 
ATOM     15  C   UNL A   1      34.953  23.260  26.397  1.00  0.00     0.121 C 
ATOM     16  C   UNL A   1      34.911  21.339  24.746  1.00  0.00     0.191 C 
ATOM     17  C   UNL A   1      32.775  22.182  25.778  1.00  0.00     0.097 C 
ATOM     18  C   UNL A   1      33.490  22.956  26.612  1.00  0.00     0.004 C 
ATOM     19  Cl  UNL A   1      31.082  21.979  26.063  1.00  0.00    -0.081 Cl
BRANCH  13  20
ATOM     20  N   UNL A   1      37.058  22.535  25.257  1.00  0.00     0.032 N 
ATOM     21  O   UNL A   1      37.647  23.366  25.960  1.00  0.00    -0.264 OA
ATOM     22  O   UNL A   1      37.609  21.617  24.636  1.00  0.00    -0.264 OA
ENDBRANCH  13  20
BRANCH  14  23
ATOM     23  N   UNL A   1      32.773  20.218  24.225  1.00  0.00     0.038 N 
ATOM     24  O   UNL A   1      32.876  19.323  25.075  1.00  0.00    -0.263 OA
ATOM     25  O   UNL A   1      32.153  20.112  23.158  1.00  0.00    -0.263 OA
ENDBRANCH  14  23
ENDBRANCH   8   9
ENDBRANCH   6   8
ENDBRANCH   5   6
ENDBRANCH   4   5
ENDBRANCH   3   4
ENDBRANCH   2   3
ENDBRANCH   1   2
BRANCH   1  26
ATOM     26  C   UNL A   1      32.861  30.877  27.190  1.00  0.00     0.261 C 
BRANCH  26  27
ATOM     27  O   UNL A   1      33.850  30.199  27.975  1.00  0.00    -0.460 OA
BRANCH  27  28
ATOM     28  C   UNL A   1      34.751  31.003  28.592  1.00  0.00     0.338 C 
ATOM     29  O   UNL A   1      34.532  32.043  29.180  1.00  0.00    -0.246 OA
BRANCH  28  30
ATOM     30  C   UNL A   1      36.038  30.288  28.643  1.00  0.00     0.060 A 
ATOM     31  C   UNL A   1      36.461  29.774  29.878  1.00  0.00     0.016 A 
ATOM     32  C   UNL A   1      36.823  30.148  27.499  1.00  0.00     0.016 A 
ATOM     33  C   UNL A   1      37.703  29.156  29.980  1.00  0.00     0.010 A 
ATOM     34  C   UNL A   1      38.073  29.547  27.606  1.00  0.00     0.010 A 
ATOM     35  C   UNL A   1      38.532  29.090  28.855  1.00  0.00    -0.014 A 
BRANCH  35  36
ATOM     36  C   UNL A   1      39.962  28.757  29.017  1.00  0.00     0.031 A 
ATOM     37  C   UNL A   1      40.881  29.837  29.514  1.00  0.00     0.074 A 
ATOM     38  C   UNL A   1      40.424  27.530  28.725  1.00  0.00     0.049 A 
ATOM     39  N   UNL A   1      42.181  29.830  29.637  1.00  0.00    -0.248 NA
ATOM     40  C   UNL A   1      40.244  31.103  29.919  1.00  0.00     0.031 C 
ATOM     41  C   UNL A   1      39.605  26.402  28.282  1.00  0.00     0.029 A 
ATOM     42  N   UNL A   1      41.701  27.036  28.742  1.00  0.00    -0.354 N 
ATOM     43  C   UNL A   1      42.518  31.088  30.121  1.00  0.00     0.074 A 
ATOM     44  C   UNL A   1      41.292  31.846  30.236  1.00  0.00     0.031 C 
ATOM     45  C   UNL A   1      40.408  25.348  28.052  1.00  0.00     0.029 A 
ATOM     46  C   UNL A   1      41.795  25.742  28.293  1.00  0.00     0.049 A 
ATOM     47  H   UNL A   1      42.478  27.560  29.046  1.00  0.00     0.167 HD
ATOM     48  C   UNL A   1      43.742  31.563  30.446  1.00  0.00     0.037 A 
ATOM     49  C   UNL A   1      42.884  24.979  28.076  1.00  0.00     0.037 A 
ATOM     50  C   UNL A   1      44.952  30.794  30.317  1.00  0.00     0.049 A 
ATOM     51  C   UNL A   1      44.246  25.556  28.370  1.00  0.00     0.074 A 
ATOM     52  C   UNL A   1      46.247  31.168  30.621  1.00  0.00     0.029 A 
ATOM     53  N   UNL A   1      45.012  29.491  29.840  1.00  0.00    -0.354 N 
ATOM     54  N   UNL A   1      44.558  26.744  28.835  1.00  0.00    -0.248 NA
ATOM     55  C   UNL A   1      45.404  24.689  28.113  1.00  0.00     0.031 C 
ATOM     56  C   UNL A   1      47.097  30.113  30.275  1.00  0.00     0.029 A 
ATOM     57  C   UNL A   1      46.325  29.056  29.818  1.00  0.00     0.049 A 
ATOM     58  H   UNL A   1      44.235  28.957  29.558  1.00  0.00     0.167 HD
ATOM     59  C   UNL A   1      45.944  26.754  28.958  1.00  0.00     0.074 A 
ATOM     60  C   UNL A   1      46.408  25.451  28.527  1.00  0.00     0.031 C 
ATOM     61  C   UNL A   1      46.760  27.748  29.392  1.00  0.00     0.037 A 
BRANCH  48  62
ATOM     62  C   UNL A   1      43.833  32.980  30.941  1.00  0.00     0.058 A 
ATOM     63  C   UNL A   1      44.010  34.063  30.064  1.00  0.00     0.135 A 
ATOM     64  C   UNL A   1      43.718  33.263  32.312  1.00  0.00     0.135 A 
ATOM     65  F   UNL A   1      44.151  33.849  28.746  1.00  0.00    -0.206 F 
ATOM     66  C   UNL A   1      44.094  35.371  30.530  1.00  0.00     0.059 A 
ATOM     67  C   UNL A   1      43.768  34.567  32.797  1.00  0.00     0.059 A 
ATOM     68  F   UNL A   1      43.558  32.267  33.197  1.00  0.00    -0.206 F 
ATOM     69  C   UNL A   1      43.969  35.613  31.898  1.00  0.00     0.060 A 
BRANCH  69  70
ATOM     70  S   UNL A   1      44.068  37.318  32.484  1.00  0.00     0.124 S 
ATOM     71  O   UNL A   1      43.030  37.334  33.511  1.00  0.00    -0.237 OA
ATOM     72  O   UNL A   1      45.441  37.400  32.970  1.00  0.00    -0.237 OA
ATOM     73  O   UNL A   1      43.779  38.106  31.290  1.00  0.00    -0.744 OA
ENDBRANCH  69  70
ENDBRANCH  48  62
BRANCH  49  74
ATOM     74  C   UNL A   1      42.733  23.596  27.550  1.00  0.00     0.058 A 
ATOM     75  C   UNL A   1      42.487  22.518  28.413  1.00  0.00     0.135 A 
ATOM     76  C   UNL A   1      42.824  23.324  26.176  1.00  0.00     0.135 A 
ATOM     77  F   UNL A   1      42.403  22.725  29.736  1.00  0.00    -0.206 F 
ATOM     78  C   UNL A   1      42.353  21.218  27.936  1.00  0.00     0.059 A 
ATOM     79  C   UNL A   1      42.663  22.036  25.671  1.00  0.00     0.059 A 
ATOM     80  F   UNL A   1      43.046  24.320  25.305  1.00  0.00    -0.206 F 
ATOM     81  C   UNL A   1      42.439  20.987  26.562  1.00  0.00     0.060 A 
BRANCH  81  82
ATOM     82  S   UNL A   1      42.218  19.301  25.954  1.00  0.00     0.124 S 
ATOM     83  O   UNL A   1      43.050  19.311  24.756  1.00  0.00    -0.237 OA
ATOM     84  O   UNL A   1      42.718  18.507  27.071  1.00  0.00    -0.237 OA
ATOM     85  O   UNL A   1      40.780  19.213  25.723  1.00  0.00    -0.744 OA
ENDBRANCH  81  82
ENDBRANCH  49  74
BRANCH  61  86
ATOM     86  C   UNL A   1      48.234  27.453  29.469  1.00  0.00     0.058 A 
ATOM     87  C   UNL A   1      49.115  27.799  28.433  1.00  0.00     0.135 A 
ATOM     88  C   UNL A   1      48.779  26.871  30.627  1.00  0.00     0.135 A 
ATOM     89  F   UNL A   1      48.646  28.353  27.304  1.00  0.00    -0.206 F 
ATOM     90  C   UNL A   1      50.481  27.557  28.531  1.00  0.00     0.059 A 
ATOM     91  C   UNL A   1      50.145  26.650  30.760  1.00  0.00     0.059 A 
ATOM     92  F   UNL A   1      47.982  26.532  31.652  1.00  0.00    -0.206 F 
ATOM     93  C   UNL A   1      50.987  26.985  29.701  1.00  0.00     0.060 A 
BRANCH  93  94
ATOM     94  S   UNL A   1      52.767  26.713  29.829  1.00  0.00     0.124 S 
ATOM     95  O   UNL A   1      52.849  25.850  31.001  1.00  0.00    -0.237 OA
ATOM     96  O   UNL A   1      53.077  26.079  28.551  1.00  0.00    -0.237 OA
ATOM     97  O   UNL A   1      53.306  28.059  30.002  1.00  0.00    -0.744 OA
ENDBRANCH  93  94
ENDBRANCH  61  86
ENDBRANCH  35  36
ENDBRANCH  28  30
ENDBRANCH  27  28
ENDBRANCH  26  27
ENDBRANCH   1  26
TORSDOF 20
ENDMDL
MODEL 3
REMARK VINA RESULT:     -10.3      1.107      2.482
REMARK SMILES O=C(C[N@@H+]1C[C@@]2([N+](=O)[O-])CC=C(Cl)[C@@]([N+](=O)[O-])(C1)C2)OCCOCCOC(=O)c1ccc(-c2c3nc(c(-c4c(F)cc(S(=O)(=O)[O-])cc4F)c4ccc([nH]4)c(-c4c(F)cc(S(=O)(=O)[O-])cc4F)c4nc(c(-c5c(F)cc(S(=O)(=O)[O-])cc5F)c5ccc2[nH]5)C=C4)C=C3)cc1
REMARK SMILES IDX 24 1 23 2 22 3 21 4 20 5 2 6 1 7 3 8 4 9 5 10 18 11 6 13
REMARK SMILES IDX 14 14 10 15 19 16 12 17 11 18 13 19 7 20 8 21 9 22 15 23
REMARK SMILES IDX 16 24 17 25 25 26 26 27 27 28 28 29 29 30 30 31 94 32 31 33
REMARK SMILES IDX 93 34 32 35 33 36 34 37 87 38 35 39 92 40 86 41 88 42 36 43
REMARK SMILES IDX 91 44 85 45 84 46 37 48 71 49 50 50 70 51 51 52 54 53 69 54
REMARK SMILES IDX 89 55 52 56 53 57 68 59 90 60 55 61 38 62 39 63 48 64 40 65
REMARK SMILES IDX 41 66 47 67 49 68 42 69 43 70 44 71 45 72 46 73 72 74 73 75
REMARK SMILES IDX 82 76 74 77 75 78 81 79 83 80 76 81 77 82 78 83 79 84 80 85
REMARK SMILES IDX 56 86 57 87 66 88 58 89 59 90 65 91 67 92 60 93 61 94 62 95
REMARK SMILES IDX 63 96 64 97
REMARK H PARENT 4 12 88 47 54 58
REMARK Flexibility Score: inf
ROOT
ATOM      1  C   UNL A   1      31.987  28.265  25.962  1.00  0.00     0.202 C 
ENDROOT
BRANCH   1   2
ATOM      2  O   UNL A   1      31.750  26.998  25.352  1.00  0.00    -0.374 OA
BRANCH   2   3
ATOM      3  C   UNL A   1      30.466  26.731  24.821  1.00  0.00     0.202 C 
BRANCH   3   4
ATOM      4  C   UNL A   1      29.566  25.714  25.513  1.00  0.00     0.261 C 
BRANCH   4   5
ATOM      5  O   UNL A   1      30.087  24.801  26.509  1.00  0.00    -0.459 OA
BRANCH   5   6
ATOM      6  C   UNL A   1      30.345  23.490  26.610  1.00  0.00     0.361 C 
ATOM      7  O   UNL A   1      30.161  22.944  27.701  1.00  0.00    -0.245 OA
BRANCH   6   8
ATOM      8  C   UNL A   1      30.928  22.677  25.472  1.00  0.00     0.386 C 
BRANCH   8   9
ATOM      9  N   UNL A   1      32.225  23.067  24.890  1.00  0.00    -0.313 N 
ATOM     10  C   UNL A   1      32.083  23.683  23.567  1.00  0.00     0.350 C 
ATOM     11  C   UNL A   1      33.357  22.148  25.080  1.00  0.00     0.356 C 
ATOM     12  H   UNL A   1      32.555  23.819  25.495  1.00  0.00     0.349 HD
ATOM     13  C   UNL A   1      33.406  24.190  22.971  1.00  0.00     0.280 C 
ATOM     14  C   UNL A   1      34.683  22.662  24.465  1.00  0.00     0.311 C 
ATOM     15  C   UNL A   1      33.965  25.428  23.719  1.00  0.00     0.121 C 
ATOM     16  C   UNL A   1      34.435  23.048  22.988  1.00  0.00     0.191 C 
ATOM     17  C   UNL A   1      35.180  23.859  25.253  1.00  0.00     0.097 C 
ATOM     18  C   UNL A   1      34.837  25.112  24.909  1.00  0.00     0.004 C 
ATOM     19  Cl  UNL A   1      36.102  23.603  26.692  1.00  0.00    -0.081 Cl
BRANCH  13  20
ATOM     20  N   UNL A   1      33.083  24.584  21.536  1.00  0.00     0.032 N 
ATOM     21  O   UNL A   1      33.313  23.755  20.646  1.00  0.00    -0.264 OA
ATOM     22  O   UNL A   1      32.663  25.732  21.340  1.00  0.00    -0.264 OA
ENDBRANCH  13  20
BRANCH  14  23
ATOM     23  N   UNL A   1      35.724  21.545  24.464  1.00  0.00     0.038 N 
ATOM     24  O   UNL A   1      35.396  20.444  24.925  1.00  0.00    -0.263 OA
ATOM     25  O   UNL A   1      36.822  21.799  23.950  1.00  0.00    -0.263 OA
ENDBRANCH  14  23
ENDBRANCH   8   9
ENDBRANCH   6   8
ENDBRANCH   5   6
ENDBRANCH   4   5
ENDBRANCH   3   4
ENDBRANCH   2   3
ENDBRANCH   1   2
BRANCH   1  26
ATOM     26  C   UNL A   1      32.565  28.257  27.373  1.00  0.00     0.261 C 
BRANCH  26  27
ATOM     27  O   UNL A   1      33.970  28.542  27.349  1.00  0.00    -0.460 OA
BRANCH  27  28
ATOM     28  C   UNL A   1      34.308  29.815  27.675  1.00  0.00     0.338 C 
ATOM     29  O   UNL A   1      33.566  30.771  27.783  1.00  0.00    -0.246 OA
BRANCH  28  30
ATOM     30  C   UNL A   1      35.713  29.814  28.116  1.00  0.00     0.060 A 
ATOM     31  C   UNL A   1      36.705  30.097  27.166  1.00  0.00     0.016 A 
ATOM     32  C   UNL A   1      36.046  29.520  29.438  1.00  0.00     0.016 A 
ATOM     33  C   UNL A   1      38.046  30.035  27.528  1.00  0.00     0.010 A 
ATOM     34  C   UNL A   1      37.388  29.441  29.795  1.00  0.00     0.010 A 
ATOM     35  C   UNL A   1      38.389  29.655  28.831  1.00  0.00    -0.014 A 
BRANCH  35  36
ATOM     36  C   UNL A   1      39.778  29.256  29.136  1.00  0.00     0.031 A 
ATOM     37  C   UNL A   1      40.687  30.290  29.740  1.00  0.00     0.074 A 
ATOM     38  C   UNL A   1      40.214  28.012  28.878  1.00  0.00     0.049 A 
ATOM     39  N   UNL A   1      41.965  30.222  29.997  1.00  0.00    -0.248 NA
ATOM     40  C   UNL A   1      40.068  31.580  30.093  1.00  0.00     0.031 C 
ATOM     41  C   UNL A   1      39.397  26.926  28.338  1.00  0.00     0.029 A 
ATOM     42  N   UNL A   1      41.459  27.461  29.021  1.00  0.00    -0.354 N 
ATOM     43  C   UNL A   1      42.306  31.461  30.530  1.00  0.00     0.074 A 
ATOM     44  C   UNL A   1      41.109  32.272  30.527  1.00  0.00     0.031 C 
ATOM     45  C   UNL A   1      40.172  25.839  28.179  1.00  0.00     0.029 A 
ATOM     46  C   UNL A   1      41.542  26.168  28.568  1.00  0.00     0.049 A 
ATOM     47  H   UNL A   1      42.223  27.946  29.411  1.00  0.00     0.167 HD
ATOM     48  C   UNL A   1      43.509  31.877  30.986  1.00  0.00     0.037 A 
ATOM     49  C   UNL A   1      42.613  25.358  28.455  1.00  0.00     0.037 A 
ATOM     50  C   UNL A   1      44.690  31.055  30.974  1.00  0.00     0.049 A 
ATOM     51  C   UNL A   1      43.961  25.870  28.897  1.00  0.00     0.074 A 
ATOM     52  C   UNL A   1      45.962  31.368  31.416  1.00  0.00     0.029 A 
ATOM     53  N   UNL A   1      44.742  29.755  30.489  1.00  0.00    -0.354 N 
ATOM     54  N   UNL A   1      44.275  27.039  29.406  1.00  0.00    -0.248 NA
ATOM     55  C   UNL A   1      45.100  24.954  28.750  1.00  0.00     0.031 C 
ATOM     56  C   UNL A   1      46.796  30.278  31.146  1.00  0.00     0.029 A 
ATOM     57  C   UNL A   1      46.030  29.260  30.598  1.00  0.00     0.049 A 
ATOM     58  H   UNL A   1      43.976  29.258  30.121  1.00  0.00     0.167 HD
ATOM     59  C   UNL A   1      45.640  26.985  29.673  1.00  0.00     0.074 A 
ATOM     60  C   UNL A   1      46.088  25.666  29.276  1.00  0.00     0.031 C 
ATOM     61  C   UNL A   1      46.449  27.937  30.203  1.00  0.00     0.037 A 
BRANCH  48  62
ATOM     62  C   UNL A   1      43.610  33.284  31.507  1.00  0.00     0.058 A 
ATOM     63  C   UNL A   1      43.958  34.360  30.674  1.00  0.00     0.135 A 
ATOM     64  C   UNL A   1      43.333  33.566  32.854  1.00  0.00     0.135 A 
ATOM     65  F   UNL A   1      44.258  34.146  29.383  1.00  0.00    -0.206 F 
ATOM     66  C   UNL A   1      44.051  35.660  31.162  1.00  0.00     0.059 A 
ATOM     67  C   UNL A   1      43.389  34.863  33.358  1.00  0.00     0.059 A 
ATOM     68  F   UNL A   1      43.004  32.575  33.699  1.00  0.00    -0.206 F 
ATOM     69  C   UNL A   1      43.761  35.901  32.506  1.00  0.00     0.060 A 
BRANCH  69  70
ATOM     70  S   UNL A   1      43.873  37.594  33.120  1.00  0.00     0.124 S 
ATOM     71  O   UNL A   1      45.147  37.561  33.834  1.00  0.00    -0.237 OA
ATOM     72  O   UNL A   1      43.858  38.374  31.886  1.00  0.00    -0.237 OA
ATOM     73  O   UNL A   1      42.689  37.732  33.960  1.00  0.00    -0.744 OA
ENDBRANCH  69  70
ENDBRANCH  48  62
BRANCH  49  74
ATOM     74  C   UNL A   1      42.457  23.988  27.898  1.00  0.00     0.058 A 
ATOM     75  C   UNL A   1      42.450  22.864  28.738  1.00  0.00     0.135 A 
ATOM     76  C   UNL A   1      42.304  23.773  26.520  1.00  0.00     0.135 A 
ATOM     77  F   UNL A   1      42.603  23.016  30.062  1.00  0.00    -0.206 F 
ATOM     78  C   UNL A   1      42.314  21.576  28.230  1.00  0.00     0.059 A 
ATOM     79  C   UNL A   1      42.137  22.496  25.991  1.00  0.00     0.059 A 
ATOM     80  F   UNL A   1      42.292  24.814  25.673  1.00  0.00    -0.206 F 
ATOM     81  C   UNL A   1      42.154  21.402  26.855  1.00  0.00     0.060 A 
BRANCH  81  82
ATOM     82  S   UNL A   1      41.934  19.728  26.215  1.00  0.00     0.124 S 
ATOM     83  O   UNL A   1      40.509  19.717  25.905  1.00  0.00    -0.237 OA
ATOM     84  O   UNL A   1      42.837  19.719  25.068  1.00  0.00    -0.237 OA
ATOM     85  O   UNL A   1      42.343  18.884  27.333  1.00  0.00    -0.744 OA
ENDBRANCH  81  82
ENDBRANCH  49  74
BRANCH  61  86
ATOM     86  C   UNL A   1      47.893  27.575  30.428  1.00  0.00     0.058 A 
ATOM     87  C   UNL A   1      48.877  27.812  29.457  1.00  0.00     0.135 A 
ATOM     88  C   UNL A   1      48.302  27.041  31.662  1.00  0.00     0.135 A 
ATOM     89  F   UNL A   1      48.539  28.316  28.260  1.00  0.00    -0.206 F 
ATOM     90  C   UNL A   1      50.215  27.509  29.692  1.00  0.00     0.059 A 
ATOM     91  C   UNL A   1      49.638  26.762  31.930  1.00  0.00     0.059 A 
ATOM     92  F   UNL A   1      47.402  26.807  32.630  1.00  0.00    -0.206 F 
ATOM     93  C   UNL A   1      50.585  26.988  30.933  1.00  0.00     0.060 A 
BRANCH  93  94
ATOM     94  S   UNL A   1      52.330  26.637  31.236  1.00  0.00     0.124 S 
ATOM     95  O   UNL A   1      52.871  26.647  29.882  1.00  0.00    -0.237 OA
ATOM     96  O   UNL A   1      52.729  27.753  32.088  1.00  0.00    -0.237 OA
ATOM     97  O   UNL A   1      52.306  25.332  31.893  1.00  0.00    -0.744 OA
ENDBRANCH  93  94
ENDBRANCH  61  86
ENDBRANCH  35  36
ENDBRANCH  28  30
ENDBRANCH  27  28
ENDBRANCH  26  27
ENDBRANCH   1  26
TORSDOF 20
ENDMDL
