MODEL 1
REMARK VINA RESULT:      -9.8      0.000      0.000
REMARK SMILES COc1cc(/C=C/C(=O)OCCOCCOC(=O)c2ccc(-c3c4nc(c(-c5c(F)cc(S(=O)(=O)[O-])cc5F)c5ccc([nH]5)c(-c5c(F)cc(S(=O)(=O)[O-])cc5F)c5nc(c(-c6c(F)cc(S(=O)(=O)[O-])cc6F)c6ccc3[nH]6)C=C5)C=C4)cc2)cc(OC)c1O
REMARK SMILES IDX 14 1 13 2 12 3 11 4 10 5 8 6 9 7 7 8 6 9 5 10 3 11 4 12
REMARK SMILES IDX 89 13 86 14 85 15 2 16 1 17 90 18 87 20 88 21 15 22 16 23
REMARK SMILES IDX 17 24 18 25 19 26 20 27 84 28 21 29 83 30 22 31 23 32 24 33
REMARK SMILES IDX 77 34 25 35 82 36 76 37 78 38 26 39 81 40 75 41 74 42 27 44
REMARK SMILES IDX 61 45 40 46 60 47 41 48 44 49 59 50 79 51 42 52 43 53 58 55
REMARK SMILES IDX 80 56 45 57 28 58 29 59 38 60 30 61 31 62 37 63 39 64 32 65
REMARK SMILES IDX 33 66 34 67 35 68 36 69 62 70 63 71 72 72 64 73 65 74 71 75
REMARK SMILES IDX 73 76 66 77 67 78 68 79 69 80 70 81 46 82 47 83 56 84 48 85
REMARK SMILES IDX 49 86 55 87 57 88 50 89 51 90 52 91 53 92 54 93
REMARK H PARENT 90 19 78 43 44 54
REMARK Flexibility Score: inf
ROOT
ATOM      1  C   UNL A   1      33.622  34.095  28.198  1.00  0.00     0.202 C 
ENDROOT
BRANCH   1   2
ATOM      2  O   UNL A   1      32.863  34.518  29.333  1.00  0.00    -0.374 OA
BRANCH   2   3
ATOM      3  C   UNL A   1      33.456  35.511  30.169  1.00  0.00     0.202 C 
BRANCH   3   4
ATOM      4  C   UNL A   1      32.790  35.723  31.530  1.00  0.00     0.261 C 
BRANCH   4   5
ATOM      5  O   UNL A   1      33.281  34.793  32.513  1.00  0.00    -0.460 OA
BRANCH   5   6
ATOM      6  C   UNL A   1      34.254  35.273  33.323  1.00  0.00     0.330 C 
ATOM      7  O   UNL A   1      34.456  36.446  33.604  1.00  0.00    -0.247 OA
BRANCH   6   8
ATOM      8  C   UNL A   1      35.058  34.203  33.949  1.00  0.00     0.094 C 
ATOM      9  C   UNL A   1      36.389  34.044  33.887  1.00  0.00     0.016 C 
BRANCH   9  10
ATOM     10  C   UNL A   1      37.077  32.912  34.539  1.00  0.00    -0.018 A 
ATOM     11  C   UNL A   1      38.047  30.678  34.489  1.00  0.00     0.165 A 
ATOM     12  C   UNL A   1      37.389  31.732  33.849  1.00  0.00     0.058 A 
ATOM     13  C   UNL A   1      38.456  30.814  35.824  1.00  0.00     0.200 A 
ATOM     14  C   UNL A   1      38.153  31.980  36.534  1.00  0.00     0.165 A 
ATOM     15  C   UNL A   1      37.479  33.024  35.877  1.00  0.00     0.058 A 
BRANCH  11  16
ATOM     16  O   UNL A   1      38.339  29.594  33.700  1.00  0.00    -0.493 OA
ATOM     17  C   UNL A   1      39.672  29.565  33.187  1.00  0.00     0.278 C 
ENDBRANCH  11  16
BRANCH  13  18
ATOM     18  O   UNL A   1      39.232  29.834  36.382  1.00  0.00    -0.502 OA
ATOM     19  H   UNL A   1      39.600  29.163  35.842  1.00  0.00     0.293 HD
ENDBRANCH  13  18
BRANCH  14  20
ATOM     20  O   UNL A   1      38.484  32.288  37.828  1.00  0.00    -0.493 OA
ATOM     21  C   UNL A   1      38.581  33.660  38.185  1.00  0.00     0.278 C 
ENDBRANCH  14  20
ENDBRANCH   9  10
ENDBRANCH   6   8
ENDBRANCH   5   6
ENDBRANCH   4   5
ENDBRANCH   3   4
ENDBRANCH   2   3
ENDBRANCH   1   2
BRANCH   1  22
ATOM     22  C   UNL A   1      34.886  33.279  28.498  1.00  0.00     0.261 C 
BRANCH  22  23
ATOM     23  O   UNL A   1      34.591  32.071  29.224  1.00  0.00    -0.460 OA
BRANCH  23  24
ATOM     24  C   UNL A   1      34.541  30.953  28.463  1.00  0.00     0.338 C 
ATOM     25  O   UNL A   1      33.629  30.609  27.720  1.00  0.00    -0.246 OA
BRANCH  24  26
ATOM     26  C   UNL A   1      35.838  30.249  28.495  1.00  0.00     0.060 A 
ATOM     27  C   UNL A   1      36.285  29.787  29.739  1.00  0.00     0.016 A 
ATOM     28  C   UNL A   1      36.640  30.110  27.359  1.00  0.00     0.016 A 
ATOM     29  C   UNL A   1      37.562  29.247  29.866  1.00  0.00     0.010 A 
ATOM     30  C   UNL A   1      37.926  29.570  27.490  1.00  0.00     0.010 A 
ATOM     31  C   UNL A   1      38.409  29.178  28.751  1.00  0.00    -0.014 A 
BRANCH  31  32
ATOM     32  C   UNL A   1      39.842  28.851  28.958  1.00  0.00     0.031 A 
ATOM     33  C   UNL A   1      40.741  29.879  29.593  1.00  0.00     0.074 A 
ATOM     34  C   UNL A   1      40.322  27.633  28.650  1.00  0.00     0.049 A 
ATOM     35  N   UNL A   1      42.007  29.793  29.910  1.00  0.00    -0.248 NA
ATOM     36  C   UNL A   1      40.128  31.179  29.914  1.00  0.00     0.031 C 
ATOM     37  C   UNL A   1      39.548  26.544  28.057  1.00  0.00     0.029 A 
ATOM     38  N   UNL A   1      41.581  27.107  28.801  1.00  0.00    -0.354 N 
ATOM     39  C   UNL A   1      42.344  31.023  30.466  1.00  0.00     0.074 A 
ATOM     40  C   UNL A   1      41.158  31.850  30.409  1.00  0.00     0.031 C 
ATOM     41  C   UNL A   1      40.348  25.477  27.893  1.00  0.00     0.029 A 
ATOM     42  C   UNL A   1      41.695  25.813  28.352  1.00  0.00     0.049 A 
ATOM     43  H   UNL A   1      42.331  27.608  29.194  1.00  0.00     0.167 HD
ATOM     44  C   UNL A   1      43.528  31.422  30.990  1.00  0.00     0.037 A 
ATOM     45  C   UNL A   1      42.767  24.996  28.310  1.00  0.00     0.037 A 
ATOM     46  C   UNL A   1      44.706  30.596  31.047  1.00  0.00     0.049 A 
ATOM     47  C   UNL A   1      44.085  25.476  28.861  1.00  0.00     0.074 A 
ATOM     48  C   UNL A   1      45.948  30.903  31.575  1.00  0.00     0.029 A 
ATOM     49  N   UNL A   1      44.790  29.301  30.557  1.00  0.00    -0.354 N 
ATOM     50  N   UNL A   1      44.380  26.632  29.409  1.00  0.00    -0.248 NA
ATOM     51  C   UNL A   1      45.213  24.537  28.796  1.00  0.00     0.031 C 
ATOM     52  C   UNL A   1      46.795  29.809  31.365  1.00  0.00     0.029 A 
ATOM     53  C   UNL A   1      46.068  28.803  30.751  1.00  0.00     0.049 A 
ATOM     54  H   UNL A   1      44.050  28.808  30.134  1.00  0.00     0.167 HD
ATOM     55  C   UNL A   1      45.719  26.549  29.777  1.00  0.00     0.074 A 
ATOM     56  C   UNL A   1      46.171  25.223  29.402  1.00  0.00     0.031 C 
ATOM     57  C   UNL A   1      46.505  27.483  30.370  1.00  0.00     0.037 A 
BRANCH  44  58
ATOM     58  C   UNL A   1      43.609  32.825  31.525  1.00  0.00     0.058 A 
ATOM     59  C   UNL A   1      43.396  33.112  32.883  1.00  0.00     0.135 A 
ATOM     60  C   UNL A   1      43.927  33.895  30.672  1.00  0.00     0.135 A 
ATOM     61  F   UNL A   1      43.072  32.129  33.738  1.00  0.00    -0.206 F 
ATOM     62  C   UNL A   1      43.468  34.413  33.372  1.00  0.00     0.059 A 
ATOM     63  C   UNL A   1      44.029  35.200  31.144  1.00  0.00     0.059 A 
ATOM     64  F   UNL A   1      44.137  33.678  29.365  1.00  0.00    -0.206 F 
ATOM     65  C   UNL A   1      43.783  35.451  32.494  1.00  0.00     0.060 A 
BRANCH  65  66
ATOM     66  S   UNL A   1      43.870  37.134  33.141  1.00  0.00     0.124 S 
ATOM     67  O   UNL A   1      43.805  37.922  31.915  1.00  0.00    -0.237 OA
ATOM     68  O   UNL A   1      42.692  37.200  34.000  1.00  0.00    -0.237 OA
ATOM     69  O   UNL A   1      45.152  37.164  33.838  1.00  0.00    -0.744 OA
ENDBRANCH  65  66
ENDBRANCH  44  58
BRANCH  45  70
ATOM     70  C   UNL A   1      42.640  23.633  27.728  1.00  0.00     0.058 A 
ATOM     71  C   UNL A   1      42.384  22.517  28.537  1.00  0.00     0.135 A 
ATOM     72  C   UNL A   1      42.777  23.423  26.347  1.00  0.00     0.135 A 
ATOM     73  F   UNL A   1      42.257  22.666  29.864  1.00  0.00    -0.206 F 
ATOM     74  C   UNL A   1      42.282  21.237  28.002  1.00  0.00     0.059 A 
ATOM     75  C   UNL A   1      42.655  22.156  25.784  1.00  0.00     0.059 A 
ATOM     76  F   UNL A   1      43.012  24.460  25.528  1.00  0.00    -0.206 F 
ATOM     77  C   UNL A   1      42.418  21.067  26.622  1.00  0.00     0.060 A 
BRANCH  77  78
ATOM     78  S   UNL A   1      42.235  19.409  25.930  1.00  0.00     0.124 S 
ATOM     79  O   UNL A   1      43.022  19.513  24.706  1.00  0.00    -0.237 OA
ATOM     80  O   UNL A   1      42.800  18.572  26.984  1.00  0.00    -0.237 OA
ATOM     81  O   UNL A   1      40.793  19.281  25.744  1.00  0.00    -0.744 OA
ENDBRANCH  77  78
ENDBRANCH  45  70
BRANCH  57  82
ATOM     82  C   UNL A   1      47.925  27.092  30.677  1.00  0.00     0.058 A 
ATOM     83  C   UNL A   1      48.284  26.521  31.909  1.00  0.00     0.135 A 
ATOM     84  C   UNL A   1      48.937  27.274  29.720  1.00  0.00     0.135 A 
ATOM     85  F   UNL A   1      47.357  26.329  32.861  1.00  0.00    -0.206 F 
ATOM     86  C   UNL A   1      49.603  26.183  32.196  1.00  0.00     0.059 A 
ATOM     87  C   UNL A   1      50.257  26.916  29.975  1.00  0.00     0.059 A 
ATOM     88  F   UNL A   1      48.646  27.801  28.520  1.00  0.00    -0.206 F 
ATOM     89  C   UNL A   1      50.584  26.390  31.224  1.00  0.00     0.060 A 
BRANCH  89  90
ATOM     90  S   UNL A   1      52.292  25.949  31.606  1.00  0.00     0.124 S 
ATOM     91  O   UNL A   1      52.947  26.172  30.321  1.00  0.00    -0.237 OA
ATOM     92  O   UNL A   1      52.633  26.896  32.664  1.00  0.00    -0.237 OA
ATOM     93  O   UNL A   1      52.196  24.555  32.030  1.00  0.00    -0.744 OA
ENDBRANCH  89  90
ENDBRANCH  57  82
ENDBRANCH  31  32
ENDBRANCH  24  26
ENDBRANCH  23  24
ENDBRANCH  22  23
ENDBRANCH   1  22
TORSDOF 21
ENDMDL
MODEL 2
REMARK VINA RESULT:      -9.8      5.082     12.749
REMARK SMILES COc1cc(/C=C/C(=O)OCCOCCOC(=O)c2ccc(-c3c4nc(c(-c5c(F)cc(S(=O)(=O)[O-])cc5F)c5ccc([nH]5)c(-c5c(F)cc(S(=O)(=O)[O-])cc5F)c5nc(c(-c6c(F)cc(S(=O)(=O)[O-])cc6F)c6ccc3[nH]6)C=C5)C=C4)cc2)cc(OC)c1O
REMARK SMILES IDX 14 1 13 2 12 3 11 4 10 5 8 6 9 7 7 8 6 9 5 10 3 11 4 12
REMARK SMILES IDX 89 13 86 14 85 15 2 16 1 17 90 18 87 20 88 21 15 22 16 23
REMARK SMILES IDX 17 24 18 25 19 26 20 27 84 28 21 29 83 30 22 31 23 32 24 33
REMARK SMILES IDX 77 34 25 35 82 36 76 37 78 38 26 39 81 40 75 41 74 42 27 44
REMARK SMILES IDX 61 45 40 46 60 47 41 48 44 49 59 50 79 51 42 52 43 53 58 55
REMARK SMILES IDX 80 56 45 57 28 58 29 59 38 60 30 61 31 62 37 63 39 64 32 65
REMARK SMILES IDX 33 66 34 67 35 68 36 69 62 70 63 71 72 72 64 73 65 74 71 75
REMARK SMILES IDX 73 76 66 77 67 78 68 79 69 80 70 81 46 82 47 83 56 84 48 85
REMARK SMILES IDX 49 86 55 87 57 88 50 89 51 90 52 91 53 92 54 93
REMARK H PARENT 90 19 78 43 44 54
REMARK Flexibility Score: inf
ROOT
ATOM      1  C   UNL A   1      42.581  22.662  25.437  1.00  0.00     0.202 C 
ENDROOT
BRANCH   1   2
ATOM      2  O   UNL A   1      42.276  21.444  26.121  1.00  0.00    -0.374 OA
BRANCH   2   3
ATOM      3  C   UNL A   1      41.088  21.432  26.913  1.00  0.00     0.202 C 
BRANCH   3   4
ATOM      4  C   UNL A   1      39.993  22.412  26.487  1.00  0.00     0.261 C 
BRANCH   4   5
ATOM      5  O   UNL A   1      38.954  21.756  25.737  1.00  0.00    -0.460 OA
BRANCH   5   6
ATOM      6  C   UNL A   1      37.798  22.451  25.625  1.00  0.00     0.330 C 
ATOM      7  O   UNL A   1      37.680  23.668  25.581  1.00  0.00    -0.247 OA
BRANCH   6   8
ATOM      8  C   UNL A   1      36.617  21.577  25.470  1.00  0.00     0.094 C 
ATOM      9  C   UNL A   1      36.583  20.341  24.948  1.00  0.00     0.016 C 
BRANCH   9  10
ATOM     10  C   UNL A   1      35.328  19.574  24.824  1.00  0.00    -0.018 A 
ATOM     11  C   UNL A   1      34.117  17.485  24.503  1.00  0.00     0.165 A 
ATOM     12  C   UNL A   1      35.320  18.188  24.610  1.00  0.00     0.058 A 
ATOM     13  C   UNL A   1      32.896  18.155  24.667  1.00  0.00     0.200 A 
ATOM     14  C   UNL A   1      32.878  19.538  24.876  1.00  0.00     0.165 A 
ATOM     15  C   UNL A   1      34.099  20.230  24.969  1.00  0.00     0.058 A 
BRANCH  11  16
ATOM     16  O   UNL A   1      34.235  16.127  24.340  1.00  0.00    -0.493 OA
ATOM     17  C   UNL A   1      35.223  15.506  25.164  1.00  0.00     0.278 C 
ENDBRANCH  11  16
BRANCH  13  18
ATOM     18  O   UNL A   1      31.739  17.424  24.711  1.00  0.00    -0.502 OA
ATOM     19  H   UNL A   1      31.568  16.860  25.439  1.00  0.00     0.293 HD
ENDBRANCH  13  18
BRANCH  14  20
ATOM     20  O   UNL A   1      31.789  20.346  25.071  1.00  0.00    -0.493 OA
ATOM     21  C   UNL A   1      32.017  21.700  25.438  1.00  0.00     0.278 C 
ENDBRANCH  14  20
ENDBRANCH   9  10
ENDBRANCH   6   8
ENDBRANCH   5   6
ENDBRANCH   4   5
ENDBRANCH   3   4
ENDBRANCH   2   3
ENDBRANCH   1   2
BRANCH   1  22
ATOM     22  C   UNL A   1      43.329  23.725  26.252  1.00  0.00     0.261 C 
BRANCH  22  23
ATOM     23  O   UNL A   1      43.277  25.021  25.627  1.00  0.00    -0.460 OA
BRANCH  23  24
ATOM     24  C   UNL A   1      42.115  25.690  25.811  1.00  0.00     0.338 C 
ATOM     25  O   UNL A   1      41.125  25.656  25.090  1.00  0.00    -0.246 OA
BRANCH  24  26
ATOM     26  C   UNL A   1      42.108  26.361  27.125  1.00  0.00     0.060 A 
ATOM     27  C   UNL A   1      41.132  25.957  28.045  1.00  0.00     0.016 A 
ATOM     28  C   UNL A   1      42.975  27.413  27.432  1.00  0.00     0.016 A 
ATOM     29  C   UNL A   1      40.974  26.646  29.244  1.00  0.00     0.010 A 
ATOM     30  C   UNL A   1      42.812  28.107  28.637  1.00  0.00     0.010 A 
ATOM     31  C   UNL A   1      41.782  27.756  29.527  1.00  0.00    -0.014 A 
BRANCH  31  32
ATOM     32  C   UNL A   1      41.425  28.629  30.674  1.00  0.00     0.031 A 
ATOM     33  C   UNL A   1      42.250  28.553  31.932  1.00  0.00     0.074 A 
ATOM     34  C   UNL A   1      40.427  29.524  30.575  1.00  0.00     0.049 A 
ATOM     35  N   UNL A   1      42.149  29.249  33.034  1.00  0.00    -0.248 NA
ATOM     36  C   UNL A   1      43.334  27.556  31.949  1.00  0.00     0.031 C 
ATOM     37  C   UNL A   1      39.575  29.713  29.402  1.00  0.00     0.029 A 
ATOM     38  N   UNL A   1      39.966  30.449  31.478  1.00  0.00    -0.354 N 
ATOM     39  C   UNL A   1      43.153  28.779  33.875  1.00  0.00     0.074 A 
ATOM     40  C   UNL A   1      43.827  27.711  33.169  1.00  0.00     0.031 C 
ATOM     41  C   UNL A   1      38.692  30.695  29.657  1.00  0.00     0.029 A 
ATOM     42  C   UNL A   1      38.905  31.190  31.016  1.00  0.00     0.049 A 
ATOM     43  H   UNL A   1      40.359  30.571  32.372  1.00  0.00     0.167 HD
ATOM     44  C   UNL A   1      43.492  29.206  35.115  1.00  0.00     0.037 A 
ATOM     45  C   UNL A   1      38.183  32.153  31.624  1.00  0.00     0.037 A 
ATOM     46  C   UNL A   1      42.821  30.270  35.815  1.00  0.00     0.049 A 
ATOM     47  C   UNL A   1      38.553  32.584  33.020  1.00  0.00     0.074 A 
ATOM     48  C   UNL A   1      43.101  30.789  37.067  1.00  0.00     0.029 A 
ATOM     49  N   UNL A   1      41.733  30.978  35.325  1.00  0.00    -0.354 N 
ATOM     50  N   UNL A   1      39.522  32.148  33.790  1.00  0.00    -0.248 NA
ATOM     51  C   UNL A   1      37.735  33.644  33.625  1.00  0.00     0.031 C 
ATOM     52  C   UNL A   1      42.155  31.780  37.352  1.00  0.00     0.029 A 
ATOM     53  C   UNL A   1      41.316  31.913  36.258  1.00  0.00     0.049 A 
ATOM     54  H   UNL A   1      41.317  30.836  34.443  1.00  0.00     0.167 HD
ATOM     55  C   UNL A   1      39.446  32.898  34.960  1.00  0.00     0.074 A 
ATOM     56  C   UNL A   1      38.345  33.825  34.788  1.00  0.00     0.031 C 
ATOM     57  C   UNL A   1      40.217  32.828  36.075  1.00  0.00     0.037 A 
BRANCH  44  58
ATOM     58  C   UNL A   1      44.631  28.504  35.801  1.00  0.00     0.058 A 
ATOM     59  C   UNL A   1      45.966  28.894  35.604  1.00  0.00     0.135 A 
ATOM     60  C   UNL A   1      44.384  27.441  36.685  1.00  0.00     0.135 A 
ATOM     61  F   UNL A   1      46.260  29.892  34.756  1.00  0.00    -0.206 F 
ATOM     62  C   UNL A   1      47.017  28.237  36.238  1.00  0.00     0.059 A 
ATOM     63  C   UNL A   1      45.417  26.787  37.349  1.00  0.00     0.059 A 
ATOM     64  F   UNL A   1      43.127  27.026  36.908  1.00  0.00    -0.206 F 
ATOM     65  C   UNL A   1      46.732  27.183  37.107  1.00  0.00     0.060 A 
BRANCH  65  66
ATOM     66  S   UNL A   1      48.105  26.338  37.920  1.00  0.00     0.124 S 
ATOM     67  O   UNL A   1      48.767  27.447  38.600  1.00  0.00    -0.237 OA
ATOM     68  O   UNL A   1      47.418  25.385  38.785  1.00  0.00    -0.237 OA
ATOM     69  O   UNL A   1      48.848  25.750  36.810  1.00  0.00    -0.744 OA
ENDBRANCH  65  66
ENDBRANCH  44  58
BRANCH  45  70
ATOM     70  C   UNL A   1      37.037  32.782  30.914  1.00  0.00     0.058 A 
ATOM     71  C   UNL A   1      35.716  32.397  31.180  1.00  0.00     0.135 A 
ATOM     72  C   UNL A   1      37.246  33.780  29.950  1.00  0.00     0.135 A 
ATOM     73  F   UNL A   1      35.467  31.438  32.085  1.00  0.00    -0.206 F 
ATOM     74  C   UNL A   1      34.641  32.967  30.507  1.00  0.00     0.059 A 
ATOM     75  C   UNL A   1      36.186  34.384  29.281  1.00  0.00     0.059 A 
ATOM     76  F   UNL A   1      38.491  34.192  29.666  1.00  0.00    -0.206 F 
ATOM     77  C   UNL A   1      34.886  33.963  29.559  1.00  0.00     0.060 A 
BRANCH  77  78
ATOM     78  S   UNL A   1      33.482  34.733  28.725  1.00  0.00     0.124 S 
ATOM     79  O   UNL A   1      34.099  35.921  28.146  1.00  0.00    -0.237 OA
ATOM     80  O   UNL A   1      33.079  33.696  27.780  1.00  0.00    -0.237 OA
ATOM     81  O   UNL A   1      32.540  34.979  29.813  1.00  0.00    -0.744 OA
ENDBRANCH  77  78
ENDBRANCH  45  70
BRANCH  57  82
ATOM     82  C   UNL A   1      39.913  33.800  37.183  1.00  0.00     0.058 A 
ATOM     83  C   UNL A   1      40.481  35.083  37.216  1.00  0.00     0.135 A 
ATOM     84  C   UNL A   1      39.028  33.449  38.215  1.00  0.00     0.135 A 
ATOM     85  F   UNL A   1      41.337  35.468  36.255  1.00  0.00    -0.206 F 
ATOM     86  C   UNL A   1      40.214  35.970  38.255  1.00  0.00     0.059 A 
ATOM     87  C   UNL A   1      38.724  34.329  39.248  1.00  0.00     0.059 A 
ATOM     88  F   UNL A   1      38.444  32.240  38.224  1.00  0.00    -0.206 F 
ATOM     89  C   UNL A   1      39.339  35.581  39.270  1.00  0.00     0.060 A 
BRANCH  89  90
ATOM     90  S   UNL A   1      39.000  36.737  40.615  1.00  0.00     0.124 S 
ATOM     91  O   UNL A   1      38.523  37.906  39.884  1.00  0.00    -0.237 OA
ATOM     92  O   UNL A   1      37.995  36.024  41.397  1.00  0.00    -0.237 OA
ATOM     93  O   UNL A   1      40.299  36.889  41.266  1.00  0.00    -0.744 OA
ENDBRANCH  89  90
ENDBRANCH  57  82
ENDBRANCH  31  32
ENDBRANCH  24  26
ENDBRANCH  23  24
ENDBRANCH  22  23
ENDBRANCH   1  22
TORSDOF 21
ENDMDL
MODEL 3
REMARK VINA RESULT:      -9.7      4.735     11.941
REMARK SMILES COc1cc(/C=C/C(=O)OCCOCCOC(=O)c2ccc(-c3c4nc(c(-c5c(F)cc(S(=O)(=O)[O-])cc5F)c5ccc([nH]5)c(-c5c(F)cc(S(=O)(=O)[O-])cc5F)c5nc(c(-c6c(F)cc(S(=O)(=O)[O-])cc6F)c6ccc3[nH]6)C=C5)C=C4)cc2)cc(OC)c1O
REMARK SMILES IDX 14 1 13 2 12 3 11 4 10 5 8 6 9 7 7 8 6 9 5 10 3 11 4 12
REMARK SMILES IDX 89 13 86 14 85 15 2 16 1 17 90 18 87 20 88 21 15 22 16 23
REMARK SMILES IDX 17 24 18 25 19 26 20 27 84 28 21 29 83 30 22 31 23 32 24 33
REMARK SMILES IDX 77 34 25 35 82 36 76 37 78 38 26 39 81 40 75 41 74 42 27 44
REMARK SMILES IDX 61 45 40 46 60 47 41 48 44 49 59 50 79 51 42 52 43 53 58 55
REMARK SMILES IDX 80 56 45 57 28 58 29 59 38 60 30 61 31 62 37 63 39 64 32 65
REMARK SMILES IDX 33 66 34 67 35 68 36 69 62 70 63 71 72 72 64 73 65 74 71 75
REMARK SMILES IDX 73 76 66 77 67 78 68 79 69 80 70 81 46 82 47 83 56 84 48 85
REMARK SMILES IDX 49 86 55 87 57 88 50 89 51 90 52 91 53 92 54 93
REMARK H PARENT 90 19 78 43 44 54
REMARK Flexibility Score: inf
ROOT
ATOM      1  C   UNL A   1      39.504  22.511  26.529  1.00  0.00     0.202 C 
ENDROOT
BRANCH   1   2
ATOM      2  O   UNL A   1      38.871  21.514  25.724  1.00  0.00    -0.374 OA
BRANCH   2   3
ATOM      3  C   UNL A   1      37.541  21.791  25.287  1.00  0.00     0.202 C 
BRANCH   3   4
ATOM      4  C   UNL A   1      37.074  23.240  25.445  1.00  0.00     0.261 C 
BRANCH   4   5
ATOM      5  O   UNL A   1      35.919  23.336  26.299  1.00  0.00    -0.460 OA
BRANCH   5   6
ATOM      6  C   UNL A   1      34.729  23.375  25.655  1.00  0.00     0.330 C 
ATOM      7  O   UNL A   1      34.132  22.424  25.168  1.00  0.00    -0.247 OA
BRANCH   6   8
ATOM      8  C   UNL A   1      34.123  24.722  25.650  1.00  0.00     0.094 C 
ATOM      9  C   UNL A   1      34.158  25.626  24.658  1.00  0.00     0.016 C 
BRANCH   9  10
ATOM     10  C   UNL A   1      33.532  26.956  24.785  1.00  0.00    -0.018 A 
ATOM     11  C   UNL A   1      32.032  28.703  23.987  1.00  0.00     0.165 A 
ATOM     12  C   UNL A   1      32.617  27.442  23.840  1.00  0.00     0.058 A 
ATOM     13  C   UNL A   1      32.313  29.478  25.122  1.00  0.00     0.200 A 
ATOM     14  C   UNL A   1      33.226  29.017  26.076  1.00  0.00     0.165 A 
ATOM     15  C   UNL A   1      33.814  27.751  25.904  1.00  0.00     0.058 A 
BRANCH  11  16
ATOM     16  O   UNL A   1      31.119  29.050  23.023  1.00  0.00    -0.493 OA
ATOM     17  C   UNL A   1      30.021  28.147  22.882  1.00  0.00     0.278 C 
ENDBRANCH  11  16
BRANCH  13  18
ATOM     18  O   UNL A   1      31.615  30.639  25.321  1.00  0.00    -0.502 OA
ATOM     19  H   UNL A   1      32.006  31.463  25.107  1.00  0.00     0.293 HD
ENDBRANCH  13  18
BRANCH  14  20
ATOM     20  O   UNL A   1      33.606  29.628  27.242  1.00  0.00    -0.493 OA
ATOM     21  C   UNL A   1      34.971  29.546  27.628  1.00  0.00     0.278 C 
ENDBRANCH  14  20
ENDBRANCH   9  10
ENDBRANCH   6   8
ENDBRANCH   5   6
ENDBRANCH   4   5
ENDBRANCH   3   4
ENDBRANCH   2   3
ENDBRANCH   1   2
BRANCH   1  22
ATOM     22  C   UNL A   1      41.029  22.400  26.667  1.00  0.00     0.261 C 
BRANCH  22  23
ATOM     23  O   UNL A   1      41.566  23.397  27.556  1.00  0.00    -0.460 OA
BRANCH  23  24
ATOM     24  C   UNL A   1      41.845  24.584  26.969  1.00  0.00     0.338 C 
ATOM     25  O   UNL A   1      42.309  24.760  25.849  1.00  0.00    -0.246 OA
BRANCH  24  26
ATOM     26  C   UNL A   1      41.347  25.699  27.798  1.00  0.00     0.060 A 
ATOM     27  C   UNL A   1      42.174  26.822  27.925  1.00  0.00     0.016 A 
ATOM     28  C   UNL A   1      40.141  25.626  28.501  1.00  0.00     0.016 A 
ATOM     29  C   UNL A   1      41.833  27.844  28.807  1.00  0.00     0.010 A 
ATOM     30  C   UNL A   1      39.802  26.653  29.390  1.00  0.00     0.010 A 
ATOM     31  C   UNL A   1      40.668  27.744  29.581  1.00  0.00    -0.014 A 
BRANCH  31  32
ATOM     32  C   UNL A   1      40.463  28.704  30.694  1.00  0.00     0.031 A 
ATOM     33  C   UNL A   1      41.343  28.607  31.913  1.00  0.00     0.074 A 
ATOM     34  C   UNL A   1      39.554  29.691  30.595  1.00  0.00     0.049 A 
ATOM     35  N   UNL A   1      41.371  29.363  32.979  1.00  0.00    -0.248 NA
ATOM     36  C   UNL A   1      42.321  27.507  31.931  1.00  0.00     0.031 C 
ATOM     37  C   UNL A   1      38.663  29.908  29.456  1.00  0.00     0.029 A 
ATOM     38  N   UNL A   1      39.237  30.701  31.468  1.00  0.00    -0.354 N 
ATOM     39  C   UNL A   1      42.366  28.835  33.794  1.00  0.00     0.074 A 
ATOM     40  C   UNL A   1      42.892  27.670  33.115  1.00  0.00     0.031 C 
ATOM     41  C   UNL A   1      37.897  30.986  29.700  1.00  0.00     0.029 A 
ATOM     42  C   UNL A   1      38.231  31.523  31.018  1.00  0.00     0.049 A 
ATOM     43  H   UNL A   1      39.688  30.827  32.334  1.00  0.00     0.167 HD
ATOM     44  C   UNL A   1      42.812  29.287  34.991  1.00  0.00     0.037 A 
ATOM     45  C   UNL A   1      37.643  32.583  31.608  1.00  0.00     0.037 A 
ATOM     46  C   UNL A   1      42.289  30.447  35.664  1.00  0.00     0.049 A 
ATOM     47  C   UNL A   1      38.128  33.042  32.958  1.00  0.00     0.074 A 
ATOM     48  C   UNL A   1      42.687  30.996  36.871  1.00  0.00     0.029 A 
ATOM     49  N   UNL A   1      41.252  31.236  35.190  1.00  0.00    -0.354 N 
ATOM     50  N   UNL A   1      39.089  32.549  33.703  1.00  0.00    -0.248 NA
ATOM     51  C   UNL A   1      37.453  34.209  33.544  1.00  0.00     0.031 C 
ATOM     52  C   UNL A   1      41.860  32.091  37.147  1.00  0.00     0.029 A 
ATOM     53  C   UNL A   1      40.981  32.255  36.090  1.00  0.00     0.049 A 
ATOM     54  H   UNL A   1      40.777  31.095  34.338  1.00  0.00     0.167 HD
ATOM     55  C   UNL A   1      39.151  33.359  34.832  1.00  0.00     0.074 A 
ATOM     56  C   UNL A   1      38.140  34.385  34.664  1.00  0.00     0.031 C 
ATOM     57  C   UNL A   1      39.970  33.266  35.910  1.00  0.00     0.037 A 
BRANCH  44  58
ATOM     58  C   UNL A   1      43.912  28.507  35.658  1.00  0.00     0.058 A 
ATOM     59  C   UNL A   1      45.267  28.761  35.390  1.00  0.00     0.135 A 
ATOM     60  C   UNL A   1      43.607  27.506  36.595  1.00  0.00     0.135 A 
ATOM     61  F   UNL A   1      45.614  29.694  34.489  1.00  0.00    -0.206 F 
ATOM     62  C   UNL A   1      46.280  28.033  36.006  1.00  0.00     0.059 A 
ATOM     63  C   UNL A   1      44.605  26.782  37.243  1.00  0.00     0.059 A 
ATOM     64  F   UNL A   1      42.329  27.219  36.887  1.00  0.00    -0.206 F 
ATOM     65  C   UNL A   1      45.938  27.044  36.930  1.00  0.00     0.060 A 
BRANCH  65  66
ATOM     66  S   UNL A   1      47.263  26.105  37.721  1.00  0.00     0.124 S 
ATOM     67  O   UNL A   1      47.039  26.414  39.129  1.00  0.00    -0.237 OA
ATOM     68  O   UNL A   1      46.960  24.735  37.317  1.00  0.00    -0.237 OA
ATOM     69  O   UNL A   1      48.476  26.672  37.139  1.00  0.00    -0.744 OA
ENDBRANCH  65  66
ENDBRANCH  44  58
BRANCH  45  70
ATOM     70  C   UNL A   1      36.528  33.290  30.921  1.00  0.00     0.058 A 
ATOM     71  C   UNL A   1      35.201  33.146  31.349  1.00  0.00     0.135 A 
ATOM     72  C   UNL A   1      36.773  34.122  29.817  1.00  0.00     0.135 A 
ATOM     73  F   UNL A   1      34.916  32.353  32.393  1.00  0.00    -0.206 F 
ATOM     74  C   UNL A   1      34.152  33.789  30.701  1.00  0.00     0.059 A 
ATOM     75  C   UNL A   1      35.743  34.796  29.167  1.00  0.00     0.059 A 
ATOM     76  F   UNL A   1      38.026  34.301  29.374  1.00  0.00    -0.206 F 
ATOM     77  C   UNL A   1      34.434  34.615  29.610  1.00  0.00     0.060 A 
BRANCH  77  78
ATOM     78  S   UNL A   1      33.072  35.485  28.804  1.00  0.00     0.124 S 
ATOM     79  O   UNL A   1      32.341  36.013  29.951  1.00  0.00    -0.237 OA
ATOM     80  O   UNL A   1      33.777  36.467  27.986  1.00  0.00    -0.237 OA
ATOM     81  O   UNL A   1      32.396  34.429  28.057  1.00  0.00    -0.744 OA
ENDBRANCH  77  78
ENDBRANCH  45  70
BRANCH  57  82
ATOM     82  C   UNL A   1      39.824  34.317  36.977  1.00  0.00     0.058 A 
ATOM     83  C   UNL A   1      38.978  34.135  38.083  1.00  0.00     0.135 A 
ATOM     84  C   UNL A   1      40.555  35.515  36.902  1.00  0.00     0.135 A 
ATOM     85  F   UNL A   1      38.254  33.011  38.201  1.00  0.00    -0.206 F 
ATOM     86  C   UNL A   1      38.831  35.120  39.055  1.00  0.00     0.059 A 
ATOM     87  C   UNL A   1      40.445  36.500  37.877  1.00  0.00     0.059 A 
ATOM     88  F   UNL A   1      41.391  35.733  35.874  1.00  0.00    -0.206 F 
ATOM     89  C   UNL A   1      39.564  36.302  38.940  1.00  0.00     0.060 A 
BRANCH  89  90
ATOM     90  S   UNL A   1      39.365  37.575  40.205  1.00  0.00     0.124 S 
ATOM     91  O   UNL A   1      40.689  38.186  40.217  1.00  0.00    -0.237 OA
ATOM     92  O   UNL A   1      38.292  38.398  39.657  1.00  0.00    -0.237 OA
ATOM     93  O   UNL A   1      39.012  36.813  41.400  1.00  0.00    -0.744 OA
ENDBRANCH  89  90
ENDBRANCH  57  82
ENDBRANCH  31  32
ENDBRANCH  24  26
ENDBRANCH  23  24
ENDBRANCH  22  23
ENDBRANCH   1  22
TORSDOF 21
ENDMDL
