MODEL 1
REMARK VINA RESULT:     -11.1      0.000      0.000
REMARK SMILES C[C@H](C(=O)OCCOCCOC(=O)c1ccc(-c2c3nc(c(-c4c(F)cc(S(=O)(=O)[O-])cc4F)c4ccc([nH]4)c(-c4c(F)cc(S(=O)(=O)[O-])cc4F)c4nc(c(-c5c(F)cc(S(=O)(=O)[O-])cc5F)c5ccc2[nH]5)C=C4)C=C3)cc1)c1ccc(C[C@H]2CCC[C@@H]2O)cc1
REMARK SMILES IDX 7 1 6 2 5 3 3 4 4 5 2 6 1 7 80 8 81 9 92 10 82 11 91 12
REMARK SMILES IDX 83 13 84 14 85 15 86 16 89 17 87 18 88 19 90 20 8 22 9 23
REMARK SMILES IDX 10 24 11 25 12 26 13 27 14 28 15 29 79 30 16 31 78 32 17 33
REMARK SMILES IDX 18 34 19 35 72 36 20 37 77 38 71 39 73 40 21 41 76 42 70 43
REMARK SMILES IDX 69 44 22 46 56 47 35 48 55 49 36 50 39 51 54 52 74 53 37 54
REMARK SMILES IDX 38 55 53 57 75 58 40 59 23 60 24 61 33 62 25 63 26 64 32 65
REMARK SMILES IDX 34 66 27 67 28 68 29 69 30 70 31 71 57 72 58 73 67 74 59 75
REMARK SMILES IDX 60 76 66 77 68 78 61 79 62 80 63 81 64 82 65 83 41 84 42 85
REMARK SMILES IDX 51 86 43 87 44 88 50 89 52 90 45 91 46 92 47 93 48 94 49 95
REMARK H PARENT 90 21 73 45 39 56
REMARK Flexibility Score: inf
ROOT
ATOM      1  C   UNL A   1      37.435  21.678  25.641  1.00  0.00     0.202 C 
ENDROOT
BRANCH   1   2
ATOM      2  C   UNL A   1      36.741  23.032  25.462  1.00  0.00     0.261 C 
BRANCH   2   3
ATOM      3  O   UNL A   1      35.473  22.868  24.799  1.00  0.00    -0.463 OA
BRANCH   3   4
ATOM      4  C   UNL A   1      35.448  23.082  23.460  1.00  0.00     0.313 C 
ATOM      5  O   UNL A   1      36.427  22.985  22.726  1.00  0.00    -0.252 OA
BRANCH   4   6
ATOM      6  C   UNL A   1      34.061  23.386  22.908  1.00  0.00     0.126 C 
ATOM      7  C   UNL A   1      33.087  22.289  23.364  1.00  0.00     0.025 C 
BRANCH   6   8
ATOM      8  C   UNL A   1      33.468  24.762  23.179  1.00  0.00    -0.034 A 
ATOM      9  C   UNL A   1      32.671  25.033  24.300  1.00  0.00     0.005 A 
ATOM     10  C   UNL A   1      33.641  25.784  22.235  1.00  0.00     0.005 A 
ATOM     11  C   UNL A   1      32.037  26.266  24.455  1.00  0.00     0.004 A 
ATOM     12  C   UNL A   1      32.977  27.007  22.373  1.00  0.00     0.004 A 
ATOM     13  C   UNL A   1      32.133  27.244  23.464  1.00  0.00    -0.048 A 
BRANCH  13  14
ATOM     14  C   UNL A   1      31.319  28.514  23.544  1.00  0.00     0.041 C 
BRANCH  14  15
ATOM     15  C   UNL A   1      29.989  28.509  22.765  1.00  0.00     0.022 C 
ATOM     16  C   UNL A   1      28.775  27.897  23.485  1.00  0.00     0.007 C 
ATOM     17  C   UNL A   1      29.492  29.875  22.285  1.00  0.00     0.117 C 
ATOM     18  C   UNL A   1      27.558  28.710  23.030  1.00  0.00     0.003 C 
ATOM     19  C   UNL A   1      28.051  29.587  21.889  1.00  0.00     0.032 C 
BRANCH  17  20
ATOM     20  O   UNL A   1      30.255  30.342  21.191  1.00  0.00    -0.393 OA
ATOM     21  H   UNL A   1      31.196  30.173  21.359  1.00  0.00     0.210 HD
ENDBRANCH  17  20
ENDBRANCH  14  15
ENDBRANCH  13  14
ENDBRANCH   6   8
ENDBRANCH   4   6
ENDBRANCH   3   4
ENDBRANCH   2   3
ENDBRANCH   1   2
BRANCH   1  22
ATOM     22  O   UNL A   1      38.851  21.682  25.443  1.00  0.00    -0.374 OA
BRANCH  22  23
ATOM     23  C   UNL A   1      39.654  21.861  26.607  1.00  0.00     0.202 C 
BRANCH  23  24
ATOM     24  C   UNL A   1      40.595  23.073  26.590  1.00  0.00     0.261 C 
BRANCH  24  25
ATOM     25  O   UNL A   1      39.873  24.312  26.466  1.00  0.00    -0.460 OA
BRANCH  25  26
ATOM     26  C   UNL A   1      40.655  25.405  26.309  1.00  0.00     0.338 C 
ATOM     27  O   UNL A   1      41.114  25.831  25.256  1.00  0.00    -0.246 OA
BRANCH  26  28
ATOM     28  C   UNL A   1      40.754  26.160  27.573  1.00  0.00     0.060 A 
ATOM     29  C   UNL A   1      39.682  26.043  28.467  1.00  0.00     0.016 A 
ATOM     30  C   UNL A   1      41.821  27.014  27.859  1.00  0.00     0.016 A 
ATOM     31  C   UNL A   1      39.640  26.827  29.617  1.00  0.00     0.010 A 
ATOM     32  C   UNL A   1      41.775  27.805  29.015  1.00  0.00     0.010 A 
ATOM     33  C   UNL A   1      40.665  27.746  29.877  1.00  0.00    -0.014 A 
BRANCH  33  34
ATOM     34  C   UNL A   1      40.482  28.742  30.964  1.00  0.00     0.031 A 
ATOM     35  C   UNL A   1      41.362  28.663  32.184  1.00  0.00     0.074 A 
ATOM     36  C   UNL A   1      39.588  29.740  30.841  1.00  0.00     0.049 A 
ATOM     37  N   UNL A   1      41.383  29.431  33.242  1.00  0.00    -0.248 NA
ATOM     38  C   UNL A   1      42.353  27.576  32.212  1.00  0.00     0.031 C 
ATOM     39  C   UNL A   1      38.710  29.951  29.691  1.00  0.00     0.029 A 
ATOM     40  N   UNL A   1      39.275  30.769  31.695  1.00  0.00    -0.354 N 
ATOM     41  C   UNL A   1      42.379  28.917  34.065  1.00  0.00     0.074 A 
ATOM     42  C   UNL A   1      42.921  27.755  33.395  1.00  0.00     0.031 C 
ATOM     43  C   UNL A   1      37.954  31.040  29.914  1.00  0.00     0.029 A 
ATOM     44  C   UNL A   1      38.271  31.585  31.232  1.00  0.00     0.049 A 
ATOM     45  H   UNL A   1      39.727  30.907  32.560  1.00  0.00     0.167 HD
ATOM     46  C   UNL A   1      42.810  29.377  35.264  1.00  0.00     0.037 A 
ATOM     47  C   UNL A   1      37.666  32.642  31.814  1.00  0.00     0.037 A 
ATOM     48  C   UNL A   1      42.273  30.540  35.924  1.00  0.00     0.049 A 
ATOM     49  C   UNL A   1      38.118  33.094  33.178  1.00  0.00     0.074 A 
ATOM     50  C   UNL A   1      42.662  31.099  37.129  1.00  0.00     0.029 A 
ATOM     51  N   UNL A   1      41.230  31.315  35.442  1.00  0.00    -0.354 N 
ATOM     52  N   UNL A   1      39.079  32.614  33.932  1.00  0.00    -0.248 NA
ATOM     53  C   UNL A   1      37.405  34.235  33.771  1.00  0.00     0.031 C 
ATOM     54  C   UNL A   1      41.819  32.181  37.401  1.00  0.00     0.029 A 
ATOM     55  C   UNL A   1      40.942  32.332  36.339  1.00  0.00     0.049 A 
ATOM     56  H   UNL A   1      40.764  31.166  34.588  1.00  0.00     0.167 HD
ATOM     57  C   UNL A   1      39.104  33.412  35.072  1.00  0.00     0.074 A 
ATOM     58  C   UNL A   1      38.069  34.410  34.905  1.00  0.00     0.031 C 
ATOM     59  C   UNL A   1      39.914  33.327  36.158  1.00  0.00     0.037 A 
BRANCH  46  60
ATOM     60  C   UNL A   1      43.899  28.605  35.958  1.00  0.00     0.058 A 
ATOM     61  C   UNL A   1      43.618  27.522  36.804  1.00  0.00     0.135 A 
ATOM     62  C   UNL A   1      45.248  28.934  35.742  1.00  0.00     0.135 A 
ATOM     63  F   UNL A   1      42.346  27.174  37.059  1.00  0.00    -0.206 F 
ATOM     64  C   UNL A   1      44.633  26.804  37.428  1.00  0.00     0.059 A 
ATOM     65  C   UNL A   1      46.281  28.214  36.335  1.00  0.00     0.059 A 
ATOM     66  F   UNL A   1      45.573  29.963  34.944  1.00  0.00    -0.206 F 
ATOM     67  C   UNL A   1      45.963  27.158  37.188  1.00  0.00     0.060 A 
BRANCH  67  68
ATOM     68  S   UNL A   1      47.269  26.215  38.001  1.00  0.00     0.124 S 
ATOM     69  O   UNL A   1      47.193  24.941  37.294  1.00  0.00    -0.237 OA
ATOM     70  O   UNL A   1      48.454  27.022  37.727  1.00  0.00    -0.237 OA
ATOM     71  O   UNL A   1      46.847  26.181  39.398  1.00  0.00    -0.744 OA
ENDBRANCH  67  68
ENDBRANCH  46  60
BRANCH  47  72
ATOM     72  C   UNL A   1      36.556  33.340  31.112  1.00  0.00     0.058 A 
ATOM     73  C   UNL A   1      35.224  33.184  31.522  1.00  0.00     0.135 A 
ATOM     74  C   UNL A   1      36.807  34.173  30.009  1.00  0.00     0.135 A 
ATOM     75  F   UNL A   1      34.931  32.389  32.561  1.00  0.00    -0.206 F 
ATOM     76  C   UNL A   1      34.177  33.816  30.856  1.00  0.00     0.059 A 
ATOM     77  C   UNL A   1      35.780  34.837  29.345  1.00  0.00     0.059 A 
ATOM     78  F   UNL A   1      38.064  34.362  29.581  1.00  0.00    -0.206 F 
ATOM     79  C   UNL A   1      34.467  34.644  29.770  1.00  0.00     0.060 A 
BRANCH  79  80
ATOM     80  S   UNL A   1      33.107  35.496  28.943  1.00  0.00     0.124 S 
ATOM     81  O   UNL A   1      32.496  34.411  28.184  1.00  0.00    -0.237 OA
ATOM     82  O   UNL A   1      32.331  36.002  30.071  1.00  0.00    -0.237 OA
ATOM     83  O   UNL A   1      33.784  36.518  28.149  1.00  0.00    -0.744 OA
ENDBRANCH  79  80
ENDBRANCH  47  72
BRANCH  59  84
ATOM     84  C   UNL A   1      39.744  34.361  37.238  1.00  0.00     0.058 A 
ATOM     85  C   UNL A   1      38.979  34.114  38.388  1.00  0.00     0.135 A 
ATOM     86  C   UNL A   1      40.404  35.598  37.146  1.00  0.00     0.135 A 
ATOM     87  F   UNL A   1      38.323  32.951  38.525  1.00  0.00    -0.206 F 
ATOM     88  C   UNL A   1      38.854  35.064  39.396  1.00  0.00     0.059 A 
ATOM     89  C   UNL A   1      40.317  36.552  38.155  1.00  0.00     0.059 A 
ATOM     90  F   UNL A   1      41.160  35.883  36.073  1.00  0.00    -0.206 F 
ATOM     91  C   UNL A   1      39.529  36.280  39.272  1.00  0.00     0.060 A 
BRANCH  91  92
ATOM     92  S   UNL A   1      39.385  37.492  40.603  1.00  0.00     0.124 S 
ATOM     93  O   UNL A   1      40.734  38.047  40.643  1.00  0.00    -0.237 OA
ATOM     94  O   UNL A   1      38.347  38.386  40.101  1.00  0.00    -0.237 OA
ATOM     95  O   UNL A   1      39.005  36.684  41.759  1.00  0.00    -0.744 OA
ENDBRANCH  91  92
ENDBRANCH  59  84
ENDBRANCH  33  34
ENDBRANCH  26  28
ENDBRANCH  25  26
ENDBRANCH  24  25
ENDBRANCH  23  24
ENDBRANCH  22  23
ENDBRANCH   1  22
TORSDOF 21
ENDMDL
MODEL 2
REMARK VINA RESULT:     -10.9      3.129      4.789
REMARK SMILES C[C@H](C(=O)OCCOCCOC(=O)c1ccc(-c2c3nc(c(-c4c(F)cc(S(=O)(=O)[O-])cc4F)c4ccc([nH]4)c(-c4c(F)cc(S(=O)(=O)[O-])cc4F)c4nc(c(-c5c(F)cc(S(=O)(=O)[O-])cc5F)c5ccc2[nH]5)C=C4)C=C3)cc1)c1ccc(C[C@H]2CCC[C@@H]2O)cc1
REMARK SMILES IDX 7 1 6 2 5 3 3 4 4 5 2 6 1 7 80 8 81 9 92 10 82 11 91 12
REMARK SMILES IDX 83 13 84 14 85 15 86 16 89 17 87 18 88 19 90 20 8 22 9 23
REMARK SMILES IDX 10 24 11 25 12 26 13 27 14 28 15 29 79 30 16 31 78 32 17 33
REMARK SMILES IDX 18 34 19 35 72 36 20 37 77 38 71 39 73 40 21 41 76 42 70 43
REMARK SMILES IDX 69 44 22 46 56 47 35 48 55 49 36 50 39 51 54 52 74 53 37 54
REMARK SMILES IDX 38 55 53 57 75 58 40 59 23 60 24 61 33 62 25 63 26 64 32 65
REMARK SMILES IDX 34 66 27 67 28 68 29 69 30 70 31 71 57 72 58 73 67 74 59 75
REMARK SMILES IDX 60 76 66 77 68 78 61 79 62 80 63 81 64 82 65 83 41 84 42 85
REMARK SMILES IDX 51 86 43 87 44 88 50 89 52 90 45 91 46 92 47 93 48 94 49 95
REMARK H PARENT 90 21 73 45 39 56
REMARK Flexibility Score: inf
ROOT
ATOM      1  C   UNL A   1      44.971  20.571  24.667  1.00  0.00     0.202 C 
ENDROOT
BRANCH   1   2
ATOM      2  C   UNL A   1      44.252  19.218  24.660  1.00  0.00     0.261 C 
BRANCH   2   3
ATOM      3  O   UNL A   1      42.864  19.380  25.008  1.00  0.00    -0.463 OA
BRANCH   3   4
ATOM      4  C   UNL A   1      42.445  18.790  26.155  1.00  0.00     0.313 C 
ATOM      5  O   UNL A   1      42.859  17.710  26.568  1.00  0.00    -0.252 OA
BRANCH   4   6
ATOM      6  C   UNL A   1      41.450  19.624  26.952  1.00  0.00     0.126 C 
ATOM      7  C   UNL A   1      42.203  20.756  27.667  1.00  0.00     0.025 C 
BRANCH   6   8
ATOM      8  C   UNL A   1      40.233  20.178  26.224  1.00  0.00    -0.034 A 
ATOM      9  C   UNL A   1      39.849  21.524  26.313  1.00  0.00     0.005 A 
ATOM     10  C   UNL A   1      39.404  19.306  25.506  1.00  0.00     0.005 A 
ATOM     11  C   UNL A   1      38.660  21.974  25.740  1.00  0.00     0.004 A 
ATOM     12  C   UNL A   1      38.195  19.751  24.963  1.00  0.00     0.004 A 
ATOM     13  C   UNL A   1      37.790  21.082  25.112  1.00  0.00    -0.048 A 
BRANCH  13  14
ATOM     14  C   UNL A   1      36.428  21.529  24.637  1.00  0.00     0.041 C 
BRANCH  14  15
ATOM     15  C   UNL A   1      35.232  21.059  25.488  1.00  0.00     0.022 C 
ATOM     16  C   UNL A   1      34.289  22.158  26.009  1.00  0.00     0.007 C 
ATOM     17  C   UNL A   1      34.296  20.047  24.822  1.00  0.00     0.117 C 
ATOM     18  C   UNL A   1      32.884  21.545  26.011  1.00  0.00     0.003 C 
ATOM     19  C   UNL A   1      33.081  20.062  25.738  1.00  0.00     0.032 C 
BRANCH  17  20
ATOM     20  O   UNL A   1      34.892  18.766  24.759  1.00  0.00    -0.393 OA
ATOM     21  H   UNL A   1      34.198  18.091  24.686  1.00  0.00     0.210 HD
ENDBRANCH  17  20
ENDBRANCH  14  15
ENDBRANCH  13  14
ENDBRANCH   6   8
ENDBRANCH   4   6
ENDBRANCH   3   4
ENDBRANCH   2   3
ENDBRANCH   1   2
BRANCH   1  22
ATOM     22  O   UNL A   1      44.501  21.521  23.706  1.00  0.00    -0.374 OA
BRANCH  22  23
ATOM     23  C   UNL A   1      44.237  22.835  24.191  1.00  0.00     0.202 C 
BRANCH  23  24
ATOM     24  C   UNL A   1      43.358  22.921  25.446  1.00  0.00     0.261 C 
BRANCH  24  25
ATOM     25  O   UNL A   1      42.525  24.095  25.438  1.00  0.00    -0.460 OA
BRANCH  25  26
ATOM     26  C   UNL A   1      43.191  25.258  25.637  1.00  0.00     0.338 C 
ATOM     27  O   UNL A   1      44.125  25.688  24.973  1.00  0.00    -0.246 OA
BRANCH  26  28
ATOM     28  C   UNL A   1      42.525  26.067  26.676  1.00  0.00     0.060 A 
ATOM     29  C   UNL A   1      42.836  27.432  26.713  1.00  0.00     0.016 A 
ATOM     30  C   UNL A   1      41.675  25.511  27.634  1.00  0.00     0.016 A 
ATOM     31  C   UNL A   1      42.355  28.233  27.745  1.00  0.00     0.010 A 
ATOM     32  C   UNL A   1      41.194  26.318  28.675  1.00  0.00     0.010 A 
ATOM     33  C   UNL A   1      41.565  27.672  28.758  1.00  0.00    -0.014 A 
BRANCH  33  34
ATOM     34  C   UNL A   1      41.272  28.476  29.972  1.00  0.00     0.031 A 
ATOM     35  C   UNL A   1      42.131  28.293  31.196  1.00  0.00     0.074 A 
ATOM     36  C   UNL A   1      40.296  29.402  29.967  1.00  0.00     0.049 A 
ATOM     37  N   UNL A   1      42.063  28.894  32.355  1.00  0.00    -0.248 NA
ATOM     38  C   UNL A   1      43.216  27.302  31.097  1.00  0.00     0.031 C 
ATOM     39  C   UNL A   1      39.425  29.706  28.832  1.00  0.00     0.029 A 
ATOM     40  N   UNL A   1      39.875  30.262  30.952  1.00  0.00    -0.354 N 
ATOM     41  C   UNL A   1      43.085  28.351  33.126  1.00  0.00     0.074 A 
ATOM     42  C   UNL A   1      43.741  27.351  32.311  1.00  0.00     0.031 C 
ATOM     43  C   UNL A   1      38.571  30.681  29.186  1.00  0.00     0.029 A 
ATOM     44  C   UNL A   1      38.812  31.049  30.580  1.00  0.00     0.049 A 
ATOM     45  H   UNL A   1      40.296  30.308  31.841  1.00  0.00     0.167 HD
ATOM     46  C   UNL A   1      43.449  28.663  34.392  1.00  0.00     0.037 A 
ATOM     47  C   UNL A   1      38.103  31.952  31.290  1.00  0.00     0.037 A 
ATOM     48  C   UNL A   1      42.798  29.664  35.198  1.00  0.00     0.049 A 
ATOM     49  C   UNL A   1      38.486  32.233  32.720  1.00  0.00     0.074 A 
ATOM     50  C   UNL A   1      43.111  30.070  36.484  1.00  0.00     0.029 A 
ATOM     51  N   UNL A   1      41.699  30.411  34.800  1.00  0.00    -0.354 N 
ATOM     52  N   UNL A   1      39.471  31.731  33.426  1.00  0.00    -0.248 NA
ATOM     53  C   UNL A   1      37.662  33.208  33.449  1.00  0.00     0.031 C 
ATOM     54  C   UNL A   1      42.169  31.024  36.882  1.00  0.00     0.029 A 
ATOM     55  C   UNL A   1      41.304  31.255  35.826  1.00  0.00     0.049 A 
ATOM     56  H   UNL A   1      41.265  30.351  33.918  1.00  0.00     0.167 HD
ATOM     57  C   UNL A   1      39.402  32.350  34.671  1.00  0.00     0.074 A 
ATOM     58  C   UNL A   1      38.285  33.270  34.618  1.00  0.00     0.031 C 
ATOM     59  C   UNL A   1      40.194  32.174  35.759  1.00  0.00     0.037 A 
BRANCH  46  60
ATOM     60  C   UNL A   1      44.589  27.893  35.002  1.00  0.00     0.058 A 
ATOM     61  C   UNL A   1      44.387  26.682  35.682  1.00  0.00     0.135 A 
ATOM     62  C   UNL A   1      45.908  28.356  34.868  1.00  0.00     0.135 A 
ATOM     63  F   UNL A   1      43.145  26.201  35.854  1.00  0.00    -0.206 F 
ATOM     64  C   UNL A   1      45.450  25.969  36.228  1.00  0.00     0.059 A 
ATOM     65  C   UNL A   1      46.989  27.646  35.383  1.00  0.00     0.059 A 
ATOM     66  F   UNL A   1      46.158  29.510  34.228  1.00  0.00    -0.206 F 
ATOM     67  C   UNL A   1      46.749  26.460  36.073  1.00  0.00     0.060 A 
BRANCH  67  68
ATOM     68  S   UNL A   1      48.118  25.521  36.783  1.00  0.00     0.124 S 
ATOM     69  O   UNL A   1      49.267  26.154  36.143  1.00  0.00    -0.237 OA
ATOM     70  O   UNL A   1      47.966  25.779  38.211  1.00  0.00    -0.237 OA
ATOM     71  O   UNL A   1      47.844  24.150  36.363  1.00  0.00    -0.744 OA
ENDBRANCH  67  68
ENDBRANCH  46  60
BRANCH  47  72
ATOM     72  C   UNL A   1      36.949  32.649  30.661  1.00  0.00     0.058 A 
ATOM     73  C   UNL A   1      35.629  32.254  30.924  1.00  0.00     0.135 A 
ATOM     74  C   UNL A   1      37.146  33.722  29.776  1.00  0.00     0.135 A 
ATOM     75  F   UNL A   1      35.390  31.226  31.752  1.00  0.00    -0.206 F 
ATOM     76  C   UNL A   1      34.545  32.887  30.323  1.00  0.00     0.059 A 
ATOM     77  C   UNL A   1      36.077  34.388  29.184  1.00  0.00     0.059 A 
ATOM     78  F   UNL A   1      38.388  34.144  29.497  1.00  0.00    -0.206 F 
ATOM     79  C   UNL A   1      34.780  33.956  29.456  1.00  0.00     0.060 A 
BRANCH  79  80
ATOM     80  S   UNL A   1      33.365  34.800  28.718  1.00  0.00     0.124 S 
ATOM     81  O   UNL A   1      32.525  35.044  29.885  1.00  0.00    -0.237 OA
ATOM     82  O   UNL A   1      33.987  35.977  28.121  1.00  0.00    -0.237 OA
ATOM     83  O   UNL A   1      32.851  33.821  27.764  1.00  0.00    -0.744 OA
ENDBRANCH  79  80
ENDBRANCH  47  72
BRANCH  59  84
ATOM     84  C   UNL A   1      39.911  33.018  36.972  1.00  0.00     0.058 A 
ATOM     85  C   UNL A   1      40.633  34.191  37.244  1.00  0.00     0.135 A 
ATOM     86  C   UNL A   1      38.863  32.679  37.844  1.00  0.00     0.135 A 
ATOM     87  F   UNL A   1      41.648  34.559  36.447  1.00  0.00    -0.206 F 
ATOM     88  C   UNL A   1      40.343  34.983  38.350  1.00  0.00     0.059 A 
ATOM     89  C   UNL A   1      38.537  33.471  38.940  1.00  0.00     0.059 A 
ATOM     90  F   UNL A   1      38.132  31.574  37.624  1.00  0.00    -0.206 F 
ATOM     91  C   UNL A   1      39.290  34.616  39.192  1.00  0.00     0.060 A 
BRANCH  91  92
ATOM     92  S   UNL A   1      38.902  35.671  40.605  1.00  0.00     0.124 S 
ATOM     93  O   UNL A   1      37.767  34.969  41.193  1.00  0.00    -0.237 OA
ATOM     94  O   UNL A   1      40.142  35.628  41.376  1.00  0.00    -0.237 OA
ATOM     95  O   UNL A   1      38.596  36.961  39.994  1.00  0.00    -0.744 OA
ENDBRANCH  91  92
ENDBRANCH  59  84
ENDBRANCH  33  34
ENDBRANCH  26  28
ENDBRANCH  25  26
ENDBRANCH  24  25
ENDBRANCH  23  24
ENDBRANCH  22  23
ENDBRANCH   1  22
TORSDOF 21
ENDMDL
MODEL 3
REMARK VINA RESULT:     -10.8      0.625      8.240
REMARK SMILES C[C@H](C(=O)OCCOCCOC(=O)c1ccc(-c2c3nc(c(-c4c(F)cc(S(=O)(=O)[O-])cc4F)c4ccc([nH]4)c(-c4c(F)cc(S(=O)(=O)[O-])cc4F)c4nc(c(-c5c(F)cc(S(=O)(=O)[O-])cc5F)c5ccc2[nH]5)C=C4)C=C3)cc1)c1ccc(C[C@H]2CCC[C@@H]2O)cc1
REMARK SMILES IDX 7 1 6 2 5 3 3 4 4 5 2 6 1 7 80 8 81 9 92 10 82 11 91 12
REMARK SMILES IDX 83 13 84 14 85 15 86 16 89 17 87 18 88 19 90 20 8 22 9 23
REMARK SMILES IDX 10 24 11 25 12 26 13 27 14 28 15 29 79 30 16 31 78 32 17 33
REMARK SMILES IDX 18 34 19 35 72 36 20 37 77 38 71 39 73 40 21 41 76 42 70 43
REMARK SMILES IDX 69 44 22 46 56 47 35 48 55 49 36 50 39 51 54 52 74 53 37 54
REMARK SMILES IDX 38 55 53 57 75 58 40 59 23 60 24 61 33 62 25 63 26 64 32 65
REMARK SMILES IDX 34 66 27 67 28 68 29 69 30 70 31 71 57 72 58 73 67 74 59 75
REMARK SMILES IDX 60 76 66 77 68 78 61 79 62 80 63 81 64 82 65 83 41 84 42 85
REMARK SMILES IDX 51 86 43 87 44 88 50 89 52 90 45 91 46 92 47 93 48 94 49 95
REMARK H PARENT 90 21 73 45 39 56
REMARK Flexibility Score: inf
ROOT
ATOM      1  C   UNL A   1      38.124  22.195  25.581  1.00  0.00     0.202 C 
ENDROOT
BRANCH   1   2
ATOM      2  C   UNL A   1      37.057  21.471  24.754  1.00  0.00     0.261 C 
BRANCH   2   3
ATOM      3  O   UNL A   1      35.880  22.289  24.619  1.00  0.00    -0.463 OA
BRANCH   3   4
ATOM      4  C   UNL A   1      35.614  22.785  23.385  1.00  0.00     0.313 C 
ATOM      5  O   UNL A   1      36.474  23.094  22.565  1.00  0.00    -0.252 OA
BRANCH   4   6
ATOM      6  C   UNL A   1      34.129  22.863  23.056  1.00  0.00     0.126 C 
ATOM      7  C   UNL A   1      33.371  21.830  23.904  1.00  0.00     0.025 C 
BRANCH   6   8
ATOM      8  C   UNL A   1      33.445  24.221  23.146  1.00  0.00    -0.034 A 
ATOM      9  C   UNL A   1      34.058  25.338  23.730  1.00  0.00     0.005 A 
ATOM     10  C   UNL A   1      32.118  24.353  22.713  1.00  0.00     0.005 A 
ATOM     11  C   UNL A   1      33.360  26.532  23.913  1.00  0.00     0.004 A 
ATOM     12  C   UNL A   1      31.409  25.539  22.928  1.00  0.00     0.004 A 
ATOM     13  C   UNL A   1      32.011  26.626  23.570  1.00  0.00    -0.048 A 
BRANCH  13  14
ATOM     14  C   UNL A   1      31.206  27.857  23.916  1.00  0.00     0.041 C 
BRANCH  14  15
ATOM     15  C   UNL A   1      30.048  28.194  22.956  1.00  0.00     0.022 C 
ATOM     16  C   UNL A   1      28.631  27.840  23.443  1.00  0.00     0.007 C 
ATOM     17  C   UNL A   1      29.942  29.659  22.525  1.00  0.00     0.117 C 
ATOM     18  C   UNL A   1      27.708  28.930  22.887  1.00  0.00     0.003 C 
ATOM     19  C   UNL A   1      28.555  29.726  21.905  1.00  0.00     0.032 C 
BRANCH  17  20
ATOM     20  O   UNL A   1      30.952  29.991  21.594  1.00  0.00    -0.393 OA
ATOM     21  H   UNL A   1      31.600  29.270  21.550  1.00  0.00     0.210 HD
ENDBRANCH  17  20
ENDBRANCH  14  15
ENDBRANCH  13  14
ENDBRANCH   6   8
ENDBRANCH   4   6
ENDBRANCH   3   4
ENDBRANCH   2   3
ENDBRANCH   1   2
BRANCH   1  22
ATOM     22  O   UNL A   1      39.233  21.392  25.992  1.00  0.00    -0.374 OA
BRANCH  22  23
ATOM     23  C   UNL A   1      40.125  21.978  26.938  1.00  0.00     0.202 C 
BRANCH  23  24
ATOM     24  C   UNL A   1      40.915  23.197  26.445  1.00  0.00     0.261 C 
BRANCH  24  25
ATOM     25  O   UNL A   1      40.132  24.403  26.502  1.00  0.00    -0.460 OA
BRANCH  25  26
ATOM     26  C   UNL A   1      40.843  25.543  26.333  1.00  0.00     0.338 C 
ATOM     27  O   UNL A   1      41.183  26.042  25.268  1.00  0.00    -0.246 OA
BRANCH  26  28
ATOM     28  C   UNL A   1      41.019  26.242  27.621  1.00  0.00     0.060 A 
ATOM     29  C   UNL A   1      39.990  26.106  28.562  1.00  0.00     0.016 A 
ATOM     30  C   UNL A   1      42.114  27.065  27.888  1.00  0.00     0.016 A 
ATOM     31  C   UNL A   1      40.019  26.842  29.744  1.00  0.00     0.010 A 
ATOM     32  C   UNL A   1      42.141  27.808  29.076  1.00  0.00     0.010 A 
ATOM     33  C   UNL A   1      41.073  27.731  29.990  1.00  0.00    -0.014 A 
BRANCH  33  34
ATOM     34  C   UNL A   1      40.963  28.684  31.124  1.00  0.00     0.031 A 
ATOM     35  C   UNL A   1      39.905  29.756  31.079  1.00  0.00     0.074 A 
ATOM     36  C   UNL A   1      41.749  28.559  32.209  1.00  0.00     0.049 A 
ATOM     37  N   UNL A   1      39.624  30.681  31.959  1.00  0.00    -0.248 NA
ATOM     38  C   UNL A   1      39.048  29.785  29.883  1.00  0.00     0.031 C 
ATOM     39  C   UNL A   1      42.779  27.537  32.393  1.00  0.00     0.029 A 
ATOM     40  N   UNL A   1      41.801  29.299  33.365  1.00  0.00    -0.354 N 
ATOM     41  C   UNL A   1      38.567  31.407  31.422  1.00  0.00     0.074 A 
ATOM     42  C   UNL A   1      38.275  30.832  30.127  1.00  0.00     0.031 C 
ATOM     43  C   UNL A   1      43.363  27.717  33.590  1.00  0.00     0.029 A 
ATOM     44  C   UNL A   1      42.772  28.883  34.243  1.00  0.00     0.049 A 
ATOM     45  H   UNL A   1      41.199  30.057  33.546  1.00  0.00     0.167 HD
ATOM     46  C   UNL A   1      37.894  32.451  31.963  1.00  0.00     0.037 A 
ATOM     47  C   UNL A   1      43.152  29.396  35.432  1.00  0.00     0.037 A 
ATOM     48  C   UNL A   1      38.182  33.016  33.256  1.00  0.00     0.049 A 
ATOM     49  C   UNL A   1      42.433  30.600  35.982  1.00  0.00     0.074 A 
ATOM     50  C   UNL A   1      37.539  34.059  33.900  1.00  0.00     0.029 A 
ATOM     51  N   UNL A   1      39.200  32.594  34.097  1.00  0.00    -0.354 N 
ATOM     52  N   UNL A   1      41.417  31.260  35.475  1.00  0.00    -0.248 NA
ATOM     53  C   UNL A   1      42.908  31.130  37.269  1.00  0.00     0.031 C 
ATOM     54  C   UNL A   1      38.202  34.301  35.109  1.00  0.00     0.029 A 
ATOM     55  C   UNL A   1      39.221  33.373  35.243  1.00  0.00     0.049 A 
ATOM     56  H   UNL A   1      39.816  31.849  33.909  1.00  0.00     0.167 HD
ATOM     57  C   UNL A   1      41.115  32.261  36.394  1.00  0.00     0.074 A 
ATOM     58  C   UNL A   1      42.049  32.115  37.492  1.00  0.00     0.031 C 
ATOM     59  C   UNL A   1      40.150  33.213  36.335  1.00  0.00     0.037 A 
BRANCH  46  60
ATOM     60  C   UNL A   1      36.795  33.074  31.145  1.00  0.00     0.058 A 
ATOM     61  C   UNL A   1      35.440  32.845  31.427  1.00  0.00     0.135 A 
ATOM     62  C   UNL A   1      37.106  33.944  30.086  1.00  0.00     0.135 A 
ATOM     63  F   UNL A   1      35.086  32.010  32.417  1.00  0.00    -0.206 F 
ATOM     64  C   UNL A   1      34.431  33.439  30.675  1.00  0.00     0.059 A 
ATOM     65  C   UNL A   1      36.113  34.569  29.337  1.00  0.00     0.059 A 
ATOM     66  F   UNL A   1      38.387  34.195  29.772  1.00  0.00    -0.206 F 
ATOM     67  C   UNL A   1      34.778  34.300  29.631  1.00  0.00     0.060 A 
BRANCH  67  68
ATOM     68  S   UNL A   1      33.458  35.066  28.667  1.00  0.00     0.124 S 
ATOM     69  O   UNL A   1      34.180  36.127  27.974  1.00  0.00    -0.237 OA
ATOM     70  O   UNL A   1      32.999  33.961  27.832  1.00  0.00    -0.237 OA
ATOM     71  O   UNL A   1      32.510  35.514  29.683  1.00  0.00    -0.744 OA
ENDBRANCH  67  68
ENDBRANCH  46  60
BRANCH  47  72
ATOM     72  C   UNL A   1      44.281  28.780  36.180  1.00  0.00     0.058 A 
ATOM     73  C   UNL A   1      44.081  27.672  37.016  1.00  0.00     0.135 A 
ATOM     74  C   UNL A   1      45.584  29.294  36.079  1.00  0.00     0.135 A 
ATOM     75  F   UNL A   1      42.852  27.152  37.157  1.00  0.00    -0.206 F 
ATOM     76  C   UNL A   1      45.127  27.104  37.737  1.00  0.00     0.059 A 
ATOM     77  C   UNL A   1      46.651  28.726  36.768  1.00  0.00     0.059 A 
ATOM     78  F   UNL A   1      45.831  30.349  35.286  1.00  0.00    -0.206 F 
ATOM     79  C   UNL A   1      46.410  27.637  37.603  1.00  0.00     0.060 A 
BRANCH  79  80
ATOM     80  S   UNL A   1      47.769  26.863  38.506  1.00  0.00     0.124 S 
ATOM     81  O   UNL A   1      47.509  27.308  39.869  1.00  0.00    -0.237 OA
ATOM     82  O   UNL A   1      47.544  25.445  38.243  1.00  0.00    -0.237 OA
ATOM     83  O   UNL A   1      48.958  27.429  37.873  1.00  0.00    -0.744 OA
ENDBRANCH  79  80
ENDBRANCH  47  72
BRANCH  59  84
ATOM     84  C   UNL A   1      40.023  34.151  37.505  1.00  0.00     0.058 A 
ATOM     85  C   UNL A   1      40.816  35.303  37.621  1.00  0.00     0.135 A 
ATOM     86  C   UNL A   1      39.053  33.922  38.496  1.00  0.00     0.135 A 
ATOM     87  F   UNL A   1      41.761  35.567  36.705  1.00  0.00    -0.206 F 
ATOM     88  C   UNL A   1      40.669  36.182  38.689  1.00  0.00     0.059 A 
ATOM     89  C   UNL A   1      38.870  34.803  39.557  1.00  0.00     0.059 A 
ATOM     90  F   UNL A   1      38.259  32.842  38.427  1.00  0.00    -0.206 F 
ATOM     91  C   UNL A   1      39.691  35.925  39.652  1.00  0.00     0.060 A 
BRANCH  91  92
ATOM     92  S   UNL A   1      39.488  37.091  41.016  1.00  0.00     0.124 S 
ATOM     93  O   UNL A   1      38.493  38.008  40.473  1.00  0.00    -0.237 OA
ATOM     94  O   UNL A   1      39.030  36.227  42.099  1.00  0.00    -0.237 OA
ATOM     95  O   UNL A   1      40.827  37.647  41.189  1.00  0.00    -0.744 OA
ENDBRANCH  91  92
ENDBRANCH  59  84
ENDBRANCH  33  34
ENDBRANCH  26  28
ENDBRANCH  25  26
ENDBRANCH  24  25
ENDBRANCH  23  24
ENDBRANCH  22  23
ENDBRANCH   1  22
TORSDOF 21
ENDMDL
