MODEL 1
REMARK VINA RESULT:     -11.3      0.000      0.000
REMARK SMILES CC(=O)N[C@H]1[C@H](OCC(=O)OCCOCCOC(=O)c2ccc(-c3c4nc(c(-c5c(F)cc(S(=O)(=O)[O-])cc5F)c5ccc([nH]5)c(-c5c(F)cc(S(=O)(=O)[O-])cc5F)c5nc(c(-c6c(F)cc(S(=O)(=O)[O-])cc6F)c6ccc3[nH]6)C=C5)C=C4)cc2)[C@H]2O[C@@H](c3ccco3)OC[C@H]2O[C@@H]1Sc1ccc(Cl)cc1
REMARK SMILES IDX 13 1 12 2 11 3 9 4 10 5 8 6 7 7 6 8 5 9 98 10 86 11 97 12
REMARK SMILES IDX 87 13 96 14 88 15 95 16 94 17 4 18 1 19 2 20 3 21 99 23
REMARK SMILES IDX 100 24 101 25 106 26 102 27 105 28 103 29 104 30 89 31 90 32
REMARK SMILES IDX 93 33 91 34 92 35 14 36 15 37 16 38 17 39 18 40 19 41 20 42
REMARK SMILES IDX 21 43 85 44 22 45 84 46 23 47 24 48 25 49 78 50 26 51 83 52
REMARK SMILES IDX 77 53 79 54 27 55 82 56 76 57 75 58 28 60 62 61 41 62 61 63
REMARK SMILES IDX 42 64 45 65 60 66 80 67 43 68 44 69 59 71 81 72 46 73 29 74
REMARK SMILES IDX 30 75 39 76 31 77 32 78 38 79 40 80 33 81 34 82 35 83 36 84
REMARK SMILES IDX 37 85 63 86 64 87 73 88 65 89 66 90 72 91 74 92 67 93 68 94
REMARK SMILES IDX 69 95 70 96 71 97 47 98 48 99 57 100 49 101 50 102 56 103
REMARK SMILES IDX 58 104 51 105 52 106 53 107 54 108 55 109
REMARK H PARENT 4 22 79 59 45 70
REMARK Flexibility Score: inf
ROOT
ATOM      1  C   UNL A   1      39.793  20.813  26.135  1.00  0.00     0.202 C 
ENDROOT
BRANCH   1   2
ATOM      2  C   UNL A   1      38.865  22.027  26.034  1.00  0.00     0.261 C 
BRANCH   2   3
ATOM      3  O   UNL A   1      37.725  21.746  25.181  1.00  0.00    -0.462 OA
BRANCH   3   4
ATOM      4  C   UNL A   1      36.568  22.302  25.637  1.00  0.00     0.332 C 
ATOM      5  O   UNL A   1      35.782  21.727  26.384  1.00  0.00    -0.250 OA
BRANCH   4   6
ATOM      6  C   UNL A   1      36.318  23.741  25.127  1.00  0.00     0.283 C 
BRANCH   6   7
ATOM      7  O   UNL A   1      35.448  24.710  25.662  1.00  0.00    -0.361 OA
BRANCH   7   8
ATOM      8  C   UNL A   1      34.343  25.289  24.959  1.00  0.00     0.176 C 
ATOM      9  C   UNL A   1      33.287  24.364  24.259  1.00  0.00     0.153 C 
ATOM     10  C   UNL A   1      32.060  24.097  25.195  1.00  0.00     0.206 C 
ATOM     11  C   UNL A   1      33.640  26.461  25.632  1.00  0.00     0.184 C 
ATOM     12  O   UNL A   1      31.555  25.262  25.841  1.00  0.00    -0.356 OA
ATOM     13  O   UNL A   1      33.117  27.301  24.613  1.00  0.00    -0.337 OA
ATOM     14  C   UNL A   1      32.527  26.023  26.542  1.00  0.00     0.177 C 
ATOM     15  C   UNL A   1      32.358  28.418  25.044  1.00  0.00     0.319 C 
ATOM     16  C   UNL A   1      31.875  27.255  27.148  1.00  0.00     0.199 C 
ATOM     17  O   UNL A   1      31.711  28.378  26.305  1.00  0.00    -0.343 OA
BRANCH   9  18
ATOM     18  N   UNL A   1      32.915  25.049  22.969  1.00  0.00    -0.347 N 
ATOM     19  C   UNL A   1      33.218  23.322  21.228  1.00  0.00     0.114 C 
ATOM     20  C   UNL A   1      32.929  24.722  21.657  1.00  0.00     0.217 C 
ATOM     21  O   UNL A   1      32.658  25.589  20.825  1.00  0.00    -0.275 OA
ATOM     22  H   UNL A   1      32.576  25.961  23.119  1.00  0.00     0.163 HD
ENDBRANCH   9  18
BRANCH  10  23
ATOM     23  S   UNL A   1      32.313  22.600  26.249  1.00  0.00    -0.092 SA
BRANCH  23  24
ATOM     24  C   UNL A   1      32.431  21.176  25.178  1.00  0.00     0.010 A 
ATOM     25  C   UNL A   1      32.143  21.168  23.812  1.00  0.00     0.016 A 
ATOM     26  C   UNL A   1      32.903  19.990  25.765  1.00  0.00     0.016 A 
ATOM     27  C   UNL A   1      32.264  19.992  23.060  1.00  0.00     0.021 A 
ATOM     28  C   UNL A   1      33.053  18.819  25.014  1.00  0.00     0.021 A 
ATOM     29  C   UNL A   1      32.726  18.825  23.663  1.00  0.00     0.041 A 
ATOM     30  Cl  UNL A   1      32.921  17.395  22.727  1.00  0.00    -0.084 Cl
ENDBRANCH  23  24
ENDBRANCH  10  23
BRANCH  15  31
ATOM     31  C   UNL A   1      31.258  28.652  24.059  1.00  0.00     0.159 A 
ATOM     32  C   UNL A   1      30.817  27.915  22.975  1.00  0.00     0.051 A 
ATOM     33  O   UNL A   1      30.546  29.817  24.138  1.00  0.00    -0.464 OA
ATOM     34  C   UNL A   1      29.798  28.675  22.356  1.00  0.00     0.042 A 
ATOM     35  C   UNL A   1      29.656  29.812  23.114  1.00  0.00     0.195 A 
ENDBRANCH  15  31
ENDBRANCH   7   8
ENDBRANCH   6   7
ENDBRANCH   4   6
ENDBRANCH   3   4
ENDBRANCH   2   3
ENDBRANCH   1   2
BRANCH   1  36
ATOM     36  O   UNL A   1      40.977  20.986  26.920  1.00  0.00    -0.374 OA
BRANCH  36  37
ATOM     37  C   UNL A   1      42.227  20.718  26.298  1.00  0.00     0.202 C 
BRANCH  37  38
ATOM     38  C   UNL A   1      42.950  21.938  25.697  1.00  0.00     0.261 C 
BRANCH  38  39
ATOM     39  O   UNL A   1      42.083  23.075  25.577  1.00  0.00    -0.460 OA
BRANCH  39  40
ATOM     40  C   UNL A   1      42.709  24.270  25.518  1.00  0.00     0.338 C 
ATOM     41  O   UNL A   1      43.735  24.461  24.895  1.00  0.00    -0.246 OA
BRANCH  40  42
ATOM     42  C   UNL A   1      42.026  25.301  26.321  1.00  0.00     0.060 A 
ATOM     43  C   UNL A   1      42.550  26.592  26.278  1.00  0.00     0.016 A 
ATOM     44  C   UNL A   1      40.914  24.986  27.122  1.00  0.00     0.016 A 
ATOM     45  C   UNL A   1      42.039  27.550  27.131  1.00  0.00     0.010 A 
ATOM     46  C   UNL A   1      40.386  25.951  27.965  1.00  0.00     0.010 A 
ATOM     47  C   UNL A   1      41.026  27.194  28.032  1.00  0.00    -0.014 A 
BRANCH  47  48
ATOM     48  C   UNL A   1      40.924  28.007  29.252  1.00  0.00     0.031 A 
ATOM     49  C   UNL A   1      42.017  27.841  30.272  1.00  0.00     0.074 A 
ATOM     50  C   UNL A   1      39.982  28.957  29.334  1.00  0.00     0.049 A 
ATOM     51  N   UNL A   1      42.257  28.536  31.349  1.00  0.00    -0.248 NA
ATOM     52  C   UNL A   1      42.986  26.750  30.041  1.00  0.00     0.031 C 
ATOM     53  C   UNL A   1      38.931  29.185  28.340  1.00  0.00     0.029 A 
ATOM     54  N   UNL A   1      39.781  29.925  30.273  1.00  0.00    -0.354 N 
ATOM     55  C   UNL A   1      43.399  27.973  31.912  1.00  0.00     0.074 A 
ATOM     56  C   UNL A   1      43.783  26.854  31.090  1.00  0.00     0.031 C 
ATOM     57  C   UNL A   1      38.202  30.248  28.717  1.00  0.00     0.029 A 
ATOM     58  C   UNL A   1      38.724  30.751  29.985  1.00  0.00     0.049 A 
ATOM     59  H   UNL A   1      40.339  30.021  31.078  1.00  0.00     0.167 HD
ATOM     60  C   UNL A   1      44.071  28.375  33.014  1.00  0.00     0.037 A 
ATOM     61  C   UNL A   1      38.243  31.795  30.685  1.00  0.00     0.037 A 
ATOM     62  C   UNL A   1      43.648  29.499  33.803  1.00  0.00     0.049 A 
ATOM     63  C   UNL A   1      38.979  32.194  31.934  1.00  0.00     0.074 A 
ATOM     64  C   UNL A   1      44.217  30.012  34.952  1.00  0.00     0.029 A 
ATOM     65  N   UNL A   1      42.535  30.281  33.517  1.00  0.00    -0.354 N 
ATOM     66  N   UNL A   1      40.059  31.657  32.460  1.00  0.00    -0.248 NA
ATOM     67  C   UNL A   1      38.449  33.340  32.677  1.00  0.00     0.031 C 
ATOM     68  C   UNL A   1      43.414  31.070  35.391  1.00  0.00     0.029 A 
ATOM     69  C   UNL A   1      42.383  31.259  34.480  1.00  0.00     0.049 A 
ATOM     70  H   UNL A   1      41.942  30.157  32.740  1.00  0.00     0.167 HD
ATOM     71  C   UNL A   1      40.350  32.413  33.589  1.00  0.00     0.074 A 
ATOM     72  C   UNL A   1      39.342  33.457  33.652  1.00  0.00     0.031 C 
ATOM     73  C   UNL A   1      41.351  32.268  34.495  1.00  0.00     0.037 A 
BRANCH  60  74
ATOM     74  C   UNL A   1      45.273  27.575  33.437  1.00  0.00     0.058 A 
ATOM     75  C   UNL A   1      46.577  27.902  33.024  1.00  0.00     0.135 A 
ATOM     76  C   UNL A   1      45.120  26.459  34.275  1.00  0.00     0.135 A 
ATOM     77  F   UNL A   1      46.784  28.938  32.195  1.00  0.00    -0.206 F 
ATOM     78  C   UNL A   1      47.678  27.142  33.412  1.00  0.00     0.059 A 
ATOM     79  C   UNL A   1      46.208  25.701  34.698  1.00  0.00     0.059 A 
ATOM     80  F   UNL A   1      43.897  26.088  34.685  1.00  0.00    -0.206 F 
ATOM     81  C   UNL A   1      47.484  26.045  34.253  1.00  0.00     0.060 A 
BRANCH  81  82
ATOM     82  S   UNL A   1      48.922  25.081  34.767  1.00  0.00     0.124 S 
ATOM     83  O   UNL A   1      48.427  24.443  35.983  1.00  0.00    -0.237 OA
ATOM     84  O   UNL A   1      49.127  24.196  33.625  1.00  0.00    -0.237 OA
ATOM     85  O   UNL A   1      49.956  26.092  34.967  1.00  0.00    -0.744 OA
ENDBRANCH  81  82
ENDBRANCH  60  74
BRANCH  61  86
ATOM     86  C   UNL A   1      37.024  32.502  30.213  1.00  0.00     0.058 A 
ATOM     87  C   UNL A   1      35.738  32.100  30.601  1.00  0.00     0.135 A 
ATOM     88  C   UNL A   1      37.131  33.636  29.390  1.00  0.00     0.135 A 
ATOM     89  F   UNL A   1      35.580  31.026  31.388  1.00  0.00    -0.206 F 
ATOM     90  C   UNL A   1      34.602  32.788  30.181  1.00  0.00     0.059 A 
ATOM     91  C   UNL A   1      36.014  34.356  28.983  1.00  0.00     0.059 A 
ATOM     92  F   UNL A   1      38.339  34.078  29.007  1.00  0.00    -0.206 F 
ATOM     93  C   UNL A   1      34.752  33.919  29.376  1.00  0.00     0.060 A 
BRANCH  93  94
ATOM     94  S   UNL A   1      33.278  34.837  28.882  1.00  0.00     0.124 S 
ATOM     95  O   UNL A   1      32.584  34.988  30.156  1.00  0.00    -0.237 OA
ATOM     96  O   UNL A   1      33.851  36.055  28.317  1.00  0.00    -0.237 OA
ATOM     97  O   UNL A   1      32.638  33.949  27.916  1.00  0.00    -0.744 OA
ENDBRANCH  93  94
ENDBRANCH  61  86
BRANCH  73  98
ATOM     98  C   UNL A   1      41.404  33.278  35.605  1.00  0.00     0.058 A 
ATOM     99  C   UNL A   1      40.678  33.105  36.792  1.00  0.00     0.135 A 
ATOM    100  C   UNL A   1      42.221  34.414  35.485  1.00  0.00     0.135 A 
ATOM    101  F   UNL A   1      39.883  32.035  36.950  1.00  0.00    -0.206 F 
ATOM    102  C   UNL A   1      40.724  34.050  37.809  1.00  0.00     0.059 A 
ATOM    103  C   UNL A   1      42.311  35.353  36.505  1.00  0.00     0.059 A 
ATOM    104  F   UNL A   1      42.949  34.612  34.375  1.00  0.00    -0.206 F 
ATOM    105  C   UNL A   1      41.543  35.171  37.654  1.00  0.00     0.060 A 
BRANCH 105 106
ATOM    106  S   UNL A   1      41.596  36.388  38.983  1.00  0.00     0.124 S 
ATOM    107  O   UNL A   1      41.478  35.536  40.162  1.00  0.00    -0.237 OA
ATOM    108  O   UNL A   1      42.898  37.014  38.781  1.00  0.00    -0.237 OA
ATOM    109  O   UNL A   1      40.445  37.242  38.709  1.00  0.00    -0.744 OA
ENDBRANCH 105 106
ENDBRANCH  73  98
ENDBRANCH  47  48
ENDBRANCH  40  42
ENDBRANCH  39  40
ENDBRANCH  38  39
ENDBRANCH  37  38
ENDBRANCH  36  37
ENDBRANCH   1  36
TORSDOF 23
ENDMDL
MODEL 2
REMARK VINA RESULT:     -10.2      3.419      8.919
REMARK SMILES CC(=O)N[C@H]1[C@H](OCC(=O)OCCOCCOC(=O)c2ccc(-c3c4nc(c(-c5c(F)cc(S(=O)(=O)[O-])cc5F)c5ccc([nH]5)c(-c5c(F)cc(S(=O)(=O)[O-])cc5F)c5nc(c(-c6c(F)cc(S(=O)(=O)[O-])cc6F)c6ccc3[nH]6)C=C5)C=C4)cc2)[C@H]2O[C@@H](c3ccco3)OC[C@H]2O[C@@H]1Sc1ccc(Cl)cc1
REMARK SMILES IDX 13 1 12 2 11 3 9 4 10 5 8 6 7 7 6 8 5 9 98 10 86 11 97 12
REMARK SMILES IDX 87 13 96 14 88 15 95 16 94 17 4 18 1 19 2 20 3 21 99 23
REMARK SMILES IDX 100 24 101 25 106 26 102 27 105 28 103 29 104 30 89 31 90 32
REMARK SMILES IDX 93 33 91 34 92 35 14 36 15 37 16 38 17 39 18 40 19 41 20 42
REMARK SMILES IDX 21 43 85 44 22 45 84 46 23 47 24 48 25 49 78 50 26 51 83 52
REMARK SMILES IDX 77 53 79 54 27 55 82 56 76 57 75 58 28 60 62 61 41 62 61 63
REMARK SMILES IDX 42 64 45 65 60 66 80 67 43 68 44 69 59 71 81 72 46 73 29 74
REMARK SMILES IDX 30 75 39 76 31 77 32 78 38 79 40 80 33 81 34 82 35 83 36 84
REMARK SMILES IDX 37 85 63 86 64 87 73 88 65 89 66 90 72 91 74 92 67 93 68 94
REMARK SMILES IDX 69 95 70 96 71 97 47 98 48 99 57 100 49 101 50 102 56 103
REMARK SMILES IDX 58 104 51 105 52 106 53 107 54 108 55 109
REMARK H PARENT 4 22 79 59 45 70
REMARK Flexibility Score: inf
ROOT
ATOM      1  C   UNL A   1      36.089  30.636  27.738  1.00  0.00     0.202 C 
ENDROOT
BRANCH   1   2
ATOM      2  C   UNL A   1      34.667  30.331  27.260  1.00  0.00     0.261 C 
BRANCH   2   3
ATOM      3  O   UNL A   1      34.297  28.960  27.558  1.00  0.00    -0.462 OA
BRANCH   3   4
ATOM      4  C   UNL A   1      33.194  28.544  26.875  1.00  0.00     0.332 C 
ATOM      5  O   UNL A   1      32.317  29.300  26.471  1.00  0.00    -0.250 OA
BRANCH   4   6
ATOM      6  C   UNL A   1      33.133  27.014  26.649  1.00  0.00     0.283 C 
BRANCH   6   7
ATOM      7  O   UNL A   1      33.804  26.258  25.670  1.00  0.00    -0.361 OA
BRANCH   7   8
ATOM      8  C   UNL A   1      33.466  24.914  25.307  1.00  0.00     0.176 C 
ATOM      9  C   UNL A   1      32.329  24.647  24.260  1.00  0.00     0.153 C 
ATOM     10  C   UNL A   1      32.914  24.484  22.817  1.00  0.00     0.206 C 
ATOM     11  C   UNL A   1      34.626  23.955  25.068  1.00  0.00     0.184 C 
ATOM     12  O   UNL A   1      34.058  23.637  22.744  1.00  0.00    -0.356 OA
ATOM     13  O   UNL A   1      34.189  22.648  25.411  1.00  0.00    -0.337 OA
ATOM     14  C   UNL A   1      35.104  23.970  23.644  1.00  0.00     0.177 C 
ATOM     15  C   UNL A   1      35.113  21.596  25.185  1.00  0.00     0.319 C 
ATOM     16  C   UNL A   1      36.242  22.972  23.499  1.00  0.00     0.199 C 
ATOM     17  O   UNL A   1      36.124  21.752  24.203  1.00  0.00    -0.343 OA
BRANCH   9  18
ATOM     18  N   UNL A   1      31.589  23.425  24.744  1.00  0.00    -0.347 N 
ATOM     19  C   UNL A   1      30.107  24.257  26.539  1.00  0.00     0.114 C 
ATOM     20  C   UNL A   1      30.708  23.152  25.734  1.00  0.00     0.217 C 
ATOM     21  O   UNL A   1      30.378  21.982  25.930  1.00  0.00    -0.275 OA
ATOM     22  H   UNL A   1      31.797  22.629  24.205  1.00  0.00     0.163 HD
ENDBRANCH   9  18
BRANCH  10  23
ATOM     23  S   UNL A   1      33.015  26.103  21.931  1.00  0.00    -0.092 SA
BRANCH  23  24
ATOM     24  C   UNL A   1      31.581  27.071  22.371  1.00  0.00     0.010 A 
ATOM     25  C   UNL A   1      30.430  26.574  22.985  1.00  0.00     0.016 A 
ATOM     26  C   UNL A   1      31.657  28.451  22.119  1.00  0.00     0.016 A 
ATOM     27  C   UNL A   1      29.355  27.421  23.285  1.00  0.00     0.021 A 
ATOM     28  C   UNL A   1      30.599  29.307  22.442  1.00  0.00     0.021 A 
ATOM     29  C   UNL A   1      29.447  28.785  23.019  1.00  0.00     0.041 A 
ATOM     30  Cl  UNL A   1      28.146  29.830  23.434  1.00  0.00    -0.084 Cl
ENDBRANCH  23  24
ENDBRANCH  10  23
BRANCH  15  31
ATOM     31  C   UNL A   1      34.353  20.380  24.760  1.00  0.00     0.159 A 
ATOM     32  C   UNL A   1      34.718  19.050  24.663  1.00  0.00     0.051 A 
ATOM     33  O   UNL A   1      33.071  20.535  24.312  1.00  0.00    -0.464 OA
ATOM     34  C   UNL A   1      33.609  18.364  24.116  1.00  0.00     0.042 A 
ATOM     35  C   UNL A   1      32.626  19.308  23.940  1.00  0.00     0.195 A 
ENDBRANCH  15  31
ENDBRANCH   7   8
ENDBRANCH   6   7
ENDBRANCH   4   6
ENDBRANCH   3   4
ENDBRANCH   2   3
ENDBRANCH   1   2
BRANCH   1  36
ATOM     36  O   UNL A   1      36.218  31.677  28.713  1.00  0.00    -0.374 OA
BRANCH  36  37
ATOM     37  C   UNL A   1      36.432  33.001  28.240  1.00  0.00     0.202 C 
BRANCH  37  38
ATOM     38  C   UNL A   1      35.165  33.854  28.045  1.00  0.00     0.261 C 
BRANCH  38  39
ATOM     39  O   UNL A   1      34.121  33.489  28.960  1.00  0.00    -0.460 OA
BRANCH  39  40
ATOM     40  C   UNL A   1      33.927  34.350  29.982  1.00  0.00     0.338 C 
ATOM     41  O   UNL A   1      33.214  35.332  29.906  1.00  0.00    -0.246 OA
BRANCH  40  42
ATOM     42  C   UNL A   1      34.702  33.981  31.181  1.00  0.00     0.060 A 
ATOM     43  C   UNL A   1      35.697  34.866  31.593  1.00  0.00     0.016 A 
ATOM     44  C   UNL A   1      34.468  32.772  31.859  1.00  0.00     0.016 A 
ATOM     45  C   UNL A   1      36.547  34.490  32.613  1.00  0.00     0.010 A 
ATOM     46  C   UNL A   1      35.307  32.400  32.897  1.00  0.00     0.010 A 
ATOM     47  C   UNL A   1      36.401  33.221  33.191  1.00  0.00    -0.014 A 
BRANCH  47  48
ATOM     48  C   UNL A   1      37.604  32.647  33.812  1.00  0.00     0.031 A 
ATOM     49  C   UNL A   1      38.541  31.893  32.908  1.00  0.00     0.074 A 
ATOM     50  C   UNL A   1      37.895  32.949  35.085  1.00  0.00     0.049 A 
ATOM     51  N   UNL A   1      39.733  31.426  33.156  1.00  0.00    -0.248 NA
ATOM     52  C   UNL A   1      38.079  31.641  31.528  1.00  0.00     0.031 C 
ATOM     53  C   UNL A   1      37.035  33.722  35.983  1.00  0.00     0.029 A 
ATOM     54  N   UNL A   1      39.006  32.674  35.827  1.00  0.00    -0.354 N 
ATOM     55  C   UNL A   1      40.160  30.839  31.969  1.00  0.00     0.074 A 
ATOM     56  C   UNL A   1      39.090  30.963  31.012  1.00  0.00     0.031 C 
ATOM     57  C   UNL A   1      37.666  33.876  37.159  1.00  0.00     0.029 A 
ATOM     58  C   UNL A   1      38.955  33.194  37.096  1.00  0.00     0.049 A 
ATOM     59  H   UNL A   1      39.769  32.154  35.486  1.00  0.00     0.167 HD
ATOM     60  C   UNL A   1      41.353  30.261  31.705  1.00  0.00     0.037 A 
ATOM     61  C   UNL A   1      39.861  33.113  38.087  1.00  0.00     0.037 A 
ATOM     62  C   UNL A   1      42.391  30.160  32.693  1.00  0.00     0.049 A 
ATOM     63  C   UNL A   1      41.163  32.423  37.785  1.00  0.00     0.074 A 
ATOM     64  C   UNL A   1      43.642  29.588  32.578  1.00  0.00     0.029 A 
ATOM     65  N   UNL A   1      42.285  30.645  33.992  1.00  0.00    -0.354 N 
ATOM     66  N   UNL A   1      41.560  31.869  36.660  1.00  0.00    -0.248 NA
ATOM     67  C   UNL A   1      42.144  32.354  38.872  1.00  0.00     0.031 C 
ATOM     68  C   UNL A   1      44.270  29.677  33.825  1.00  0.00     0.029 A 
ATOM     69  C   UNL A   1      43.438  30.364  34.699  1.00  0.00     0.049 A 
ATOM     70  H   UNL A   1      41.502  31.120  34.355  1.00  0.00     0.167 HD
ATOM     71  C   UNL A   1      42.846  31.402  36.896  1.00  0.00     0.074 A 
ATOM     72  C   UNL A   1      43.164  31.760  38.267  1.00  0.00     0.031 C 
ATOM     73  C   UNL A   1      43.694  30.739  36.068  1.00  0.00     0.037 A 
BRANCH  60  74
ATOM     74  C   UNL A   1      41.563  29.668  30.338  1.00  0.00     0.058 A 
ATOM     75  C   UNL A   1      42.217  30.367  29.308  1.00  0.00     0.135 A 
ATOM     76  C   UNL A   1      41.102  28.374  30.051  1.00  0.00     0.135 A 
ATOM     77  F   UNL A   1      42.650  31.621  29.511  1.00  0.00    -0.206 F 
ATOM     78  C   UNL A   1      42.389  29.810  28.043  1.00  0.00     0.059 A 
ATOM     79  C   UNL A   1      41.288  27.786  28.803  1.00  0.00     0.059 A 
ATOM     80  F   UNL A   1      40.453  27.666  30.990  1.00  0.00    -0.206 F 
ATOM     81  C   UNL A   1      41.924  28.516  27.801  1.00  0.00     0.060 A 
BRANCH  81  82
ATOM     82  S   UNL A   1      42.174  27.797  26.164  1.00  0.00     0.124 S 
ATOM     83  O   UNL A   1      40.950  27.020  25.995  1.00  0.00    -0.237 OA
ATOM     84  O   UNL A   1      42.294  28.981  25.320  1.00  0.00    -0.237 OA
ATOM     85  O   UNL A   1      43.397  27.014  26.318  1.00  0.00    -0.744 OA
ENDBRANCH  81  82
ENDBRANCH  60  74
BRANCH  61  86
ATOM     86  C   UNL A   1      39.552  33.692  39.420  1.00  0.00     0.058 A 
ATOM     87  C   UNL A   1      38.712  33.040  40.333  1.00  0.00     0.135 A 
ATOM     88  C   UNL A   1      40.138  34.904  39.824  1.00  0.00     0.135 A 
ATOM     89  F   UNL A   1      38.129  31.880  40.000  1.00  0.00    -0.206 F 
ATOM     90  C   UNL A   1      38.453  33.573  41.594  1.00  0.00     0.059 A 
ATOM     91  C   UNL A   1      39.918  35.441  41.087  1.00  0.00     0.059 A 
ATOM     92  F   UNL A   1      40.968  35.559  38.997  1.00  0.00    -0.206 F 
ATOM     93  C   UNL A   1      39.066  34.773  41.963  1.00  0.00     0.060 A 
BRANCH  93  94
ATOM     94  S   UNL A   1      38.769  35.429  43.618  1.00  0.00     0.124 S 
ATOM     95  O   UNL A   1      37.314  35.377  43.699  1.00  0.00    -0.237 OA
ATOM     96  O   UNL A   1      39.492  34.478  44.459  1.00  0.00    -0.237 OA
ATOM     97  O   UNL A   1      39.350  36.767  43.559  1.00  0.00    -0.744 OA
ENDBRANCH  93  94
ENDBRANCH  61  86
BRANCH  73  98
ATOM     98  C   UNL A   1      45.042  30.388  36.628  1.00  0.00     0.058 A 
ATOM     99  C   UNL A   1      46.126  31.275  36.545  1.00  0.00     0.135 A 
ATOM    100  C   UNL A   1      45.236  29.162  37.283  1.00  0.00     0.135 A 
ATOM    101  F   UNL A   1      45.988  32.458  35.926  1.00  0.00    -0.206 F 
ATOM    102  C   UNL A   1      47.373  30.938  37.055  1.00  0.00     0.059 A 
ATOM    103  C   UNL A   1      46.465  28.820  37.833  1.00  0.00     0.059 A 
ATOM    104  F   UNL A   1      44.224  28.290  37.403  1.00  0.00    -0.206 F 
ATOM    105  C   UNL A   1      47.532  29.707  37.696  1.00  0.00     0.060 A 
BRANCH 105 106
ATOM    106  S   UNL A   1      49.155  29.284  38.356  1.00  0.00     0.124 S 
ATOM    107  O   UNL A   1      49.002  29.649  39.761  1.00  0.00    -0.237 OA
ATOM    108  O   UNL A   1      49.242  27.854  38.078  1.00  0.00    -0.237 OA
ATOM    109  O   UNL A   1      50.066  30.124  37.586  1.00  0.00    -0.744 OA
ENDBRANCH 105 106
ENDBRANCH  73  98
ENDBRANCH  47  48
ENDBRANCH  40  42
ENDBRANCH  39  40
ENDBRANCH  38  39
ENDBRANCH  37  38
ENDBRANCH  36  37
ENDBRANCH   1  36
TORSDOF 23
ENDMDL
MODEL 3
REMARK VINA RESULT:     -10.0      5.005      9.265
REMARK SMILES CC(=O)N[C@H]1[C@H](OCC(=O)OCCOCCOC(=O)c2ccc(-c3c4nc(c(-c5c(F)cc(S(=O)(=O)[O-])cc5F)c5ccc([nH]5)c(-c5c(F)cc(S(=O)(=O)[O-])cc5F)c5nc(c(-c6c(F)cc(S(=O)(=O)[O-])cc6F)c6ccc3[nH]6)C=C5)C=C4)cc2)[C@H]2O[C@@H](c3ccco3)OC[C@H]2O[C@@H]1Sc1ccc(Cl)cc1
REMARK SMILES IDX 13 1 12 2 11 3 9 4 10 5 8 6 7 7 6 8 5 9 98 10 86 11 97 12
REMARK SMILES IDX 87 13 96 14 88 15 95 16 94 17 4 18 1 19 2 20 3 21 99 23
REMARK SMILES IDX 100 24 101 25 106 26 102 27 105 28 103 29 104 30 89 31 90 32
REMARK SMILES IDX 93 33 91 34 92 35 14 36 15 37 16 38 17 39 18 40 19 41 20 42
REMARK SMILES IDX 21 43 85 44 22 45 84 46 23 47 24 48 25 49 78 50 26 51 83 52
REMARK SMILES IDX 77 53 79 54 27 55 82 56 76 57 75 58 28 60 62 61 41 62 61 63
REMARK SMILES IDX 42 64 45 65 60 66 80 67 43 68 44 69 59 71 81 72 46 73 29 74
REMARK SMILES IDX 30 75 39 76 31 77 32 78 38 79 40 80 33 81 34 82 35 83 36 84
REMARK SMILES IDX 37 85 63 86 64 87 73 88 65 89 66 90 72 91 74 92 67 93 68 94
REMARK SMILES IDX 69 95 70 96 71 97 47 98 48 99 57 100 49 101 50 102 56 103
REMARK SMILES IDX 58 104 51 105 52 106 53 107 54 108 55 109
REMARK H PARENT 4 22 79 59 45 70
REMARK Flexibility Score: inf
ROOT
ATOM      1  C   UNL A   1      36.535  30.417  27.650  1.00  0.00     0.202 C 
ENDROOT
BRANCH   1   2
ATOM      2  C   UNL A   1      35.113  30.182  27.130  1.00  0.00     0.261 C 
BRANCH   2   3
ATOM      3  O   UNL A   1      34.813  28.764  27.049  1.00  0.00    -0.462 OA
BRANCH   3   4
ATOM      4  C   UNL A   1      33.480  28.506  26.939  1.00  0.00     0.332 C 
ATOM      5  O   UNL A   1      32.604  29.332  27.174  1.00  0.00    -0.250 OA
BRANCH   4   6
ATOM      6  C   UNL A   1      33.153  27.062  26.489  1.00  0.00     0.283 C 
BRANCH   6   7
ATOM      7  O   UNL A   1      33.940  26.203  25.699  1.00  0.00    -0.361 OA
BRANCH   7   8
ATOM      8  C   UNL A   1      33.578  24.864  25.345  1.00  0.00     0.176 C 
ATOM      9  C   UNL A   1      32.545  24.610  24.191  1.00  0.00     0.153 C 
ATOM     10  C   UNL A   1      33.271  24.369  22.824  1.00  0.00     0.206 C 
ATOM     11  C   UNL A   1      34.708  23.846  25.261  1.00  0.00     0.184 C 
ATOM     12  O   UNL A   1      34.373  23.470  22.900  1.00  0.00    -0.356 OA
ATOM     13  O   UNL A   1      34.176  22.573  25.595  1.00  0.00    -0.337 OA
ATOM     14  C   UNL A   1      35.334  23.788  23.896  1.00  0.00     0.177 C 
ATOM     15  C   UNL A   1      35.066  21.473  25.502  1.00  0.00     0.319 C 
ATOM     16  C   UNL A   1      36.431  22.736  23.905  1.00  0.00     0.199 C 
ATOM     17  O   UNL A   1      36.181  21.549  24.629  1.00  0.00    -0.343 OA
BRANCH   9  18
ATOM     18  N   UNL A   1      31.700  23.442  24.631  1.00  0.00    -0.347 N 
ATOM     19  C   UNL A   1      30.289  24.335  26.453  1.00  0.00     0.114 C 
ATOM     20  C   UNL A   1      30.795  23.211  25.609  1.00  0.00     0.217 C 
ATOM     21  O   UNL A   1      30.364  22.068  25.764  1.00  0.00    -0.275 OA
ATOM     22  H   UNL A   1      31.841  22.650  24.064  1.00  0.00     0.163 HD
ENDBRANCH   9  18
BRANCH  10  23
ATOM     23  S   UNL A   1      33.542  25.949  21.904  1.00  0.00    -0.092 SA
BRANCH  23  24
ATOM     24  C   UNL A   1      32.377  27.158  22.512  1.00  0.00     0.010 A 
ATOM     25  C   UNL A   1      32.710  28.311  23.225  1.00  0.00     0.016 A 
ATOM     26  C   UNL A   1      31.026  26.940  22.192  1.00  0.00     0.016 A 
ATOM     27  C   UNL A   1      31.715  29.196  23.662  1.00  0.00     0.021 A 
ATOM     28  C   UNL A   1      30.031  27.834  22.601  1.00  0.00     0.021 A 
ATOM     29  C   UNL A   1      30.381  28.957  23.341  1.00  0.00     0.041 A 
ATOM     30  Cl  UNL A   1      29.167  30.071  23.836  1.00  0.00    -0.084 Cl
ENDBRANCH  23  24
ENDBRANCH  10  23
BRANCH  15  31
ATOM     31  C   UNL A   1      34.297  20.278  25.036  1.00  0.00     0.159 A 
ATOM     32  C   UNL A   1      34.704  19.025  24.616  1.00  0.00     0.051 A 
ATOM     33  O   UNL A   1      32.939  20.381  24.918  1.00  0.00    -0.464 OA
ATOM     34  C   UNL A   1      33.538  18.337  24.208  1.00  0.00     0.042 A 
ATOM     35  C   UNL A   1      32.489  19.196  24.432  1.00  0.00     0.195 A 
ENDBRANCH  15  31
ENDBRANCH   7   8
ENDBRANCH   6   7
ENDBRANCH   4   6
ENDBRANCH   3   4
ENDBRANCH   2   3
ENDBRANCH   1   2
BRANCH   1  36
ATOM     36  O   UNL A   1      36.668  31.361  28.719  1.00  0.00    -0.374 OA
BRANCH  36  37
ATOM     37  C   UNL A   1      36.645  32.742  28.385  1.00  0.00     0.202 C 
BRANCH  37  38
ATOM     38  C   UNL A   1      35.247  33.370  28.231  1.00  0.00     0.261 C 
BRANCH  38  39
ATOM     39  O   UNL A   1      34.332  32.903  29.233  1.00  0.00    -0.460 OA
BRANCH  39  40
ATOM     40  C   UNL A   1      34.049  33.792  30.209  1.00  0.00     0.338 C 
ATOM     41  O   UNL A   1      33.141  34.598  30.142  1.00  0.00    -0.246 OA
BRANCH  40  42
ATOM     42  C   UNL A   1      34.985  33.696  31.344  1.00  0.00     0.060 A 
ATOM     43  C   UNL A   1      35.365  34.888  31.959  1.00  0.00     0.016 A 
ATOM     44  C   UNL A   1      35.497  32.456  31.766  1.00  0.00     0.016 A 
ATOM     45  C   UNL A   1      36.356  34.859  32.920  1.00  0.00     0.010 A 
ATOM     46  C   UNL A   1      36.477  32.422  32.746  1.00  0.00     0.010 A 
ATOM     47  C   UNL A   1      36.967  33.638  33.236  1.00  0.00    -0.014 A 
BRANCH  47  48
ATOM     48  C   UNL A   1      38.329  33.713  33.782  1.00  0.00     0.031 A 
ATOM     49  C   UNL A   1      39.456  33.788  32.787  1.00  0.00     0.074 A 
ATOM     50  C   UNL A   1      38.502  33.876  35.101  1.00  0.00     0.049 A 
ATOM     51  N   UNL A   1      40.724  34.017  32.989  1.00  0.00    -0.248 NA
ATOM     52  C   UNL A   1      39.106  33.593  31.366  1.00  0.00     0.031 C 
ATOM     53  C   UNL A   1      37.429  33.861  36.097  1.00  0.00     0.029 A 
ATOM     54  N   UNL A   1      39.634  34.122  35.821  1.00  0.00    -0.354 N 
ATOM     55  C   UNL A   1      41.313  34.001  31.728  1.00  0.00     0.074 A 
ATOM     56  C   UNL A   1      40.281  33.696  30.769  1.00  0.00     0.031 C 
ATOM     57  C   UNL A   1      37.958  34.109  37.306  1.00  0.00     0.029 A 
ATOM     58  C   UNL A   1      39.402  34.274  37.165  1.00  0.00     0.049 A 
ATOM     59  H   UNL A   1      40.529  34.185  35.416  1.00  0.00     0.167 HD
ATOM     60  C   UNL A   1      42.604  34.237  31.407  1.00  0.00     0.037 A 
ATOM     61  C   UNL A   1      40.276  34.518  38.158  1.00  0.00     0.037 A 
ATOM     62  C   UNL A   1      43.598  34.538  32.399  1.00  0.00     0.049 A 
ATOM     63  C   UNL A   1      41.716  34.730  37.782  1.00  0.00     0.074 A 
ATOM     64  C   UNL A   1      44.947  34.782  32.226  1.00  0.00     0.029 A 
ATOM     65  N   UNL A   1      43.341  34.625  33.763  1.00  0.00    -0.354 N 
ATOM     66  N   UNL A   1      42.266  34.714  36.587  1.00  0.00    -0.248 NA
ATOM     67  C   UNL A   1      42.652  35.007  38.875  1.00  0.00     0.031 C 
ATOM     68  C   UNL A   1      45.514  34.962  33.492  1.00  0.00     0.029 A 
ATOM     69  C   UNL A   1      44.509  34.896  34.448  1.00  0.00     0.049 A 
ATOM     70  H   UNL A   1      42.456  34.512  34.178  1.00  0.00     0.167 HD
ATOM     71  C   UNL A   1      43.612  34.996  36.781  1.00  0.00     0.074 A 
ATOM     72  C   UNL A   1      43.783  35.200  38.209  1.00  0.00     0.031 C 
ATOM     73  C   UNL A   1      44.620  35.080  35.875  1.00  0.00     0.037 A 
BRANCH  60  74
ATOM     74  C   UNL A   1      43.001  34.132  29.959  1.00  0.00     0.058 A 
ATOM     75  C   UNL A   1      42.892  35.214  29.069  1.00  0.00     0.135 A 
ATOM     76  C   UNL A   1      43.503  32.923  29.451  1.00  0.00     0.135 A 
ATOM     77  F   UNL A   1      42.388  36.386  29.487  1.00  0.00    -0.206 F 
ATOM     78  C   UNL A   1      43.249  35.095  27.727  1.00  0.00     0.059 A 
ATOM     79  C   UNL A   1      43.893  32.789  28.121  1.00  0.00     0.059 A 
ATOM     80  F   UNL A   1      43.612  31.850  30.250  1.00  0.00    -0.206 F 
ATOM     81  C   UNL A   1      43.753  33.879  27.264  1.00  0.00     0.060 A 
BRANCH  81  82
ATOM     82  S   UNL A   1      44.234  33.745  25.528  1.00  0.00     0.124 S 
ATOM     83  O   UNL A   1      43.271  34.636  24.888  1.00  0.00    -0.237 OA
ATOM     84  O   UNL A   1      45.615  34.216  25.552  1.00  0.00    -0.237 OA
ATOM     85  O   UNL A   1      44.064  32.325  25.236  1.00  0.00    -0.744 OA
ENDBRANCH  81  82
ENDBRANCH  60  74
BRANCH  61  86
ATOM     86  C   UNL A   1      39.800  34.565  39.565  1.00  0.00     0.058 A 
ATOM     87  C   UNL A   1      39.200  35.710  40.106  1.00  0.00     0.135 A 
ATOM     88  C   UNL A   1      39.901  33.431  40.390  1.00  0.00     0.135 A 
ATOM     89  F   UNL A   1      39.076  36.818  39.361  1.00  0.00    -0.206 F 
ATOM     90  C   UNL A   1      38.727  35.736  41.416  1.00  0.00     0.059 A 
ATOM     91  C   UNL A   1      39.410  33.423  41.690  1.00  0.00     0.059 A 
ATOM     92  F   UNL A   1      40.447  32.301  39.916  1.00  0.00    -0.206 F 
ATOM     93  C   UNL A   1      38.832  34.583  42.198  1.00  0.00     0.060 A 
BRANCH  93  94
ATOM     94  S   UNL A   1      38.167  34.607  43.876  1.00  0.00     0.124 S 
ATOM     95  O   UNL A   1      36.852  35.200  43.664  1.00  0.00    -0.237 OA
ATOM     96  O   UNL A   1      38.182  33.192  44.232  1.00  0.00    -0.237 OA
ATOM     97  O   UNL A   1      39.123  35.437  44.605  1.00  0.00    -0.744 OA
ENDBRANCH  93  94
ENDBRANCH  61  86
BRANCH  73  98
ATOM     98  C   UNL A   1      45.978  35.430  36.412  1.00  0.00     0.058 A 
ATOM     99  C   UNL A   1      46.398  36.762  36.540  1.00  0.00     0.135 A 
ATOM    100  C   UNL A   1      46.852  34.415  36.833  1.00  0.00     0.135 A 
ATOM    101  F   UNL A   1      45.596  37.765  36.148  1.00  0.00    -0.206 F 
ATOM    102  C   UNL A   1      47.660  37.077  37.026  1.00  0.00     0.059 A 
ATOM    103  C   UNL A   1      48.104  34.708  37.357  1.00  0.00     0.059 A 
ATOM    104  F   UNL A   1      46.487  33.127  36.747  1.00  0.00    -0.206 F 
ATOM    105  C   UNL A   1      48.506  36.042  37.431  1.00  0.00     0.060 A 
BRANCH 105 106
ATOM    106  S   UNL A   1      50.140  36.463  38.064  1.00  0.00     0.124 S 
ATOM    107  O   UNL A   1      50.349  37.782  37.474  1.00  0.00    -0.237 OA
ATOM    108  O   UNL A   1      49.932  36.440  39.508  1.00  0.00    -0.237 OA
ATOM    109  O   UNL A   1      50.993  35.400  37.541  1.00  0.00    -0.744 OA
ENDBRANCH 105 106
ENDBRANCH  73  98
ENDBRANCH  47  48
ENDBRANCH  40  42
ENDBRANCH  39  40
ENDBRANCH  38  39
ENDBRANCH  37  38
ENDBRANCH  36  37
ENDBRANCH   1  36
TORSDOF 23
ENDMDL
