MODEL 1
REMARK VINA RESULT:     -10.7      0.000      0.000
REMARK SMILES C[C@H](NC(=O)OCc1ccccc1)C(=O)NCC(=O)N1CCC[C@H]1C(=O)OCCOCCOC(=O)c1ccc(-c2c3nc(c(-c4c(F)cc(S(=O)(=O)[O-])cc4F)c4ccc([nH]4)c(-c4c(F)cc(S(=O)(=O)[O-])cc4F)c4nc(c(-c5c(F)cc(S(=O)(=O)[O-])cc5F)c5ccc2[nH]5)C=C4)C=C3)cc1
REMARK SMILES IDX 28 1 27 2 25 3 26 4 24 5 20 6 21 7 22 8 23 9 18 10 19 11
REMARK SMILES IDX 17 12 16 13 14 14 15 15 2 17 1 18 3 19 4 20 5 22 6 23 7 24
REMARK SMILES IDX 8 25 9 26 13 27 10 28 12 29 11 30 29 31 30 32 31 33 32 34
REMARK SMILES IDX 33 35 34 36 35 37 36 38 37 39 101 40 38 41 100 42 39 43
REMARK SMILES IDX 40 44 41 45 94 46 42 47 99 48 93 49 95 50 43 51 98 52 92 53
REMARK SMILES IDX 91 54 44 56 78 57 57 58 77 59 58 60 61 61 76 62 96 63 59 64
REMARK SMILES IDX 60 65 75 67 97 68 62 69 45 70 46 71 55 72 47 73 48 74 54 75
REMARK SMILES IDX 56 76 49 77 50 78 51 79 52 80 53 81 79 82 80 83 89 84 81 85
REMARK SMILES IDX 82 86 88 87 90 88 83 89 84 90 85 91 86 92 87 93 63 94 64 95
REMARK SMILES IDX 73 96 65 97 66 98 72 99 74 100 67 101 68 102 69 103 70 104
REMARK SMILES IDX 71 105
REMARK H PARENT 16 16 3 21 95 55 61 66
REMARK Flexibility Score: inf
ROOT
ATOM      1  C   UNL A   1      36.824  23.443  25.083  1.00  0.00     0.261 C 
ENDROOT
BRANCH   1   2
ATOM      2  O   UNL A   1      35.637  23.501  25.877  1.00  0.00    -0.462 OA
BRANCH   2   3
ATOM      3  C   UNL A   1      34.469  23.569  25.189  1.00  0.00     0.328 C 
ATOM      4  O   UNL A   1      34.258  24.281  24.214  1.00  0.00    -0.250 OA
BRANCH   3   5
ATOM      5  C   UNL A   1      33.444  22.599  25.791  1.00  0.00     0.195 C 
ATOM      6  N   UNL A   1      32.095  23.015  25.454  1.00  0.00    -0.327 N 
ATOM      7  C   UNL A   1      31.758  22.468  24.156  1.00  0.00     0.120 C 
ATOM      8  C   UNL A   1      32.478  21.123  24.117  1.00  0.00     0.024 C 
ATOM      9  C   UNL A   1      33.606  21.221  25.144  1.00  0.00     0.039 C 
BRANCH   6  10
ATOM     10  C   UNL A   1      31.434  23.841  26.329  1.00  0.00     0.242 C 
ATOM     11  O   UNL A   1      31.402  23.561  27.537  1.00  0.00    -0.273 OA
BRANCH  10  12
ATOM     12  C   UNL A   1      30.627  25.066  25.878  1.00  0.00     0.216 C 
BRANCH  12  13
ATOM     13  N   UNL A   1      30.660  26.312  26.605  1.00  0.00    -0.345 N 
ATOM     14  C   UNL A   1      31.621  27.270  26.674  1.00  0.00     0.242 C 
ATOM     15  O   UNL A   1      31.341  28.297  27.302  1.00  0.00    -0.273 OA
ATOM     16  H   UNL A   1      29.854  26.499  27.139  1.00  0.00     0.164 HD
BRANCH  14  17
ATOM     17  C   UNL A   1      32.998  27.151  25.979  1.00  0.00     0.171 C 
ATOM     18  C   UNL A   1      33.961  28.231  26.439  1.00  0.00     0.042 C 
BRANCH  17  19
ATOM     19  N   UNL A   1      32.924  26.887  24.544  1.00  0.00    -0.310 N 
ATOM     20  C   UNL A   1      32.072  27.315  23.578  1.00  0.00     0.408 C 
ATOM     21  H   UNL A   1      33.628  26.283  24.213  1.00  0.00     0.167 HD
ATOM     22  O   UNL A   1      32.130  26.835  22.451  1.00  0.00    -0.225 OA
BRANCH  20  23
ATOM     23  O   UNL A   1      31.217  28.273  23.988  1.00  0.00    -0.445 OA
BRANCH  23  24
ATOM     24  C   UNL A   1      29.872  28.166  23.492  1.00  0.00     0.270 C 
BRANCH  24  25
ATOM     25  C   UNL A   1      29.288  29.511  23.130  1.00  0.00    -0.011 A 
ATOM     26  C   UNL A   1      29.539  30.623  23.945  1.00  0.00     0.007 A 
ATOM     27  C   UNL A   1      28.466  29.665  22.004  1.00  0.00     0.007 A 
ATOM     28  C   UNL A   1      28.935  31.849  23.671  1.00  0.00     0.000 A 
ATOM     29  C   UNL A   1      27.855  30.890  21.736  1.00  0.00     0.000 A 
ATOM     30  C   UNL A   1      28.084  31.979  22.576  1.00  0.00     0.000 A 
ENDBRANCH  24  25
ENDBRANCH  23  24
ENDBRANCH  20  23
ENDBRANCH  17  19
ENDBRANCH  14  17
ENDBRANCH  12  13
ENDBRANCH  10  12
ENDBRANCH   6  10
ENDBRANCH   3   5
ENDBRANCH   2   3
ENDBRANCH   1   2
BRANCH   1  31
ATOM     31  C   UNL A   1      37.803  22.448  25.706  1.00  0.00     0.202 C 
BRANCH  31  32
ATOM     32  O   UNL A   1      39.062  22.951  26.157  1.00  0.00    -0.374 OA
BRANCH  32  33
ATOM     33  C   UNL A   1      40.020  22.031  26.678  1.00  0.00     0.202 C 
BRANCH  33  34
ATOM     34  C   UNL A   1      40.842  22.415  27.919  1.00  0.00     0.261 C 
BRANCH  34  35
ATOM     35  O   UNL A   1      42.114  23.009  27.621  1.00  0.00    -0.460 OA
BRANCH  35  36
ATOM     36  C   UNL A   1      42.048  24.107  26.826  1.00  0.00     0.338 C 
ATOM     37  O   UNL A   1      42.107  24.138  25.608  1.00  0.00    -0.246 OA
BRANCH  36  38
ATOM     38  C   UNL A   1      41.692  25.287  27.632  1.00  0.00     0.060 A 
ATOM     39  C   UNL A   1      42.607  26.349  27.682  1.00  0.00     0.016 A 
ATOM     40  C   UNL A   1      40.529  25.312  28.401  1.00  0.00     0.016 A 
ATOM     41  C   UNL A   1      42.376  27.429  28.528  1.00  0.00     0.010 A 
ATOM     42  C   UNL A   1      40.307  26.391  29.260  1.00  0.00     0.010 A 
ATOM     43  C   UNL A   1      41.245  27.438  29.351  1.00  0.00    -0.014 A 
BRANCH  43  44
ATOM     44  C   UNL A   1      41.108  28.465  30.411  1.00  0.00     0.031 A 
ATOM     45  C   UNL A   1      42.010  28.394  31.611  1.00  0.00     0.074 A 
ATOM     46  C   UNL A   1      40.193  29.444  30.303  1.00  0.00     0.049 A 
ATOM     47  N   UNL A   1      42.005  29.123  32.696  1.00  0.00    -0.248 NA
ATOM     48  C   UNL A   1      43.051  27.354  31.587  1.00  0.00     0.031 C 
ATOM     49  C   UNL A   1      39.295  29.637  29.166  1.00  0.00     0.029 A 
ATOM     50  N   UNL A   1      39.857  30.450  31.173  1.00  0.00    -0.354 N 
ATOM     51  C   UNL A   1      43.025  28.618  33.494  1.00  0.00     0.074 A 
ATOM     52  C   UNL A   1      43.611  27.505  32.779  1.00  0.00     0.031 C 
ATOM     53  C   UNL A   1      38.493  30.685  29.419  1.00  0.00     0.029 A 
ATOM     54  C   UNL A   1      38.792  31.208  30.751  1.00  0.00     0.049 A 
ATOM     55  H   UNL A   1      40.332  30.612  32.020  1.00  0.00     0.167 HD
ATOM     56  C   UNL A   1      43.435  29.047  34.712  1.00  0.00     0.037 A 
ATOM     57  C   UNL A   1      38.114  32.187  31.382  1.00  0.00     0.037 A 
ATOM     58  C   UNL A   1      42.841  30.157  35.411  1.00  0.00     0.049 A 
ATOM     59  C   UNL A   1      38.543  32.608  32.762  1.00  0.00     0.074 A 
ATOM     60  C   UNL A   1      43.201  30.693  36.635  1.00  0.00     0.029 A 
ATOM     61  N   UNL A   1      41.756  30.893  34.956  1.00  0.00    -0.354 N 
ATOM     62  N   UNL A   1      39.525  32.143  33.499  1.00  0.00    -0.248 NA
ATOM     63  C   UNL A   1      37.777  33.689  33.399  1.00  0.00     0.031 C 
ATOM     64  C   UNL A   1      42.292  31.707  36.951  1.00  0.00     0.029 A 
ATOM     65  C   UNL A   1      41.411  31.855  35.891  1.00  0.00     0.049 A 
ATOM     66  H   UNL A   1      41.298  30.751  34.097  1.00  0.00     0.167 HD
ATOM     67  C   UNL A   1      39.514  32.893  34.671  1.00  0.00     0.074 A 
ATOM     68  C   UNL A   1      38.430  33.846  34.543  1.00  0.00     0.031 C 
ATOM     69  C   UNL A   1      40.332  32.805  35.748  1.00  0.00     0.037 A 
BRANCH  56  70
ATOM     70  C   UNL A   1      44.546  28.286  35.383  1.00  0.00     0.058 A 
ATOM     71  C   UNL A   1      44.299  27.215  36.257  1.00  0.00     0.135 A 
ATOM     72  C   UNL A   1      45.887  28.622  35.129  1.00  0.00     0.135 A 
ATOM     73  F   UNL A   1      43.037  26.858  36.548  1.00  0.00    -0.206 F 
ATOM     74  C   UNL A   1      45.336  26.532  36.884  1.00  0.00     0.059 A 
ATOM     75  C   UNL A   1      46.941  27.930  35.719  1.00  0.00     0.059 A 
ATOM     76  F   UNL A   1      46.185  29.637  34.303  1.00  0.00    -0.206 F 
ATOM     77  C   UNL A   1      46.654  26.898  36.609  1.00  0.00     0.060 A 
BRANCH  77  78
ATOM     78  S   UNL A   1      47.988  26.008  37.438  1.00  0.00     0.124 S 
ATOM     79  O   UNL A   1      47.492  25.954  38.810  1.00  0.00    -0.237 OA
ATOM     80  O   UNL A   1      48.007  24.737  36.722  1.00  0.00    -0.237 OA
ATOM     81  O   UNL A   1      49.152  26.862  37.227  1.00  0.00    -0.744 OA
ENDBRANCH  77  78
ENDBRANCH  56  70
BRANCH  57  82
ATOM     82  C   UNL A   1      36.947  32.820  30.711  1.00  0.00     0.058 A 
ATOM     83  C   UNL A   1      35.637  32.409  30.991  1.00  0.00     0.135 A 
ATOM     84  C   UNL A   1      37.119  33.877  29.801  1.00  0.00     0.135 A 
ATOM     85  F   UNL A   1      35.419  31.396  31.844  1.00  0.00    -0.206 F 
ATOM     86  C   UNL A   1      34.538  33.020  30.394  1.00  0.00     0.059 A 
ATOM     87  C   UNL A   1      36.037  34.521  29.212  1.00  0.00     0.059 A 
ATOM     88  F   UNL A   1      38.353  34.314  29.505  1.00  0.00    -0.206 F 
ATOM     89  C   UNL A   1      34.749  34.082  29.513  1.00  0.00     0.060 A 
BRANCH  89  90
ATOM     90  S   UNL A   1      33.312  34.917  28.805  1.00  0.00     0.124 S 
ATOM     91  O   UNL A   1      33.936  36.030  28.099  1.00  0.00    -0.237 OA
ATOM     92  O   UNL A   1      32.735  33.871  27.968  1.00  0.00    -0.237 OA
ATOM     93  O   UNL A   1      32.521  35.278  29.979  1.00  0.00    -0.744 OA
ENDBRANCH  89  90
ENDBRANCH  57  82
BRANCH  69  94
ATOM     94  C   UNL A   1      40.129  33.791  36.868  1.00  0.00     0.058 A 
ATOM     95  C   UNL A   1      40.842  34.997  36.936  1.00  0.00     0.135 A 
ATOM     96  C   UNL A   1      39.141  33.560  37.841  1.00  0.00     0.135 A 
ATOM     97  F   UNL A   1      41.802  35.267  36.038  1.00  0.00    -0.206 F 
ATOM     98  C   UNL A   1      40.590  35.935  37.934  1.00  0.00     0.059 A 
ATOM     99  C   UNL A   1      38.852  34.496  38.829  1.00  0.00     0.059 A 
ATOM    100  F   UNL A   1      38.422  32.426  37.818  1.00  0.00    -0.206 F 
ATOM    101  C   UNL A   1      39.587  35.678  38.871  1.00  0.00     0.060 A 
BRANCH 101 102
ATOM    102  S   UNL A   1      39.232  36.929  40.124  1.00  0.00     0.124 S 
ATOM    103  O   UNL A   1      40.574  37.297  40.563  1.00  0.00    -0.237 OA
ATOM    104  O   UNL A   1      38.516  37.944  39.357  1.00  0.00    -0.237 OA
ATOM    105  O   UNL A   1      38.426  36.210  41.106  1.00  0.00    -0.744 OA
ENDBRANCH 101 102
ENDBRANCH  69  94
ENDBRANCH  43  44
ENDBRANCH  36  38
ENDBRANCH  35  36
ENDBRANCH  34  35
ENDBRANCH  33  34
ENDBRANCH  32  33
ENDBRANCH  31  32
ENDBRANCH   1  31
TORSDOF 25
ENDMDL
MODEL 2
REMARK VINA RESULT:     -10.1      2.547      9.580
REMARK SMILES C[C@H](NC(=O)OCc1ccccc1)C(=O)NCC(=O)N1CCC[C@H]1C(=O)OCCOCCOC(=O)c1ccc(-c2c3nc(c(-c4c(F)cc(S(=O)(=O)[O-])cc4F)c4ccc([nH]4)c(-c4c(F)cc(S(=O)(=O)[O-])cc4F)c4nc(c(-c5c(F)cc(S(=O)(=O)[O-])cc5F)c5ccc2[nH]5)C=C4)C=C3)cc1
REMARK SMILES IDX 28 1 27 2 25 3 26 4 24 5 20 6 21 7 22 8 23 9 18 10 19 11
REMARK SMILES IDX 17 12 16 13 14 14 15 15 2 17 1 18 3 19 4 20 5 22 6 23 7 24
REMARK SMILES IDX 8 25 9 26 13 27 10 28 12 29 11 30 29 31 30 32 31 33 32 34
REMARK SMILES IDX 33 35 34 36 35 37 36 38 37 39 101 40 38 41 100 42 39 43
REMARK SMILES IDX 40 44 41 45 94 46 42 47 99 48 93 49 95 50 43 51 98 52 92 53
REMARK SMILES IDX 91 54 44 56 78 57 57 58 77 59 58 60 61 61 76 62 96 63 59 64
REMARK SMILES IDX 60 65 75 67 97 68 62 69 45 70 46 71 55 72 47 73 48 74 54 75
REMARK SMILES IDX 56 76 49 77 50 78 51 79 52 80 53 81 79 82 80 83 89 84 81 85
REMARK SMILES IDX 82 86 88 87 90 88 83 89 84 90 85 91 86 92 87 93 63 94 64 95
REMARK SMILES IDX 73 96 65 97 66 98 72 99 74 100 67 101 68 102 69 103 70 104
REMARK SMILES IDX 71 105
REMARK H PARENT 16 16 3 21 95 55 61 66
REMARK Flexibility Score: inf
ROOT
ATOM      1  C   UNL A   1      31.660  29.677  25.313  1.00  0.00     0.261 C 
ENDROOT
BRANCH   1   2
ATOM      2  O   UNL A   1      32.981  29.616  24.769  1.00  0.00    -0.462 OA
BRANCH   2   3
ATOM      3  C   UNL A   1      33.265  28.511  24.034  1.00  0.00     0.328 C 
ATOM      4  O   UNL A   1      33.922  28.495  22.999  1.00  0.00    -0.250 OA
BRANCH   3   5
ATOM      5  C   UNL A   1      32.666  27.265  24.698  1.00  0.00     0.195 C 
ATOM      6  N   UNL A   1      32.623  26.161  23.756  1.00  0.00    -0.327 N 
ATOM      7  C   UNL A   1      33.904  25.485  23.786  1.00  0.00     0.120 C 
ATOM      8  C   UNL A   1      34.358  25.604  25.238  1.00  0.00     0.024 C 
ATOM      9  C   UNL A   1      33.591  26.791  25.821  1.00  0.00     0.039 C 
BRANCH   6  10
ATOM     10  C   UNL A   1      31.483  25.989  23.011  1.00  0.00     0.242 C 
ATOM     11  O   UNL A   1      31.159  26.843  22.173  1.00  0.00    -0.273 OA
BRANCH  10  12
ATOM     12  C   UNL A   1      30.509  24.823  23.228  1.00  0.00     0.216 C 
BRANCH  12  13
ATOM     13  N   UNL A   1      30.411  24.134  24.491  1.00  0.00    -0.345 N 
ATOM     14  C   UNL A   1      31.190  23.159  25.029  1.00  0.00     0.242 C 
ATOM     15  O   UNL A   1      30.933  22.815  26.188  1.00  0.00    -0.273 OA
ATOM     16  H   UNL A   1      29.657  24.417  25.058  1.00  0.00     0.164 HD
BRANCH  14  17
ATOM     17  C   UNL A   1      32.381  22.511  24.286  1.00  0.00     0.171 C 
ATOM     18  C   UNL A   1      31.996  22.046  22.892  1.00  0.00     0.042 C 
BRANCH  17  19
ATOM     19  N   UNL A   1      33.170  21.592  25.103  1.00  0.00    -0.310 N 
ATOM     20  C   UNL A   1      34.505  21.377  25.208  1.00  0.00     0.408 C 
ATOM     21  H   UNL A   1      32.628  21.018  25.693  1.00  0.00     0.167 HD
ATOM     22  O   UNL A   1      34.926  20.435  25.873  1.00  0.00    -0.225 OA
BRANCH  20  23
ATOM     23  O   UNL A   1      35.258  22.273  24.539  1.00  0.00    -0.445 OA
BRANCH  23  24
ATOM     24  C   UNL A   1      36.601  21.860  24.235  1.00  0.00     0.270 C 
BRANCH  24  25
ATOM     25  C   UNL A   1      37.611  22.449  25.191  1.00  0.00    -0.011 A 
ATOM     26  C   UNL A   1      38.672  21.661  25.657  1.00  0.00     0.007 A 
ATOM     27  C   UNL A   1      37.490  23.769  25.651  1.00  0.00     0.007 A 
ATOM     28  C   UNL A   1      39.560  22.165  26.606  1.00  0.00     0.000 A 
ATOM     29  C   UNL A   1      38.375  24.268  26.607  1.00  0.00     0.000 A 
ATOM     30  C   UNL A   1      39.404  23.462  27.090  1.00  0.00     0.000 A 
ENDBRANCH  24  25
ENDBRANCH  23  24
ENDBRANCH  20  23
ENDBRANCH  17  19
ENDBRANCH  14  17
ENDBRANCH  12  13
ENDBRANCH  10  12
ENDBRANCH   6  10
ENDBRANCH   3   5
ENDBRANCH   2   3
ENDBRANCH   1   2
BRANCH   1  31
ATOM     31  C   UNL A   1      31.667  30.552  26.566  1.00  0.00     0.202 C 
BRANCH  31  32
ATOM     32  O   UNL A   1      31.081  31.852  26.470  1.00  0.00    -0.374 OA
BRANCH  32  33
ATOM     33  C   UNL A   1      31.903  32.993  26.707  1.00  0.00     0.202 C 
BRANCH  33  34
ATOM     34  C   UNL A   1      32.831  33.017  27.933  1.00  0.00     0.261 C 
BRANCH  34  35
ATOM     35  O   UNL A   1      34.127  32.448  27.699  1.00  0.00    -0.460 OA
BRANCH  35  36
ATOM     36  C   UNL A   1      35.162  33.295  27.930  1.00  0.00     0.338 C 
ATOM     37  O   UNL A   1      35.131  34.514  27.926  1.00  0.00    -0.246 OA
BRANCH  36  38
ATOM     38  C   UNL A   1      36.336  32.534  28.392  1.00  0.00     0.060 A 
ATOM     39  C   UNL A   1      36.184  31.156  28.604  1.00  0.00     0.016 A 
ATOM     40  C   UNL A   1      37.534  33.175  28.703  1.00  0.00     0.016 A 
ATOM     41  C   UNL A   1      37.224  30.417  29.160  1.00  0.00     0.010 A 
ATOM     42  C   UNL A   1      38.573  32.433  29.274  1.00  0.00     0.010 A 
ATOM     43  C   UNL A   1      38.410  31.059  29.534  1.00  0.00    -0.014 A 
BRANCH  43  44
ATOM     44  C   UNL A   1      39.427  30.330  30.328  1.00  0.00     0.031 A 
ATOM     45  C   UNL A   1      39.687  30.759  31.745  1.00  0.00     0.074 A 
ATOM     46  C   UNL A   1      40.108  29.301  29.791  1.00  0.00     0.049 A 
ATOM     47  N   UNL A   1      40.590  30.332  32.588  1.00  0.00    -0.248 NA
ATOM     48  C   UNL A   1      38.817  31.819  32.278  1.00  0.00     0.031 C 
ATOM     49  C   UNL A   1      39.909  28.771  28.444  1.00  0.00     0.029 A 
ATOM     50  N   UNL A   1      41.118  28.532  30.312  1.00  0.00    -0.354 N 
ATOM     51  C   UNL A   1      40.412  31.084  33.743  1.00  0.00     0.074 A 
ATOM     52  C   UNL A   1      39.332  32.012  33.483  1.00  0.00     0.031 C 
ATOM     53  C   UNL A   1      40.788  27.775  28.235  1.00  0.00     0.029 A 
ATOM     54  C   UNL A   1      41.636  27.629  29.417  1.00  0.00     0.049 A 
ATOM     55  H   UNL A   1      41.440  28.621  31.239  1.00  0.00     0.167 HD
ATOM     56  C   UNL A   1      41.089  31.005  34.914  1.00  0.00     0.037 A 
ATOM     57  C   UNL A   1      42.696  26.804  29.527  1.00  0.00     0.037 A 
ATOM     58  C   UNL A   1      42.162  30.077  35.157  1.00  0.00     0.049 A 
ATOM     59  C   UNL A   1      43.477  26.775  30.814  1.00  0.00     0.074 A 
ATOM     60  C   UNL A   1      42.893  29.893  36.318  1.00  0.00     0.029 A 
ATOM     61  N   UNL A   1      42.668  29.184  34.222  1.00  0.00    -0.354 N 
ATOM     62  N   UNL A   1      43.287  27.472  31.910  1.00  0.00    -0.248 NA
ATOM     63  C   UNL A   1      44.616  25.848  30.883  1.00  0.00     0.031 C 
ATOM     64  C   UNL A   1      43.883  28.940  36.064  1.00  0.00     0.029 A 
ATOM     65  C   UNL A   1      43.724  28.473  34.768  1.00  0.00     0.049 A 
ATOM     66  H   UNL A   1      42.327  29.074  33.305  1.00  0.00     0.167 HD
ATOM     67  C   UNL A   1      44.260  27.046  32.809  1.00  0.00     0.074 A 
ATOM     68  C   UNL A   1      45.035  26.028  32.129  1.00  0.00     0.031 C 
ATOM     69  C   UNL A   1      44.484  27.455  34.082  1.00  0.00     0.037 A 
BRANCH  56  70
ATOM     70  C   UNL A   1      40.719  31.978  36.001  1.00  0.00     0.058 A 
ATOM     71  C   UNL A   1      39.537  31.852  36.748  1.00  0.00     0.135 A 
ATOM     72  C   UNL A   1      41.576  33.046  36.316  1.00  0.00     0.135 A 
ATOM     73  F   UNL A   1      38.672  30.860  36.481  1.00  0.00    -0.206 F 
ATOM     74  C   UNL A   1      39.199  32.769  37.738  1.00  0.00     0.059 A 
ATOM     75  C   UNL A   1      41.275  33.955  37.327  1.00  0.00     0.059 A 
ATOM     76  F   UNL A   1      42.721  33.217  35.637  1.00  0.00    -0.206 F 
ATOM     77  C   UNL A   1      40.074  33.818  38.019  1.00  0.00     0.060 A 
BRANCH  77  78
ATOM     78  S   UNL A   1      39.617  35.005  39.300  1.00  0.00     0.124 S 
ATOM     79  O   UNL A   1      38.678  34.223  40.099  1.00  0.00    -0.237 OA
ATOM     80  O   UNL A   1      40.901  35.290  39.933  1.00  0.00    -0.237 OA
ATOM     81  O   UNL A   1      39.031  36.111  38.549  1.00  0.00    -0.744 OA
ENDBRANCH  77  78
ENDBRANCH  56  70
BRANCH  57  82
ATOM     82  C   UNL A   1      43.084  25.951  28.371  1.00  0.00     0.058 A 
ATOM     83  C   UNL A   1      43.867  26.456  27.325  1.00  0.00     0.135 A 
ATOM     84  C   UNL A   1      42.707  24.599  28.310  1.00  0.00     0.135 A 
ATOM     85  F   UNL A   1      44.243  27.744  27.330  1.00  0.00    -0.206 F 
ATOM     86  C   UNL A   1      44.263  25.656  26.258  1.00  0.00     0.059 A 
ATOM     87  C   UNL A   1      43.112  23.771  27.268  1.00  0.00     0.059 A 
ATOM     88  F   UNL A   1      41.964  24.063  29.292  1.00  0.00    -0.206 F 
ATOM     89  C   UNL A   1      43.888  24.311  26.244  1.00  0.00     0.060 A 
BRANCH  89  90
ATOM     90  S   UNL A   1      44.473  23.263  24.894  1.00  0.00     0.124 S 
ATOM     91  O   UNL A   1      45.426  24.145  24.230  1.00  0.00    -0.237 OA
ATOM     92  O   UNL A   1      45.044  22.130  25.614  1.00  0.00    -0.237 OA
ATOM     93  O   UNL A   1      43.254  22.970  24.144  1.00  0.00    -0.744 OA
ENDBRANCH  89  90
ENDBRANCH  57  82
BRANCH  69  94
ATOM     94  C   UNL A   1      45.584  26.776  34.856  1.00  0.00     0.058 A 
ATOM     95  C   UNL A   1      45.353  25.624  35.621  1.00  0.00     0.135 A 
ATOM     96  C   UNL A   1      46.906  27.242  34.757  1.00  0.00     0.135 A 
ATOM     97  F   UNL A   1      44.108  25.139  35.756  1.00  0.00    -0.206 F 
ATOM     98  C   UNL A   1      46.392  24.962  36.270  1.00  0.00     0.059 A 
ATOM     99  C   UNL A   1      47.964  26.580  35.372  1.00  0.00     0.059 A 
ATOM    100  F   UNL A   1      47.185  28.336  34.030  1.00  0.00    -0.206 F 
ATOM    101  C   UNL A   1      47.695  25.444  36.132  1.00  0.00     0.060 A 
BRANCH 101 102
ATOM    102  S   UNL A   1      49.040  24.542  36.931  1.00  0.00     0.124 S 
ATOM    103  O   UNL A   1      48.607  24.538  38.324  1.00  0.00    -0.237 OA
ATOM    104  O   UNL A   1      48.997  23.251  36.251  1.00  0.00    -0.237 OA
ATOM    105  O   UNL A   1      50.217  25.357  36.643  1.00  0.00    -0.744 OA
ENDBRANCH 101 102
ENDBRANCH  69  94
ENDBRANCH  43  44
ENDBRANCH  36  38
ENDBRANCH  35  36
ENDBRANCH  34  35
ENDBRANCH  33  34
ENDBRANCH  32  33
ENDBRANCH  31  32
ENDBRANCH   1  31
TORSDOF 25
ENDMDL
MODEL 3
REMARK VINA RESULT:      -9.5      2.417      3.213
REMARK SMILES C[C@H](NC(=O)OCc1ccccc1)C(=O)NCC(=O)N1CCC[C@H]1C(=O)OCCOCCOC(=O)c1ccc(-c2c3nc(c(-c4c(F)cc(S(=O)(=O)[O-])cc4F)c4ccc([nH]4)c(-c4c(F)cc(S(=O)(=O)[O-])cc4F)c4nc(c(-c5c(F)cc(S(=O)(=O)[O-])cc5F)c5ccc2[nH]5)C=C4)C=C3)cc1
REMARK SMILES IDX 28 1 27 2 25 3 26 4 24 5 20 6 21 7 22 8 23 9 18 10 19 11
REMARK SMILES IDX 17 12 16 13 14 14 15 15 2 17 1 18 3 19 4 20 5 22 6 23 7 24
REMARK SMILES IDX 8 25 9 26 13 27 10 28 12 29 11 30 29 31 30 32 31 33 32 34
REMARK SMILES IDX 33 35 34 36 35 37 36 38 37 39 101 40 38 41 100 42 39 43
REMARK SMILES IDX 40 44 41 45 94 46 42 47 99 48 93 49 95 50 43 51 98 52 92 53
REMARK SMILES IDX 91 54 44 56 78 57 57 58 77 59 58 60 61 61 76 62 96 63 59 64
REMARK SMILES IDX 60 65 75 67 97 68 62 69 45 70 46 71 55 72 47 73 48 74 54 75
REMARK SMILES IDX 56 76 49 77 50 78 51 79 52 80 53 81 79 82 80 83 89 84 81 85
REMARK SMILES IDX 82 86 88 87 90 88 83 89 84 90 85 91 86 92 87 93 63 94 64 95
REMARK SMILES IDX 73 96 65 97 66 98 72 99 74 100 67 101 68 102 69 103 70 104
REMARK SMILES IDX 71 105
REMARK H PARENT 16 16 3 21 95 55 61 66
REMARK Flexibility Score: inf
ROOT
ATOM      1  C   UNL A   1      37.052  23.572  25.449  1.00  0.00     0.261 C 
ENDROOT
BRANCH   1   2
ATOM      2  O   UNL A   1      35.829  23.560  26.188  1.00  0.00    -0.462 OA
BRANCH   2   3
ATOM      3  C   UNL A   1      34.705  23.821  25.473  1.00  0.00     0.328 C 
ATOM      4  O   UNL A   1      34.581  24.717  24.645  1.00  0.00    -0.250 OA
BRANCH   3   5
ATOM      5  C   UNL A   1      33.605  22.813  25.830  1.00  0.00     0.195 C 
ATOM      6  N   UNL A   1      32.305  23.322  25.434  1.00  0.00    -0.327 N 
ATOM      7  C   UNL A   1      32.083  22.979  24.045  1.00  0.00     0.120 C 
ATOM      8  C   UNL A   1      32.773  21.629  23.876  1.00  0.00     0.024 C 
ATOM      9  C   UNL A   1      33.798  21.537  25.006  1.00  0.00     0.039 C 
BRANCH   6  10
ATOM     10  C   UNL A   1      31.581  24.037  26.356  1.00  0.00     0.242 C 
ATOM     11  O   UNL A   1      31.444  23.599  27.508  1.00  0.00    -0.273 OA
BRANCH  10  12
ATOM     12  C   UNL A   1      30.829  25.330  26.011  1.00  0.00     0.216 C 
BRANCH  12  13
ATOM     13  N   UNL A   1      30.950  26.522  26.814  1.00  0.00    -0.345 N 
ATOM     14  C   UNL A   1      31.864  27.527  26.770  1.00  0.00     0.242 C 
ATOM     15  O   UNL A   1      31.668  28.491  27.520  1.00  0.00    -0.273 OA
ATOM     16  H   UNL A   1      30.259  26.625  27.506  1.00  0.00     0.164 HD
BRANCH  14  17
ATOM     17  C   UNL A   1      33.079  27.537  25.814  1.00  0.00     0.171 C 
ATOM     18  C   UNL A   1      33.963  28.752  26.032  1.00  0.00     0.042 C 
BRANCH  17  19
ATOM     19  N   UNL A   1      32.758  27.182  24.433  1.00  0.00    -0.310 N 
ATOM     20  C   UNL A   1      32.018  27.799  23.478  1.00  0.00     0.408 C 
ATOM     21  H   UNL A   1      33.156  26.330  24.138  1.00  0.00     0.167 HD
ATOM     22  O   UNL A   1      31.775  27.225  22.422  1.00  0.00    -0.225 OA
BRANCH  20  23
ATOM     23  O   UNL A   1      31.617  29.042  23.815  1.00  0.00    -0.445 OA
BRANCH  23  24
ATOM     24  C   UNL A   1      30.237  29.173  24.194  1.00  0.00     0.270 C 
BRANCH  24  25
ATOM     25  C   UNL A   1      29.504  30.180  23.340  1.00  0.00    -0.011 A 
ATOM     26  C   UNL A   1      29.219  29.884  22.001  1.00  0.00     0.007 A 
ATOM     27  C   UNL A   1      29.126  31.429  23.856  1.00  0.00     0.007 A 
ATOM     28  C   UNL A   1      28.620  30.838  21.179  1.00  0.00     0.000 A 
ATOM     29  C   UNL A   1      28.535  32.385  23.030  1.00  0.00     0.000 A 
ATOM     30  C   UNL A   1      28.291  32.091  21.690  1.00  0.00     0.000 A 
ENDBRANCH  24  25
ENDBRANCH  23  24
ENDBRANCH  20  23
ENDBRANCH  17  19
ENDBRANCH  14  17
ENDBRANCH  12  13
ENDBRANCH  10  12
ENDBRANCH   6  10
ENDBRANCH   3   5
ENDBRANCH   2   3
ENDBRANCH   1   2
BRANCH   1  31
ATOM     31  C   UNL A   1      37.766  22.232  25.628  1.00  0.00     0.202 C 
BRANCH  31  32
ATOM     32  O   UNL A   1      39.164  22.261  25.923  1.00  0.00    -0.374 OA
BRANCH  32  33
ATOM     33  C   UNL A   1      39.893  21.035  25.901  1.00  0.00     0.202 C 
BRANCH  33  34
ATOM     34  C   UNL A   1      41.034  20.813  26.908  1.00  0.00     0.261 C 
BRANCH  34  35
ATOM     35  O   UNL A   1      42.343  20.804  26.321  1.00  0.00    -0.460 OA
BRANCH  35  36
ATOM     36  C   UNL A   1      42.724  21.989  25.780  1.00  0.00     0.338 C 
ATOM     37  O   UNL A   1      43.010  22.209  24.615  1.00  0.00    -0.246 OA
BRANCH  36  38
ATOM     38  C   UNL A   1      42.562  23.066  26.772  1.00  0.00     0.060 A 
ATOM     39  C   UNL A   1      42.666  24.392  26.325  1.00  0.00     0.016 A 
ATOM     40  C   UNL A   1      42.407  22.781  28.127  1.00  0.00     0.016 A 
ATOM     41  C   UNL A   1      42.647  25.439  27.241  1.00  0.00     0.010 A 
ATOM     42  C   UNL A   1      42.402  23.834  29.046  1.00  0.00     0.010 A 
ATOM     43  C   UNL A   1      42.554  25.164  28.610  1.00  0.00    -0.014 A 
BRANCH  43  44
ATOM     44  C   UNL A   1      42.760  26.249  29.598  1.00  0.00     0.031 A 
ATOM     45  C   UNL A   1      43.987  26.218  30.465  1.00  0.00     0.074 A 
ATOM     46  C   UNL A   1      41.865  27.246  29.719  1.00  0.00     0.049 A 
ATOM     47  N   UNL A   1      44.323  27.003  31.455  1.00  0.00    -0.248 NA
ATOM     48  C   UNL A   1      44.961  25.151  30.184  1.00  0.00     0.031 C 
ATOM     49  C   UNL A   1      40.663  27.402  28.903  1.00  0.00     0.029 A 
ATOM     50  N   UNL A   1      41.823  28.305  30.590  1.00  0.00    -0.354 N 
ATOM     51  C   UNL A   1      45.535  26.514  31.929  1.00  0.00     0.074 A 
ATOM     52  C   UNL A   1      45.862  25.349  31.135  1.00  0.00     0.031 C 
ATOM     53  C   UNL A   1      39.987  28.484  29.328  1.00  0.00     0.029 A 
ATOM     54  C   UNL A   1      40.687  29.068  30.471  1.00  0.00     0.049 A 
ATOM     55  H   UNL A   1      42.538  28.499  31.239  1.00  0.00     0.167 HD
ATOM     56  C   UNL A   1      46.304  26.996  32.935  1.00  0.00     0.037 A 
ATOM     57  C   UNL A   1      40.245  30.097  31.221  1.00  0.00     0.037 A 
ATOM     58  C   UNL A   1      45.965  28.157  33.716  1.00  0.00     0.049 A 
ATOM     59  C   UNL A   1      41.083  30.579  32.376  1.00  0.00     0.074 A 
ATOM     60  C   UNL A   1      46.689  28.747  34.737  1.00  0.00     0.029 A 
ATOM     61  N   UNL A   1      44.799  28.897  33.574  1.00  0.00    -0.354 N 
ATOM     62  N   UNL A   1      42.239  30.127  32.802  1.00  0.00    -0.248 NA
ATOM     63  C   UNL A   1      40.560  31.712  33.153  1.00  0.00     0.031 C 
ATOM     64  C   UNL A   1      45.931  29.801  35.257  1.00  0.00     0.029 A 
ATOM     65  C   UNL A   1      44.768  29.916  34.512  1.00  0.00     0.049 A 
ATOM     66  H   UNL A   1      44.097  28.722  32.907  1.00  0.00     0.167 HD
ATOM     67  C   UNL A   1      42.597  30.938  33.874  1.00  0.00     0.074 A 
ATOM     68  C   UNL A   1      41.535  31.911  34.030  1.00  0.00     0.031 C 
ATOM     69  C   UNL A   1      43.706  30.885  34.652  1.00  0.00     0.037 A 
BRANCH  56  70
ATOM     70  C   UNL A   1      47.561  26.242  33.276  1.00  0.00     0.058 A 
ATOM     71  C   UNL A   1      47.571  25.180  34.194  1.00  0.00     0.135 A 
ATOM     72  C   UNL A   1      48.776  26.576  32.655  1.00  0.00     0.135 A 
ATOM     73  F   UNL A   1      46.442  24.826  34.830  1.00  0.00    -0.206 F 
ATOM     74  C   UNL A   1      48.744  24.503  34.513  1.00  0.00     0.059 A 
ATOM     75  C   UNL A   1      49.956  25.890  32.933  1.00  0.00     0.059 A 
ATOM     76  F   UNL A   1      48.828  27.583  31.768  1.00  0.00    -0.206 F 
ATOM     77  C   UNL A   1      49.932  24.867  33.878  1.00  0.00     0.060 A 
BRANCH  77  78
ATOM     78  S   UNL A   1      51.447  23.986  34.309  1.00  0.00     0.124 S 
ATOM     79  O   UNL A   1      51.406  24.035  35.768  1.00  0.00    -0.237 OA
ATOM     80  O   UNL A   1      51.224  22.672  33.714  1.00  0.00    -0.237 OA
ATOM     81  O   UNL A   1      52.497  24.785  33.685  1.00  0.00    -0.744 OA
ENDBRANCH  77  78
ENDBRANCH  56  70
BRANCH  57  82
ATOM     82  C   UNL A   1      38.934  30.725  30.906  1.00  0.00     0.058 A 
ATOM     83  C   UNL A   1      37.734  30.179  31.379  1.00  0.00     0.135 A 
ATOM     84  C   UNL A   1      38.860  31.908  30.151  1.00  0.00     0.135 A 
ATOM     85  F   UNL A   1      37.749  29.043  32.094  1.00  0.00    -0.206 F 
ATOM     86  C   UNL A   1      36.506  30.779  31.117  1.00  0.00     0.059 A 
ATOM     87  C   UNL A   1      37.649  32.542  29.899  1.00  0.00     0.059 A 
ATOM     88  F   UNL A   1      39.982  32.477  29.682  1.00  0.00    -0.206 F 
ATOM     89  C   UNL A   1      36.476  31.967  30.383  1.00  0.00     0.060 A 
BRANCH  89  90
ATOM     90  S   UNL A   1      34.884  32.778  30.117  1.00  0.00     0.124 S 
ATOM     91  O   UNL A   1      35.299  34.127  29.748  1.00  0.00    -0.237 OA
ATOM     92  O   UNL A   1      34.307  31.971  29.047  1.00  0.00    -0.237 OA
ATOM     93  O   UNL A   1      34.222  32.653  31.413  1.00  0.00    -0.744 OA
ENDBRANCH  89  90
ENDBRANCH  57  82
BRANCH  69  94
ATOM     94  C   UNL A   1      43.867  31.935  35.720  1.00  0.00     0.058 A 
ATOM     95  C   UNL A   1      44.477  33.171  35.463  1.00  0.00     0.135 A 
ATOM     96  C   UNL A   1      43.322  31.728  37.000  1.00  0.00     0.135 A 
ATOM     97  F   UNL A   1      45.021  33.420  34.261  1.00  0.00    -0.206 F 
ATOM     98  C   UNL A   1      44.551  34.162  36.439  1.00  0.00     0.059 A 
ATOM     99  C   UNL A   1      43.358  32.714  37.979  1.00  0.00     0.059 A 
ATOM    100  F   UNL A   1      42.718  30.566  37.297  1.00  0.00    -0.206 F 
ATOM    101  C   UNL A   1      43.981  33.927  37.691  1.00  0.00     0.060 A 
BRANCH 101 102
ATOM    102  S   UNL A   1      44.033  35.242  38.927  1.00  0.00     0.124 S 
ATOM    103  O   UNL A   1      45.243  35.962  38.542  1.00  0.00    -0.237 OA
ATOM    104  O   UNL A   1      42.775  35.944  38.688  1.00  0.00    -0.237 OA
ATOM    105  O   UNL A   1      44.109  34.519  40.193  1.00  0.00    -0.744 OA
ENDBRANCH 101 102
ENDBRANCH  69  94
ENDBRANCH  43  44
ENDBRANCH  36  38
ENDBRANCH  35  36
ENDBRANCH  34  35
ENDBRANCH  33  34
ENDBRANCH  32  33
ENDBRANCH  31  32
ENDBRANCH   1  31
TORSDOF 25
ENDMDL
