MODEL 1
REMARK VINA RESULT:     -11.0      0.000      0.000
REMARK SMILES CCc1c(Cl)ccc2c1C=C(C(=O)OCCOCCOC(=O)c1ccc(-c3c4nc(c(-c5c(F)cc(S(=O)(=O)[O-])cc5F)c5ccc([nH]5)c(-c5c(F)cc(S(=O)(=O)[O-])cc5F)c5nc(c(-c6c(F)cc(S(=O)(=O)[O-])cc6F)c6ccc3[nH]6)C=C5)C=C4)cc1)[C@@H](C(F)(F)F)O2
REMARK SMILES IDX 18 1 17 2 16 3 15 4 14 5 12 6 13 7 11 8 3 9 4 10 9 11 5 12
REMARK SMILES IDX 6 13 8 14 10 15 7 16 94 17 89 18 2 19 1 20 90 21 91 22 92 23
REMARK SMILES IDX 93 24 19 25 20 26 21 27 22 28 23 29 24 30 88 31 25 32 87 33
REMARK SMILES IDX 26 34 27 35 28 36 81 37 29 38 86 39 80 40 82 41 30 42 85 43
REMARK SMILES IDX 79 44 78 45 31 47 65 48 44 49 64 50 45 51 48 52 63 53 83 54
REMARK SMILES IDX 46 55 47 56 62 58 84 59 49 60 32 61 33 62 42 63 34 64 35 65
REMARK SMILES IDX 41 66 43 67 36 68 37 69 38 70 39 71 40 72 66 73 67 74 76 75
REMARK SMILES IDX 68 76 69 77 75 78 77 79 70 80 71 81 72 82 73 83 74 84 50 85
REMARK SMILES IDX 51 86 60 87 52 88 53 89 59 90 61 91 54 92 55 93 56 94 57 95
REMARK SMILES IDX 58 96
REMARK H PARENT 82 46 48 57
REMARK Flexibility Score: inf
ROOT
ATOM      1  C   UNL A   1      40.559  21.484  26.536  1.00  0.00     0.202 C 
ENDROOT
BRANCH   1   2
ATOM      2  O   UNL A   1      39.352  21.370  25.784  1.00  0.00    -0.374 OA
BRANCH   2   3
ATOM      3  C   UNL A   1      38.269  22.244  26.091  1.00  0.00     0.202 C 
BRANCH   3   4
ATOM      4  C   UNL A   1      37.055  22.254  25.156  1.00  0.00     0.261 C 
BRANCH   4   5
ATOM      5  O   UNL A   1      36.521  23.570  24.961  1.00  0.00    -0.460 OA
BRANCH   5   6
ATOM      6  C   UNL A   1      35.281  23.746  25.474  1.00  0.00     0.338 C 
ATOM      7  O   UNL A   1      34.808  23.194  26.455  1.00  0.00    -0.246 OA
BRANCH   6   8
ATOM      8  C   UNL A   1      34.587  24.831  24.754  1.00  0.00     0.087 C 
ATOM      9  C   UNL A   1      33.024  28.109  25.676  1.00  0.00    -0.019 A 
ATOM     10  C   UNL A   1      32.173  29.024  25.015  1.00  0.00     0.045 A 
ATOM     11  C   UNL A   1      33.478  26.981  24.919  1.00  0.00     0.022 A 
ATOM     12  Cl  UNL A   1      31.581  30.486  25.720  1.00  0.00    -0.084 Cl
ATOM     13  C   UNL A   1      31.769  28.816  23.688  1.00  0.00     0.024 A 
ATOM     14  C   UNL A   1      33.099  26.822  23.572  1.00  0.00     0.128 A 
ATOM     15  C   UNL A   1      34.309  25.917  25.485  1.00  0.00     0.027 C 
ATOM     16  C   UNL A   1      32.243  27.731  22.965  1.00  0.00     0.048 A 
ATOM     17  O   UNL A   1      33.539  25.824  22.748  1.00  0.00    -0.475 OA
ATOM     18  C   UNL A   1      34.208  24.670  23.315  1.00  0.00     0.316 C 
BRANCH   9  19
ATOM     19  C   UNL A   1      33.555  28.331  27.090  1.00  0.00     0.034 C 
ATOM     20  C   UNL A   1      34.688  29.317  27.352  1.00  0.00     0.009 C 
ENDBRANCH   9  19
BRANCH  18  21
ATOM     21  C   UNL A   1      33.347  23.426  23.061  1.00  0.00     0.430 C 
ATOM     22  F   UNL A   1      34.064  22.292  23.237  1.00  0.00    -0.167 F 
ATOM     23  F   UNL A   1      32.296  23.362  23.911  1.00  0.00    -0.167 F 
ATOM     24  F   UNL A   1      32.854  23.407  21.802  1.00  0.00    -0.167 F 
ENDBRANCH  18  21
ENDBRANCH   6   8
ENDBRANCH   5   6
ENDBRANCH   4   5
ENDBRANCH   3   4
ENDBRANCH   2   3
ENDBRANCH   1   2
BRANCH   1  25
ATOM     25  C   UNL A   1      41.500  22.663  26.262  1.00  0.00     0.261 C 
BRANCH  25  26
ATOM     26  O   UNL A   1      40.930  23.935  26.608  1.00  0.00    -0.460 OA
BRANCH  26  27
ATOM     27  C   UNL A   1      41.806  24.972  26.581  1.00  0.00     0.338 C 
ATOM     28  O   UNL A   1      42.694  25.164  25.763  1.00  0.00    -0.246 OA
BRANCH  27  29
ATOM     29  C   UNL A   1      41.408  25.978  27.583  1.00  0.00     0.060 A 
ATOM     30  C   UNL A   1      40.289  25.790  28.393  1.00  0.00     0.016 A 
ATOM     31  C   UNL A   1      42.218  27.112  27.737  1.00  0.00     0.016 A 
ATOM     32  C   UNL A   1      40.005  26.727  29.388  1.00  0.00     0.010 A 
ATOM     33  C   UNL A   1      41.934  28.045  28.735  1.00  0.00     0.010 A 
ATOM     34  C   UNL A   1      40.841  27.845  29.586  1.00  0.00    -0.014 A 
BRANCH  34  35
ATOM     35  C   UNL A   1      40.654  28.696  30.789  1.00  0.00     0.031 A 
ATOM     36  C   UNL A   1      41.519  28.556  32.004  1.00  0.00     0.074 A 
ATOM     37  C   UNL A   1      39.669  29.617  30.762  1.00  0.00     0.049 A 
ATOM     38  N   UNL A   1      41.567  29.320  33.065  1.00  0.00    -0.248 NA
ATOM     39  C   UNL A   1      42.440  27.410  32.046  1.00  0.00     0.031 C 
ATOM     40  C   UNL A   1      38.722  29.793  29.658  1.00  0.00     0.029 A 
ATOM     41  N   UNL A   1      39.313  30.586  31.664  1.00  0.00    -0.354 N 
ATOM     42  C   UNL A   1      42.542  28.772  33.888  1.00  0.00     0.074 A 
ATOM     43  C   UNL A   1      43.017  27.571  33.231  1.00  0.00     0.031 C 
ATOM     44  C   UNL A   1      37.931  30.844  29.922  1.00  0.00     0.029 A 
ATOM     45  C   UNL A   1      38.294  31.398  31.223  1.00  0.00     0.049 A 
ATOM     46  H   UNL A   1      39.745  30.692  32.542  1.00  0.00     0.167 HD
ATOM     47  C   UNL A   1      43.010  29.246  35.067  1.00  0.00     0.037 A 
ATOM     48  C   UNL A   1      37.723  32.479  31.791  1.00  0.00     0.037 A 
ATOM     49  C   UNL A   1      42.512  30.434  35.715  1.00  0.00     0.049 A 
ATOM     50  C   UNL A   1      38.243  32.968  33.115  1.00  0.00     0.074 A 
ATOM     51  C   UNL A   1      42.953  31.018  36.889  1.00  0.00     0.029 A 
ATOM     52  N   UNL A   1      41.457  31.209  35.256  1.00  0.00    -0.354 N 
ATOM     53  N   UNL A   1      39.235  32.498  33.831  1.00  0.00    -0.248 NA
ATOM     54  C   UNL A   1      37.572  34.133  33.708  1.00  0.00     0.031 C 
ATOM     55  C   UNL A   1      42.128  32.110  37.172  1.00  0.00     0.029 A 
ATOM     56  C   UNL A   1      41.213  32.248  36.141  1.00  0.00     0.049 A 
ATOM     57  H   UNL A   1      40.956  31.047  34.425  1.00  0.00     0.167 HD
ATOM     58  C   UNL A   1      39.324  33.324  34.945  1.00  0.00     0.074 A 
ATOM     59  C   UNL A   1      38.290  34.328  34.807  1.00  0.00     0.031 C 
ATOM     60  C   UNL A   1      40.188  33.252  35.987  1.00  0.00     0.037 A 
BRANCH  47  61
ATOM     61  C   UNL A   1      44.134  28.500  35.736  1.00  0.00     0.058 A 
ATOM     62  C   UNL A   1      45.476  28.814  35.469  1.00  0.00     0.135 A 
ATOM     63  C   UNL A   1      43.873  27.532  36.720  1.00  0.00     0.135 A 
ATOM     64  F   UNL A   1      45.783  29.728  34.534  1.00  0.00    -0.206 F 
ATOM     65  C   UNL A   1      46.519  28.184  36.138  1.00  0.00     0.059 A 
ATOM     66  C   UNL A   1      44.901  26.907  37.423  1.00  0.00     0.059 A 
ATOM     67  F   UNL A   1      42.609  27.196  37.019  1.00  0.00    -0.206 F 
ATOM     68  C   UNL A   1      46.222  27.235  37.118  1.00  0.00     0.060 A 
BRANCH  68  69
ATOM     69  S   UNL A   1      47.591  26.441  37.985  1.00  0.00     0.124 S 
ATOM     70  O   UNL A   1      46.900  25.810  39.106  1.00  0.00    -0.237 OA
ATOM     71  O   UNL A   1      48.114  25.532  36.970  1.00  0.00    -0.237 OA
ATOM     72  O   UNL A   1      48.466  27.555  38.338  1.00  0.00    -0.744 OA
ENDBRANCH  68  69
ENDBRANCH  47  61
BRANCH  48  73
ATOM     73  C   UNL A   1      36.633  33.194  31.077  1.00  0.00     0.058 A 
ATOM     74  C   UNL A   1      35.301  33.091  31.505  1.00  0.00     0.135 A 
ATOM     75  C   UNL A   1      36.905  34.031  29.982  1.00  0.00     0.135 A 
ATOM     76  F   UNL A   1      34.990  32.302  32.544  1.00  0.00    -0.206 F 
ATOM     77  C   UNL A   1      34.276  33.785  30.870  1.00  0.00     0.059 A 
ATOM     78  C   UNL A   1      35.902  34.757  29.349  1.00  0.00     0.059 A 
ATOM     79  F   UNL A   1      38.165  34.179  29.546  1.00  0.00    -0.206 F 
ATOM     80  C   UNL A   1      34.588  34.622  29.796  1.00  0.00     0.060 A 
BRANCH  80  81
ATOM     81  S   UNL A   1      33.255  35.557  29.016  1.00  0.00     0.124 S 
ATOM     82  O   UNL A   1      33.998  36.436  28.121  1.00  0.00    -0.237 OA
ATOM     83  O   UNL A   1      32.480  34.499  28.374  1.00  0.00    -0.237 OA
ATOM     84  O   UNL A   1      32.598  36.211  30.143  1.00  0.00    -0.744 OA
ENDBRANCH  80  81
ENDBRANCH  48  73
BRANCH  60  85
ATOM     85  C   UNL A   1      40.086  34.292  37.070  1.00  0.00     0.058 A 
ATOM     86  C   UNL A   1      40.764  35.516  36.976  1.00  0.00     0.135 A 
ATOM     87  C   UNL A   1      39.189  34.117  38.137  1.00  0.00     0.135 A 
ATOM     88  F   UNL A   1      41.639  35.730  35.981  1.00  0.00    -0.206 F 
ATOM     89  C   UNL A   1      40.544  36.538  37.893  1.00  0.00     0.059 A 
ATOM     90  C   UNL A   1      38.935  35.134  39.052  1.00  0.00     0.059 A 
ATOM     91  F   UNL A   1      38.513  32.965  38.269  1.00  0.00    -0.206 F 
ATOM     92  C   UNL A   1      39.614  36.345  38.917  1.00  0.00     0.060 A 
BRANCH  92  93
ATOM     93  S   UNL A   1      39.263  37.721  40.032  1.00  0.00     0.124 S 
ATOM     94  O   UNL A   1      39.009  37.026  41.290  1.00  0.00    -0.237 OA
ATOM     95  O   UNL A   1      40.501  38.490  39.972  1.00  0.00    -0.237 OA
ATOM     96  O   UNL A   1      38.100  38.365  39.426  1.00  0.00    -0.744 OA
ENDBRANCH  92  93
ENDBRANCH  60  85
ENDBRANCH  34  35
ENDBRANCH  27  29
ENDBRANCH  26  27
ENDBRANCH  25  26
ENDBRANCH   1  25
TORSDOF 19
ENDMDL
MODEL 2
REMARK VINA RESULT:     -10.7      3.236      9.564
REMARK SMILES CCc1c(Cl)ccc2c1C=C(C(=O)OCCOCCOC(=O)c1ccc(-c3c4nc(c(-c5c(F)cc(S(=O)(=O)[O-])cc5F)c5ccc([nH]5)c(-c5c(F)cc(S(=O)(=O)[O-])cc5F)c5nc(c(-c6c(F)cc(S(=O)(=O)[O-])cc6F)c6ccc3[nH]6)C=C5)C=C4)cc1)[C@@H](C(F)(F)F)O2
REMARK SMILES IDX 18 1 17 2 16 3 15 4 14 5 12 6 13 7 11 8 3 9 4 10 9 11 5 12
REMARK SMILES IDX 6 13 8 14 10 15 7 16 94 17 89 18 2 19 1 20 90 21 91 22 92 23
REMARK SMILES IDX 93 24 19 25 20 26 21 27 22 28 23 29 24 30 88 31 25 32 87 33
REMARK SMILES IDX 26 34 27 35 28 36 81 37 29 38 86 39 80 40 82 41 30 42 85 43
REMARK SMILES IDX 79 44 78 45 31 47 65 48 44 49 64 50 45 51 48 52 63 53 83 54
REMARK SMILES IDX 46 55 47 56 62 58 84 59 49 60 32 61 33 62 42 63 34 64 35 65
REMARK SMILES IDX 41 66 43 67 36 68 37 69 38 70 39 71 40 72 66 73 67 74 76 75
REMARK SMILES IDX 68 76 69 77 75 78 77 79 70 80 71 81 72 82 73 83 74 84 50 85
REMARK SMILES IDX 51 86 60 87 52 88 53 89 59 90 61 91 54 92 55 93 56 94 57 95
REMARK SMILES IDX 58 96
REMARK H PARENT 82 46 48 57
REMARK Flexibility Score: inf
ROOT
ATOM      1  C   UNL A   1      31.553  31.026  26.102  1.00  0.00     0.202 C 
ENDROOT
BRANCH   1   2
ATOM      2  O   UNL A   1      30.894  30.330  25.046  1.00  0.00    -0.374 OA
BRANCH   2   3
ATOM      3  C   UNL A   1      31.377  29.044  24.667  1.00  0.00     0.202 C 
BRANCH   3   4
ATOM      4  C   UNL A   1      32.687  28.964  23.877  1.00  0.00     0.261 C 
BRANCH   4   5
ATOM      5  O   UNL A   1      33.488  27.835  24.251  1.00  0.00    -0.460 OA
BRANCH   5   6
ATOM      6  C   UNL A   1      33.610  26.897  23.282  1.00  0.00     0.338 C 
ATOM      7  O   UNL A   1      33.970  27.078  22.130  1.00  0.00    -0.246 OA
BRANCH   6   8
ATOM      8  C   UNL A   1      33.378  25.554  23.848  1.00  0.00     0.087 C 
ATOM      9  C   UNL A   1      35.449  22.493  24.462  1.00  0.00    -0.019 A 
ATOM     10  C   UNL A   1      35.161  21.150  24.795  1.00  0.00     0.045 A 
ATOM     11  C   UNL A   1      34.342  23.400  24.401  1.00  0.00     0.022 A 
ATOM     12  Cl  UNL A   1      36.357  19.920  25.000  1.00  0.00    -0.084 Cl
ATOM     13  C   UNL A   1      33.846  20.722  25.025  1.00  0.00     0.024 A 
ATOM     14  C   UNL A   1      33.036  22.955  24.685  1.00  0.00     0.128 A 
ATOM     15  C   UNL A   1      34.474  24.802  24.007  1.00  0.00     0.027 C 
ATOM     16  C   UNL A   1      32.791  21.622  24.987  1.00  0.00     0.048 A 
ATOM     17  O   UNL A   1      31.929  23.756  24.727  1.00  0.00    -0.475 OA
ATOM     18  C   UNL A   1      31.992  25.095  24.174  1.00  0.00     0.316 C 
BRANCH   9  19
ATOM     19  C   UNL A   1      36.869  23.025  24.282  1.00  0.00     0.034 C 
ATOM     20  C   UNL A   1      37.773  23.259  25.487  1.00  0.00     0.009 C 
ENDBRANCH   9  19
BRANCH  18  21
ATOM     21  C   UNL A   1      31.039  25.178  22.975  1.00  0.00     0.430 C 
ATOM     22  F   UNL A   1      31.661  24.807  21.831  1.00  0.00    -0.167 F 
ATOM     23  F   UNL A   1      29.972  24.360  23.125  1.00  0.00    -0.167 F 
ATOM     24  F   UNL A   1      30.568  26.433  22.795  1.00  0.00    -0.167 F 
ENDBRANCH  18  21
ENDBRANCH   6   8
ENDBRANCH   5   6
ENDBRANCH   4   5
ENDBRANCH   3   4
ENDBRANCH   2   3
ENDBRANCH   1   2
BRANCH   1  25
ATOM     25  C   UNL A   1      32.412  30.235  27.096  1.00  0.00     0.261 C 
BRANCH  25  26
ATOM     26  O   UNL A   1      33.823  30.405  26.887  1.00  0.00    -0.460 OA
BRANCH  26  27
ATOM     27  C   UNL A   1      34.387  31.395  27.625  1.00  0.00     0.338 C 
ATOM     28  O   UNL A   1      33.846  32.416  28.022  1.00  0.00    -0.246 OA
BRANCH  27  29
ATOM     29  C   UNL A   1      35.727  30.971  28.073  1.00  0.00     0.060 A 
ATOM     30  C   UNL A   1      36.756  31.895  28.254  1.00  0.00     0.016 A 
ATOM     31  C   UNL A   1      35.927  29.614  28.362  1.00  0.00     0.016 A 
ATOM     32  C   UNL A   1      37.979  31.457  28.766  1.00  0.00     0.010 A 
ATOM     33  C   UNL A   1      37.149  29.180  28.877  1.00  0.00     0.010 A 
ATOM     34  C   UNL A   1      38.175  30.104  29.109  1.00  0.00    -0.014 A 
BRANCH  34  35
ATOM     35  C   UNL A   1      39.392  29.707  29.862  1.00  0.00     0.031 A 
ATOM     36  C   UNL A   1      39.761  30.343  31.168  1.00  0.00     0.074 A 
ATOM     37  C   UNL A   1      40.172  28.743  29.334  1.00  0.00     0.049 A 
ATOM     38  N   UNL A   1      40.708  30.002  32.003  1.00  0.00    -0.248 NA
ATOM     39  C   UNL A   1      38.982  31.517  31.589  1.00  0.00     0.031 C 
ATOM     40  C   UNL A   1      39.945  28.104  28.036  1.00  0.00     0.029 A 
ATOM     41  N   UNL A   1      41.289  28.115  29.824  1.00  0.00    -0.354 N 
ATOM     42  C   UNL A   1      40.623  30.893  33.064  1.00  0.00     0.074 A 
ATOM     43  C   UNL A   1      39.569  31.833  32.737  1.00  0.00     0.031 C 
ATOM     44  C   UNL A   1      40.858  27.137  27.857  1.00  0.00     0.029 A 
ATOM     45  C   UNL A   1      41.751  27.105  29.011  1.00  0.00     0.049 A 
ATOM     46  H   UNL A   1      41.719  28.363  30.673  1.00  0.00     0.167 HD
ATOM     47  C   UNL A   1      41.341  30.905  34.213  1.00  0.00     0.037 A 
ATOM     48  C   UNL A   1      42.768  26.238  29.181  1.00  0.00     0.037 A 
ATOM     49  C   UNL A   1      42.398  29.972  34.513  1.00  0.00     0.049 A 
ATOM     50  C   UNL A   1      43.569  26.290  30.453  1.00  0.00     0.074 A 
ATOM     51  C   UNL A   1      43.153  29.876  35.669  1.00  0.00     0.029 A 
ATOM     52  N   UNL A   1      42.860  28.986  33.653  1.00  0.00    -0.354 N 
ATOM     53  N   UNL A   1      43.408  27.073  31.492  1.00  0.00    -0.248 NA
ATOM     54  C   UNL A   1      44.685  25.342  30.582  1.00  0.00     0.031 C 
ATOM     55  C   UNL A   1      44.109  28.874  35.486  1.00  0.00     0.029 A 
ATOM     56  C   UNL A   1      43.911  28.299  34.241  1.00  0.00     0.049 A 
ATOM     57  H   UNL A   1      42.495  28.801  32.758  1.00  0.00     0.167 HD
ATOM     58  C   UNL A   1      44.384  26.697  32.407  1.00  0.00     0.074 A 
ATOM     59  C   UNL A   1      45.128  25.611  31.803  1.00  0.00     0.031 C 
ATOM     60  C   UNL A   1      44.637  27.209  33.636  1.00  0.00     0.037 A 
BRANCH  47  61
ATOM     61  C   UNL A   1      41.003  31.942  35.251  1.00  0.00     0.058 A 
ATOM     62  C   UNL A   1      41.695  33.162  35.312  1.00  0.00     0.135 A 
ATOM     63  C   UNL A   1      39.922  31.759  36.129  1.00  0.00     0.135 A 
ATOM     64  F   UNL A   1      42.741  33.388  34.501  1.00  0.00    -0.206 F 
ATOM     65  C   UNL A   1      41.339  34.156  36.217  1.00  0.00     0.059 A 
ATOM     66  C   UNL A   1      39.530  32.751  37.024  1.00  0.00     0.059 A 
ATOM     67  F   UNL A   1      39.222  30.614  36.110  1.00  0.00    -0.206 F 
ATOM     68  C   UNL A   1      40.252  33.944  37.066  1.00  0.00     0.060 A 
BRANCH  68  69
ATOM     69  S   UNL A   1      39.798  35.255  38.221  1.00  0.00     0.124 S 
ATOM     70  O   UNL A   1      38.556  34.732  38.782  1.00  0.00    -0.237 OA
ATOM     71  O   UNL A   1      40.942  35.277  39.127  1.00  0.00    -0.237 OA
ATOM     72  O   UNL A   1      39.653  36.430  37.368  1.00  0.00    -0.744 OA
ENDBRANCH  68  69
ENDBRANCH  47  61
BRANCH  48  73
ATOM     73  C   UNL A   1      43.044  25.217  28.136  1.00  0.00     0.058 A 
ATOM     74  C   UNL A   1      44.097  25.383  27.225  1.00  0.00     0.135 A 
ATOM     75  C   UNL A   1      42.291  24.034  28.056  1.00  0.00     0.135 A 
ATOM     76  F   UNL A   1      44.844  26.497  27.260  1.00  0.00    -0.206 F 
ATOM     77  C   UNL A   1      44.391  24.417  26.267  1.00  0.00     0.059 A 
ATOM     78  C   UNL A   1      42.583  23.042  27.126  1.00  0.00     0.059 A 
ATOM     79  F   UNL A   1      41.285  23.818  28.917  1.00  0.00    -0.206 F 
ATOM     80  C   UNL A   1      43.632  23.247  26.230  1.00  0.00     0.060 A 
BRANCH  80  81
ATOM     81  S   UNL A   1      44.058  21.980  25.016  1.00  0.00     0.124 S 
ATOM     82  O   UNL A   1      45.467  21.752  25.312  1.00  0.00    -0.237 OA
ATOM     83  O   UNL A   1      43.146  20.898  25.376  1.00  0.00    -0.237 OA
ATOM     84  O   UNL A   1      43.778  22.629  23.739  1.00  0.00    -0.744 OA
ENDBRANCH  80  81
ENDBRANCH  48  73
BRANCH  60  85
ATOM     85  C   UNL A   1      45.753  26.603  34.444  1.00  0.00     0.058 A 
ATOM     86  C   UNL A   1      45.527  25.522  35.308  1.00  0.00     0.135 A 
ATOM     87  C   UNL A   1      47.080  27.017  34.241  1.00  0.00     0.135 A 
ATOM     88  F   UNL A   1      44.277  25.095  35.546  1.00  0.00    -0.206 F 
ATOM     89  C   UNL A   1      46.581  24.860  35.931  1.00  0.00     0.059 A 
ATOM     90  C   UNL A   1      48.150  26.354  34.833  1.00  0.00     0.059 A 
ATOM     91  F   UNL A   1      47.348  28.044  33.420  1.00  0.00    -0.206 F 
ATOM     92  C   UNL A   1      47.890  25.271  35.672  1.00  0.00     0.060 A 
BRANCH  92  93
ATOM     93  S   UNL A   1      49.248  24.332  36.403  1.00  0.00     0.124 S 
ATOM     94  O   UNL A   1      48.758  24.110  37.760  1.00  0.00    -0.237 OA
ATOM     95  O   UNL A   1      49.302  23.151  35.548  1.00  0.00    -0.237 OA
ATOM     96  O   UNL A   1      50.390  25.235  36.290  1.00  0.00    -0.744 OA
ENDBRANCH  92  93
ENDBRANCH  60  85
ENDBRANCH  34  35
ENDBRANCH  27  29
ENDBRANCH  26  27
ENDBRANCH  25  26
ENDBRANCH   1  25
TORSDOF 19
ENDMDL
MODEL 3
REMARK VINA RESULT:     -10.7      9.745     16.561
REMARK SMILES CCc1c(Cl)ccc2c1C=C(C(=O)OCCOCCOC(=O)c1ccc(-c3c4nc(c(-c5c(F)cc(S(=O)(=O)[O-])cc5F)c5ccc([nH]5)c(-c5c(F)cc(S(=O)(=O)[O-])cc5F)c5nc(c(-c6c(F)cc(S(=O)(=O)[O-])cc6F)c6ccc3[nH]6)C=C5)C=C4)cc1)[C@@H](C(F)(F)F)O2
REMARK SMILES IDX 18 1 17 2 16 3 15 4 14 5 12 6 13 7 11 8 3 9 4 10 9 11 5 12
REMARK SMILES IDX 6 13 8 14 10 15 7 16 94 17 89 18 2 19 1 20 90 21 91 22 92 23
REMARK SMILES IDX 93 24 19 25 20 26 21 27 22 28 23 29 24 30 88 31 25 32 87 33
REMARK SMILES IDX 26 34 27 35 28 36 81 37 29 38 86 39 80 40 82 41 30 42 85 43
REMARK SMILES IDX 79 44 78 45 31 47 65 48 44 49 64 50 45 51 48 52 63 53 83 54
REMARK SMILES IDX 46 55 47 56 62 58 84 59 49 60 32 61 33 62 42 63 34 64 35 65
REMARK SMILES IDX 41 66 43 67 36 68 37 69 38 70 39 71 40 72 66 73 67 74 76 75
REMARK SMILES IDX 68 76 69 77 75 78 77 79 70 80 71 81 72 82 73 83 74 84 50 85
REMARK SMILES IDX 51 86 60 87 52 88 53 89 59 90 61 91 54 92 55 93 56 94 57 95
REMARK SMILES IDX 58 96
REMARK H PARENT 82 46 48 57
REMARK Flexibility Score: inf
ROOT
ATOM      1  C   UNL A   1      47.432  38.921  25.140  1.00  0.00     0.202 C 
ENDROOT
BRANCH   1   2
ATOM      2  O   UNL A   1      47.013  40.284  25.181  1.00  0.00    -0.374 OA
BRANCH   2   3
ATOM      3  C   UNL A   1      46.559  40.897  23.977  1.00  0.00     0.202 C 
BRANCH   3   4
ATOM      4  C   UNL A   1      46.648  42.422  23.861  1.00  0.00     0.261 C 
BRANCH   4   5
ATOM      5  O   UNL A   1      46.289  42.897  22.557  1.00  0.00    -0.460 OA
BRANCH   5   6
ATOM      6  C   UNL A   1      45.436  43.948  22.566  1.00  0.00     0.338 C 
ATOM      7  O   UNL A   1      45.561  44.988  23.192  1.00  0.00    -0.246 OA
BRANCH   6   8
ATOM      8  C   UNL A   1      44.360  43.732  21.579  1.00  0.00     0.087 C 
ATOM      9  C   UNL A   1      43.222  45.401  18.423  1.00  0.00    -0.019 A 
ATOM     10  C   UNL A   1      42.063  45.317  17.618  1.00  0.00     0.045 A 
ATOM     11  C   UNL A   1      43.307  44.502  19.535  1.00  0.00     0.022 A 
ATOM     12  Cl  UNL A   1      41.801  46.252  16.189  1.00  0.00    -0.084 Cl
ATOM     13  C   UNL A   1      41.032  44.415  17.916  1.00  0.00     0.024 A 
ATOM     14  C   UNL A   1      42.281  43.570  19.783  1.00  0.00     0.128 A 
ATOM     15  C   UNL A   1      44.412  44.514  20.494  1.00  0.00     0.027 C 
ATOM     16  C   UNL A   1      41.147  43.534  18.982  1.00  0.00     0.048 A 
ATOM     17  O   UNL A   1      42.305  42.624  20.769  1.00  0.00    -0.475 OA
ATOM     18  C   UNL A   1      43.285  42.723  21.833  1.00  0.00     0.316 C 
BRANCH   9  19
ATOM     19  C   UNL A   1      44.405  46.309  18.096  1.00  0.00     0.034 C 
ATOM     20  C   UNL A   1      44.525  47.691  18.727  1.00  0.00     0.009 C 
ENDBRANCH   9  19
BRANCH  18  21
ATOM     21  C   UNL A   1      42.551  42.955  23.160  1.00  0.00     0.430 C 
ATOM     22  F   UNL A   1      42.469  44.275  23.448  1.00  0.00    -0.167 F 
ATOM     23  F   UNL A   1      41.284  42.482  23.121  1.00  0.00    -0.167 F 
ATOM     24  F   UNL A   1      43.180  42.349  24.193  1.00  0.00    -0.167 F 
ENDBRANCH  18  21
ENDBRANCH   6   8
ENDBRANCH   5   6
ENDBRANCH   4   5
ENDBRANCH   3   4
ENDBRANCH   2   3
ENDBRANCH   1   2
BRANCH   1  25
ATOM     25  C   UNL A   1      48.370  38.395  26.235  1.00  0.00     0.261 C 
BRANCH  25  26
ATOM     26  O   UNL A   1      47.781  37.359  27.036  1.00  0.00    -0.460 OA
BRANCH  26  27
ATOM     27  C   UNL A   1      48.627  36.348  27.361  1.00  0.00     0.338 C 
ATOM     28  O   UNL A   1      49.806  36.445  27.666  1.00  0.00    -0.246 OA
BRANCH  27  29
ATOM     29  C   UNL A   1      47.863  35.094  27.500  1.00  0.00     0.060 A 
ATOM     30  C   UNL A   1      47.033  34.635  26.478  1.00  0.00     0.016 A 
ATOM     31  C   UNL A   1      48.034  34.344  28.672  1.00  0.00     0.016 A 
ATOM     32  C   UNL A   1      46.402  33.397  26.619  1.00  0.00     0.010 A 
ATOM     33  C   UNL A   1      47.405  33.106  28.809  1.00  0.00     0.010 A 
ATOM     34  C   UNL A   1      46.607  32.611  27.771  1.00  0.00    -0.014 A 
BRANCH  34  35
ATOM     35  C   UNL A   1      46.116  31.209  27.798  1.00  0.00     0.031 A 
ATOM     36  C   UNL A   1      44.700  30.869  28.148  1.00  0.00     0.074 A 
ATOM     37  C   UNL A   1      46.992  30.230  27.493  1.00  0.00     0.049 A 
ATOM     38  N   UNL A   1      44.096  29.711  28.073  1.00  0.00    -0.248 NA
ATOM     39  C   UNL A   1      43.853  31.958  28.658  1.00  0.00     0.031 C 
ATOM     40  C   UNL A   1      48.413  30.442  27.204  1.00  0.00     0.029 A 
ATOM     41  N   UNL A   1      46.822  28.877  27.351  1.00  0.00    -0.354 N 
ATOM     42  C   UNL A   1      42.791  29.932  28.494  1.00  0.00     0.074 A 
ATOM     43  C   UNL A   1      42.708  31.325  28.885  1.00  0.00     0.031 C 
ATOM     44  C   UNL A   1      48.971  29.270  26.864  1.00  0.00     0.029 A 
ATOM     45  C   UNL A   1      47.958  28.221  26.937  1.00  0.00     0.049 A 
ATOM     46  H   UNL A   1      45.969  28.419  27.527  1.00  0.00     0.167 HD
ATOM     47  C   UNL A   1      41.758  29.057  28.525  1.00  0.00     0.037 A 
ATOM     48  C   UNL A   1      48.162  26.924  26.634  1.00  0.00     0.037 A 
ATOM     49  C   UNL A   1      41.865  27.669  28.149  1.00  0.00     0.049 A 
ATOM     50  C   UNL A   1      47.005  25.966  26.703  1.00  0.00     0.074 A 
ATOM     51  C   UNL A   1      40.863  26.714  28.104  1.00  0.00     0.029 A 
ATOM     52  N   UNL A   1      43.038  27.033  27.769  1.00  0.00    -0.354 N 
ATOM     53  N   UNL A   1      45.753  26.213  27.004  1.00  0.00    -0.248 NA
ATOM     54  C   UNL A   1      47.281  24.557  26.390  1.00  0.00     0.031 C 
ATOM     55  C   UNL A   1      41.440  25.491  27.756  1.00  0.00     0.029 A 
ATOM     56  C   UNL A   1      42.791  25.692  27.519  1.00  0.00     0.049 A 
ATOM     57  H   UNL A   1      43.916  27.470  27.688  1.00  0.00     0.167 HD
ATOM     58  C   UNL A   1      45.088  24.998  26.891  1.00  0.00     0.074 A 
ATOM     59  C   UNL A   1      46.073  24.017  26.488  1.00  0.00     0.031 C 
ATOM     60  C   UNL A   1      43.778  24.725  27.104  1.00  0.00     0.037 A 
BRANCH  47  61
ATOM     61  C   UNL A   1      40.409  29.566  28.957  1.00  0.00     0.058 A 
ATOM     62  C   UNL A   1      39.363  29.731  28.035  1.00  0.00     0.135 A 
ATOM     63  C   UNL A   1      40.126  29.800  30.313  1.00  0.00     0.135 A 
ATOM     64  F   UNL A   1      39.579  29.526  26.725  1.00  0.00    -0.206 F 
ATOM     65  C   UNL A   1      38.093  30.127  28.437  1.00  0.00     0.059 A 
ATOM     66  C   UNL A   1      38.854  30.170  30.742  1.00  0.00     0.059 A 
ATOM     67  F   UNL A   1      41.087  29.652  31.239  1.00  0.00    -0.206 F 
ATOM     68  C   UNL A   1      37.846  30.339  29.794  1.00  0.00     0.060 A 
BRANCH  68  69
ATOM     69  S   UNL A   1      36.184  30.837  30.295  1.00  0.00     0.124 S 
ATOM     70  O   UNL A   1      35.980  30.016  31.484  1.00  0.00    -0.237 OA
ATOM     71  O   UNL A   1      36.349  32.267  30.534  1.00  0.00    -0.237 OA
ATOM     72  O   UNL A   1      35.359  30.487  29.143  1.00  0.00    -0.744 OA
ENDBRANCH  68  69
ENDBRANCH  47  61
BRANCH  48  73
ATOM     73  C   UNL A   1      49.508  26.478  26.188  1.00  0.00     0.058 A 
ATOM     74  C   UNL A   1      49.930  26.669  24.864  1.00  0.00     0.135 A 
ATOM     75  C   UNL A   1      50.418  25.895  27.087  1.00  0.00     0.135 A 
ATOM     76  F   UNL A   1      49.098  27.220  23.969  1.00  0.00    -0.206 F 
ATOM     77  C   UNL A   1      51.202  26.292  24.444  1.00  0.00     0.059 A 
ATOM     78  C   UNL A   1      51.704  25.536  26.697  1.00  0.00     0.059 A 
ATOM     79  F   UNL A   1      50.069  25.708  28.369  1.00  0.00    -0.206 F 
ATOM     80  C   UNL A   1      52.084  25.732  25.369  1.00  0.00     0.060 A 
BRANCH  80  81
ATOM     81  S   UNL A   1      53.748  25.297  24.821  1.00  0.00     0.124 S 
ATOM     82  O   UNL A   1      53.690  23.840  24.835  1.00  0.00    -0.237 OA
ATOM     83  O   UNL A   1      53.805  25.922  23.503  1.00  0.00    -0.237 OA
ATOM     84  O   UNL A   1      54.606  25.904  25.833  1.00  0.00    -0.744 OA
ENDBRANCH  80  81
ENDBRANCH  48  73
BRANCH  60  85
ATOM     85  C   UNL A   1      43.301  23.314  26.893  1.00  0.00     0.058 A 
ATOM     86  C   UNL A   1      43.188  22.764  25.608  1.00  0.00     0.135 A 
ATOM     87  C   UNL A   1      43.094  22.464  27.992  1.00  0.00     0.135 A 
ATOM     88  F   UNL A   1      43.364  23.535  24.524  1.00  0.00    -0.206 F 
ATOM     89  C   UNL A   1      42.903  21.415  25.419  1.00  0.00     0.059 A 
ATOM     90  C   UNL A   1      42.833  21.107  27.828  1.00  0.00     0.059 A 
ATOM     91  F   UNL A   1      43.195  22.941  29.243  1.00  0.00    -0.206 F 
ATOM     92  C   UNL A   1      42.746  20.590  26.535  1.00  0.00     0.060 A 
BRANCH  92  93
ATOM     93  S   UNL A   1      42.485  18.823  26.270  1.00  0.00     0.124 S 
ATOM     94  O   UNL A   1      41.166  18.809  25.646  1.00  0.00    -0.237 OA
ATOM     95  O   UNL A   1      43.602  18.474  25.399  1.00  0.00    -0.237 OA
ATOM     96  O   UNL A   1      42.547  18.262  27.617  1.00  0.00    -0.744 OA
ENDBRANCH  92  93
ENDBRANCH  60  85
ENDBRANCH  34  35
ENDBRANCH  27  29
ENDBRANCH  26  27
ENDBRANCH  25  26
ENDBRANCH   1  25
TORSDOF 19
ENDMDL
