MODEL 1
REMARK VINA RESULT:     -11.0      0.000      0.000
REMARK SMILES O=C(OCCOCCOC(=O)c1csc(S(=O)(=O)Nc2cccc(S(=O)(=O)N3CCCC3)c2)c1)c1ccc(-c2c3nc(c(-c4c(F)cc(S(=O)(=O)[O-])cc4F)c4ccc([nH]4)c(-c4c(F)cc(S(=O)(=O)[O-])cc4F)c4nc(c(-c5c(F)cc(S(=O)(=O)[O-])cc5F)c5ccc2[nH]5)C=C4)C=C3)cc1
REMARK SMILES IDX 7 1 6 2 5 3 4 4 3 5 2 6 1 7 35 8 36 9 100 10 37 11 99 12
REMARK SMILES IDX 38 13 39 14 40 15 93 16 41 17 98 18 92 19 94 20 42 21 97 22
REMARK SMILES IDX 91 23 90 24 43 26 77 27 56 28 76 29 57 30 60 31 75 32 95 33
REMARK SMILES IDX 58 34 59 35 74 37 96 38 61 39 44 40 45 41 54 42 46 43 47 44
REMARK SMILES IDX 53 45 55 46 48 47 49 48 50 49 51 50 52 51 78 52 79 53 88 54
REMARK SMILES IDX 80 55 81 56 87 57 89 58 82 59 83 60 84 61 85 62 86 63 62 64
REMARK SMILES IDX 63 65 72 66 64 67 65 68 71 69 73 70 66 71 67 72 68 73 69 74
REMARK SMILES IDX 70 75 8 76 9 77 10 78 11 79 12 80 13 81 34 82 14 83 15 84
REMARK SMILES IDX 16 85 17 86 18 87 19 88 20 90 21 91 33 92 22 93 24 94 23 95
REMARK SMILES IDX 25 96 26 97 27 98 28 99 29 100 32 101 30 102 31 103
REMARK H PARENT 94 25 60 36 19 89
REMARK Flexibility Score: inf
ROOT
ATOM      1  C   UNL A   1      33.748  30.918  27.229  1.00  0.00     0.202 C 
ENDROOT
BRANCH   1   2
ATOM      2  O   UNL A   1      33.682  32.106  28.024  1.00  0.00    -0.374 OA
BRANCH   2   3
ATOM      3  C   UNL A   1      34.941  32.637  28.431  1.00  0.00     0.202 C 
BRANCH   3   4
ATOM      4  C   UNL A   1      35.247  32.529  29.924  1.00  0.00     0.261 C 
BRANCH   4   5
ATOM      5  O   UNL A   1      35.705  31.202  30.274  1.00  0.00    -0.460 OA
BRANCH   5   6
ATOM      6  C   UNL A   1      36.820  30.886  30.992  1.00  0.00     0.338 C 
ATOM      7  O   UNL A   1      36.864  31.079  32.201  1.00  0.00    -0.246 OA
BRANCH   6   8
ATOM      8  C   UNL A   1      37.994  30.312  30.291  1.00  0.00     0.060 A 
ATOM      9  C   UNL A   1      38.914  29.556  30.995  1.00  0.00     0.016 A 
ATOM     10  C   UNL A   1      38.208  30.530  28.928  1.00  0.00     0.016 A 
ATOM     11  C   UNL A   1      40.167  29.334  30.481  1.00  0.00     0.010 A 
ATOM     12  C   UNL A   1      39.395  30.077  28.330  1.00  0.00     0.010 A 
ATOM     13  C   UNL A   1      40.415  29.529  29.125  1.00  0.00    -0.014 A 
BRANCH  13  14
ATOM     14  C   UNL A   1      41.770  29.163  28.642  1.00  0.00     0.031 A 
ATOM     15  C   UNL A   1      42.923  30.098  28.866  1.00  0.00     0.074 A 
ATOM     16  C   UNL A   1      41.968  27.908  28.178  1.00  0.00     0.049 A 
ATOM     17  N   UNL A   1      44.175  29.946  28.528  1.00  0.00    -0.248 NA
ATOM     18  C   UNL A   1      42.640  31.370  29.551  1.00  0.00     0.031 C 
ATOM     19  C   UNL A   1      40.914  26.897  28.001  1.00  0.00     0.029 A 
ATOM     20  N   UNL A   1      43.115  27.227  27.864  1.00  0.00    -0.354 N 
ATOM     21  C   UNL A   1      44.810  31.128  28.885  1.00  0.00     0.074 A 
ATOM     22  C   UNL A   1      43.812  31.984  29.486  1.00  0.00     0.031 C 
ATOM     23  C   UNL A   1      41.474  25.704  27.765  1.00  0.00     0.029 A 
ATOM     24  C   UNL A   1      42.908  25.890  27.608  1.00  0.00     0.049 A 
ATOM     25  H   UNL A   1      44.001  27.654  27.827  1.00  0.00     0.167 HD
ATOM     26  C   UNL A   1      46.109  31.466  28.704  1.00  0.00     0.037 A 
ATOM     27  C   UNL A   1      43.772  24.925  27.245  1.00  0.00     0.037 A 
ATOM     28  C   UNL A   1      47.084  30.567  28.148  1.00  0.00     0.049 A 
ATOM     29  C   UNL A   1      45.202  25.329  27.039  1.00  0.00     0.074 A 
ATOM     30  C   UNL A   1      48.415  30.801  27.861  1.00  0.00     0.029 A 
ATOM     31  N   UNL A   1      46.827  29.243  27.810  1.00  0.00    -0.354 N 
ATOM     32  N   UNL A   1      45.766  26.491  27.273  1.00  0.00    -0.248 NA
ATOM     33  C   UNL A   1      46.102  24.317  26.479  1.00  0.00     0.031 C 
ATOM     34  C   UNL A   1      48.956  29.628  27.321  1.00  0.00     0.029 A 
ATOM     35  C   UNL A   1      47.973  28.649  27.313  1.00  0.00     0.049 A 
ATOM     36  H   UNL A   1      45.956  28.794  27.910  1.00  0.00     0.167 HD
ATOM     37  C   UNL A   1      47.090  26.354  26.885  1.00  0.00     0.074 A 
ATOM     38  C   UNL A   1      47.248  24.983  26.433  1.00  0.00     0.031 C 
ATOM     39  C   UNL A   1      48.085  27.275  26.885  1.00  0.00     0.037 A 
BRANCH  26  40
ATOM     40  C   UNL A   1      46.504  32.881  29.029  1.00  0.00     0.058 A 
ATOM     41  C   UNL A   1      46.991  33.260  30.288  1.00  0.00     0.135 A 
ATOM     42  C   UNL A   1      46.353  33.885  28.058  1.00  0.00     0.135 A 
ATOM     43  F   UNL A   1      47.129  32.348  31.263  1.00  0.00    -0.206 F 
ATOM     44  C   UNL A   1      47.281  34.590  30.586  1.00  0.00     0.059 A 
ATOM     45  C   UNL A   1      46.659  35.217  28.325  1.00  0.00     0.059 A 
ATOM     46  F   UNL A   1      45.884  33.581  26.838  1.00  0.00    -0.206 F 
ATOM     47  C   UNL A   1      47.103  35.562  29.599  1.00  0.00     0.060 A 
BRANCH  47  48
ATOM     48  S   UNL A   1      47.451  37.288  30.004  1.00  0.00     0.124 S 
ATOM     49  O   UNL A   1      47.347  37.272  31.460  1.00  0.00    -0.237 OA
ATOM     50  O   UNL A   1      48.794  37.472  29.466  1.00  0.00    -0.237 OA
ATOM     51  O   UNL A   1      46.396  38.018  29.308  1.00  0.00    -0.744 OA
ENDBRANCH  47  48
ENDBRANCH  26  40
BRANCH  27  52
ATOM     52  C   UNL A   1      43.299  23.536  26.983  1.00  0.00     0.058 A 
ATOM     53  C   UNL A   1      43.184  23.035  25.678  1.00  0.00     0.135 A 
ATOM     54  C   UNL A   1      42.966  22.670  28.039  1.00  0.00     0.135 A 
ATOM     55  F   UNL A   1      43.481  23.818  24.630  1.00  0.00    -0.206 F 
ATOM     56  C   UNL A   1      42.749  21.734  25.429  1.00  0.00     0.059 A 
ATOM     57  C   UNL A   1      42.564  21.356  27.818  1.00  0.00     0.059 A 
ATOM     58  F   UNL A   1      43.065  23.088  29.311  1.00  0.00    -0.206 F 
ATOM     59  C   UNL A   1      42.444  20.901  26.508  1.00  0.00     0.060 A 
BRANCH  59  60
ATOM     60  S   UNL A   1      41.916  19.205  26.185  1.00  0.00     0.124 S 
ATOM     61  O   UNL A   1      42.236  18.553  27.449  1.00  0.00    -0.237 OA
ATOM     62  O   UNL A   1      40.496  19.373  25.892  1.00  0.00    -0.237 OA
ATOM     63  O   UNL A   1      42.739  18.810  25.044  1.00  0.00    -0.744 OA
ENDBRANCH  59  60
ENDBRANCH  27  52
BRANCH  39  64
ATOM     64  C   UNL A   1      49.428  26.807  26.417  1.00  0.00     0.058 A 
ATOM     65  C   UNL A   1      49.798  26.870  25.066  1.00  0.00     0.135 A 
ATOM     66  C   UNL A   1      50.364  26.319  27.341  1.00  0.00     0.135 A 
ATOM     67  F   UNL A   1      48.929  27.319  24.146  1.00  0.00    -0.206 F 
ATOM     68  C   UNL A   1      51.048  26.438  24.641  1.00  0.00     0.059 A 
ATOM     69  C   UNL A   1      51.628  25.907  26.942  1.00  0.00     0.059 A 
ATOM     70  F   UNL A   1      50.053  26.248  28.645  1.00  0.00    -0.206 F 
ATOM     71  C   UNL A   1      51.956  25.958  25.588  1.00  0.00     0.060 A 
BRANCH  71  72
ATOM     72  S   UNL A   1      53.587  25.427  25.031  1.00  0.00     0.124 S 
ATOM     73  O   UNL A   1      54.457  26.120  25.976  1.00  0.00    -0.237 OA
ATOM     74  O   UNL A   1      53.514  23.977  25.181  1.00  0.00    -0.237 OA
ATOM     75  O   UNL A   1      53.646  25.905  23.653  1.00  0.00    -0.744 OA
ENDBRANCH  71  72
ENDBRANCH  39  64
ENDBRANCH  13  14
ENDBRANCH   6   8
ENDBRANCH   5   6
ENDBRANCH   4   5
ENDBRANCH   3   4
ENDBRANCH   2   3
ENDBRANCH   1   2
BRANCH   1  76
ATOM     76  C   UNL A   1      32.410  30.175  27.216  1.00  0.00     0.261 C 
BRANCH  76  77
ATOM     77  O   UNL A   1      32.476  29.040  26.335  1.00  0.00    -0.460 OA
BRANCH  77  78
ATOM     78  C   UNL A   1      31.984  27.874  26.855  1.00  0.00     0.339 C 
ATOM     79  O   UNL A   1      31.515  27.735  27.969  1.00  0.00    -0.246 OA
BRANCH  78  80
ATOM     80  C   UNL A   1      31.929  26.823  25.840  1.00  0.00     0.072 A 
ATOM     81  C   UNL A   1      31.147  25.690  25.934  1.00  0.00     0.082 A 
ATOM     82  C   UNL A   1      32.731  26.795  24.644  1.00  0.00     0.050 A 
ATOM     83  S   UNL A   1      31.338  24.652  24.590  1.00  0.00    -0.130 S 
ATOM     84  C   UNL A   1      32.586  25.623  23.929  1.00  0.00     0.141 A 
BRANCH  84  85
ATOM     85  S   UNL A   1      33.382  24.973  22.478  1.00  0.00     0.271 S 
ATOM     86  O   UNL A   1      32.485  23.980  21.932  1.00  0.00    -0.200 OA
ATOM     87  O   UNL A   1      33.756  26.144  21.714  1.00  0.00    -0.200 OA
BRANCH  85  88
ATOM     88  N   UNL A   1      34.819  24.231  22.916  1.00  0.00    -0.279 N 
ATOM     89  H   UNL A   1      35.653  24.662  22.619  1.00  0.00     0.180 HD
BRANCH  88  90
ATOM     90  C   UNL A   1      34.948  23.032  23.682  1.00  0.00     0.050 A 
ATOM     91  C   UNL A   1      36.265  22.621  23.932  1.00  0.00     0.027 A 
ATOM     92  C   UNL A   1      33.893  22.217  24.099  1.00  0.00     0.048 A 
ATOM     93  C   UNL A   1      36.531  21.440  24.627  1.00  0.00     0.004 A 
ATOM     94  C   UNL A   1      34.158  21.032  24.802  1.00  0.00     0.084 A 
ATOM     95  C   UNL A   1      35.477  20.650  25.075  1.00  0.00     0.022 A 
BRANCH  94  96
ATOM     96  S   UNL A   1      32.863  19.973  25.448  1.00  0.00     0.243 S 
ATOM     97  O   UNL A   1      33.284  19.586  26.776  1.00  0.00    -0.207 OA
ATOM     98  O   UNL A   1      31.624  20.688  25.231  1.00  0.00    -0.207 OA
BRANCH  96  99
ATOM     99  N   UNL A   1      32.830  18.617  24.484  1.00  0.00    -0.198 NA
ATOM    100  C   UNL A   1      33.641  17.437  24.759  1.00  0.00     0.102 C 
ATOM    101  C   UNL A   1      32.239  18.529  23.150  1.00  0.00     0.102 C 
ATOM    102  C   UNL A   1      34.180  17.070  23.393  1.00  0.00     0.018 C 
ATOM    103  C   UNL A   1      33.072  17.468  22.428  1.00  0.00     0.018 C 
ENDBRANCH  96  99
ENDBRANCH  94  96
ENDBRANCH  88  90
ENDBRANCH  85  88
ENDBRANCH  84  85
ENDBRANCH  78  80
ENDBRANCH  77  78
ENDBRANCH  76  77
ENDBRANCH   1  76
TORSDOF 22
ENDMDL
MODEL 2
REMARK VINA RESULT:     -10.8      1.870      8.268
REMARK SMILES O=C(OCCOCCOC(=O)c1csc(S(=O)(=O)Nc2cccc(S(=O)(=O)N3CCCC3)c2)c1)c1ccc(-c2c3nc(c(-c4c(F)cc(S(=O)(=O)[O-])cc4F)c4ccc([nH]4)c(-c4c(F)cc(S(=O)(=O)[O-])cc4F)c4nc(c(-c5c(F)cc(S(=O)(=O)[O-])cc5F)c5ccc2[nH]5)C=C4)C=C3)cc1
REMARK SMILES IDX 7 1 6 2 5 3 4 4 3 5 2 6 1 7 35 8 36 9 100 10 37 11 99 12
REMARK SMILES IDX 38 13 39 14 40 15 93 16 41 17 98 18 92 19 94 20 42 21 97 22
REMARK SMILES IDX 91 23 90 24 43 26 77 27 56 28 76 29 57 30 60 31 75 32 95 33
REMARK SMILES IDX 58 34 59 35 74 37 96 38 61 39 44 40 45 41 54 42 46 43 47 44
REMARK SMILES IDX 53 45 55 46 48 47 49 48 50 49 51 50 52 51 78 52 79 53 88 54
REMARK SMILES IDX 80 55 81 56 87 57 89 58 82 59 83 60 84 61 85 62 86 63 62 64
REMARK SMILES IDX 63 65 72 66 64 67 65 68 71 69 73 70 66 71 67 72 68 73 69 74
REMARK SMILES IDX 70 75 8 76 9 77 10 78 11 79 12 80 13 81 34 82 14 83 15 84
REMARK SMILES IDX 16 85 17 86 18 87 19 88 20 90 21 91 33 92 22 93 24 94 23 95
REMARK SMILES IDX 25 96 26 97 27 98 28 99 29 100 32 101 30 102 31 103
REMARK H PARENT 94 25 60 36 19 89
REMARK Flexibility Score: inf
ROOT
ATOM      1  C   UNL A   1      34.842  31.750  27.646  1.00  0.00     0.202 C 
ENDROOT
BRANCH   1   2
ATOM      2  O   UNL A   1      34.913  33.120  28.055  1.00  0.00    -0.374 OA
BRANCH   2   3
ATOM      3  C   UNL A   1      35.488  33.341  29.341  1.00  0.00     0.202 C 
BRANCH   3   4
ATOM      4  C   UNL A   1      34.846  32.564  30.490  1.00  0.00     0.261 C 
BRANCH   4   5
ATOM      5  O   UNL A   1      35.550  31.326  30.745  1.00  0.00    -0.460 OA
BRANCH   5   6
ATOM      6  C   UNL A   1      36.698  31.172  31.464  1.00  0.00     0.338 C 
ATOM      7  O   UNL A   1      36.757  31.526  32.636  1.00  0.00    -0.246 OA
BRANCH   6   8
ATOM      8  C   UNL A   1      37.889  30.580  30.809  1.00  0.00     0.060 A 
ATOM      9  C   UNL A   1      38.816  29.884  31.565  1.00  0.00     0.016 A 
ATOM     10  C   UNL A   1      38.112  30.721  29.437  1.00  0.00     0.016 A 
ATOM     11  C   UNL A   1      40.077  29.656  31.076  1.00  0.00     0.010 A 
ATOM     12  C   UNL A   1      39.313  30.255  28.878  1.00  0.00     0.010 A 
ATOM     13  C   UNL A   1      40.334  29.774  29.713  1.00  0.00    -0.014 A 
BRANCH  13  14
ATOM     14  C   UNL A   1      41.700  29.406  29.264  1.00  0.00     0.031 A 
ATOM     15  C   UNL A   1      41.954  28.049  28.672  1.00  0.00     0.074 A 
ATOM     16  C   UNL A   1      42.646  30.372  29.224  1.00  0.00     0.049 A 
ATOM     17  N   UNL A   1      43.072  27.554  28.214  1.00  0.00    -0.248 NA
ATOM     18  C   UNL A   1      40.811  27.124  28.585  1.00  0.00     0.031 C 
ATOM     19  C   UNL A   1      42.464  31.750  29.706  1.00  0.00     0.029 A 
ATOM     20  N   UNL A   1      43.902  30.391  28.680  1.00  0.00    -0.354 N 
ATOM     21  C   UNL A   1      42.788  26.241  27.862  1.00  0.00     0.074 A 
ATOM     22  C   UNL A   1      41.387  26.018  28.137  1.00  0.00     0.031 C 
ATOM     23  C   UNL A   1      43.492  32.505  29.300  1.00  0.00     0.029 A 
ATOM     24  C   UNL A   1      44.483  31.640  28.679  1.00  0.00     0.049 A 
ATOM     25  H   UNL A   1      44.347  29.588  28.323  1.00  0.00     0.167 HD
ATOM     26  C   UNL A   1      43.636  25.306  27.371  1.00  0.00     0.037 A 
ATOM     27  C   UNL A   1      45.698  32.039  28.262  1.00  0.00     0.037 A 
ATOM     28  C   UNL A   1      45.015  25.581  27.062  1.00  0.00     0.049 A 
ATOM     29  C   UNL A   1      46.622  30.983  27.734  1.00  0.00     0.074 A 
ATOM     30  C   UNL A   1      45.992  24.714  26.612  1.00  0.00     0.029 A 
ATOM     31  N   UNL A   1      45.604  26.837  27.157  1.00  0.00    -0.354 N 
ATOM     32  N   UNL A   1      46.372  29.712  27.513  1.00  0.00    -0.248 NA
ATOM     33  C   UNL A   1      47.998  31.392  27.442  1.00  0.00     0.031 C 
ATOM     34  C   UNL A   1      47.181  25.439  26.465  1.00  0.00     0.029 A 
ATOM     35  C   UNL A   1      46.933  26.767  26.779  1.00  0.00     0.049 A 
ATOM     36  H   UNL A   1      45.142  27.656  27.450  1.00  0.00     0.167 HD
ATOM     37  C   UNL A   1      47.563  29.166  27.060  1.00  0.00     0.074 A 
ATOM     38  C   UNL A   1      48.523  30.254  27.006  1.00  0.00     0.031 C 
ATOM     39  C   UNL A   1      47.848  27.882  26.731  1.00  0.00     0.037 A 
BRANCH  26  40
ATOM     40  C   UNL A   1      43.111  23.904  27.231  1.00  0.00     0.058 A 
ATOM     41  C   UNL A   1      42.982  23.033  28.323  1.00  0.00     0.135 A 
ATOM     42  C   UNL A   1      42.764  23.414  25.961  1.00  0.00     0.135 A 
ATOM     43  F   UNL A   1      43.325  23.438  29.556  1.00  0.00    -0.206 F 
ATOM     44  C   UNL A   1      42.562  21.715  28.157  1.00  0.00     0.059 A 
ATOM     45  C   UNL A   1      42.319  22.108  25.774  1.00  0.00     0.059 A 
ATOM     46  F   UNL A   1      42.876  24.201  24.879  1.00  0.00    -0.206 F 
ATOM     47  C   UNL A   1      42.241  21.260  26.876  1.00  0.00     0.060 A 
BRANCH  47  48
ATOM     48  S   UNL A   1      41.728  19.541  26.665  1.00  0.00     0.124 S 
ATOM     49  O   UNL A   1      43.009  18.844  26.741  1.00  0.00    -0.237 OA
ATOM     50  O   UNL A   1      40.830  19.340  27.796  1.00  0.00    -0.237 OA
ATOM     51  O   UNL A   1      41.088  19.536  25.353  1.00  0.00    -0.744 OA
ENDBRANCH  47  48
ENDBRANCH  26  40
BRANCH  27  52
ATOM     52  C   UNL A   1      46.122  33.461  28.399  1.00  0.00     0.058 A 
ATOM     53  C   UNL A   1      45.921  34.389  27.366  1.00  0.00     0.135 A 
ATOM     54  C   UNL A   1      46.727  33.930  29.579  1.00  0.00     0.135 A 
ATOM     55  F   UNL A   1      45.355  33.998  26.213  1.00  0.00    -0.206 F 
ATOM     56  C   UNL A   1      46.310  35.721  27.492  1.00  0.00     0.059 A 
ATOM     57  C   UNL A   1      47.091  35.263  29.743  1.00  0.00     0.059 A 
ATOM     58  F   UNL A   1      46.937  33.093  30.606  1.00  0.00    -0.206 F 
ATOM     59  C   UNL A   1      46.893  36.149  28.687  1.00  0.00     0.060 A 
BRANCH  59  60
ATOM     60  S   UNL A   1      47.362  37.884  28.863  1.00  0.00     0.124 S 
ATOM     61  O   UNL A   1      48.816  37.802  28.790  1.00  0.00    -0.237 OA
ATOM     62  O   UNL A   1      46.697  38.502  27.721  1.00  0.00    -0.237 OA
ATOM     63  O   UNL A   1      46.814  38.247  30.168  1.00  0.00    -0.744 OA
ENDBRANCH  59  60
ENDBRANCH  27  52
BRANCH  39  64
ATOM     64  C   UNL A   1      49.241  27.609  26.252  1.00  0.00     0.058 A 
ATOM     65  C   UNL A   1      50.294  27.382  27.149  1.00  0.00     0.135 A 
ATOM     66  C   UNL A   1      49.511  27.545  24.878  1.00  0.00     0.135 A 
ATOM     67  F   UNL A   1      50.082  27.445  28.473  1.00  0.00    -0.206 F 
ATOM     68  C   UNL A   1      51.582  27.124  26.696  1.00  0.00     0.059 A 
ATOM     69  C   UNL A   1      50.785  27.263  24.403  1.00  0.00     0.059 A 
ATOM     70  F   UNL A   1      48.530  27.749  23.984  1.00  0.00    -0.206 F 
ATOM     71  C   UNL A   1      51.816  27.068  25.320  1.00  0.00     0.060 A 
BRANCH  71  72
ATOM     72  S   UNL A   1      53.486  26.704  24.741  1.00  0.00     0.124 S 
ATOM     73  O   UNL A   1      53.788  27.899  23.958  1.00  0.00    -0.237 OA
ATOM     74  O   UNL A   1      54.227  26.558  25.989  1.00  0.00    -0.237 OA
ATOM     75  O   UNL A   1      53.316  25.475  23.972  1.00  0.00    -0.744 OA
ENDBRANCH  71  72
ENDBRANCH  39  64
ENDBRANCH  13  14
ENDBRANCH   6   8
ENDBRANCH   5   6
ENDBRANCH   4   5
ENDBRANCH   3   4
ENDBRANCH   2   3
ENDBRANCH   1   2
BRANCH   1  76
ATOM     76  C   UNL A   1      33.409  31.345  27.288  1.00  0.00     0.261 C 
BRANCH  76  77
ATOM     77  O   UNL A   1      33.181  29.965  27.626  1.00  0.00    -0.460 OA
BRANCH  77  78
ATOM     78  C   UNL A   1      33.836  29.060  26.837  1.00  0.00     0.339 C 
ATOM     79  O   UNL A   1      35.002  28.732  26.949  1.00  0.00    -0.246 OA
BRANCH  78  80
ATOM     80  C   UNL A   1      32.913  28.388  25.924  1.00  0.00     0.072 A 
ATOM     81  C   UNL A   1      32.653  28.803  24.633  1.00  0.00     0.082 A 
ATOM     82  C   UNL A   1      32.103  27.248  26.268  1.00  0.00     0.050 A 
ATOM     83  S   UNL A   1      31.505  27.811  23.848  1.00  0.00    -0.130 S 
ATOM     84  C   UNL A   1      31.217  26.898  25.268  1.00  0.00     0.141 A 
BRANCH  84  85
ATOM     85  S   UNL A   1      29.915  25.691  25.160  1.00  0.00     0.271 S 
ATOM     86  O   UNL A   1      29.689  25.215  26.506  1.00  0.00    -0.200 OA
ATOM     87  O   UNL A   1      28.867  26.354  24.415  1.00  0.00    -0.200 OA
BRANCH  85  88
ATOM     88  N   UNL A   1      30.422  24.412  24.204  1.00  0.00    -0.279 N 
ATOM     89  H   UNL A   1      29.731  23.946  23.679  1.00  0.00     0.180 HD
BRANCH  88  90
ATOM     90  C   UNL A   1      31.762  23.934  24.077  1.00  0.00     0.050 A 
ATOM     91  C   UNL A   1      32.299  23.994  22.783  1.00  0.00     0.027 A 
ATOM     92  C   UNL A   1      32.513  23.342  25.095  1.00  0.00     0.048 A 
ATOM     93  C   UNL A   1      33.581  23.515  22.512  1.00  0.00     0.004 A 
ATOM     94  C   UNL A   1      33.805  22.863  24.826  1.00  0.00     0.084 A 
ATOM     95  C   UNL A   1      34.342  22.960  23.537  1.00  0.00     0.022 A 
BRANCH  94  96
ATOM     96  S   UNL A   1      34.868  22.169  26.091  1.00  0.00     0.243 S 
ATOM     97  O   UNL A   1      34.486  22.804  27.333  1.00  0.00    -0.207 OA
ATOM     98  O   UNL A   1      34.793  20.733  25.927  1.00  0.00    -0.207 OA
BRANCH  96  99
ATOM     99  N   UNL A   1      36.423  22.632  25.715  1.00  0.00    -0.198 NA
ATOM    100  C   UNL A   1      37.399  21.714  25.141  1.00  0.00     0.102 C 
ATOM    101  C   UNL A   1      37.075  23.867  26.145  1.00  0.00     0.102 C 
ATOM    102  C   UNL A   1      38.655  22.019  25.929  1.00  0.00     0.018 C 
ATOM    103  C   UNL A   1      38.560  23.508  26.233  1.00  0.00     0.018 C 
ENDBRANCH  96  99
ENDBRANCH  94  96
ENDBRANCH  88  90
ENDBRANCH  85  88
ENDBRANCH  84  85
ENDBRANCH  78  80
ENDBRANCH  77  78
ENDBRANCH  76  77
ENDBRANCH   1  76
TORSDOF 22
ENDMDL
MODEL 3
REMARK VINA RESULT:     -10.8      1.601      8.355
REMARK SMILES O=C(OCCOCCOC(=O)c1csc(S(=O)(=O)Nc2cccc(S(=O)(=O)N3CCCC3)c2)c1)c1ccc(-c2c3nc(c(-c4c(F)cc(S(=O)(=O)[O-])cc4F)c4ccc([nH]4)c(-c4c(F)cc(S(=O)(=O)[O-])cc4F)c4nc(c(-c5c(F)cc(S(=O)(=O)[O-])cc5F)c5ccc2[nH]5)C=C4)C=C3)cc1
REMARK SMILES IDX 7 1 6 2 5 3 4 4 3 5 2 6 1 7 35 8 36 9 100 10 37 11 99 12
REMARK SMILES IDX 38 13 39 14 40 15 93 16 41 17 98 18 92 19 94 20 42 21 97 22
REMARK SMILES IDX 91 23 90 24 43 26 77 27 56 28 76 29 57 30 60 31 75 32 95 33
REMARK SMILES IDX 58 34 59 35 74 37 96 38 61 39 44 40 45 41 54 42 46 43 47 44
REMARK SMILES IDX 53 45 55 46 48 47 49 48 50 49 51 50 52 51 78 52 79 53 88 54
REMARK SMILES IDX 80 55 81 56 87 57 89 58 82 59 83 60 84 61 85 62 86 63 62 64
REMARK SMILES IDX 63 65 72 66 64 67 65 68 71 69 73 70 66 71 67 72 68 73 69 74
REMARK SMILES IDX 70 75 8 76 9 77 10 78 11 79 12 80 13 81 34 82 14 83 15 84
REMARK SMILES IDX 16 85 17 86 18 87 19 88 20 90 21 91 33 92 22 93 24 94 23 95
REMARK SMILES IDX 25 96 26 97 27 98 28 99 29 100 32 101 30 102 31 103
REMARK H PARENT 94 25 60 36 19 89
REMARK Flexibility Score: inf
ROOT
ATOM      1  C   UNL A   1      35.138  31.683  28.080  1.00  0.00     0.202 C 
ENDROOT
BRANCH   1   2
ATOM      2  O   UNL A   1      35.544  33.003  28.456  1.00  0.00    -0.374 OA
BRANCH   2   3
ATOM      3  C   UNL A   1      35.187  33.395  29.780  1.00  0.00     0.202 C 
BRANCH   3   4
ATOM      4  C   UNL A   1      35.176  32.272  30.816  1.00  0.00     0.261 C 
BRANCH   4   5
ATOM      5  O   UNL A   1      36.519  31.865  31.166  1.00  0.00    -0.460 OA
BRANCH   5   6
ATOM      6  C   UNL A   1      37.023  30.599  31.137  1.00  0.00     0.338 C 
ATOM      7  O   UNL A   1      36.307  29.633  31.375  1.00  0.00    -0.246 OA
BRANCH   6   8
ATOM      8  C   UNL A   1      38.458  30.397  30.824  1.00  0.00     0.060 A 
ATOM      9  C   UNL A   1      38.931  30.671  29.553  1.00  0.00     0.016 A 
ATOM     10  C   UNL A   1      39.353  29.917  31.783  1.00  0.00     0.016 A 
ATOM     11  C   UNL A   1      40.132  30.156  29.135  1.00  0.00     0.010 A 
ATOM     12  C   UNL A   1      40.674  29.620  31.413  1.00  0.00     0.010 A 
ATOM     13  C   UNL A   1      41.054  29.679  30.062  1.00  0.00    -0.014 A 
BRANCH  13  14
ATOM     14  C   UNL A   1      42.365  29.239  29.524  1.00  0.00     0.031 A 
ATOM     15  C   UNL A   1      42.487  27.903  28.849  1.00  0.00     0.074 A 
ATOM     16  C   UNL A   1      43.377  30.135  29.487  1.00  0.00     0.049 A 
ATOM     17  N   UNL A   1      43.542  27.354  28.309  1.00  0.00    -0.248 NA
ATOM     18  C   UNL A   1      41.275  27.069  28.773  1.00  0.00     0.031 C 
ATOM     19  C   UNL A   1      43.323  31.493  30.049  1.00  0.00     0.029 A 
ATOM     20  N   UNL A   1      44.604  30.093  28.880  1.00  0.00    -0.354 N 
ATOM     21  C   UNL A   1      43.144  26.087  27.902  1.00  0.00     0.074 A 
ATOM     22  C   UNL A   1      41.745  25.952  28.237  1.00  0.00     0.031 C 
ATOM     23  C   UNL A   1      44.384  32.192  29.631  1.00  0.00     0.029 A 
ATOM     24  C   UNL A   1      45.276  31.295  28.915  1.00  0.00     0.049 A 
ATOM     25  H   UNL A   1      44.970  29.282  28.458  1.00  0.00     0.167 HD
ATOM     26  C   UNL A   1      43.895  25.123  27.319  1.00  0.00     0.037 A 
ATOM     27  C   UNL A   1      46.496  31.628  28.457  1.00  0.00     0.037 A 
ATOM     28  C   UNL A   1      45.273  25.315  26.954  1.00  0.00     0.049 A 
ATOM     29  C   UNL A   1      47.312  30.539  27.827  1.00  0.00     0.074 A 
ATOM     30  C   UNL A   1      46.160  24.406  26.409  1.00  0.00     0.029 A 
ATOM     31  N   UNL A   1      45.959  26.517  27.085  1.00  0.00    -0.354 N 
ATOM     32  N   UNL A   1      46.958  29.305  27.553  1.00  0.00    -0.248 NA
ATOM     33  C   UNL A   1      48.700  30.863  27.486  1.00  0.00     0.031 C 
ATOM     34  C   UNL A   1      47.392  25.050  26.239  1.00  0.00     0.029 A 
ATOM     35  C   UNL A   1      47.259  26.373  26.636  1.00  0.00     0.049 A 
ATOM     36  H   UNL A   1      45.575  27.349  27.444  1.00  0.00     0.167 HD
ATOM     37  C   UNL A   1      48.081  28.700  27.010  1.00  0.00     0.074 A 
ATOM     38  C   UNL A   1      49.116  29.717  26.964  1.00  0.00     0.031 C 
ATOM     39  C   UNL A   1      48.253  27.419  26.599  1.00  0.00     0.037 A 
BRANCH  26  40
ATOM     40  C   UNL A   1      43.259  23.773  27.133  1.00  0.00     0.058 A 
ATOM     41  C   UNL A   1      43.209  22.813  28.155  1.00  0.00     0.135 A 
ATOM     42  C   UNL A   1      42.720  23.424  25.884  1.00  0.00     0.135 A 
ATOM     43  F   UNL A   1      43.734  23.082  29.362  1.00  0.00    -0.206 F 
ATOM     44  C   UNL A   1      42.681  21.543  27.936  1.00  0.00     0.059 A 
ATOM     45  C   UNL A   1      42.165  22.169  25.648  1.00  0.00     0.059 A 
ATOM     46  F   UNL A   1      42.748  24.300  24.867  1.00  0.00    -0.206 F 
ATOM     47  C   UNL A   1      42.169  21.228  26.675  1.00  0.00     0.060 A 
BRANCH  47  48
ATOM     48  S   UNL A   1      41.515  19.569  26.390  1.00  0.00     0.124 S 
ATOM     49  O   UNL A   1      42.330  19.124  25.264  1.00  0.00    -0.237 OA
ATOM     50  O   UNL A   1      41.777  18.905  27.663  1.00  0.00    -0.237 OA
ATOM     51  O   UNL A   1      40.106  19.806  26.090  1.00  0.00    -0.744 OA
ENDBRANCH  47  48
ENDBRANCH  26  40
BRANCH  27  52
ATOM     52  C   UNL A   1      47.033  33.006  28.647  1.00  0.00     0.058 A 
ATOM     53  C   UNL A   1      47.747  33.361  29.801  1.00  0.00     0.135 A 
ATOM     54  C   UNL A   1      46.856  33.998  27.666  1.00  0.00     0.135 A 
ATOM     55  F   UNL A   1      47.940  32.458  30.775  1.00  0.00    -0.206 F 
ATOM     56  C   UNL A   1      48.256  34.646  29.981  1.00  0.00     0.059 A 
ATOM     57  C   UNL A   1      47.386  35.276  27.806  1.00  0.00     0.059 A 
ATOM     58  F   UNL A   1      46.191  33.716  26.536  1.00  0.00    -0.206 F 
ATOM     59  C   UNL A   1      48.072  35.596  28.974  1.00  0.00     0.060 A 
BRANCH  59  60
ATOM     60  S   UNL A   1      48.765  37.250  29.192  1.00  0.00     0.124 S 
ATOM     61  O   UNL A   1      50.145  36.944  29.550  1.00  0.00    -0.237 OA
ATOM     62  O   UNL A   1      48.562  37.846  27.875  1.00  0.00    -0.237 OA
ATOM     63  O   UNL A   1      47.945  37.818  30.260  1.00  0.00    -0.744 OA
ENDBRANCH  59  60
ENDBRANCH  27  52
BRANCH  39  64
ATOM     64  C   UNL A   1      49.596  27.074  26.035  1.00  0.00     0.058 A 
ATOM     65  C   UNL A   1      49.883  27.233  24.672  1.00  0.00     0.135 A 
ATOM     66  C   UNL A   1      50.614  26.608  26.880  1.00  0.00     0.135 A 
ATOM     67  F   UNL A   1      48.935  27.667  23.826  1.00  0.00    -0.206 F 
ATOM     68  C   UNL A   1      51.134  26.916  24.158  1.00  0.00     0.059 A 
ATOM     69  C   UNL A   1      51.879  26.309  26.392  1.00  0.00     0.059 A 
ATOM     70  F   UNL A   1      50.385  26.447  28.193  1.00  0.00    -0.206 F 
ATOM     71  C   UNL A   1      52.125  26.454  25.027  1.00  0.00     0.060 A 
BRANCH  71  72
ATOM     72  S   UNL A   1      53.755  26.071  24.355  1.00  0.00     0.124 S 
ATOM     73  O   UNL A   1      54.595  27.032  25.063  1.00  0.00    -0.237 OA
ATOM     74  O   UNL A   1      53.931  24.673  24.735  1.00  0.00    -0.237 OA
ATOM     75  O   UNL A   1      53.595  26.310  22.924  1.00  0.00    -0.744 OA
ENDBRANCH  71  72
ENDBRANCH  39  64
ENDBRANCH  13  14
ENDBRANCH   6   8
ENDBRANCH   5   6
ENDBRANCH   4   5
ENDBRANCH   3   4
ENDBRANCH   2   3
ENDBRANCH   1   2
BRANCH   1  76
ATOM     76  C   UNL A   1      33.711  31.671  27.527  1.00  0.00     0.261 C 
BRANCH  76  77
ATOM     77  O   UNL A   1      33.209  30.324  27.468  1.00  0.00    -0.460 OA
BRANCH  77  78
ATOM     78  C   UNL A   1      33.955  29.460  26.714  1.00  0.00     0.339 C 
ATOM     79  O   UNL A   1      34.977  28.905  27.073  1.00  0.00    -0.246 OA
BRANCH  78  80
ATOM     80  C   UNL A   1      33.284  29.138  25.457  1.00  0.00     0.072 A 
ATOM     81  C   UNL A   1      33.918  29.055  24.233  1.00  0.00     0.082 A 
ATOM     82  C   UNL A   1      31.865  28.931  25.313  1.00  0.00     0.050 A 
ATOM     83  S   UNL A   1      32.839  28.687  22.961  1.00  0.00    -0.130 S 
ATOM     84  C   UNL A   1      31.476  28.782  23.996  1.00  0.00     0.141 A 
BRANCH  84  85
ATOM     85  S   UNL A   1      29.892  28.624  23.203  1.00  0.00     0.271 S 
ATOM     86  O   UNL A   1      29.085  29.722  23.687  1.00  0.00    -0.200 OA
ATOM     87  O   UNL A   1      30.203  28.488  21.797  1.00  0.00    -0.200 OA
BRANCH  85  88
ATOM     88  N   UNL A   1      29.183  27.178  23.662  1.00  0.00    -0.279 N 
ATOM     89  H   UNL A   1      28.201  27.123  23.603  1.00  0.00     0.180 HD
BRANCH  88  90
ATOM     90  C   UNL A   1      29.868  26.014  24.128  1.00  0.00     0.050 A 
ATOM     91  C   UNL A   1      29.642  25.686  25.472  1.00  0.00     0.027 A 
ATOM     92  C   UNL A   1      30.791  25.265  23.394  1.00  0.00     0.048 A 
ATOM     93  C   UNL A   1      30.289  24.602  26.068  1.00  0.00     0.004 A 
ATOM     94  C   UNL A   1      31.438  24.172  23.989  1.00  0.00     0.084 A 
ATOM     95  C   UNL A   1      31.178  23.834  25.323  1.00  0.00     0.022 A 
BRANCH  94  96
ATOM     96  S   UNL A   1      32.570  23.107  23.095  1.00  0.00     0.243 S 
ATOM     97  O   UNL A   1      31.903  21.830  22.962  1.00  0.00    -0.207 OA
ATOM     98  O   UNL A   1      32.987  23.861  21.932  1.00  0.00    -0.207 OA
BRANCH  96  99
ATOM     99  N   UNL A   1      33.908  22.909  24.065  1.00  0.00    -0.198 NA
ATOM    100  C   UNL A   1      34.760  24.022  24.466  1.00  0.00     0.102 C 
ATOM    101  C   UNL A   1      34.543  21.636  24.396  1.00  0.00     0.102 C 
ATOM    102  C   UNL A   1      36.154  23.465  24.280  1.00  0.00     0.018 C 
ATOM    103  C   UNL A   1      36.018  21.984  24.607  1.00  0.00     0.018 C 
ENDBRANCH  96  99
ENDBRANCH  94  96
ENDBRANCH  88  90
ENDBRANCH  85  88
ENDBRANCH  84  85
ENDBRANCH  78  80
ENDBRANCH  77  78
ENDBRANCH  76  77
ENDBRANCH   1  76
TORSDOF 22
ENDMDL
