MODEL 1
REMARK VINA RESULT:     -10.6      0.000      0.000
REMARK SMILES O=C(CC1(C[S@](=O)C[C@H]2Cc3ccccc3S2)CC1)OCCOCCOC(=O)c1ccc(-c2c3nc(c(-c4c(F)cc(S(=O)(=O)[O-])cc4F)c4ccc([nH]4)c(-c4c(F)cc(S(=O)(=O)[O-])cc4F)c4nc(c(-c5c(F)cc(S(=O)(=O)[O-])cc5F)c5ccc2[nH]5)C=C4)C=C3)cc1
REMARK SMILES IDX 22 1 21 2 20 3 2 4 1 5 3 6 4 7 18 8 19 9 5 10 6 11 7 12 8 13
REMARK SMILES IDX 9 14 10 15 17 16 11 17 16 18 12 19 15 20 13 21 14 22 23 23
REMARK SMILES IDX 24 24 25 25 26 26 27 27 28 28 29 29 30 30 94 31 31 32 93 33
REMARK SMILES IDX 32 34 33 35 34 36 87 37 35 38 92 39 86 40 88 41 36 42 91 43
REMARK SMILES IDX 85 44 84 45 37 47 71 48 50 49 70 50 51 51 54 52 69 53 89 54
REMARK SMILES IDX 52 55 53 56 68 58 90 59 55 60 38 61 39 62 48 63 40 64 41 65
REMARK SMILES IDX 47 66 49 67 42 68 43 69 44 70 45 71 46 72 72 73 73 74 82 75
REMARK SMILES IDX 74 76 75 77 81 78 83 79 76 80 77 81 78 82 79 83 80 84 56 85
REMARK SMILES IDX 57 86 66 87 58 88 59 89 65 90 67 91 60 92 61 93 62 94 63 95
REMARK SMILES IDX 64 96
REMARK H PARENT 88 46 54 57
REMARK Flexibility Score: inf
ROOT
ATOM      1  C   UNL A   1      32.867  30.236  27.272  1.00  0.00     0.202 C 
ENDROOT
BRANCH   1   2
ATOM      2  C   UNL A   1      31.957  29.221  26.560  1.00  0.00     0.261 C 
BRANCH   2   3
ATOM      3  O   UNL A   1      31.828  29.350  25.143  1.00  0.00    -0.463 OA
BRANCH   3   4
ATOM      4  C   UNL A   1      31.756  28.239  24.370  1.00  0.00     0.306 C 
ATOM      5  O   UNL A   1      30.937  28.162  23.456  1.00  0.00    -0.252 OA
BRANCH   4   6
ATOM      6  C   UNL A   1      32.605  27.056  24.776  1.00  0.00     0.130 C 
BRANCH   6   7
ATOM      7  C   UNL A   1      31.876  25.761  25.008  1.00  0.00    -0.008 C 
ATOM      8  C   UNL A   1      31.826  25.188  26.418  1.00  0.00     0.009 C 
ATOM      9  C   UNL A   1      30.602  25.826  25.835  1.00  0.00     0.009 C 
BRANCH   7  10
ATOM     10  C   UNL A   1      31.905  24.803  23.850  1.00  0.00     0.112 C 
BRANCH  10  11
ATOM     11  S   UNL A   1      33.570  24.645  23.183  1.00  0.00     0.023 S 
ATOM     12  O   UNL A   1      33.614  25.164  21.780  1.00  0.00    -0.260 OA
BRANCH  11  13
ATOM     13  C   UNL A   1      33.784  22.855  23.214  1.00  0.00     0.120 C 
BRANCH  13  14
ATOM     14  C   UNL A   1      33.249  21.977  24.355  1.00  0.00     0.068 C 
ATOM     15  C   UNL A   1      32.182  20.942  23.930  1.00  0.00     0.052 C 
ATOM     16  S   UNL A   1      34.464  21.064  25.371  1.00  0.00    -0.121 SA
ATOM     17  C   UNL A   1      32.841  19.596  23.900  1.00  0.00    -0.033 A 
ATOM     18  C   UNL A   1      34.040  19.522  24.614  1.00  0.00     0.011 A 
ATOM     19  C   UNL A   1      32.368  18.493  23.196  1.00  0.00     0.005 A 
ATOM     20  C   UNL A   1      34.821  18.377  24.578  1.00  0.00     0.015 A 
ATOM     21  C   UNL A   1      33.144  17.334  23.163  1.00  0.00     0.000 A 
ATOM     22  C   UNL A   1      34.372  17.281  23.835  1.00  0.00     0.001 A 
ENDBRANCH  13  14
ENDBRANCH  11  13
ENDBRANCH  10  11
ENDBRANCH   7  10
ENDBRANCH   6   7
ENDBRANCH   4   6
ENDBRANCH   3   4
ENDBRANCH   2   3
ENDBRANCH   1   2
BRANCH   1  23
ATOM     23  O   UNL A   1      34.152  30.555  26.749  1.00  0.00    -0.374 OA
BRANCH  23  24
ATOM     24  C   UNL A   1      35.030  31.356  27.538  1.00  0.00     0.202 C 
BRANCH  24  25
ATOM     25  C   UNL A   1      35.097  30.968  29.014  1.00  0.00     0.261 C 
BRANCH  25  26
ATOM     26  O   UNL A   1      35.873  29.774  29.168  1.00  0.00    -0.460 OA
BRANCH  26  27
ATOM     27  C   UNL A   1      36.631  29.708  30.289  1.00  0.00     0.338 C 
ATOM     28  O   UNL A   1      36.245  29.513  31.430  1.00  0.00    -0.246 OA
BRANCH  27  29
ATOM     29  C   UNL A   1      38.047  29.628  29.865  1.00  0.00     0.060 A 
ATOM     30  C   UNL A   1      39.086  29.604  30.800  1.00  0.00     0.016 A 
ATOM     31  C   UNL A   1      38.327  29.689  28.490  1.00  0.00     0.016 A 
ATOM     32  C   UNL A   1      40.405  29.594  30.356  1.00  0.00     0.010 A 
ATOM     33  C   UNL A   1      39.646  29.695  28.045  1.00  0.00     0.010 A 
ATOM     34  C   UNL A   1      40.687  29.606  28.978  1.00  0.00    -0.014 A 
BRANCH  34  35
ATOM     35  C   UNL A   1      42.044  29.246  28.524  1.00  0.00     0.031 A 
ATOM     36  C   UNL A   1      43.165  30.231  28.487  1.00  0.00     0.074 A 
ATOM     37  C   UNL A   1      42.222  27.964  28.151  1.00  0.00     0.049 A 
ATOM     38  N   UNL A   1      44.424  30.018  28.211  1.00  0.00    -0.248 NA
ATOM     39  C   UNL A   1      42.839  31.631  28.790  1.00  0.00     0.031 C 
ATOM     40  C   UNL A   1      41.164  26.947  28.129  1.00  0.00     0.029 A 
ATOM     41  N   UNL A   1      43.339  27.292  27.738  1.00  0.00    -0.354 N 
ATOM     42  C   UNL A   1      45.054  31.248  28.334  1.00  0.00     0.074 A 
ATOM     43  C   UNL A   1      44.026  32.215  28.663  1.00  0.00     0.031 C 
ATOM     44  C   UNL A   1      41.690  25.773  27.757  1.00  0.00     0.029 A 
ATOM     45  C   UNL A   1      43.111  25.959  27.493  1.00  0.00     0.049 A 
ATOM     46  H   UNL A   1      44.217  27.720  27.628  1.00  0.00     0.167 HD
ATOM     47  C   UNL A   1      46.374  31.526  28.199  1.00  0.00     0.037 A 
ATOM     48  C   UNL A   1      43.960  24.991  27.108  1.00  0.00     0.037 A 
ATOM     49  C   UNL A   1      47.367  30.542  27.845  1.00  0.00     0.049 A 
ATOM     50  C   UNL A   1      45.408  25.337  26.932  1.00  0.00     0.074 A 
ATOM     51  C   UNL A   1      48.734  30.710  27.706  1.00  0.00     0.029 A 
ATOM     52  N   UNL A   1      47.102  29.207  27.562  1.00  0.00    -0.354 N 
ATOM     53  N   UNL A   1      46.003  26.492  27.119  1.00  0.00    -0.248 NA
ATOM     54  C   UNL A   1      46.300  24.257  26.500  1.00  0.00     0.031 C 
ATOM     55  C   UNL A   1      49.287  29.493  27.294  1.00  0.00     0.029 A 
ATOM     56  C   UNL A   1      48.273  28.549  27.223  1.00  0.00     0.049 A 
ATOM     57  H   UNL A   1      46.211  28.790  27.596  1.00  0.00     0.167 HD
ATOM     58  C   UNL A   1      47.345  26.274  26.840  1.00  0.00     0.074 A 
ATOM     59  C   UNL A   1      47.475  24.872  26.491  1.00  0.00     0.031 C 
ATOM     60  C   UNL A   1      48.376  27.154  26.868  1.00  0.00     0.037 A 
BRANCH  47  61
ATOM     61  C   UNL A   1      46.827  32.938  28.442  1.00  0.00     0.058 A 
ATOM     62  C   UNL A   1      47.339  33.335  29.687  1.00  0.00     0.135 A 
ATOM     63  C   UNL A   1      46.825  33.886  27.405  1.00  0.00     0.135 A 
ATOM     64  F   UNL A   1      47.355  32.475  30.718  1.00  0.00    -0.206 F 
ATOM     65  C   UNL A   1      47.821  34.623  29.900  1.00  0.00     0.059 A 
ATOM     66  C   UNL A   1      47.323  35.174  27.589  1.00  0.00     0.059 A 
ATOM     67  F   UNL A   1      46.346  33.561  26.194  1.00  0.00    -0.206 F 
ATOM     68  C   UNL A   1      47.812  35.535  28.843  1.00  0.00     0.060 A 
BRANCH  68  69
ATOM     69  S   UNL A   1      48.455  37.196  29.139  1.00  0.00     0.124 S 
ATOM     70  O   UNL A   1      49.796  37.093  28.572  1.00  0.00    -0.237 OA
ATOM     71  O   UNL A   1      47.515  38.030  28.396  1.00  0.00    -0.237 OA
ATOM     72  O   UNL A   1      48.398  37.330  30.591  1.00  0.00    -0.744 OA
ENDBRANCH  68  69
ENDBRANCH  47  61
BRANCH  48  73
ATOM     73  C   UNL A   1      43.453  23.609  26.914  1.00  0.00     0.058 A 
ATOM     74  C   UNL A   1      43.229  23.099  25.629  1.00  0.00     0.135 A 
ATOM     75  C   UNL A   1      43.241  22.754  28.008  1.00  0.00     0.135 A 
ATOM     76  F   UNL A   1      43.425  23.878  24.554  1.00  0.00    -0.206 F 
ATOM     77  C   UNL A   1      42.799  21.792  25.432  1.00  0.00     0.059 A 
ATOM     78  C   UNL A   1      42.835  21.435  27.834  1.00  0.00     0.059 A 
ATOM     79  F   UNL A   1      43.469  23.188  29.256  1.00  0.00    -0.206 F 
ATOM     80  C   UNL A   1      42.609  20.966  26.541  1.00  0.00     0.060 A 
BRANCH  80  81
ATOM     81  S   UNL A   1      42.097  19.257  26.267  1.00  0.00     0.124 S 
ATOM     82  O   UNL A   1      40.709  19.430  25.853  1.00  0.00    -0.237 OA
ATOM     83  O   UNL A   1      43.026  18.825  25.226  1.00  0.00    -0.237 OA
ATOM     84  O   UNL A   1      42.295  18.633  27.571  1.00  0.00    -0.744 OA
ENDBRANCH  80  81
ENDBRANCH  48  73
BRANCH  60  85
ATOM     85  C   UNL A   1      49.735  26.624  26.509  1.00  0.00     0.058 A 
ATOM     86  C   UNL A   1      50.561  26.020  27.468  1.00  0.00     0.135 A 
ATOM     87  C   UNL A   1      50.190  26.668  25.182  1.00  0.00     0.135 A 
ATOM     88  F   UNL A   1      50.175  25.964  28.754  1.00  0.00    -0.206 F 
ATOM     89  C   UNL A   1      51.801  25.491  27.128  1.00  0.00     0.059 A 
ATOM     90  C   UNL A   1      51.415  26.121  24.814  1.00  0.00     0.059 A 
ATOM     91  F   UNL A   1      49.434  27.231  24.225  1.00  0.00    -0.206 F 
ATOM     92  C   UNL A   1      52.217  25.541  25.796  1.00  0.00     0.060 A 
BRANCH  92  93
ATOM     93  S   UNL A   1      53.807  24.808  25.364  1.00  0.00     0.124 S 
ATOM     94  O   UNL A   1      54.572  25.021  26.588  1.00  0.00    -0.237 OA
ATOM     95  O   UNL A   1      53.442  23.424  25.077  1.00  0.00    -0.237 OA
ATOM     96  O   UNL A   1      54.240  25.589  24.209  1.00  0.00    -0.744 OA
ENDBRANCH  92  93
ENDBRANCH  60  85
ENDBRANCH  34  35
ENDBRANCH  27  29
ENDBRANCH  26  27
ENDBRANCH  25  26
ENDBRANCH  24  25
ENDBRANCH  23  24
ENDBRANCH   1  23
TORSDOF 22
ENDMDL
MODEL 2
REMARK VINA RESULT:     -10.3      1.594      3.666
REMARK SMILES O=C(CC1(C[S@](=O)C[C@H]2Cc3ccccc3S2)CC1)OCCOCCOC(=O)c1ccc(-c2c3nc(c(-c4c(F)cc(S(=O)(=O)[O-])cc4F)c4ccc([nH]4)c(-c4c(F)cc(S(=O)(=O)[O-])cc4F)c4nc(c(-c5c(F)cc(S(=O)(=O)[O-])cc5F)c5ccc2[nH]5)C=C4)C=C3)cc1
REMARK SMILES IDX 22 1 21 2 20 3 2 4 1 5 3 6 4 7 18 8 19 9 5 10 6 11 7 12 8 13
REMARK SMILES IDX 9 14 10 15 17 16 11 17 16 18 12 19 15 20 13 21 14 22 23 23
REMARK SMILES IDX 24 24 25 25 26 26 27 27 28 28 29 29 30 30 94 31 31 32 93 33
REMARK SMILES IDX 32 34 33 35 34 36 87 37 35 38 92 39 86 40 88 41 36 42 91 43
REMARK SMILES IDX 85 44 84 45 37 47 71 48 50 49 70 50 51 51 54 52 69 53 89 54
REMARK SMILES IDX 52 55 53 56 68 58 90 59 55 60 38 61 39 62 48 63 40 64 41 65
REMARK SMILES IDX 47 66 49 67 42 68 43 69 44 70 45 71 46 72 72 73 73 74 82 75
REMARK SMILES IDX 74 76 75 77 81 78 83 79 76 80 77 81 78 82 79 83 80 84 56 85
REMARK SMILES IDX 57 86 66 87 58 88 59 89 65 90 67 91 60 92 61 93 62 94 63 95
REMARK SMILES IDX 64 96
REMARK H PARENT 88 46 54 57
REMARK Flexibility Score: inf
ROOT
ATOM      1  C   UNL A   1      32.183  29.159  27.251  1.00  0.00     0.202 C 
ENDROOT
BRANCH   1   2
ATOM      2  C   UNL A   1      31.723  27.739  26.881  1.00  0.00     0.261 C 
BRANCH   2   3
ATOM      3  O   UNL A   1      32.676  26.898  26.229  1.00  0.00    -0.463 OA
BRANCH   3   4
ATOM      4  C   UNL A   1      32.535  25.552  26.284  1.00  0.00     0.306 C 
ATOM      5  O   UNL A   1      31.504  25.045  26.722  1.00  0.00    -0.252 OA
BRANCH   4   6
ATOM      6  C   UNL A   1      33.744  24.713  25.934  1.00  0.00     0.130 C 
BRANCH   6   7
ATOM      7  C   UNL A   1      33.899  24.342  24.484  1.00  0.00    -0.008 C 
ATOM      8  C   UNL A   1      34.862  23.224  24.110  1.00  0.00     0.009 C 
ATOM      9  C   UNL A   1      33.385  22.974  24.064  1.00  0.00     0.009 C 
BRANCH   7  10
ATOM     10  C   UNL A   1      33.718  25.479  23.517  1.00  0.00     0.112 C 
BRANCH  10  11
ATOM     11  S   UNL A   1      32.836  24.940  22.043  1.00  0.00     0.023 S 
ATOM     12  O   UNL A   1      33.350  25.668  20.840  1.00  0.00    -0.260 OA
BRANCH  11  13
ATOM     13  C   UNL A   1      31.155  25.459  22.438  1.00  0.00     0.120 C 
BRANCH  13  14
ATOM     14  C   UNL A   1      30.848  26.533  23.493  1.00  0.00     0.068 C 
ATOM     15  C   UNL A   1      31.323  27.957  23.122  1.00  0.00     0.052 C 
ATOM     16  S   UNL A   1      29.118  26.706  24.056  1.00  0.00    -0.121 SA
ATOM     17  C   UNL A   1      30.115  28.748  22.718  1.00  0.00    -0.033 A 
ATOM     18  C   UNL A   1      28.899  28.206  23.143  1.00  0.00     0.011 A 
ATOM     19  C   UNL A   1      30.142  29.904  21.945  1.00  0.00     0.005 A 
ATOM     20  C   UNL A   1      27.693  28.761  22.743  1.00  0.00     0.015 A 
ATOM     21  C   UNL A   1      28.932  30.474  21.546  1.00  0.00     0.000 A 
ATOM     22  C   UNL A   1      27.714  29.897  21.929  1.00  0.00     0.001 A 
ENDBRANCH  13  14
ENDBRANCH  11  13
ENDBRANCH  10  11
ENDBRANCH   7  10
ENDBRANCH   6   7
ENDBRANCH   4   6
ENDBRANCH   3   4
ENDBRANCH   2   3
ENDBRANCH   1   2
BRANCH   1  23
ATOM     23  O   UNL A   1      33.397  29.690  26.730  1.00  0.00    -0.374 OA
BRANCH  23  24
ATOM     24  C   UNL A   1      34.515  29.823  27.607  1.00  0.00     0.202 C 
BRANCH  24  25
ATOM     25  C   UNL A   1      34.655  31.196  28.260  1.00  0.00     0.261 C 
BRANCH  25  26
ATOM     26  O   UNL A   1      36.042  31.528  28.401  1.00  0.00    -0.460 OA
BRANCH  26  27
ATOM     27  C   UNL A   1      36.631  31.109  29.548  1.00  0.00     0.338 C 
ATOM     28  O   UNL A   1      36.113  31.007  30.648  1.00  0.00    -0.246 OA
BRANCH  27  29
ATOM     29  C   UNL A   1      37.940  30.519  29.187  1.00  0.00     0.060 A 
ATOM     30  C   UNL A   1      38.152  29.930  27.938  1.00  0.00     0.016 A 
ATOM     31  C   UNL A   1      38.934  30.467  30.178  1.00  0.00     0.016 A 
ATOM     32  C   UNL A   1      39.378  29.330  27.665  1.00  0.00     0.010 A 
ATOM     33  C   UNL A   1      40.154  29.853  29.912  1.00  0.00     0.010 A 
ATOM     34  C   UNL A   1      40.392  29.320  28.639  1.00  0.00    -0.014 A 
BRANCH  34  35
ATOM     35  C   UNL A   1      41.774  29.003  28.227  1.00  0.00     0.031 A 
ATOM     36  C   UNL A   1      42.858  30.028  28.203  1.00  0.00     0.074 A 
ATOM     37  C   UNL A   1      42.009  27.723  27.880  1.00  0.00     0.049 A 
ATOM     38  N   UNL A   1      44.131  29.859  27.965  1.00  0.00    -0.248 NA
ATOM     39  C   UNL A   1      42.473  31.420  28.475  1.00  0.00     0.031 C 
ATOM     40  C   UNL A   1      40.990  26.668  27.847  1.00  0.00     0.029 A 
ATOM     41  N   UNL A   1      43.160  27.087  27.509  1.00  0.00    -0.354 N 
ATOM     42  C   UNL A   1      44.712  31.112  28.084  1.00  0.00     0.074 A 
ATOM     43  C   UNL A   1      43.640  32.046  28.370  1.00  0.00     0.031 C 
ATOM     44  C   UNL A   1      41.569  25.508  27.509  1.00  0.00     0.029 A 
ATOM     45  C   UNL A   1      42.988  25.743  27.280  1.00  0.00     0.049 A 
ATOM     46  H   UNL A   1      44.025  27.545  27.415  1.00  0.00     0.167 HD
ATOM     47  C   UNL A   1      46.024  31.437  27.980  1.00  0.00     0.037 A 
ATOM     48  C   UNL A   1      43.882  24.801  26.935  1.00  0.00     0.037 A 
ATOM     49  C   UNL A   1      47.062  30.485  27.670  1.00  0.00     0.049 A 
ATOM     50  C   UNL A   1      45.321  25.198  26.791  1.00  0.00     0.074 A 
ATOM     51  C   UNL A   1      48.426  30.702  27.565  1.00  0.00     0.029 A 
ATOM     52  N   UNL A   1      46.854  29.137  27.402  1.00  0.00    -0.354 N 
ATOM     53  N   UNL A   1      45.868  26.376  26.975  1.00  0.00    -0.248 NA
ATOM     54  C   UNL A   1      46.263  24.145  26.401  1.00  0.00     0.031 C 
ATOM     55  C   UNL A   1      49.034  29.500  27.188  1.00  0.00     0.029 A 
ATOM     56  C   UNL A   1      48.057  28.518  27.106  1.00  0.00     0.049 A 
ATOM     57  H   UNL A   1      45.979  28.689  27.419  1.00  0.00     0.167 HD
ATOM     58  C   UNL A   1      47.224  26.205  26.736  1.00  0.00     0.074 A 
ATOM     59  C   UNL A   1      47.415  24.803  26.414  1.00  0.00     0.031 C 
ATOM     60  C   UNL A   1      48.221  27.122  26.777  1.00  0.00     0.037 A 
BRANCH  47  61
ATOM     61  C   UNL A   1      46.418  32.869  28.212  1.00  0.00     0.058 A 
ATOM     62  C   UNL A   1      46.827  33.317  29.478  1.00  0.00     0.135 A 
ATOM     63  C   UNL A   1      46.465  33.786  27.149  1.00  0.00     0.135 A 
ATOM     64  F   UNL A   1      46.791  32.487  30.533  1.00  0.00    -0.206 F 
ATOM     65  C   UNL A   1      47.255  34.624  29.686  1.00  0.00     0.059 A 
ATOM     66  C   UNL A   1      46.912  35.093  27.328  1.00  0.00     0.059 A 
ATOM     67  F   UNL A   1      46.085  33.412  25.917  1.00  0.00    -0.206 F 
ATOM     68  C   UNL A   1      47.298  35.505  28.603  1.00  0.00     0.060 A 
BRANCH  68  69
ATOM     69  S   UNL A   1      47.870  37.192  28.893  1.00  0.00     0.124 S 
ATOM     70  O   UNL A   1      46.613  37.883  29.162  1.00  0.00    -0.237 OA
ATOM     71  O   UNL A   1      48.760  37.027  30.038  1.00  0.00    -0.237 OA
ATOM     72  O   UNL A   1      48.525  37.550  27.638  1.00  0.00    -0.744 OA
ENDBRANCH  68  69
ENDBRANCH  47  61
BRANCH  48  73
ATOM     73  C   UNL A   1      43.432  23.398  26.750  1.00  0.00     0.058 A 
ATOM     74  C   UNL A   1      43.370  22.825  25.473  1.00  0.00     0.135 A 
ATOM     75  C   UNL A   1      43.114  22.588  27.852  1.00  0.00     0.135 A 
ATOM     76  F   UNL A   1      43.671  23.560  24.392  1.00  0.00    -0.206 F 
ATOM     77  C   UNL A   1      42.994  21.499  25.291  1.00  0.00     0.059 A 
ATOM     78  C   UNL A   1      42.760  21.252  27.696  1.00  0.00     0.059 A 
ATOM     79  F   UNL A   1      43.186  23.083  29.096  1.00  0.00    -0.206 F 
ATOM     80  C   UNL A   1      42.695  20.719  26.409  1.00  0.00     0.060 A 
BRANCH  80  81
ATOM     81  S   UNL A   1      42.256  18.986  26.160  1.00  0.00     0.124 S 
ATOM     82  O   UNL A   1      43.163  18.605  25.084  1.00  0.00    -0.237 OA
ATOM     83  O   UNL A   1      42.540  18.409  27.471  1.00  0.00    -0.237 OA
ATOM     84  O   UNL A   1      40.842  19.045  25.804  1.00  0.00    -0.744 OA
ENDBRANCH  80  81
ENDBRANCH  48  73
BRANCH  60  85
ATOM     85  C   UNL A   1      49.608  26.638  26.463  1.00  0.00     0.058 A 
ATOM     86  C   UNL A   1      50.397  26.002  27.433  1.00  0.00     0.135 A 
ATOM     87  C   UNL A   1      50.129  26.758  25.165  1.00  0.00     0.135 A 
ATOM     88  F   UNL A   1      49.947  25.873  28.692  1.00  0.00    -0.206 F 
ATOM     89  C   UNL A   1      51.664  25.515  27.133  1.00  0.00     0.059 A 
ATOM     90  C   UNL A   1      51.383  26.253  24.835  1.00  0.00     0.059 A 
ATOM     91  F   UNL A   1      49.411  27.353  24.199  1.00  0.00    -0.206 F 
ATOM     92  C   UNL A   1      52.146  25.640  25.828  1.00  0.00     0.060 A 
BRANCH  92  93
ATOM     93  S   UNL A   1      53.772  24.961  25.443  1.00  0.00     0.124 S 
ATOM     94  O   UNL A   1      54.053  25.583  24.154  1.00  0.00    -0.237 OA
ATOM     95  O   UNL A   1      54.578  25.433  26.565  1.00  0.00    -0.237 OA
ATOM     96  O   UNL A   1      53.540  23.520  25.407  1.00  0.00    -0.744 OA
ENDBRANCH  92  93
ENDBRANCH  60  85
ENDBRANCH  34  35
ENDBRANCH  27  29
ENDBRANCH  26  27
ENDBRANCH  25  26
ENDBRANCH  24  25
ENDBRANCH  23  24
ENDBRANCH   1  23
TORSDOF 22
ENDMDL
MODEL 3
REMARK VINA RESULT:     -10.2      2.800      8.651
REMARK SMILES O=C(CC1(C[S@](=O)C[C@H]2Cc3ccccc3S2)CC1)OCCOCCOC(=O)c1ccc(-c2c3nc(c(-c4c(F)cc(S(=O)(=O)[O-])cc4F)c4ccc([nH]4)c(-c4c(F)cc(S(=O)(=O)[O-])cc4F)c4nc(c(-c5c(F)cc(S(=O)(=O)[O-])cc5F)c5ccc2[nH]5)C=C4)C=C3)cc1
REMARK SMILES IDX 22 1 21 2 20 3 2 4 1 5 3 6 4 7 18 8 19 9 5 10 6 11 7 12 8 13
REMARK SMILES IDX 9 14 10 15 17 16 11 17 16 18 12 19 15 20 13 21 14 22 23 23
REMARK SMILES IDX 24 24 25 25 26 26 27 27 28 28 29 29 30 30 94 31 31 32 93 33
REMARK SMILES IDX 32 34 33 35 34 36 87 37 35 38 92 39 86 40 88 41 36 42 91 43
REMARK SMILES IDX 85 44 84 45 37 47 71 48 50 49 70 50 51 51 54 52 69 53 89 54
REMARK SMILES IDX 52 55 53 56 68 58 90 59 55 60 38 61 39 62 48 63 40 64 41 65
REMARK SMILES IDX 47 66 49 67 42 68 43 69 44 70 45 71 46 72 72 73 73 74 82 75
REMARK SMILES IDX 74 76 75 77 81 78 83 79 76 80 77 81 78 82 79 83 80 84 56 85
REMARK SMILES IDX 57 86 66 87 58 88 59 89 65 90 67 91 60 92 61 93 62 94 63 95
REMARK SMILES IDX 64 96
REMARK H PARENT 88 46 54 57
REMARK Flexibility Score: inf
ROOT
ATOM      1  C   UNL A   1      31.837  29.096  24.739  1.00  0.00     0.202 C 
ENDROOT
BRANCH   1   2
ATOM      2  C   UNL A   1      32.157  28.889  23.248  1.00  0.00     0.261 C 
BRANCH   2   3
ATOM      3  O   UNL A   1      33.382  28.224  22.936  1.00  0.00    -0.463 OA
BRANCH   3   4
ATOM      4  C   UNL A   1      33.370  26.909  22.608  1.00  0.00     0.306 C 
ATOM      5  O   UNL A   1      33.715  26.537  21.489  1.00  0.00    -0.252 OA
BRANCH   4   6
ATOM      6  C   UNL A   1      32.774  25.950  23.614  1.00  0.00     0.130 C 
BRANCH   6   7
ATOM      7  C   UNL A   1      33.654  25.568  24.772  1.00  0.00    -0.008 C 
ATOM      8  C   UNL A   1      33.905  26.588  25.874  1.00  0.00     0.009 C 
ATOM      9  C   UNL A   1      32.986  25.433  26.131  1.00  0.00     0.009 C 
BRANCH   7  10
ATOM     10  C   UNL A   1      34.751  24.596  24.438  1.00  0.00     0.112 C 
BRANCH  10  11
ATOM     11  S   UNL A   1      34.672  23.141  25.497  1.00  0.00     0.023 S 
ATOM     12  O   UNL A   1      36.039  22.799  26.004  1.00  0.00    -0.260 OA
BRANCH  11  13
ATOM     13  C   UNL A   1      34.089  21.898  24.330  1.00  0.00     0.120 C 
BRANCH  13  14
ATOM     14  C   UNL A   1      32.834  21.049  24.584  1.00  0.00     0.068 C 
ATOM     15  C   UNL A   1      32.421  20.137  23.406  1.00  0.00     0.052 C 
ATOM     16  S   UNL A   1      32.805  19.993  26.076  1.00  0.00    -0.121 SA
ATOM     17  C   UNL A   1      32.809  18.733  23.760  1.00  0.00    -0.033 A 
ATOM     18  C   UNL A   1      33.037  18.521  25.122  1.00  0.00     0.011 A 
ATOM     19  C   UNL A   1      32.989  17.701  22.845  1.00  0.00     0.005 A 
ATOM     20  C   UNL A   1      33.518  17.305  25.584  1.00  0.00     0.015 A 
ATOM     21  C   UNL A   1      33.464  16.471  23.303  1.00  0.00     0.000 A 
ATOM     22  C   UNL A   1      33.744  16.279  24.662  1.00  0.00     0.001 A 
ENDBRANCH  13  14
ENDBRANCH  11  13
ENDBRANCH  10  11
ENDBRANCH   7  10
ENDBRANCH   6   7
ENDBRANCH   4   6
ENDBRANCH   3   4
ENDBRANCH   2   3
ENDBRANCH   1   2
BRANCH   1  23
ATOM     23  O   UNL A   1      31.353  30.348  25.212  1.00  0.00    -0.374 OA
BRANCH  23  24
ATOM     24  C   UNL A   1      31.935  30.902  26.392  1.00  0.00     0.202 C 
BRANCH  24  25
ATOM     25  C   UNL A   1      32.729  29.910  27.239  1.00  0.00     0.261 C 
BRANCH  25  26
ATOM     26  O   UNL A   1      34.133  30.122  27.048  1.00  0.00    -0.460 OA
BRANCH  26  27
ATOM     27  C   UNL A   1      34.752  30.850  28.011  1.00  0.00     0.338 C 
ATOM     28  O   UNL A   1      34.246  31.682  28.746  1.00  0.00    -0.246 OA
BRANCH  27  29
ATOM     29  C   UNL A   1      36.094  30.262  28.220  1.00  0.00     0.060 A 
ATOM     30  C   UNL A   1      37.018  30.169  27.175  1.00  0.00     0.016 A 
ATOM     31  C   UNL A   1      36.376  29.694  29.474  1.00  0.00     0.016 A 
ATOM     32  C   UNL A   1      38.244  29.549  27.400  1.00  0.00     0.010 A 
ATOM     33  C   UNL A   1      37.595  29.061  29.695  1.00  0.00     0.010 A 
ATOM     34  C   UNL A   1      38.548  29.024  28.669  1.00  0.00    -0.014 A 
BRANCH  34  35
ATOM     35  C   UNL A   1      39.951  28.694  28.987  1.00  0.00     0.031 A 
ATOM     36  C   UNL A   1      40.559  27.372  28.657  1.00  0.00     0.074 A 
ATOM     37  C   UNL A   1      40.664  29.665  29.590  1.00  0.00     0.049 A 
ATOM     38  N   UNL A   1      41.802  26.995  28.786  1.00  0.00    -0.248 NA
ATOM     39  C   UNL A   1      39.665  26.337  28.118  1.00  0.00     0.031 C 
ATOM     40  C   UNL A   1      40.129  30.976  29.975  1.00  0.00     0.029 A 
ATOM     41  N   UNL A   1      41.977  29.716  29.968  1.00  0.00    -0.354 N 
ATOM     42  C   UNL A   1      41.856  25.689  28.320  1.00  0.00     0.074 A 
ATOM     43  C   UNL A   1      40.504  25.321  27.949  1.00  0.00     0.031 C 
ATOM     44  C   UNL A   1      41.113  31.714  30.504  1.00  0.00     0.029 A 
ATOM     45  C   UNL A   1      42.337  30.924  30.516  1.00  0.00     0.049 A 
ATOM     46  H   UNL A   1      42.600  28.963  29.859  1.00  0.00     0.167 HD
ATOM     47  C   UNL A   1      42.943  24.890  28.202  1.00  0.00     0.037 A 
ATOM     48  C   UNL A   1      43.529  31.350  30.967  1.00  0.00     0.037 A 
ATOM     49  C   UNL A   1      44.272  25.280  28.606  1.00  0.00     0.049 A 
ATOM     50  C   UNL A   1      44.707  30.428  30.857  1.00  0.00     0.074 A 
ATOM     51  C   UNL A   1      45.449  24.557  28.508  1.00  0.00     0.029 A 
ATOM     52  N   UNL A   1      44.601  26.494  29.197  1.00  0.00    -0.354 N 
ATOM     53  N   UNL A   1      44.757  29.219  30.350  1.00  0.00    -0.248 NA
ATOM     54  C   UNL A   1      45.987  30.925  31.371  1.00  0.00     0.031 C 
ATOM     55  C   UNL A   1      46.477  25.314  29.082  1.00  0.00     0.029 A 
ATOM     56  C   UNL A   1      45.954  26.530  29.493  1.00  0.00     0.049 A 
ATOM     57  H   UNL A   1      43.965  27.223  29.379  1.00  0.00     0.167 HD
ATOM     58  C   UNL A   1      46.078  28.813  30.471  1.00  0.00     0.074 A 
ATOM     59  C   UNL A   1      46.797  29.915  31.082  1.00  0.00     0.031 C 
ATOM     60  C   UNL A   1      46.646  27.635  30.112  1.00  0.00     0.037 A 
BRANCH  47  61
ATOM     61  C   UNL A   1      42.754  23.522  27.607  1.00  0.00     0.058 A 
ATOM     62  C   UNL A   1      43.089  23.256  26.270  1.00  0.00     0.135 A 
ATOM     63  C   UNL A   1      42.310  22.447  28.395  1.00  0.00     0.135 A 
ATOM     64  F   UNL A   1      43.508  24.248  25.468  1.00  0.00    -0.206 F 
ATOM     65  C   UNL A   1      42.978  21.978  25.731  1.00  0.00     0.059 A 
ATOM     66  C   UNL A   1      42.213  21.155  27.883  1.00  0.00     0.059 A 
ATOM     67  F   UNL A   1      41.975  22.644  29.680  1.00  0.00    -0.206 F 
ATOM     68  C   UNL A   1      42.542  20.933  26.547  1.00  0.00     0.060 A 
BRANCH  68  69
ATOM     69  S   UNL A   1      42.419  19.280  25.830  1.00  0.00     0.124 S 
ATOM     70  O   UNL A   1      43.187  19.440  24.600  1.00  0.00    -0.237 OA
ATOM     71  O   UNL A   1      43.036  18.448  26.858  1.00  0.00    -0.237 OA
ATOM     72  O   UNL A   1      40.983  19.092  25.652  1.00  0.00    -0.744 OA
ENDBRANCH  68  69
ENDBRANCH  47  61
BRANCH  48  73
ATOM     73  C   UNL A   1      43.655  32.723  31.516  1.00  0.00     0.058 A 
ATOM     74  C   UNL A   1      43.941  33.809  30.678  1.00  0.00     0.135 A 
ATOM     75  C   UNL A   1      43.433  32.983  32.878  1.00  0.00     0.135 A 
ATOM     76  F   UNL A   1      44.154  33.609  29.369  1.00  0.00    -0.206 F 
ATOM     77  C   UNL A   1      44.016  35.106  31.172  1.00  0.00     0.059 A 
ATOM     78  C   UNL A   1      43.477  34.275  33.390  1.00  0.00     0.059 A 
ATOM     79  F   UNL A   1      43.129  31.980  33.714  1.00  0.00    -0.206 F 
ATOM     80  C   UNL A   1      43.778  35.330  32.530  1.00  0.00     0.060 A 
BRANCH  80  81
ATOM     81  S   UNL A   1      43.831  37.025  33.148  1.00  0.00     0.124 S 
ATOM     82  O   UNL A   1      45.102  37.037  33.861  1.00  0.00    -0.237 OA
ATOM     83  O   UNL A   1      43.783  37.801  31.911  1.00  0.00    -0.237 OA
ATOM     84  O   UNL A   1      42.637  37.117  33.982  1.00  0.00    -0.744 OA
ENDBRANCH  80  81
ENDBRANCH  48  73
BRANCH  60  85
ATOM     85  C   UNL A   1      48.116  27.479  30.374  1.00  0.00     0.058 A 
ATOM     86  C   UNL A   1      48.594  27.008  31.606  1.00  0.00     0.135 A 
ATOM     87  C   UNL A   1      49.053  27.747  29.363  1.00  0.00     0.135 A 
ATOM     88  F   UNL A   1      47.738  26.748  32.608  1.00  0.00    -0.206 F 
ATOM     89  C   UNL A   1      49.953  26.822  31.834  1.00  0.00     0.059 A 
ATOM     90  C   UNL A   1      50.415  27.543  29.561  1.00  0.00     0.059 A 
ATOM     91  F   UNL A   1      48.647  28.195  28.164  1.00  0.00    -0.206 F 
ATOM     92  C   UNL A   1      50.855  27.087  30.803  1.00  0.00     0.060 A 
BRANCH  92  93
ATOM     93  S   UNL A   1      52.611  26.796  31.100  1.00  0.00     0.124 S 
ATOM     94  O   UNL A   1      52.584  25.500  31.769  1.00  0.00    -0.237 OA
ATOM     95  O   UNL A   1      53.159  26.801  29.747  1.00  0.00    -0.237 OA
ATOM     96  O   UNL A   1      53.007  27.926  31.936  1.00  0.00    -0.744 OA
ENDBRANCH  92  93
ENDBRANCH  60  85
ENDBRANCH  34  35
ENDBRANCH  27  29
ENDBRANCH  26  27
ENDBRANCH  25  26
ENDBRANCH  24  25
ENDBRANCH  23  24
ENDBRANCH   1  23
TORSDOF 22
ENDMDL
