MODEL 1
REMARK VINA RESULT:      -8.7      0.000      0.000
REMARK SMILES CC[C@@H](C)[NH2+][C@H](CN=[N+]=[N-])C(=O)OCCOCCOC(=O)c1ccc(-c2c3nc(c(-c4c(F)cc(S(=O)(=O)[O-])cc4F)c4ccc([nH]4)c(-c4c(F)cc(S(=O)(=O)[O-])cc4F)c4nc(c(-c5c(F)cc(S(=O)(=O)[O-])cc5F)c5ccc2[nH]5)C=C4)C=C3)cc1
REMARK SMILES IDX 16 1 15 2 14 3 13 4 11 5 12 6 6 7 5 8 3 11 4 12 2 13 1 14
REMARK SMILES IDX 7 15 8 16 9 17 10 18 17 19 18 20 19 21 20 22 21 23 22 24
REMARK SMILES IDX 23 25 87 26 24 27 86 28 25 29 26 30 27 31 80 32 28 33 85 34
REMARK SMILES IDX 79 35 81 36 29 37 84 38 78 39 77 40 30 42 64 43 43 44 63 45
REMARK SMILES IDX 44 46 47 47 62 48 82 49 45 50 46 51 61 53 83 54 48 55 31 56
REMARK SMILES IDX 32 57 41 58 33 59 34 60 40 61 42 62 35 63 36 64 37 65 38 66
REMARK SMILES IDX 39 67 65 68 66 69 75 70 67 71 68 72 74 73 76 74 69 75 70 76
REMARK SMILES IDX 71 77 72 78 73 79 49 80 50 81 59 82 51 83 52 84 58 85 60 86
REMARK SMILES IDX 53 87 54 88 55 89 56 90 57 91
REMARK H PARENT 5 9 5 10 81 41 47 52
REMARK Flexibility Score: inf
ROOT
ATOM      1  O   UNL A   1      34.221  31.017  27.625  1.00  0.00    -0.374 OA
ENDROOT
BRANCH   1   2
ATOM      2  C   UNL A   1      32.880  30.817  27.180  1.00  0.00     0.202 C 
BRANCH   2   3
ATOM      3  C   UNL A   1      32.620  29.857  26.007  1.00  0.00     0.261 C 
BRANCH   3   4
ATOM      4  O   UNL A   1      33.534  28.741  25.941  1.00  0.00    -0.459 OA
BRANCH   4   5
ATOM      5  C   UNL A   1      33.553  28.077  24.748  1.00  0.00     0.365 C 
ATOM      6  O   UNL A   1      34.150  28.468  23.748  1.00  0.00    -0.245 OA
BRANCH   5   7
ATOM      7  C   UNL A   1      32.751  26.760  24.750  1.00  0.00     0.299 C 
BRANCH   7   8
ATOM      8  N   UNL A   1      31.695  26.810  23.714  1.00  0.00    -0.332 N 
ATOM      9  H   UNL A   1      32.088  27.298  22.908  1.00  0.00     0.347 HD
ATOM     10  H   UNL A   1      31.444  25.832  23.569  1.00  0.00     0.347 HD
BRANCH   8  11
ATOM     11  C   UNL A   1      30.420  27.463  24.039  1.00  0.00     0.179 C 
ATOM     12  C   UNL A   1      29.255  26.464  23.994  1.00  0.00     0.075 C 
BRANCH  11  13
ATOM     13  C   UNL A   1      30.229  28.576  22.985  1.00  0.00     0.061 C 
ATOM     14  C   UNL A   1      28.776  28.990  22.776  1.00  0.00     0.010 C 
ENDBRANCH  11  13
ENDBRANCH   8  11
ENDBRANCH   7   8
BRANCH   7  15
ATOM     15  C   UNL A   1      32.335  26.241  26.138  1.00  0.00     0.168 C 
BRANCH  15  16
ATOM     16  N   UNL A   1      32.495  24.784  26.293  1.00  0.00    -0.087 NA
ATOM     17  N   UNL A   1      31.597  24.053  25.851  1.00  0.00     0.001 N 
ATOM     18  N   UNL A   1      30.783  23.365  25.444  1.00  0.00    -0.003 NA
ENDBRANCH  15  16
ENDBRANCH   7  15
ENDBRANCH   5   7
ENDBRANCH   4   5
ENDBRANCH   3   4
ENDBRANCH   2   3
ENDBRANCH   1   2
BRANCH   1  19
ATOM     19  C   UNL A   1      34.591  32.349  27.961  1.00  0.00     0.202 C 
BRANCH  19  20
ATOM     20  C   UNL A   1      35.577  32.565  29.115  1.00  0.00     0.261 C 
BRANCH  20  21
ATOM     21  O   UNL A   1      35.868  31.354  29.832  1.00  0.00    -0.460 OA
BRANCH  21  22
ATOM     22  C   UNL A   1      36.948  31.447  30.645  1.00  0.00     0.338 C 
ATOM     23  O   UNL A   1      37.003  31.983  31.739  1.00  0.00    -0.246 OA
BRANCH  22  24
ATOM     24  C   UNL A   1      38.054  30.628  30.121  1.00  0.00     0.060 A 
ATOM     25  C   UNL A   1      39.020  30.209  31.043  1.00  0.00     0.016 A 
ATOM     26  C   UNL A   1      38.202  30.363  28.758  1.00  0.00     0.016 A 
ATOM     27  C   UNL A   1      40.182  29.590  30.599  1.00  0.00     0.010 A 
ATOM     28  C   UNL A   1      39.373  29.742  28.313  1.00  0.00     0.010 A 
ATOM     29  C   UNL A   1      40.387  29.398  29.227  1.00  0.00    -0.014 A 
BRANCH  29  30
ATOM     30  C   UNL A   1      41.729  28.983  28.753  1.00  0.00     0.031 A 
ATOM     31  C   UNL A   1      42.832  30.006  28.700  1.00  0.00     0.074 A 
ATOM     32  C   UNL A   1      41.969  27.700  28.431  1.00  0.00     0.049 A 
ATOM     33  N   UNL A   1      44.072  29.867  28.307  1.00  0.00    -0.248 NA
ATOM     34  C   UNL A   1      42.493  31.367  29.146  1.00  0.00     0.031 C 
ATOM     35  C   UNL A   1      40.987  26.618  28.494  1.00  0.00     0.029 A 
ATOM     36  N   UNL A   1      43.114  27.090  27.988  1.00  0.00    -0.354 N 
ATOM     37  C   UNL A   1      44.656  31.123  28.444  1.00  0.00     0.074 A 
ATOM     38  C   UNL A   1      43.627  32.017  28.927  1.00  0.00     0.031 C 
ATOM     39  C   UNL A   1      41.572  25.475  28.102  1.00  0.00     0.029 A 
ATOM     40  C   UNL A   1      42.955  25.752  27.721  1.00  0.00     0.049 A 
ATOM     41  H   UNL A   1      43.967  27.566  27.871  1.00  0.00     0.167 HD
ATOM     42  C   UNL A   1      45.935  31.489  28.195  1.00  0.00     0.037 A 
ATOM     43  C   UNL A   1      43.823  24.858  27.207  1.00  0.00     0.037 A 
ATOM     44  C   UNL A   1      46.950  30.582  27.723  1.00  0.00     0.049 A 
ATOM     45  C   UNL A   1      45.222  25.307  26.873  1.00  0.00     0.074 A 
ATOM     46  C   UNL A   1      48.284  30.845  27.465  1.00  0.00     0.029 A 
ATOM     47  N   UNL A   1      46.743  29.243  27.426  1.00  0.00    -0.354 N 
ATOM     48  N   UNL A   1      45.769  26.490  27.029  1.00  0.00    -0.248 NA
ATOM     49  C   UNL A   1      46.123  24.300  26.298  1.00  0.00     0.031 C 
ATOM     50  C   UNL A   1      48.866  29.682  26.949  1.00  0.00     0.029 A 
ATOM     51  C   UNL A   1      47.914  28.675  26.955  1.00  0.00     0.049 A 
ATOM     52  H   UNL A   1      45.888  28.766  27.537  1.00  0.00     0.167 HD
ATOM     53  C   UNL A   1      47.087  26.361  26.602  1.00  0.00     0.074 A 
ATOM     54  C   UNL A   1      47.255  24.981  26.194  1.00  0.00     0.031 C 
ATOM     55  C   UNL A   1      48.068  27.295  26.556  1.00  0.00     0.037 A 
BRANCH  42  56
ATOM     56  C   UNL A   1      46.304  32.936  28.392  1.00  0.00     0.058 A 
ATOM     57  C   UNL A   1      46.813  33.421  29.607  1.00  0.00     0.135 A 
ATOM     58  C   UNL A   1      46.182  33.846  27.327  1.00  0.00     0.135 A 
ATOM     59  F   UNL A   1      46.935  32.603  30.664  1.00  0.00    -0.206 F 
ATOM     60  C   UNL A   1      47.163  34.759  29.768  1.00  0.00     0.059 A 
ATOM     61  C   UNL A   1      46.558  35.180  27.456  1.00  0.00     0.059 A 
ATOM     62  F   UNL A   1      45.700  33.440  26.143  1.00  0.00    -0.206 F 
ATOM     63  C   UNL A   1      47.034  35.630  28.686  1.00  0.00     0.060 A 
BRANCH  63  64
ATOM     64  S   UNL A   1      47.502  37.360  28.909  1.00  0.00     0.124 S 
ATOM     65  O   UNL A   1      46.830  37.992  27.777  1.00  0.00    -0.237 OA
ATOM     66  O   UNL A   1      46.949  37.664  30.224  1.00  0.00    -0.237 OA
ATOM     67  O   UNL A   1      48.960  37.332  28.835  1.00  0.00    -0.744 OA
ENDBRANCH  63  64
ENDBRANCH  42  56
BRANCH  43  68
ATOM     68  C   UNL A   1      43.390  23.455  26.968  1.00  0.00     0.058 A 
ATOM     69  C   UNL A   1      43.289  22.537  28.023  1.00  0.00     0.135 A 
ATOM     70  C   UNL A   1      43.063  23.006  25.679  1.00  0.00     0.135 A 
ATOM     71  F   UNL A   1      43.599  22.914  29.272  1.00  0.00    -0.206 F 
ATOM     72  C   UNL A   1      42.895  21.220  27.809  1.00  0.00     0.059 A 
ATOM     73  C   UNL A   1      42.636  21.702  25.443  1.00  0.00     0.059 A 
ATOM     74  F   UNL A   1      43.131  23.846  24.634  1.00  0.00    -0.206 F 
ATOM     75  C   UNL A   1      42.565  20.814  26.514  1.00  0.00     0.060 A 
BRANCH  75  76
ATOM     76  S   UNL A   1      42.009  19.116  26.256  1.00  0.00     0.124 S 
ATOM     77  O   UNL A   1      42.904  18.672  25.194  1.00  0.00    -0.237 OA
ATOM     78  O   UNL A   1      42.230  18.521  27.570  1.00  0.00    -0.237 OA
ATOM     79  O   UNL A   1      40.608  19.275  25.875  1.00  0.00    -0.744 OA
ENDBRANCH  75  76
ENDBRANCH  43  68
BRANCH  55  80
ATOM     80  C   UNL A   1      49.429  26.854  26.089  1.00  0.00     0.058 A 
ATOM     81  C   UNL A   1      49.865  27.058  24.770  1.00  0.00     0.135 A 
ATOM     82  C   UNL A   1      50.331  26.263  26.991  1.00  0.00     0.135 A 
ATOM     83  F   UNL A   1      49.043  27.612  23.865  1.00  0.00    -0.206 F 
ATOM     84  C   UNL A   1      51.135  26.669  24.356  1.00  0.00     0.059 A 
ATOM     85  C   UNL A   1      51.617  25.898  26.606  1.00  0.00     0.059 A 
ATOM     86  F   UNL A   1      49.971  26.053  28.266  1.00  0.00    -0.206 F 
ATOM     87  C   UNL A   1      52.005  26.093  25.283  1.00  0.00     0.060 A 
BRANCH  87  88
ATOM     88  S   UNL A   1      53.662  25.624  24.738  1.00  0.00     0.124 S 
ATOM     89  O   UNL A   1      53.648  26.057  23.345  1.00  0.00    -0.237 OA
ATOM     90  O   UNL A   1      54.513  26.400  25.634  1.00  0.00    -0.237 OA
ATOM     91  O   UNL A   1      53.693  24.179  24.947  1.00  0.00    -0.744 OA
ENDBRANCH  87  88
ENDBRANCH  55  80
ENDBRANCH  29  30
ENDBRANCH  22  24
ENDBRANCH  21  22
ENDBRANCH  20  21
ENDBRANCH  19  20
ENDBRANCH   1  19
TORSDOF 22
ENDMDL
MODEL 2
REMARK VINA RESULT:      -8.5      6.720     13.077
REMARK SMILES CC[C@@H](C)[NH2+][C@H](CN=[N+]=[N-])C(=O)OCCOCCOC(=O)c1ccc(-c2c3nc(c(-c4c(F)cc(S(=O)(=O)[O-])cc4F)c4ccc([nH]4)c(-c4c(F)cc(S(=O)(=O)[O-])cc4F)c4nc(c(-c5c(F)cc(S(=O)(=O)[O-])cc5F)c5ccc2[nH]5)C=C4)C=C3)cc1
REMARK SMILES IDX 16 1 15 2 14 3 13 4 11 5 12 6 6 7 5 8 3 11 4 12 2 13 1 14
REMARK SMILES IDX 7 15 8 16 9 17 10 18 17 19 18 20 19 21 20 22 21 23 22 24
REMARK SMILES IDX 23 25 87 26 24 27 86 28 25 29 26 30 27 31 80 32 28 33 85 34
REMARK SMILES IDX 79 35 81 36 29 37 84 38 78 39 77 40 30 42 64 43 43 44 63 45
REMARK SMILES IDX 44 46 47 47 62 48 82 49 45 50 46 51 61 53 83 54 48 55 31 56
REMARK SMILES IDX 32 57 41 58 33 59 34 60 40 61 42 62 35 63 36 64 37 65 38 66
REMARK SMILES IDX 39 67 65 68 66 69 75 70 67 71 68 72 74 73 76 74 69 75 70 76
REMARK SMILES IDX 71 77 72 78 73 79 49 80 50 81 59 82 51 83 52 84 58 85 60 86
REMARK SMILES IDX 53 87 54 88 55 89 56 90 57 91
REMARK H PARENT 5 9 5 10 81 41 47 52
REMARK Flexibility Score: inf
ROOT
ATOM      1  O   UNL A   1      46.987  23.726  26.599  1.00  0.00    -0.374 OA
ENDROOT
BRANCH   1   2
ATOM      2  C   UNL A   1      45.829  22.987  26.216  1.00  0.00     0.202 C 
BRANCH   2   3
ATOM      3  C   UNL A   1      44.744  22.704  27.269  1.00  0.00     0.261 C 
BRANCH   3   4
ATOM      4  O   UNL A   1      43.405  23.043  26.846  1.00  0.00    -0.459 OA
BRANCH   4   5
ATOM      5  C   UNL A   1      42.876  22.227  25.888  1.00  0.00     0.365 C 
ATOM      6  O   UNL A   1      42.844  22.498  24.690  1.00  0.00    -0.245 OA
BRANCH   5   7
ATOM      7  C   UNL A   1      42.314  20.900  26.434  1.00  0.00     0.299 C 
BRANCH   7   8
ATOM      8  N   UNL A   1      42.541  19.814  25.454  1.00  0.00    -0.332 N 
ATOM      9  H   UNL A   1      41.644  19.625  25.004  1.00  0.00     0.347 HD
ATOM     10  H   UNL A   1      43.281  20.173  24.851  1.00  0.00     0.347 HD
BRANCH   8  11
ATOM     11  C   UNL A   1      43.064  18.528  25.936  1.00  0.00     0.179 C 
ATOM     12  C   UNL A   1      42.913  18.401  27.459  1.00  0.00     0.075 C 
BRANCH  11  13
ATOM     13  C   UNL A   1      44.553  18.492  25.528  1.00  0.00     0.061 C 
ATOM     14  C   UNL A   1      44.928  19.509  24.455  1.00  0.00     0.010 C 
ENDBRANCH  11  13
ENDBRANCH   8  11
ENDBRANCH   7   8
BRANCH   7  15
ATOM     15  C   UNL A   1      40.911  20.984  27.062  1.00  0.00     0.168 C 
BRANCH  15  16
ATOM     16  N   UNL A   1      40.063  22.034  26.468  1.00  0.00    -0.087 NA
ATOM     17  N   UNL A   1      39.055  21.679  25.840  1.00  0.00     0.001 N 
ATOM     18  N   UNL A   1      38.120  21.370  25.264  1.00  0.00    -0.003 NA
ENDBRANCH  15  16
ENDBRANCH   7  15
ENDBRANCH   5   7
ENDBRANCH   4   5
ENDBRANCH   3   4
ENDBRANCH   2   3
ENDBRANCH   1   2
BRANCH   1  19
ATOM     19  C   UNL A   1      47.242  24.930  25.886  1.00  0.00     0.202 C 
BRANCH  19  20
ATOM     20  C   UNL A   1      46.052  25.694  25.292  1.00  0.00     0.261 C 
BRANCH  20  21
ATOM     21  O   UNL A   1      45.256  26.349  26.292  1.00  0.00    -0.460 OA
BRANCH  21  22
ATOM     22  C   UNL A   1      43.934  26.392  25.997  1.00  0.00     0.338 C 
ATOM     23  O   UNL A   1      43.366  25.818  25.082  1.00  0.00    -0.246 OA
BRANCH  22  24
ATOM     24  C   UNL A   1      43.194  27.089  27.061  1.00  0.00     0.060 A 
ATOM     25  C   UNL A   1      43.374  28.474  27.152  1.00  0.00     0.016 A 
ATOM     26  C   UNL A   1      42.429  26.402  28.006  1.00  0.00     0.016 A 
ATOM     27  C   UNL A   1      42.854  29.172  28.235  1.00  0.00     0.010 A 
ATOM     28  C   UNL A   1      41.911  27.107  29.097  1.00  0.00     0.010 A 
ATOM     29  C   UNL A   1      42.163  28.484  29.239  1.00  0.00    -0.014 A 
BRANCH  29  30
ATOM     30  C   UNL A   1      41.848  29.189  30.505  1.00  0.00     0.031 A 
ATOM     31  C   UNL A   1      40.629  30.069  30.566  1.00  0.00     0.074 A 
ATOM     32  C   UNL A   1      42.609  28.997  31.597  1.00  0.00     0.049 A 
ATOM     33  N   UNL A   1      40.174  30.786  31.561  1.00  0.00    -0.248 NA
ATOM     34  C   UNL A   1      39.814  30.156  29.343  1.00  0.00     0.031 C 
ATOM     35  C   UNL A   1      43.783  28.126  31.662  1.00  0.00     0.029 A 
ATOM     36  N   UNL A   1      42.508  29.520  32.860  1.00  0.00    -0.354 N 
ATOM     37  C   UNL A   1      39.032  31.420  31.081  1.00  0.00     0.074 A 
ATOM     38  C   UNL A   1      38.880  31.027  29.697  1.00  0.00     0.031 C 
ATOM     39  C   UNL A   1      44.294  28.177  32.903  1.00  0.00     0.029 A 
ATOM     40  C   UNL A   1      43.511  29.114  33.705  1.00  0.00     0.049 A 
ATOM     41  H   UNL A   1      41.784  30.130  33.133  1.00  0.00     0.167 HD
ATOM     42  C   UNL A   1      38.187  32.247  31.740  1.00  0.00     0.037 A 
ATOM     43  C   UNL A   1      43.777  29.474  34.976  1.00  0.00     0.037 A 
ATOM     44  C   UNL A   1      38.348  32.622  33.122  1.00  0.00     0.049 A 
ATOM     45  C   UNL A   1      42.860  30.451  35.666  1.00  0.00     0.074 A 
ATOM     46  C   UNL A   1      37.534  33.432  33.893  1.00  0.00     0.029 A 
ATOM     47  N   UNL A   1      39.398  32.221  33.936  1.00  0.00    -0.354 N 
ATOM     48  N   UNL A   1      41.771  31.024  35.210  1.00  0.00    -0.248 NA
ATOM     49  C   UNL A   1      43.205  30.826  37.043  1.00  0.00     0.031 C 
ATOM     50  C   UNL A   1      38.127  33.576  35.151  1.00  0.00     0.029 A 
ATOM     51  C   UNL A   1      39.272  32.796  35.189  1.00  0.00     0.049 A 
ATOM     52  H   UNL A   1      40.126  31.616  33.662  1.00  0.00     0.167 HD
ATOM     53  C   UNL A   1      41.282  31.802  36.255  1.00  0.00     0.074 A 
ATOM     54  C   UNL A   1      42.189  31.614  37.369  1.00  0.00     0.031 C 
ATOM     55  C   UNL A   1      40.183  32.595  36.292  1.00  0.00     0.037 A 
BRANCH  42  56
ATOM     56  C   UNL A   1      37.033  32.835  30.970  1.00  0.00     0.058 A 
ATOM     57  C   UNL A   1      37.180  33.963  30.147  1.00  0.00     0.135 A 
ATOM     58  C   UNL A   1      35.766  32.230  31.027  1.00  0.00     0.135 A 
ATOM     59  F   UNL A   1      38.362  34.593  30.066  1.00  0.00    -0.206 F 
ATOM     60  C   UNL A   1      36.107  34.486  29.430  1.00  0.00     0.059 A 
ATOM     61  C   UNL A   1      34.688  32.716  30.293  1.00  0.00     0.059 A 
ATOM     62  F   UNL A   1      35.566  31.151  31.798  1.00  0.00    -0.206 F 
ATOM     63  C   UNL A   1      34.865  33.854  29.508  1.00  0.00     0.060 A 
BRANCH  63  64
ATOM     64  S   UNL A   1      33.487  34.540  28.564  1.00  0.00     0.124 S 
ATOM     65  O   UNL A   1      34.124  35.671  27.898  1.00  0.00    -0.237 OA
ATOM     66  O   UNL A   1      33.115  33.423  27.702  1.00  0.00    -0.237 OA
ATOM     67  O   UNL A   1      32.509  34.888  29.592  1.00  0.00    -0.744 OA
ENDBRANCH  63  64
ENDBRANCH  42  56
BRANCH  43  68
ATOM     68  C   UNL A   1      44.968  28.918  35.673  1.00  0.00     0.058 A 
ATOM     69  C   UNL A   1      46.219  29.546  35.585  1.00  0.00     0.135 A 
ATOM     70  C   UNL A   1      44.877  27.750  36.446  1.00  0.00     0.135 A 
ATOM     71  F   UNL A   1      46.360  30.659  34.851  1.00  0.00    -0.206 F 
ATOM     72  C   UNL A   1      47.341  29.028  36.225  1.00  0.00     0.059 A 
ATOM     73  C   UNL A   1      45.977  27.230  37.121  1.00  0.00     0.059 A 
ATOM     74  F   UNL A   1      43.700  27.116  36.574  1.00  0.00    -0.206 F 
ATOM     75  C   UNL A   1      47.207  27.871  36.995  1.00  0.00     0.060 A 
BRANCH  75  76
ATOM     76  S   UNL A   1      48.660  27.236  37.859  1.00  0.00     0.124 S 
ATOM     77  O   UNL A   1      49.063  28.393  38.649  1.00  0.00    -0.237 OA
ATOM     78  O   UNL A   1      48.102  26.114  38.606  1.00  0.00    -0.237 OA
ATOM     79  O   UNL A   1      49.563  26.868  36.771  1.00  0.00    -0.744 OA
ENDBRANCH  75  76
ENDBRANCH  43  68
BRANCH  55  80
ATOM     80  C   UNL A   1      39.868  33.289  37.590  1.00  0.00     0.058 A 
ATOM     81  C   UNL A   1      38.843  32.846  38.441  1.00  0.00     0.135 A 
ATOM     82  C   UNL A   1      40.640  34.385  38.013  1.00  0.00     0.135 A 
ATOM     83  F   UNL A   1      38.070  31.808  38.084  1.00  0.00    -0.206 F 
ATOM     84  C   UNL A   1      38.578  33.481  39.650  1.00  0.00     0.059 A 
ATOM     85  C   UNL A   1      40.415  35.012  39.234  1.00  0.00     0.059 A 
ATOM     86  F   UNL A   1      41.640  34.844  37.244  1.00  0.00    -0.206 F 
ATOM     87  C   UNL A   1      39.372  34.560  40.040  1.00  0.00     0.060 A 
BRANCH  87  88
ATOM     88  S   UNL A   1      39.037  35.352  41.628  1.00  0.00     0.124 S 
ATOM     89  O   UNL A   1      37.941  34.535  42.139  1.00  0.00    -0.237 OA
ATOM     90  O   UNL A   1      40.312  35.206  42.322  1.00  0.00    -0.237 OA
ATOM     91  O   UNL A   1      38.683  36.719  41.259  1.00  0.00    -0.744 OA
ENDBRANCH  87  88
ENDBRANCH  55  80
ENDBRANCH  29  30
ENDBRANCH  22  24
ENDBRANCH  21  22
ENDBRANCH  20  21
ENDBRANCH  19  20
ENDBRANCH   1  19
TORSDOF 22
ENDMDL
MODEL 3
REMARK VINA RESULT:      -8.4      5.163      6.845
REMARK SMILES CC[C@@H](C)[NH2+][C@H](CN=[N+]=[N-])C(=O)OCCOCCOC(=O)c1ccc(-c2c3nc(c(-c4c(F)cc(S(=O)(=O)[O-])cc4F)c4ccc([nH]4)c(-c4c(F)cc(S(=O)(=O)[O-])cc4F)c4nc(c(-c5c(F)cc(S(=O)(=O)[O-])cc5F)c5ccc2[nH]5)C=C4)C=C3)cc1
REMARK SMILES IDX 16 1 15 2 14 3 13 4 11 5 12 6 6 7 5 8 3 11 4 12 2 13 1 14
REMARK SMILES IDX 7 15 8 16 9 17 10 18 17 19 18 20 19 21 20 22 21 23 22 24
REMARK SMILES IDX 23 25 87 26 24 27 86 28 25 29 26 30 27 31 80 32 28 33 85 34
REMARK SMILES IDX 79 35 81 36 29 37 84 38 78 39 77 40 30 42 64 43 43 44 63 45
REMARK SMILES IDX 44 46 47 47 62 48 82 49 45 50 46 51 61 53 83 54 48 55 31 56
REMARK SMILES IDX 32 57 41 58 33 59 34 60 40 61 42 62 35 63 36 64 37 65 38 66
REMARK SMILES IDX 39 67 65 68 66 69 75 70 67 71 68 72 74 73 76 74 69 75 70 76
REMARK SMILES IDX 71 77 72 78 73 79 49 80 50 81 59 82 51 83 52 84 58 85 60 86
REMARK SMILES IDX 53 87 54 88 55 89 56 90 57 91
REMARK H PARENT 5 9 5 10 81 41 47 52
REMARK Flexibility Score: inf
ROOT
ATOM      1  O   UNL A   1      33.608  27.317  26.441  1.00  0.00    -0.374 OA
ENDROOT
BRANCH   1   2
ATOM      2  C   UNL A   1      33.398  26.028  25.869  1.00  0.00     0.202 C 
BRANCH   2   3
ATOM      3  C   UNL A   1      32.372  25.083  26.518  1.00  0.00     0.261 C 
BRANCH   3   4
ATOM      4  O   UNL A   1      32.863  23.743  26.746  1.00  0.00    -0.459 OA
BRANCH   4   5
ATOM      5  C   UNL A   1      32.404  22.802  25.870  1.00  0.00     0.365 C 
ATOM      6  O   UNL A   1      31.320  22.233  25.972  1.00  0.00    -0.245 OA
BRANCH   5   7
ATOM      7  C   UNL A   1      33.371  22.502  24.707  1.00  0.00     0.299 C 
BRANCH   7   8
ATOM      8  N   UNL A   1      34.738  22.283  25.230  1.00  0.00    -0.332 N 
ATOM      9  H   UNL A   1      34.693  22.394  26.243  1.00  0.00     0.347 HD
ATOM     10  H   UNL A   1      34.989  21.354  24.890  1.00  0.00     0.347 HD
BRANCH   8  11
ATOM     11  C   UNL A   1      35.824  23.147  24.746  1.00  0.00     0.179 C 
ATOM     12  C   UNL A   1      36.888  22.335  23.994  1.00  0.00     0.075 C 
BRANCH  11  13
ATOM     13  C   UNL A   1      36.429  23.816  26.000  1.00  0.00     0.061 C 
ATOM     14  C   UNL A   1      37.952  23.886  25.992  1.00  0.00     0.010 C 
ENDBRANCH  11  13
ENDBRANCH   8  11
ENDBRANCH   7   8
BRANCH   7  15
ATOM     15  C   UNL A   1      33.238  23.425  23.482  1.00  0.00     0.168 C 
BRANCH  15  16
ATOM     16  N   UNL A   1      32.806  22.722  22.260  1.00  0.00    -0.087 NA
ATOM     17  N   UNL A   1      33.045  23.258  21.168  1.00  0.00     0.001 N 
ATOM     18  N   UNL A   1      33.264  23.734  20.155  1.00  0.00    -0.003 NA
ENDBRANCH  15  16
ENDBRANCH   7  15
ENDBRANCH   5   7
ENDBRANCH   4   5
ENDBRANCH   3   4
ENDBRANCH   2   3
ENDBRANCH   1   2
BRANCH   1  19
ATOM     19  C   UNL A   1      32.764  28.366  25.981  1.00  0.00     0.202 C 
BRANCH  19  20
ATOM     20  C   UNL A   1      33.242  29.814  26.145  1.00  0.00     0.261 C 
BRANCH  20  21
ATOM     21  O   UNL A   1      33.438  30.183  27.520  1.00  0.00    -0.460 OA
BRANCH  21  22
ATOM     22  C   UNL A   1      34.442  31.072  27.709  1.00  0.00     0.338 C 
ATOM     23  O   UNL A   1      34.354  32.288  27.735  1.00  0.00    -0.246 OA
BRANCH  22  24
ATOM     24  C   UNL A   1      35.682  30.372  28.085  1.00  0.00     0.060 A 
ATOM     25  C   UNL A   1      35.676  29.695  29.311  1.00  0.00     0.016 A 
ATOM     26  C   UNL A   1      36.845  30.456  27.319  1.00  0.00     0.016 A 
ATOM     27  C   UNL A   1      36.857  29.165  29.816  1.00  0.00     0.010 A 
ATOM     28  C   UNL A   1      38.033  29.925  27.832  1.00  0.00     0.010 A 
ATOM     29  C   UNL A   1      38.051  29.321  29.103  1.00  0.00    -0.014 A 
BRANCH  29  30
ATOM     30  C   UNL A   1      39.334  28.989  29.769  1.00  0.00     0.031 A 
ATOM     31  C   UNL A   1      39.737  29.757  30.998  1.00  0.00     0.074 A 
ATOM     32  C   UNL A   1      40.095  27.980  29.311  1.00  0.00     0.049 A 
ATOM     33  N   UNL A   1      40.816  29.644  31.729  1.00  0.00    -0.248 NA
ATOM     34  C   UNL A   1      38.801  30.792  31.468  1.00  0.00     0.031 C 
ATOM     35  C   UNL A   1      39.775  27.139  28.158  1.00  0.00     0.029 A 
ATOM     36  N   UNL A   1      41.294  27.490  29.762  1.00  0.00    -0.354 N 
ATOM     37  C   UNL A   1      40.697  30.600  32.733  1.00  0.00     0.074 A 
ATOM     38  C   UNL A   1      39.455  31.305  32.500  1.00  0.00     0.031 C 
ATOM     39  C   UNL A   1      40.755  26.236  27.991  1.00  0.00     0.029 A 
ATOM     40  C   UNL A   1      41.790  26.463  28.998  1.00  0.00     0.049 A 
ATOM     41  H   UNL A   1      41.754  27.843  30.558  1.00  0.00     0.167 HD
ATOM     42  C   UNL A   1      41.544  30.858  33.756  1.00  0.00     0.037 A 
ATOM     43  C   UNL A   1      42.957  25.795  29.089  1.00  0.00     0.037 A 
ATOM     44  C   UNL A   1      42.774  30.140  33.978  1.00  0.00     0.049 A 
ATOM     45  C   UNL A   1      43.916  26.149  30.196  1.00  0.00     0.074 A 
ATOM     46  C   UNL A   1      43.691  30.304  35.001  1.00  0.00     0.029 A 
ATOM     47  N   UNL A   1      43.263  29.132  33.161  1.00  0.00    -0.354 N 
ATOM     48  N   UNL A   1      43.781  27.038  31.153  1.00  0.00    -0.248 NA
ATOM     49  C   UNL A   1      45.182  25.405  30.241  1.00  0.00     0.031 C 
ATOM     50  C   UNL A   1      44.767  29.442  34.764  1.00  0.00     0.029 A 
ATOM     51  C   UNL A   1      44.486  28.688  33.635  1.00  0.00     0.049 A 
ATOM     52  H   UNL A   1      42.806  28.782  32.361  1.00  0.00     0.167 HD
ATOM     53  C   UNL A   1      44.930  26.937  31.931  1.00  0.00     0.074 A 
ATOM     54  C   UNL A   1      45.741  25.893  31.340  1.00  0.00     0.031 C 
ATOM     55  C   UNL A   1      45.281  27.641  33.036  1.00  0.00     0.037 A 
BRANCH  42  56
ATOM     56  C   UNL A   1      41.195  31.985  34.693  1.00  0.00     0.058 A 
ATOM     57  C   UNL A   1      41.655  33.296  34.492  1.00  0.00     0.135 A 
ATOM     58  C   UNL A   1      40.350  31.753  35.792  1.00  0.00     0.135 A 
ATOM     59  F   UNL A   1      42.479  33.575  33.470  1.00  0.00    -0.206 F 
ATOM     60  C   UNL A   1      41.312  34.330  35.360  1.00  0.00     0.059 A 
ATOM     61  C   UNL A   1      39.967  32.777  36.652  1.00  0.00     0.059 A 
ATOM     62  F   UNL A   1      39.881  30.519  36.035  1.00  0.00    -0.206 F 
ATOM     63  C   UNL A   1      40.465  34.061  36.435  1.00  0.00     0.060 A 
BRANCH  63  64
ATOM     64  S   UNL A   1      40.022  35.414  37.545  1.00  0.00     0.124 S 
ATOM     65  O   UNL A   1      38.814  34.890  38.176  1.00  0.00    -0.237 OA
ATOM     66  O   UNL A   1      41.197  35.509  38.405  1.00  0.00    -0.237 OA
ATOM     67  O   UNL A   1      39.816  36.543  36.642  1.00  0.00    -0.744 OA
ENDBRANCH  63  64
ENDBRANCH  42  56
BRANCH  43  68
ATOM     68  C   UNL A   1      43.287  24.736  28.098  1.00  0.00     0.058 A 
ATOM     69  C   UNL A   1      42.943  23.396  28.327  1.00  0.00     0.135 A 
ATOM     70  C   UNL A   1      43.948  25.044  26.898  1.00  0.00     0.135 A 
ATOM     71  F   UNL A   1      42.319  23.048  29.462  1.00  0.00    -0.206 F 
ATOM     72  C   UNL A   1      43.256  22.396  27.411  1.00  0.00     0.059 A 
ATOM     73  C   UNL A   1      44.244  24.067  25.953  1.00  0.00     0.059 A 
ATOM     74  F   UNL A   1      44.290  26.313  26.623  1.00  0.00    -0.206 F 
ATOM     75  C   UNL A   1      43.902  22.744  26.223  1.00  0.00     0.060 A 
BRANCH  75  76
ATOM     76  S   UNL A   1      44.260  21.445  25.022  1.00  0.00     0.124 S 
ATOM     77  O   UNL A   1      43.218  20.471  25.322  1.00  0.00    -0.237 OA
ATOM     78  O   UNL A   1      44.124  22.157  23.756  1.00  0.00    -0.237 OA
ATOM     79  O   UNL A   1      45.621  21.039  25.362  1.00  0.00    -0.744 OA
ENDBRANCH  75  76
ENDBRANCH  43  68
BRANCH  55  80
ATOM     80  C   UNL A   1      46.578  27.281  33.710  1.00  0.00     0.058 A 
ATOM     81  C   UNL A   1      47.796  27.876  33.345  1.00  0.00     0.135 A 
ATOM     82  C   UNL A   1      46.592  26.362  34.773  1.00  0.00     0.135 A 
ATOM     83  F   UNL A   1      47.841  28.757  32.332  1.00  0.00    -0.206 F 
ATOM     84  C   UNL A   1      48.984  27.554  33.992  1.00  0.00     0.059 A 
ATOM     85  C   UNL A   1      47.764  26.051  35.456  1.00  0.00     0.059 A 
ATOM     86  F   UNL A   1      45.456  25.770  35.171  1.00  0.00    -0.206 F 
ATOM     87  C   UNL A   1      48.957  26.643  35.049  1.00  0.00     0.060 A 
BRANCH  87  88
ATOM     88  S   UNL A   1      50.503  26.260  35.901  1.00  0.00     0.124 S 
ATOM     89  O   UNL A   1      50.141  26.506  37.293  1.00  0.00    -0.237 OA
ATOM     90  O   UNL A   1      50.717  24.863  35.539  1.00  0.00    -0.237 OA
ATOM     91  O   UNL A   1      51.454  27.205  35.323  1.00  0.00    -0.744 OA
ENDBRANCH  87  88
ENDBRANCH  55  80
ENDBRANCH  29  30
ENDBRANCH  22  24
ENDBRANCH  21  22
ENDBRANCH  20  21
ENDBRANCH  19  20
ENDBRANCH   1  19
TORSDOF 22
ENDMDL
