MODEL 1
REMARK VINA RESULT:     -11.2      0.000      0.000
REMARK SMILES O=C(OCCOCCOC(=O)c1cc(-c2cccc(Cl)c2)ccc1Cl)c1ccc(-c2c3nc(c(-c4c(F)cc(S(=O)(=O)[O-])cc4F)c4ccc([nH]4)c(-c4c(F)cc(S(=O)(=O)[O-])cc4F)c4nc(c(-c5c(F)cc(S(=O)(=O)[O-])cc5F)c5ccc2[nH]5)C=C4)C=C3)cc1
REMARK SMILES IDX 5 1 4 2 3 3 2 4 1 5 26 6 27 7 91 8 28 9 90 10 29 11 30 12
REMARK SMILES IDX 31 13 84 14 32 15 89 16 83 17 85 18 33 19 88 20 82 21 81 22
REMARK SMILES IDX 34 24 68 25 47 26 67 27 48 28 51 29 66 30 86 31 49 32 50 33
REMARK SMILES IDX 65 35 87 36 52 37 35 38 36 39 45 40 37 41 38 42 44 43 46 44
REMARK SMILES IDX 39 45 40 46 41 47 42 48 43 49 69 50 70 51 79 52 71 53 72 54
REMARK SMILES IDX 78 55 80 56 73 57 74 58 75 59 76 60 77 61 53 62 54 63 63 64
REMARK SMILES IDX 55 65 56 66 62 67 64 68 57 69 58 70 59 71 60 72 61 73 6 74
REMARK SMILES IDX 7 75 8 76 9 77 10 78 11 79 12 80 13 81 24 82 14 83 23 84
REMARK SMILES IDX 25 85 22 86 15 87 16 88 21 89 17 90 19 91 18 92 20 93
REMARK H PARENT 85 23 51 34
REMARK Flexibility Score: inf
ROOT
ATOM      1  C   UNL A   1      34.995  31.921  27.880  1.00  0.00     0.202 C 
ENDROOT
BRANCH   1   2
ATOM      2  C   UNL A   1      34.722  32.022  29.384  1.00  0.00     0.261 C 
BRANCH   2   3
ATOM      3  O   UNL A   1      35.931  31.800  30.132  1.00  0.00    -0.460 OA
BRANCH   3   4
ATOM      4  C   UNL A   1      36.513  30.619  30.453  1.00  0.00     0.338 C 
ATOM      5  O   UNL A   1      35.909  29.850  31.199  1.00  0.00    -0.246 OA
BRANCH   4   6
ATOM      6  C   UNL A   1      37.861  30.204  29.958  1.00  0.00     0.060 A 
ATOM      7  C   UNL A   1      38.218  30.146  28.613  1.00  0.00     0.016 A 
ATOM      8  C   UNL A   1      38.861  29.948  30.913  1.00  0.00     0.016 A 
ATOM      9  C   UNL A   1      39.489  29.778  28.211  1.00  0.00     0.010 A 
ATOM     10  C   UNL A   1      40.169  29.633  30.519  1.00  0.00     0.010 A 
ATOM     11  C   UNL A   1      40.479  29.539  29.160  1.00  0.00    -0.014 A 
BRANCH  11  12
ATOM     12  C   UNL A   1      41.802  29.142  28.648  1.00  0.00     0.031 A 
ATOM     13  C   UNL A   1      42.929  30.123  28.731  1.00  0.00     0.074 A 
ATOM     14  C   UNL A   1      42.003  27.853  28.309  1.00  0.00     0.049 A 
ATOM     15  N   UNL A   1      44.180  29.969  28.396  1.00  0.00    -0.248 NA
ATOM     16  C   UNL A   1      42.613  31.449  29.291  1.00  0.00     0.031 C 
ATOM     17  C   UNL A   1      40.970  26.811  28.322  1.00  0.00     0.029 A 
ATOM     18  N   UNL A   1      43.139  27.185  27.944  1.00  0.00    -0.354 N 
ATOM     19  C   UNL A   1      44.799  31.176  28.693  1.00  0.00     0.074 A 
ATOM     20  C   UNL A   1      43.786  32.059  29.226  1.00  0.00     0.031 C 
ATOM     21  C   UNL A   1      41.531  25.629  28.019  1.00  0.00     0.029 A 
ATOM     22  C   UNL A   1      42.941  25.842  27.722  1.00  0.00     0.049 A 
ATOM     23  H   UNL A   1      44.016  27.623  27.850  1.00  0.00     0.167 HD
ATOM     24  C   UNL A   1      46.100  31.507  28.530  1.00  0.00     0.037 A 
ATOM     25  C   UNL A   1      43.803  24.900  27.295  1.00  0.00     0.037 A 
ATOM     26  C   UNL A   1      47.078  30.603  27.989  1.00  0.00     0.049 A 
ATOM     27  C   UNL A   1      45.224  25.324  27.032  1.00  0.00     0.074 A 
ATOM     28  C   UNL A   1      48.403  30.844  27.677  1.00  0.00     0.029 A 
ATOM     29  N   UNL A   1      46.830  29.269  27.685  1.00  0.00    -0.354 N 
ATOM     30  N   UNL A   1      45.780  26.499  27.228  1.00  0.00    -0.248 NA
ATOM     31  C   UNL A   1      46.128  24.313  26.476  1.00  0.00     0.031 C 
ATOM     32  C   UNL A   1      48.946  29.664  27.154  1.00  0.00     0.029 A 
ATOM     33  C   UNL A   1      47.972  28.676  27.180  1.00  0.00     0.049 A 
ATOM     34  H   UNL A   1      45.965  28.814  27.810  1.00  0.00     0.167 HD
ATOM     35  C   UNL A   1      47.101  26.366  26.820  1.00  0.00     0.074 A 
ATOM     36  C   UNL A   1      47.266  24.988  26.401  1.00  0.00     0.031 C 
ATOM     37  C   UNL A   1      48.087  27.297  26.778  1.00  0.00     0.037 A 
BRANCH  24  38
ATOM     38  C   UNL A   1      46.505  32.908  28.884  1.00  0.00     0.058 A 
ATOM     39  C   UNL A   1      46.422  33.961  27.960  1.00  0.00     0.135 A 
ATOM     40  C   UNL A   1      46.995  33.200  30.167  1.00  0.00     0.135 A 
ATOM     41  F   UNL A   1      45.993  33.729  26.709  1.00  0.00    -0.206 F 
ATOM     42  C   UNL A   1      46.826  35.252  28.289  1.00  0.00     0.059 A 
ATOM     43  C   UNL A   1      47.386  34.487  30.525  1.00  0.00     0.059 A 
ATOM     44  F   UNL A   1      47.111  32.227  31.084  1.00  0.00    -0.206 F 
ATOM     45  C   UNL A   1      47.307  35.505  29.574  1.00  0.00     0.060 A 
BRANCH  45  46
ATOM     46  S   UNL A   1      47.829  37.183  29.988  1.00  0.00     0.124 S 
ATOM     47  O   UNL A   1      48.416  37.625  28.727  1.00  0.00    -0.237 OA
ATOM     48  O   UNL A   1      46.568  37.819  30.356  1.00  0.00    -0.237 OA
ATOM     49  O   UNL A   1      48.773  36.986  31.084  1.00  0.00    -0.744 OA
ENDBRANCH  45  46
ENDBRANCH  24  38
BRANCH  25  50
ATOM     50  C   UNL A   1      43.340  23.512  27.015  1.00  0.00     0.058 A 
ATOM     51  C   UNL A   1      43.138  22.578  28.041  1.00  0.00     0.135 A 
ATOM     52  C   UNL A   1      43.123  23.080  25.695  1.00  0.00     0.135 A 
ATOM     53  F   UNL A   1      43.334  22.931  29.320  1.00  0.00    -0.206 F 
ATOM     54  C   UNL A   1      42.769  21.261  27.769  1.00  0.00     0.059 A 
ATOM     55  C   UNL A   1      42.725  21.781  25.399  1.00  0.00     0.059 A 
ATOM     56  F   UNL A   1      43.290  23.933  24.671  1.00  0.00    -0.206 F 
ATOM     57  C   UNL A   1      42.572  20.871  26.443  1.00  0.00     0.060 A 
BRANCH  57  58
ATOM     58  S   UNL A   1      42.104  19.162  26.090  1.00  0.00     0.124 S 
ATOM     59  O   UNL A   1      42.517  18.488  27.314  1.00  0.00    -0.237 OA
ATOM     60  O   UNL A   1      40.665  19.272  25.876  1.00  0.00    -0.237 OA
ATOM     61  O   UNL A   1      42.885  18.841  24.899  1.00  0.00    -0.744 OA
ENDBRANCH  57  58
ENDBRANCH  25  50
BRANCH  37  62
ATOM     62  C   UNL A   1      49.422  26.835  26.274  1.00  0.00     0.058 A 
ATOM     63  C   UNL A   1      50.335  26.183  27.117  1.00  0.00     0.135 A 
ATOM     64  C   UNL A   1      49.777  27.020  24.930  1.00  0.00     0.135 A 
ATOM     65  F   UNL A   1      50.041  25.990  28.412  1.00  0.00    -0.206 F 
ATOM     66  C   UNL A   1      51.572  25.756  26.648  1.00  0.00     0.059 A 
ATOM     67  C   UNL A   1      50.996  26.577  24.433  1.00  0.00     0.059 A 
ATOM     68  F   UNL A   1      48.930  27.629  24.084  1.00  0.00    -0.206 F 
ATOM     69  C   UNL A   1      51.893  25.960  25.305  1.00  0.00     0.060 A 
BRANCH  69  70
ATOM     70  S   UNL A   1      53.492  25.383  24.701  1.00  0.00     0.124 S 
ATOM     71  O   UNL A   1      53.454  23.973  25.074  1.00  0.00    -0.237 OA
ATOM     72  O   UNL A   1      53.408  25.663  23.271  1.00  0.00    -0.237 OA
ATOM     73  O   UNL A   1      54.448  26.205  25.439  1.00  0.00    -0.744 OA
ENDBRANCH  69  70
ENDBRANCH  37  62
ENDBRANCH  11  12
ENDBRANCH   4   6
ENDBRANCH   3   4
ENDBRANCH   2   3
ENDBRANCH   1   2
BRANCH   1  74
ATOM     74  O   UNL A   1      34.252  30.908  27.203  1.00  0.00    -0.374 OA
BRANCH  74  75
ATOM     75  C   UNL A   1      34.723  29.567  27.384  1.00  0.00     0.202 C 
BRANCH  75  76
ATOM     76  C   UNL A   1      33.528  28.615  27.400  1.00  0.00     0.261 C 
BRANCH  76  77
ATOM     77  O   UNL A   1      32.767  28.854  26.205  1.00  0.00    -0.460 OA
BRANCH  77  78
ATOM     78  C   UNL A   1      32.789  27.866  25.278  1.00  0.00     0.339 C 
ATOM     79  O   UNL A   1      33.674  27.056  25.061  1.00  0.00    -0.246 OA
BRANCH  78  80
ATOM     80  C   UNL A   1      31.427  27.754  24.729  1.00  0.00     0.079 A 
ATOM     81  C   UNL A   1      30.876  28.916  24.151  1.00  0.00     0.026 A 
ATOM     82  C   UNL A   1      30.729  26.545  24.680  1.00  0.00     0.055 A 
ATOM     83  C   UNL A   1      29.659  28.861  23.461  1.00  0.00    -0.017 A 
ATOM     84  C   UNL A   1      29.511  26.488  24.005  1.00  0.00     0.022 A 
ATOM     85  Cl  UNL A   1      31.277  25.103  25.456  1.00  0.00    -0.083 Cl
ATOM     86  C   UNL A   1      28.990  27.629  23.391  1.00  0.00     0.010 A 
BRANCH  83  87
ATOM     87  C   UNL A   1      29.077  30.038  22.811  1.00  0.00    -0.017 A 
ATOM     88  C   UNL A   1      28.410  29.907  21.581  1.00  0.00     0.009 A 
ATOM     89  C   UNL A   1      29.241  31.323  23.350  1.00  0.00     0.029 A 
ATOM     90  C   UNL A   1      27.942  31.030  20.894  1.00  0.00     0.002 A 
ATOM     91  C   UNL A   1      28.775  32.443  22.658  1.00  0.00     0.041 A 
ATOM     92  C   UNL A   1      28.132  32.302  21.430  1.00  0.00     0.020 A 
ATOM     93  Cl  UNL A   1      29.027  34.016  23.310  1.00  0.00    -0.084 Cl
ENDBRANCH  83  87
ENDBRANCH  78  80
ENDBRANCH  77  78
ENDBRANCH  76  77
ENDBRANCH  75  76
ENDBRANCH  74  75
ENDBRANCH   1  74
TORSDOF 18
ENDMDL
MODEL 2
REMARK VINA RESULT:     -11.2      2.104      3.914
REMARK SMILES O=C(OCCOCCOC(=O)c1cc(-c2cccc(Cl)c2)ccc1Cl)c1ccc(-c2c3nc(c(-c4c(F)cc(S(=O)(=O)[O-])cc4F)c4ccc([nH]4)c(-c4c(F)cc(S(=O)(=O)[O-])cc4F)c4nc(c(-c5c(F)cc(S(=O)(=O)[O-])cc5F)c5ccc2[nH]5)C=C4)C=C3)cc1
REMARK SMILES IDX 5 1 4 2 3 3 2 4 1 5 26 6 27 7 91 8 28 9 90 10 29 11 30 12
REMARK SMILES IDX 31 13 84 14 32 15 89 16 83 17 85 18 33 19 88 20 82 21 81 22
REMARK SMILES IDX 34 24 68 25 47 26 67 27 48 28 51 29 66 30 86 31 49 32 50 33
REMARK SMILES IDX 65 35 87 36 52 37 35 38 36 39 45 40 37 41 38 42 44 43 46 44
REMARK SMILES IDX 39 45 40 46 41 47 42 48 43 49 69 50 70 51 79 52 71 53 72 54
REMARK SMILES IDX 78 55 80 56 73 57 74 58 75 59 76 60 77 61 53 62 54 63 63 64
REMARK SMILES IDX 55 65 56 66 62 67 64 68 57 69 58 70 59 71 60 72 61 73 6 74
REMARK SMILES IDX 7 75 8 76 9 77 10 78 11 79 12 80 13 81 24 82 14 83 23 84
REMARK SMILES IDX 25 85 22 86 15 87 16 88 21 89 17 90 19 91 18 92 20 93
REMARK H PARENT 85 23 51 34
REMARK Flexibility Score: inf
ROOT
ATOM      1  C   UNL A   1      34.587  31.596  27.956  1.00  0.00     0.202 C 
ENDROOT
BRANCH   1   2
ATOM      2  C   UNL A   1      34.620  32.129  29.393  1.00  0.00     0.261 C 
BRANCH   2   3
ATOM      3  O   UNL A   1      35.926  31.946  29.968  1.00  0.00    -0.460 OA
BRANCH   3   4
ATOM      4  C   UNL A   1      36.510  30.793  30.376  1.00  0.00     0.338 C 
ATOM      5  O   UNL A   1      35.903  30.077  31.170  1.00  0.00    -0.246 OA
BRANCH   4   6
ATOM      6  C   UNL A   1      37.863  30.350  29.921  1.00  0.00     0.060 A 
ATOM      7  C   UNL A   1      38.255  30.276  28.586  1.00  0.00     0.016 A 
ATOM      8  C   UNL A   1      38.831  30.081  30.904  1.00  0.00     0.016 A 
ATOM      9  C   UNL A   1      39.530  29.881  28.222  1.00  0.00     0.010 A 
ATOM     10  C   UNL A   1      40.143  29.738  30.548  1.00  0.00     0.010 A 
ATOM     11  C   UNL A   1      40.488  29.629  29.199  1.00  0.00    -0.014 A 
BRANCH  11  12
ATOM     12  C   UNL A   1      41.818  29.203  28.726  1.00  0.00     0.031 A 
ATOM     13  C   UNL A   1      42.964  30.158  28.847  1.00  0.00     0.074 A 
ATOM     14  C   UNL A   1      41.999  27.911  28.388  1.00  0.00     0.049 A 
ATOM     15  N   UNL A   1      44.220  29.977  28.550  1.00  0.00    -0.248 NA
ATOM     16  C   UNL A   1      42.660  31.489  29.402  1.00  0.00     0.031 C 
ATOM     17  C   UNL A   1      40.942  26.893  28.365  1.00  0.00     0.029 A 
ATOM     18  N   UNL A   1      43.131  27.218  28.055  1.00  0.00    -0.354 N 
ATOM     19  C   UNL A   1      44.857  31.168  28.870  1.00  0.00     0.074 A 
ATOM     20  C   UNL A   1      43.848  32.073  29.375  1.00  0.00     0.031 C 
ATOM     21  C   UNL A   1      41.485  25.700  28.075  1.00  0.00     0.029 A 
ATOM     22  C   UNL A   1      42.908  25.881  27.822  1.00  0.00     0.049 A 
ATOM     23  H   UNL A   1      44.019  27.637  27.990  1.00  0.00     0.167 HD
ATOM     24  C   UNL A   1      46.170  31.469  28.748  1.00  0.00     0.037 A 
ATOM     25  C   UNL A   1      43.762  24.921  27.418  1.00  0.00     0.037 A 
ATOM     26  C   UNL A   1      47.143  30.545  28.233  1.00  0.00     0.049 A 
ATOM     27  C   UNL A   1      45.199  25.314  27.201  1.00  0.00     0.074 A 
ATOM     28  C   UNL A   1      48.482  30.757  27.963  1.00  0.00     0.029 A 
ATOM     29  N   UNL A   1      46.873  29.219  27.917  1.00  0.00    -0.354 N 
ATOM     30  N   UNL A   1      45.776  26.474  27.418  1.00  0.00    -0.248 NA
ATOM     31  C   UNL A   1      46.096  24.284  26.668  1.00  0.00     0.031 C 
ATOM     32  C   UNL A   1      49.014  29.566  27.452  1.00  0.00     0.029 A 
ATOM     33  C   UNL A   1      48.017  28.601  27.445  1.00  0.00     0.049 A 
ATOM     34  H   UNL A   1      45.995  28.783  28.014  1.00  0.00     0.167 HD
ATOM     35  C   UNL A   1      47.105  26.313  27.050  1.00  0.00     0.074 A 
ATOM     36  C   UNL A   1      47.251  24.932  26.631  1.00  0.00     0.031 C 
ATOM     37  C   UNL A   1      48.113  27.221  27.041  1.00  0.00     0.037 A 
BRANCH  24  38
ATOM     38  C   UNL A   1      46.595  32.860  29.120  1.00  0.00     0.058 A 
ATOM     39  C   UNL A   1      46.542  33.922  28.204  1.00  0.00     0.135 A 
ATOM     40  C   UNL A   1      47.076  33.132  30.411  1.00  0.00     0.135 A 
ATOM     41  F   UNL A   1      46.123  33.710  26.946  1.00  0.00    -0.206 F 
ATOM     42  C   UNL A   1      46.965  35.203  28.550  1.00  0.00     0.059 A 
ATOM     43  C   UNL A   1      47.486  34.408  30.785  1.00  0.00     0.059 A 
ATOM     44  F   UNL A   1      47.165  32.149  31.320  1.00  0.00    -0.206 F 
ATOM     45  C   UNL A   1      47.436  35.436  29.843  1.00  0.00     0.060 A 
BRANCH  45  46
ATOM     46  S   UNL A   1      47.983  37.100  30.278  1.00  0.00     0.124 S 
ATOM     47  O   UNL A   1      47.482  37.877  29.149  1.00  0.00    -0.237 OA
ATOM     48  O   UNL A   1      47.307  37.327  31.552  1.00  0.00    -0.237 OA
ATOM     49  O   UNL A   1      49.435  36.973  30.356  1.00  0.00    -0.744 OA
ENDBRANCH  45  46
ENDBRANCH  24  38
BRANCH  25  50
ATOM     50  C   UNL A   1      43.276  23.545  27.119  1.00  0.00     0.058 A 
ATOM     51  C   UNL A   1      43.039  22.606  28.134  1.00  0.00     0.135 A 
ATOM     52  C   UNL A   1      43.071  23.129  25.792  1.00  0.00     0.135 A 
ATOM     53  F   UNL A   1      43.222  22.945  29.418  1.00  0.00    -0.206 F 
ATOM     54  C   UNL A   1      42.648  21.299  27.844  1.00  0.00     0.059 A 
ATOM     55  C   UNL A   1      42.652  21.841  25.479  1.00  0.00     0.059 A 
ATOM     56  F   UNL A   1      43.271  23.986  24.778  1.00  0.00    -0.206 F 
ATOM     57  C   UNL A   1      42.465  20.925  26.512  1.00  0.00     0.060 A 
BRANCH  57  58
ATOM     58  S   UNL A   1      41.968  19.229  26.137  1.00  0.00     0.124 S 
ATOM     59  O   UNL A   1      42.285  18.549  27.387  1.00  0.00    -0.237 OA
ATOM     60  O   UNL A   1      40.550  19.380  25.833  1.00  0.00    -0.237 OA
ATOM     61  O   UNL A   1      42.812  18.878  24.997  1.00  0.00    -0.744 OA
ENDBRANCH  57  58
ENDBRANCH  25  50
BRANCH  37  62
ATOM     62  C   UNL A   1      49.452  26.730  26.576  1.00  0.00     0.058 A 
ATOM     63  C   UNL A   1      50.363  26.141  27.466  1.00  0.00     0.135 A 
ATOM     64  C   UNL A   1      49.812  26.823  25.224  1.00  0.00     0.135 A 
ATOM     65  F   UNL A   1      50.063  26.037  28.771  1.00  0.00    -0.206 F 
ATOM     66  C   UNL A   1      51.603  25.687  27.034  1.00  0.00     0.059 A 
ATOM     67  C   UNL A   1      51.035  26.351  24.765  1.00  0.00     0.059 A 
ATOM     68  F   UNL A   1      48.967  27.369  24.335  1.00  0.00    -0.206 F 
ATOM     69  C   UNL A   1      51.930  25.798  25.681  1.00  0.00     0.060 A 
BRANCH  69  70
ATOM     70  S   UNL A   1      53.534  25.187  25.126  1.00  0.00     0.124 S 
ATOM     71  O   UNL A   1      53.583  25.695  23.760  1.00  0.00    -0.237 OA
ATOM     72  O   UNL A   1      54.454  25.816  26.070  1.00  0.00    -0.237 OA
ATOM     73  O   UNL A   1      53.407  23.739  25.256  1.00  0.00    -0.744 OA
ENDBRANCH  69  70
ENDBRANCH  37  62
ENDBRANCH  11  12
ENDBRANCH   4   6
ENDBRANCH   3   4
ENDBRANCH   2   3
ENDBRANCH   1   2
BRANCH   1  74
ATOM     74  O   UNL A   1      33.943  30.331  27.802  1.00  0.00    -0.374 OA
BRANCH  74  75
ATOM     75  C   UNL A   1      33.221  30.148  26.577  1.00  0.00     0.202 C 
BRANCH  75  76
ATOM     76  C   UNL A   1      33.893  29.044  25.761  1.00  0.00     0.261 C 
BRANCH  76  77
ATOM     77  O   UNL A   1      33.890  27.851  26.562  1.00  0.00    -0.460 OA
BRANCH  77  78
ATOM     78  C   UNL A   1      32.913  26.952  26.287  1.00  0.00     0.339 C 
ATOM     79  O   UNL A   1      31.765  26.939  26.696  1.00  0.00    -0.246 OA
BRANCH  78  80
ATOM     80  C   UNL A   1      33.393  26.115  25.174  1.00  0.00     0.079 A 
ATOM     81  C   UNL A   1      34.457  25.234  25.454  1.00  0.00     0.026 A 
ATOM     82  C   UNL A   1      32.780  26.101  23.919  1.00  0.00     0.055 A 
ATOM     83  C   UNL A   1      34.867  24.288  24.507  1.00  0.00    -0.017 A 
ATOM     84  C   UNL A   1      33.192  25.169  22.969  1.00  0.00     0.022 A 
ATOM     85  Cl  UNL A   1      31.546  27.218  23.455  1.00  0.00    -0.083 Cl
ATOM     86  C   UNL A   1      34.214  24.264  23.265  1.00  0.00     0.010 A 
BRANCH  83  87
ATOM     87  C   UNL A   1      35.941  23.327  24.778  1.00  0.00    -0.017 A 
ATOM     88  C   UNL A   1      35.782  21.976  24.429  1.00  0.00     0.009 A 
ATOM     89  C   UNL A   1      37.105  23.710  25.462  1.00  0.00     0.029 A 
ATOM     90  C   UNL A   1      36.747  21.026  24.775  1.00  0.00     0.002 A 
ATOM     91  C   UNL A   1      38.065  22.758  25.808  1.00  0.00     0.041 A 
ATOM     92  C   UNL A   1      37.888  21.417  25.473  1.00  0.00     0.020 A 
ATOM     93  Cl  UNL A   1      39.465  23.237  26.687  1.00  0.00    -0.084 Cl
ENDBRANCH  83  87
ENDBRANCH  78  80
ENDBRANCH  77  78
ENDBRANCH  76  77
ENDBRANCH  75  76
ENDBRANCH  74  75
ENDBRANCH   1  74
TORSDOF 18
ENDMDL
MODEL 3
REMARK VINA RESULT:     -11.2      6.546     11.939
REMARK SMILES O=C(OCCOCCOC(=O)c1cc(-c2cccc(Cl)c2)ccc1Cl)c1ccc(-c2c3nc(c(-c4c(F)cc(S(=O)(=O)[O-])cc4F)c4ccc([nH]4)c(-c4c(F)cc(S(=O)(=O)[O-])cc4F)c4nc(c(-c5c(F)cc(S(=O)(=O)[O-])cc5F)c5ccc2[nH]5)C=C4)C=C3)cc1
REMARK SMILES IDX 5 1 4 2 3 3 2 4 1 5 26 6 27 7 91 8 28 9 90 10 29 11 30 12
REMARK SMILES IDX 31 13 84 14 32 15 89 16 83 17 85 18 33 19 88 20 82 21 81 22
REMARK SMILES IDX 34 24 68 25 47 26 67 27 48 28 51 29 66 30 86 31 49 32 50 33
REMARK SMILES IDX 65 35 87 36 52 37 35 38 36 39 45 40 37 41 38 42 44 43 46 44
REMARK SMILES IDX 39 45 40 46 41 47 42 48 43 49 69 50 70 51 79 52 71 53 72 54
REMARK SMILES IDX 78 55 80 56 73 57 74 58 75 59 76 60 77 61 53 62 54 63 63 64
REMARK SMILES IDX 55 65 56 66 62 67 64 68 57 69 58 70 59 71 60 72 61 73 6 74
REMARK SMILES IDX 7 75 8 76 9 77 10 78 11 79 12 80 13 81 24 82 14 83 23 84
REMARK SMILES IDX 25 85 22 86 15 87 16 88 21 89 17 90 19 91 18 92 20 93
REMARK H PARENT 85 23 51 34
REMARK Flexibility Score: inf
ROOT
ATOM      1  C   UNL A   1      39.884  22.401  26.778  1.00  0.00     0.202 C 
ENDROOT
BRANCH   1   2
ATOM      2  C   UNL A   1      41.205  22.582  26.022  1.00  0.00     0.261 C 
BRANCH   2   3
ATOM      3  O   UNL A   1      41.915  23.731  26.517  1.00  0.00    -0.460 OA
BRANCH   3   4
ATOM      4  C   UNL A   1      41.599  25.041  26.369  1.00  0.00     0.338 C 
ATOM      5  O   UNL A   1      41.492  25.494  25.231  1.00  0.00    -0.246 OA
BRANCH   4   6
ATOM      6  C   UNL A   1      41.385  25.971  27.520  1.00  0.00     0.060 A 
ATOM      7  C   UNL A   1      42.170  27.093  27.777  1.00  0.00     0.016 A 
ATOM      8  C   UNL A   1      40.264  25.753  28.340  1.00  0.00     0.016 A 
ATOM      9  C   UNL A   1      41.911  27.934  28.844  1.00  0.00     0.010 A 
ATOM     10  C   UNL A   1      39.957  26.632  29.388  1.00  0.00     0.010 A 
ATOM     11  C   UNL A   1      40.793  27.722  29.644  1.00  0.00    -0.014 A 
BRANCH  11  12
ATOM     12  C   UNL A   1      40.596  28.658  30.766  1.00  0.00     0.031 A 
ATOM     13  C   UNL A   1      41.570  28.635  31.901  1.00  0.00     0.074 A 
ATOM     14  C   UNL A   1      39.671  29.631  30.639  1.00  0.00     0.049 A 
ATOM     15  N   UNL A   1      41.623  29.400  32.956  1.00  0.00    -0.248 NA
ATOM     16  C   UNL A   1      42.647  27.631  31.829  1.00  0.00     0.031 C 
ATOM     17  C   UNL A   1      38.765  29.784  29.496  1.00  0.00     0.029 A 
ATOM     18  N   UNL A   1      39.374  30.699  31.441  1.00  0.00    -0.354 N 
ATOM     19  C   UNL A   1      42.728  28.968  33.678  1.00  0.00     0.074 A 
ATOM     20  C   UNL A   1      43.314  27.865  32.949  1.00  0.00     0.031 C 
ATOM     21  C   UNL A   1      38.043  30.905  29.652  1.00  0.00     0.029 A 
ATOM     22  C   UNL A   1      38.382  31.506  30.935  1.00  0.00     0.049 A 
ATOM     23  H   UNL A   1      39.827  30.873  32.297  1.00  0.00     0.167 HD
ATOM     24  C   UNL A   1      43.201  29.456  34.846  1.00  0.00     0.037 A 
ATOM     25  C   UNL A   1      37.796  32.594  31.471  1.00  0.00     0.037 A 
ATOM     26  C   UNL A   1      42.586  30.551  35.547  1.00  0.00     0.049 A 
ATOM     27  C   UNL A   1      38.284  33.055  32.819  1.00  0.00     0.074 A 
ATOM     28  C   UNL A   1      42.903  31.075  36.786  1.00  0.00     0.029 A 
ATOM     29  N   UNL A   1      41.521  31.297  35.055  1.00  0.00    -0.354 N 
ATOM     30  N   UNL A   1      39.274  32.579  33.541  1.00  0.00    -0.248 NA
ATOM     31  C   UNL A   1      37.574  34.179  33.435  1.00  0.00     0.031 C 
ATOM     32  C   UNL A   1      42.008  32.117  37.056  1.00  0.00     0.029 A 
ATOM     33  C   UNL A   1      41.162  32.271  35.968  1.00  0.00     0.049 A 
ATOM     34  H   UNL A   1      41.086  31.152  34.183  1.00  0.00     0.167 HD
ATOM     35  C   UNL A   1      39.305  33.348  34.697  1.00  0.00     0.074 A 
ATOM     36  C   UNL A   1      38.258  34.342  34.558  1.00  0.00     0.031 C 
ATOM     37  C   UNL A   1      40.111  33.240  35.783  1.00  0.00     0.037 A 
BRANCH  24  38
ATOM     38  C   UNL A   1      44.392  28.769  35.449  1.00  0.00     0.058 A 
ATOM     39  C   UNL A   1      45.705  29.167  35.156  1.00  0.00     0.135 A 
ATOM     40  C   UNL A   1      44.215  27.686  36.325  1.00  0.00     0.135 A 
ATOM     41  F   UNL A   1      45.930  30.174  34.297  1.00  0.00    -0.206 F 
ATOM     42  C   UNL A   1      46.804  28.506  35.698  1.00  0.00     0.059 A 
ATOM     43  C   UNL A   1      45.298  27.023  36.895  1.00  0.00     0.059 A 
ATOM     44  F   UNL A   1      42.981  27.254  36.625  1.00  0.00    -0.206 F 
ATOM     45  C   UNL A   1      46.590  27.433  36.566  1.00  0.00     0.060 A 
BRANCH  45  46
ATOM     46  S   UNL A   1      48.023  26.583  37.261  1.00  0.00     0.124 S 
ATOM     47  O   UNL A   1      48.544  25.884  36.090  1.00  0.00    -0.237 OA
ATOM     48  O   UNL A   1      48.836  27.693  37.749  1.00  0.00    -0.237 OA
ATOM     49  O   UNL A   1      47.446  25.730  38.295  1.00  0.00    -0.744 OA
ENDBRANCH  45  46
ENDBRANCH  24  38
BRANCH  25  50
ATOM     50  C   UNL A   1      36.651  33.258  30.788  1.00  0.00     0.058 A 
ATOM     51  C   UNL A   1      36.841  34.148  29.720  1.00  0.00     0.135 A 
ATOM     52  C   UNL A   1      35.332  33.039  31.221  1.00  0.00     0.135 A 
ATOM     53  F   UNL A   1      38.078  34.400  29.268  1.00  0.00    -0.206 F 
ATOM     54  C   UNL A   1      35.771  34.818  29.129  1.00  0.00     0.059 A 
ATOM     55  C   UNL A   1      34.245  33.671  30.627  1.00  0.00     0.059 A 
ATOM     56  F   UNL A   1      35.087  32.190  32.231  1.00  0.00    -0.206 F 
ATOM     57  C   UNL A   1      34.477  34.578  29.594  1.00  0.00     0.060 A 
BRANCH  57  58
ATOM     58  S   UNL A   1      33.093  35.455  28.834  1.00  0.00     0.124 S 
ATOM     59  O   UNL A   1      32.331  35.870  30.006  1.00  0.00    -0.237 OA
ATOM     60  O   UNL A   1      33.766  36.520  28.098  1.00  0.00    -0.237 OA
ATOM     61  O   UNL A   1      32.464  34.431  28.004  1.00  0.00    -0.744 OA
ENDBRANCH  57  58
ENDBRANCH  25  50
BRANCH  37  62
ATOM     62  C   UNL A   1      39.887  34.233  36.884  1.00  0.00     0.058 A 
ATOM     63  C   UNL A   1      39.165  33.894  38.038  1.00  0.00     0.135 A 
ATOM     64  C   UNL A   1      40.428  35.525  36.796  1.00  0.00     0.135 A 
ATOM     65  F   UNL A   1      38.624  32.672  38.163  1.00  0.00    -0.206 F 
ATOM     66  C   UNL A   1      38.959  34.816  39.057  1.00  0.00     0.059 A 
ATOM     67  C   UNL A   1      40.257  36.453  37.815  1.00  0.00     0.059 A 
ATOM     68  F   UNL A   1      41.136  35.889  35.714  1.00  0.00    -0.206 F 
ATOM     69  C   UNL A   1      39.508  36.094  38.935  1.00  0.00     0.060 A 
BRANCH  69  70
ATOM     70  S   UNL A   1      39.253  37.277  40.273  1.00  0.00     0.124 S 
ATOM     71  O   UNL A   1      38.515  36.470  41.239  1.00  0.00    -0.237 OA
ATOM     72  O   UNL A   1      40.620  37.625  40.649  1.00  0.00    -0.237 OA
ATOM     73  O   UNL A   1      38.493  38.348  39.636  1.00  0.00    -0.744 OA
ENDBRANCH  69  70
ENDBRANCH  37  62
ENDBRANCH  11  12
ENDBRANCH   4   6
ENDBRANCH   3   4
ENDBRANCH   2   3
ENDBRANCH   1   2
BRANCH   1  74
ATOM     74  O   UNL A   1      38.808  23.210  26.305  1.00  0.00    -0.374 OA
BRANCH  74  75
ATOM     75  C   UNL A   1      37.747  22.509  25.644  1.00  0.00     0.202 C 
BRANCH  75  76
ATOM     76  C   UNL A   1      37.049  23.458  24.671  1.00  0.00     0.261 C 
BRANCH  76  77
ATOM     77  O   UNL A   1      35.787  23.823  25.253  1.00  0.00    -0.460 OA
BRANCH  77  78
ATOM     78  C   UNL A   1      34.848  24.288  24.392  1.00  0.00     0.339 C 
ATOM     79  O   UNL A   1      34.725  24.040  23.205  1.00  0.00    -0.246 OA
BRANCH  78  80
ATOM     80  C   UNL A   1      33.812  24.956  25.199  1.00  0.00     0.079 A 
ATOM     81  C   UNL A   1      34.058  26.293  25.571  1.00  0.00     0.026 A 
ATOM     82  C   UNL A   1      32.591  24.352  25.510  1.00  0.00     0.055 A 
ATOM     83  C   UNL A   1      33.063  27.054  26.194  1.00  0.00    -0.017 A 
ATOM     84  C   UNL A   1      31.601  25.102  26.141  1.00  0.00     0.022 A 
ATOM     85  Cl  UNL A   1      32.248  22.690  25.190  1.00  0.00    -0.083 Cl
ATOM     86  C   UNL A   1      31.830  26.442  26.466  1.00  0.00     0.010 A 
BRANCH  83  87
ATOM     87  C   UNL A   1      33.267  28.459  26.557  1.00  0.00    -0.017 A 
ATOM     88  C   UNL A   1      34.433  28.850  27.235  1.00  0.00     0.009 A 
ATOM     89  C   UNL A   1      32.278  29.425  26.314  1.00  0.00     0.029 A 
ATOM     90  C   UNL A   1      34.598  30.163  27.683  1.00  0.00     0.002 A 
ATOM     91  C   UNL A   1      32.445  30.735  26.767  1.00  0.00     0.041 A 
ATOM     92  C   UNL A   1      33.598  31.106  27.456  1.00  0.00     0.020 A 
ATOM     93  Cl  UNL A   1      31.201  31.895  26.503  1.00  0.00    -0.084 Cl
ENDBRANCH  83  87
ENDBRANCH  78  80
ENDBRANCH  77  78
ENDBRANCH  76  77
ENDBRANCH  75  76
ENDBRANCH  74  75
ENDBRANCH   1  74
TORSDOF 18
ENDMDL
