MODEL 1
REMARK VINA RESULT:     -11.8      0.000      0.000
REMARK SMILES Cc1ncc(CC(=O)N2CCC(Cc3cccc(C(=O)OCCOCCOC(=O)c4ccc(-c5c6nc(c(-c7c(F)cc(S(=O)(=O)[O-])cc7F)c7ccc([nH]7)c(-c7c(F)cc(S(=O)(=O)[O-])cc7F)c7nc(c(-c8c(F)cc(S(=O)(=O)[O-])cc8F)c8ccc5[nH]8)C=C7)C=C6)cc4)c3)CC2)c(=O)[nH]1
REMARK SMILES IDX 23 1 22 2 21 3 19 4 20 5 18 6 14 7 15 8 96 9 16 10 17 11
REMARK SMILES IDX 13 12 12 13 7 14 8 15 9 16 10 17 98 18 11 19 97 20 6 21 5 22
REMARK SMILES IDX 1 23 2 24 3 25 101 26 4 27 99 28 100 30 24 31 25 32 26 33
REMARK SMILES IDX 27 34 28 35 29 36 30 37 31 38 95 39 32 40 94 41 33 42 34 43
REMARK SMILES IDX 35 44 88 45 36 46 93 47 87 48 89 49 37 50 92 51 86 52 85 53
REMARK SMILES IDX 38 55 72 56 51 57 71 58 52 59 55 60 70 61 90 62 53 63 54 64
REMARK SMILES IDX 69 66 91 67 56 68 39 69 40 70 49 71 41 72 42 73 48 74 50 75
REMARK SMILES IDX 43 76 44 77 45 78 46 79 47 80 73 81 74 82 83 83 75 84 76 85
REMARK SMILES IDX 82 86 84 87 77 88 78 89 79 90 80 91 81 92 57 93 58 94 67 95
REMARK SMILES IDX 59 96 60 97 66 98 68 99 61 100 62 101 63 102 64 103 65 104
REMARK H PARENT 101 29 89 54 55 65
REMARK Flexibility Score: inf
ROOT
ATOM      1  C   UNL A   1      43.735  21.239  25.603  1.00  0.00     0.202 C 
ENDROOT
BRANCH   1   2
ATOM      2  C   UNL A   1      42.697  20.149  25.893  1.00  0.00     0.261 C 
BRANCH   2   3
ATOM      3  O   UNL A   1      41.366  20.624  25.636  1.00  0.00    -0.460 OA
BRANCH   3   4
ATOM      4  C   UNL A   1      40.591  20.811  26.730  1.00  0.00     0.338 C 
ATOM      5  O   UNL A   1      40.744  20.304  27.833  1.00  0.00    -0.246 OA
BRANCH   4   6
ATOM      6  C   UNL A   1      39.599  21.882  26.465  1.00  0.00     0.060 A 
ATOM      7  C   UNL A   1      37.533  22.701  25.474  1.00  0.00    -0.047 A 
ATOM      8  C   UNL A   1      37.803  23.971  26.005  1.00  0.00     0.004 A 
ATOM      9  C   UNL A   1      38.467  21.671  25.670  1.00  0.00     0.019 A 
ATOM     10  C   UNL A   1      38.955  24.195  26.760  1.00  0.00     0.001 A 
ATOM     11  C   UNL A   1      39.842  23.148  27.005  1.00  0.00     0.016 A 
BRANCH   7  12
ATOM     12  C   UNL A   1      36.233  22.444  24.741  1.00  0.00     0.039 C 
BRANCH  12  13
ATOM     13  C   UNL A   1      35.476  23.739  24.390  1.00  0.00    -0.003 C 
ATOM     14  C   UNL A   1      31.696  25.353  24.064  1.00  0.00     0.227 C 
ATOM     15  O   UNL A   1      31.063  24.656  23.260  1.00  0.00    -0.275 OA
ATOM     16  N   UNL A   1      33.084  25.342  24.070  1.00  0.00    -0.342 N 
ATOM     17  C   UNL A   1      33.775  24.837  22.887  1.00  0.00     0.120 C 
ATOM     18  C   UNL A   1      33.966  25.577  25.213  1.00  0.00     0.120 C 
ATOM     19  C   UNL A   1      34.521  23.544  23.194  1.00  0.00     0.025 C 
ATOM     20  C   UNL A   1      34.687  24.277  25.593  1.00  0.00     0.025 C 
BRANCH  14  21
ATOM     21  C   UNL A   1      30.929  26.415  24.867  1.00  0.00     0.143 C 
BRANCH  21  22
ATOM     22  C   UNL A   1      30.381  27.595  24.145  1.00  0.00     0.045 A 
ATOM     23  C   UNL A   1      29.213  30.826  21.688  1.00  0.00     0.087 C 
ATOM     24  C   UNL A   1      29.559  29.672  22.579  1.00  0.00     0.105 A 
ATOM     25  N   UNL A   1      28.898  28.564  22.516  1.00  0.00    -0.243 NA
ATOM     26  N   UNL A   1      30.607  29.873  23.432  1.00  0.00    -0.311 N 
ATOM     27  C   UNL A   1      29.330  27.539  23.313  1.00  0.00     0.123 A 
ATOM     28  C   UNL A   1      31.060  28.899  24.275  1.00  0.00     0.254 A 
ATOM     29  H   UNL A   1      31.053  30.751  23.438  1.00  0.00     0.171 HD
ATOM     30  O   UNL A   1      31.980  29.095  25.059  1.00  0.00    -0.269 OA
ENDBRANCH  21  22
ENDBRANCH  14  21
ENDBRANCH  12  13
ENDBRANCH   7  12
ENDBRANCH   4   6
ENDBRANCH   3   4
ENDBRANCH   2   3
ENDBRANCH   1   2
BRANCH   1  31
ATOM     31  O   UNL A   1      43.370  22.239  24.651  1.00  0.00    -0.374 OA
BRANCH  31  32
ATOM     32  C   UNL A   1      44.053  23.492  24.723  1.00  0.00     0.202 C 
BRANCH  32  33
ATOM     33  C   UNL A   1      43.860  24.329  25.993  1.00  0.00     0.261 C 
BRANCH  33  34
ATOM     34  O   UNL A   1      43.734  25.734  25.716  1.00  0.00    -0.460 OA
BRANCH  34  35
ATOM     35  C   UNL A   1      42.492  26.238  25.912  1.00  0.00     0.338 C 
ATOM     36  O   UNL A   1      41.514  26.090  25.194  1.00  0.00    -0.246 OA
BRANCH  35  37
ATOM     37  C   UNL A   1      42.413  26.870  27.241  1.00  0.00     0.060 A 
ATOM     38  C   UNL A   1      41.502  26.335  28.160  1.00  0.00     0.016 A 
ATOM     39  C   UNL A   1      43.165  28.001  27.561  1.00  0.00     0.016 A 
ATOM     40  C   UNL A   1      41.307  26.956  29.391  1.00  0.00     0.010 A 
ATOM     41  C   UNL A   1      42.963  28.628  28.794  1.00  0.00     0.010 A 
ATOM     42  C   UNL A   1      42.011  28.127  29.702  1.00  0.00    -0.014 A 
BRANCH  42  43
ATOM     43  C   UNL A   1      41.666  28.893  30.924  1.00  0.00     0.031 A 
ATOM     44  C   UNL A   1      40.497  29.837  30.894  1.00  0.00     0.074 A 
ATOM     45  C   UNL A   1      42.387  28.743  32.049  1.00  0.00     0.049 A 
ATOM     46  N   UNL A   1      40.058  30.642  31.826  1.00  0.00    -0.248 NA
ATOM     47  C   UNL A   1      39.724  29.886  29.642  1.00  0.00     0.031 C 
ATOM     48  C   UNL A   1      43.525  27.839  32.207  1.00  0.00     0.029 A 
ATOM     49  N   UNL A   1      42.277  29.362  33.270  1.00  0.00    -0.354 N 
ATOM     50  C   UNL A   1      38.969  31.306  31.271  1.00  0.00     0.074 A 
ATOM     51  C   UNL A   1      38.832  30.827  29.911  1.00  0.00     0.031 C 
ATOM     52  C   UNL A   1      44.023  27.977  33.447  1.00  0.00     0.029 A 
ATOM     53  C   UNL A   1      43.262  29.003  34.157  1.00  0.00     0.049 A 
ATOM     54  H   UNL A   1      41.562  30.002  33.487  1.00  0.00     0.167 HD
ATOM     55  C   UNL A   1      38.159  32.227  31.844  1.00  0.00     0.037 A 
ATOM     56  C   UNL A   1      43.538  29.471  35.391  1.00  0.00     0.037 A 
ATOM     57  C   UNL A   1      38.302  32.693  33.200  1.00  0.00     0.049 A 
ATOM     58  C   UNL A   1      42.652  30.529  35.995  1.00  0.00     0.074 A 
ATOM     59  C   UNL A   1      37.503  33.589  33.890  1.00  0.00     0.029 A 
ATOM     60  N   UNL A   1      39.318  32.315  34.067  1.00  0.00    -0.354 N 
ATOM     61  N   UNL A   1      41.599  31.116  35.477  1.00  0.00    -0.248 NA
ATOM     62  C   UNL A   1      42.988  30.984  37.351  1.00  0.00     0.031 C 
ATOM     63  C   UNL A   1      38.072  33.799  35.151  1.00  0.00     0.029 A 
ATOM     64  C   UNL A   1      39.189  32.987  35.271  1.00  0.00     0.049 A 
ATOM     65  H   UNL A   1      40.026  31.664  33.856  1.00  0.00     0.167 HD
ATOM     66  C   UNL A   1      41.135  31.996  36.449  1.00  0.00     0.074 A 
ATOM     67  C   UNL A   1      42.014  31.853  37.593  1.00  0.00     0.031 C 
ATOM     68  C   UNL A   1      40.075  32.841  36.402  1.00  0.00     0.037 A 
BRANCH  55  69
ATOM     69  C   UNL A   1      37.069  32.824  30.993  1.00  0.00     0.058 A 
ATOM     70  C   UNL A   1      37.341  33.759  29.981  1.00  0.00     0.135 A 
ATOM     71  C   UNL A   1      35.733  32.436  31.183  1.00  0.00     0.135 A 
ATOM     72  F   UNL A   1      38.598  34.177  29.764  1.00  0.00    -0.206 F 
ATOM     73  C   UNL A   1      36.321  34.315  29.214  1.00  0.00     0.059 A 
ATOM     74  C   UNL A   1      34.701  32.956  30.407  1.00  0.00     0.059 A 
ATOM     75  F   UNL A   1      35.417  31.546  32.137  1.00  0.00    -0.206 F 
ATOM     76  C   UNL A   1      35.004  33.911  29.437  1.00  0.00     0.060 A 
BRANCH  76  77
ATOM     77  S   UNL A   1      33.691  34.652  28.445  1.00  0.00     0.124 S 
ATOM     78  O   UNL A   1      34.262  35.960  28.139  1.00  0.00    -0.237 OA
ATOM     79  O   UNL A   1      33.589  33.727  27.321  1.00  0.00    -0.237 OA
ATOM     80  O   UNL A   1      32.545  34.664  29.349  1.00  0.00    -0.744 OA
ENDBRANCH  76  77
ENDBRANCH  55  69
BRANCH  56  81
ATOM     81  C   UNL A   1      44.721  28.948  36.124  1.00  0.00     0.058 A 
ATOM     82  C   UNL A   1      44.621  27.838  36.974  1.00  0.00     0.135 A 
ATOM     83  C   UNL A   1      45.989  29.529  35.953  1.00  0.00     0.135 A 
ATOM     84  F   UNL A   1      43.430  27.256  37.179  1.00  0.00    -0.206 F 
ATOM     85  C   UNL A   1      45.734  27.319  37.628  1.00  0.00     0.059 A 
ATOM     86  C   UNL A   1      47.120  29.013  36.575  1.00  0.00     0.059 A 
ATOM     87  F   UNL A   1      46.140  30.586  35.140  1.00  0.00    -0.206 F 
ATOM     88  C   UNL A   1      46.981  27.909  37.414  1.00  0.00     0.060 A 
BRANCH  88  89
ATOM     89  S   UNL A   1      48.433  27.175  38.197  1.00  0.00     0.124 S 
ATOM     90  O   UNL A   1      47.853  26.013  38.861  1.00  0.00    -0.237 OA
ATOM     91  O   UNL A   1      49.290  26.893  37.049  1.00  0.00    -0.237 OA
ATOM     92  O   UNL A   1      48.911  28.235  39.079  1.00  0.00    -0.744 OA
ENDBRANCH  88  89
ENDBRANCH  56  81
BRANCH  68  93
ATOM     93  C   UNL A   1      39.785  33.667  37.626  1.00  0.00     0.058 A 
ATOM     94  C   UNL A   1      38.851  33.258  38.590  1.00  0.00     0.135 A 
ATOM     95  C   UNL A   1      40.498  34.853  37.869  1.00  0.00     0.135 A 
ATOM     96  F   UNL A   1      38.136  32.137  38.406  1.00  0.00    -0.206 F 
ATOM     97  C   UNL A   1      38.620  34.004  39.743  1.00  0.00     0.059 A 
ATOM     98  C   UNL A   1      40.306  35.599  39.028  1.00  0.00     0.059 A 
ATOM     99  F   UNL A   1      41.411  35.285  36.986  1.00  0.00    -0.206 F 
ATOM    100  C   UNL A   1      39.357  35.172  39.955  1.00  0.00     0.060 A 
BRANCH 100 101
ATOM    101  S   UNL A   1      39.076  36.108  41.473  1.00  0.00     0.124 S 
ATOM    102  O   UNL A   1      37.823  35.530  41.948  1.00  0.00    -0.237 OA
ATOM    103  O   UNL A   1      40.261  35.787  42.261  1.00  0.00    -0.237 OA
ATOM    104  O   UNL A   1      38.993  37.491  41.009  1.00  0.00    -0.744 OA
ENDBRANCH 100 101
ENDBRANCH  68  93
ENDBRANCH  42  43
ENDBRANCH  35  37
ENDBRANCH  34  35
ENDBRANCH  33  34
ENDBRANCH  32  33
ENDBRANCH  31  32
ENDBRANCH   1  31
TORSDOF 21
ENDMDL
MODEL 2
REMARK VINA RESULT:     -11.6      1.366      8.062
REMARK SMILES Cc1ncc(CC(=O)N2CCC(Cc3cccc(C(=O)OCCOCCOC(=O)c4ccc(-c5c6nc(c(-c7c(F)cc(S(=O)(=O)[O-])cc7F)c7ccc([nH]7)c(-c7c(F)cc(S(=O)(=O)[O-])cc7F)c7nc(c(-c8c(F)cc(S(=O)(=O)[O-])cc8F)c8ccc5[nH]8)C=C7)C=C6)cc4)c3)CC2)c(=O)[nH]1
REMARK SMILES IDX 23 1 22 2 21 3 19 4 20 5 18 6 14 7 15 8 96 9 16 10 17 11
REMARK SMILES IDX 13 12 12 13 7 14 8 15 9 16 10 17 98 18 11 19 97 20 6 21 5 22
REMARK SMILES IDX 1 23 2 24 3 25 101 26 4 27 99 28 100 30 24 31 25 32 26 33
REMARK SMILES IDX 27 34 28 35 29 36 30 37 31 38 95 39 32 40 94 41 33 42 34 43
REMARK SMILES IDX 35 44 88 45 36 46 93 47 87 48 89 49 37 50 92 51 86 52 85 53
REMARK SMILES IDX 38 55 72 56 51 57 71 58 52 59 55 60 70 61 90 62 53 63 54 64
REMARK SMILES IDX 69 66 91 67 56 68 39 69 40 70 49 71 41 72 42 73 48 74 50 75
REMARK SMILES IDX 43 76 44 77 45 78 46 79 47 80 73 81 74 82 83 83 75 84 76 85
REMARK SMILES IDX 82 86 84 87 77 88 78 89 79 90 80 91 81 92 57 93 58 94 67 95
REMARK SMILES IDX 59 96 60 97 66 98 68 99 61 100 62 101 63 102 64 103 65 104
REMARK H PARENT 101 29 89 54 55 65
REMARK Flexibility Score: inf
ROOT
ATOM      1  C   UNL A   1      45.073  20.498  24.221  1.00  0.00     0.202 C 
ENDROOT
BRANCH   1   2
ATOM      2  C   UNL A   1      44.179  19.670  25.152  1.00  0.00     0.261 C 
BRANCH   2   3
ATOM      3  O   UNL A   1      42.797  19.797  24.785  1.00  0.00    -0.460 OA
BRANCH   3   4
ATOM      4  C   UNL A   1      41.904  19.433  25.738  1.00  0.00     0.338 C 
ATOM      5  O   UNL A   1      41.587  18.294  26.049  1.00  0.00    -0.246 OA
BRANCH   4   6
ATOM      6  C   UNL A   1      41.475  20.629  26.503  1.00  0.00     0.060 A 
ATOM      7  C   UNL A   1      40.005  22.535  26.868  1.00  0.00    -0.047 A 
ATOM      8  C   UNL A   1      40.757  22.874  28.002  1.00  0.00     0.004 A 
ATOM      9  C   UNL A   1      40.404  21.433  26.093  1.00  0.00     0.019 A 
ATOM     10  C   UNL A   1      41.853  22.100  28.386  1.00  0.00     0.001 A 
ATOM     11  C   UNL A   1      42.199  20.969  27.649  1.00  0.00     0.016 A 
BRANCH   7  12
ATOM     12  C   UNL A   1      38.761  23.322  26.516  1.00  0.00     0.039 C 
BRANCH  12  13
ATOM     13  C   UNL A   1      37.902  22.634  25.436  1.00  0.00    -0.003 C 
ATOM     14  C   UNL A   1      34.005  21.919  24.297  1.00  0.00     0.227 C 
ATOM     15  O   UNL A   1      33.441  21.348  25.241  1.00  0.00    -0.275 OA
ATOM     16  N   UNL A   1      35.389  21.910  24.191  1.00  0.00    -0.342 N 
ATOM     17  C   UNL A   1      36.132  20.906  24.945  1.00  0.00     0.120 C 
ATOM     18  C   UNL A   1      36.236  22.932  23.575  1.00  0.00     0.120 C 
ATOM     19  C   UNL A   1      36.981  21.551  26.035  1.00  0.00     0.025 C 
ATOM     20  C   UNL A   1      37.058  23.649  24.653  1.00  0.00     0.025 C 
BRANCH  14  21
ATOM     21  C   UNL A   1      33.143  22.404  23.122  1.00  0.00     0.143 C 
BRANCH  21  22
ATOM     22  C   UNL A   1      32.353  23.654  23.286  1.00  0.00     0.045 A 
ATOM     23  C   UNL A   1      29.821  27.035  23.284  1.00  0.00     0.087 C 
ATOM     24  C   UNL A   1      30.718  25.837  23.356  1.00  0.00     0.105 A 
ATOM     25  N   UNL A   1      30.421  24.830  24.109  1.00  0.00    -0.243 NA
ATOM     26  N   UNL A   1      31.838  25.885  22.575  1.00  0.00    -0.311 N 
ATOM     27  C   UNL A   1      31.258  23.750  24.056  1.00  0.00     0.123 A 
ATOM     28  C   UNL A   1      32.728  24.852  22.509  1.00  0.00     0.254 A 
ATOM     29  H   UNL A   1      32.009  26.694  22.040  1.00  0.00     0.171 HD
ATOM     30  O   UNL A   1      33.746  24.914  21.832  1.00  0.00    -0.269 OA
ENDBRANCH  21  22
ENDBRANCH  14  21
ENDBRANCH  12  13
ENDBRANCH   7  12
ENDBRANCH   4   6
ENDBRANCH   3   4
ENDBRANCH   2   3
ENDBRANCH   1   2
BRANCH   1  31
ATOM     31  O   UNL A   1      44.651  21.834  23.944  1.00  0.00    -0.374 OA
BRANCH  31  32
ATOM     32  C   UNL A   1      44.397  22.686  25.062  1.00  0.00     0.202 C 
BRANCH  32  33
ATOM     33  C   UNL A   1      43.246  23.691  24.936  1.00  0.00     0.261 C 
BRANCH  33  34
ATOM     34  O   UNL A   1      43.074  24.488  26.120  1.00  0.00    -0.460 OA
BRANCH  34  35
ATOM     35  C   UNL A   1      42.211  25.522  25.982  1.00  0.00     0.338 C 
ATOM     36  O   UNL A   1      41.468  25.742  25.036  1.00  0.00    -0.246 OA
BRANCH  35  37
ATOM     37  C   UNL A   1      42.146  26.291  27.237  1.00  0.00     0.060 A 
ATOM     38  C   UNL A   1      41.068  26.042  28.096  1.00  0.00     0.016 A 
ATOM     39  C   UNL A   1      43.083  27.281  27.540  1.00  0.00     0.016 A 
ATOM     40  C   UNL A   1      40.897  26.813  29.242  1.00  0.00     0.010 A 
ATOM     41  C   UNL A   1      42.905  28.058  28.689  1.00  0.00     0.010 A 
ATOM     42  C   UNL A   1      41.795  27.850  29.528  1.00  0.00    -0.014 A 
BRANCH  42  43
ATOM     43  C   UNL A   1      41.508  28.789  30.639  1.00  0.00     0.031 A 
ATOM     44  C   UNL A   1      42.322  28.707  31.900  1.00  0.00     0.074 A 
ATOM     45  C   UNL A   1      40.533  29.708  30.520  1.00  0.00     0.049 A 
ATOM     46  N   UNL A   1      42.203  29.389  33.008  1.00  0.00    -0.248 NA
ATOM     47  C   UNL A   1      43.412  27.718  31.914  1.00  0.00     0.031 C 
ATOM     48  C   UNL A   1      39.695  29.900  29.338  1.00  0.00     0.029 A 
ATOM     49  N   UNL A   1      40.073  30.642  31.415  1.00  0.00    -0.354 N 
ATOM     50  C   UNL A   1      43.189  28.903  33.860  1.00  0.00     0.074 A 
ATOM     51  C   UNL A   1      43.880  27.849  33.146  1.00  0.00     0.031 C 
ATOM     52  C   UNL A   1      38.808  30.877  29.586  1.00  0.00     0.029 A 
ATOM     53  C   UNL A   1      38.992  31.355  30.956  1.00  0.00     0.049 A 
ATOM     54  H   UNL A   1      40.479  30.787  32.299  1.00  0.00     0.167 HD
ATOM     55  C   UNL A   1      43.490  29.300  35.119  1.00  0.00     0.037 A 
ATOM     56  C   UNL A   1      38.219  32.266  31.580  1.00  0.00     0.037 A 
ATOM     57  C   UNL A   1      42.799  30.354  35.818  1.00  0.00     0.049 A 
ATOM     58  C   UNL A   1      38.541  32.663  32.996  1.00  0.00     0.074 A 
ATOM     59  C   UNL A   1      43.059  30.865  37.078  1.00  0.00     0.029 A 
ATOM     60  N   UNL A   1      41.701  31.046  35.325  1.00  0.00    -0.354 N 
ATOM     61  N   UNL A   1      39.504  32.228  33.775  1.00  0.00    -0.248 NA
ATOM     62  C   UNL A   1      37.678  33.677  33.617  1.00  0.00     0.031 C 
ATOM     63  C   UNL A   1      42.081  31.821  37.372  1.00  0.00     0.029 A 
ATOM     64  C   UNL A   1      41.249  31.952  36.271  1.00  0.00     0.049 A 
ATOM     65  H   UNL A   1      41.303  30.913  34.436  1.00  0.00     0.167 HD
ATOM     66  C   UNL A   1      39.374  32.927  34.970  1.00  0.00     0.074 A 
ATOM     67  C   UNL A   1      38.248  33.825  34.806  1.00  0.00     0.031 C 
ATOM     68  C   UNL A   1      40.122  32.838  36.098  1.00  0.00     0.037 A 
BRANCH  55  69
ATOM     69  C   UNL A   1      44.590  28.565  35.838  1.00  0.00     0.058 A 
ATOM     70  C   UNL A   1      45.935  28.956  35.743  1.00  0.00     0.135 A 
ATOM     71  C   UNL A   1      44.286  27.463  36.653  1.00  0.00     0.135 A 
ATOM     72  F   UNL A   1      46.286  29.994  34.967  1.00  0.00    -0.206 F 
ATOM     73  C   UNL A   1      46.944  28.256  36.400  1.00  0.00     0.059 A 
ATOM     74  C   UNL A   1      45.275  26.767  37.343  1.00  0.00     0.059 A 
ATOM     75  F   UNL A   1      43.017  27.045  36.781  1.00  0.00    -0.206 F 
ATOM     76  C   UNL A   1      46.604  27.161  37.195  1.00  0.00     0.060 A 
BRANCH  76  77
ATOM     77  S   UNL A   1      47.923  26.254  38.028  1.00  0.00     0.124 S 
ATOM     78  O   UNL A   1      48.917  26.145  36.964  1.00  0.00    -0.237 OA
ATOM     79  O   UNL A   1      48.270  27.148  39.128  1.00  0.00    -0.237 OA
ATOM     80  O   UNL A   1      47.283  25.002  38.419  1.00  0.00    -0.744 OA
ENDBRANCH  76  77
ENDBRANCH  55  69
BRANCH  56  81
ATOM     81  C   UNL A   1      37.052  32.847  30.864  1.00  0.00     0.058 A 
ATOM     82  C   UNL A   1      35.741  32.462  31.173  1.00  0.00     0.135 A 
ATOM     83  C   UNL A   1      37.230  33.833  29.879  1.00  0.00     0.135 A 
ATOM     84  F   UNL A   1      35.520  31.515  32.097  1.00  0.00    -0.206 F 
ATOM     85  C   UNL A   1      34.644  33.034  30.536  1.00  0.00     0.059 A 
ATOM     86  C   UNL A   1      36.149  34.438  29.247  1.00  0.00     0.059 A 
ATOM     87  F   UNL A   1      38.465  34.245  29.555  1.00  0.00    -0.206 F 
ATOM     88  C   UNL A   1      34.860  34.029  29.579  1.00  0.00     0.060 A 
BRANCH  88  89
ATOM     89  S   UNL A   1      33.428  34.827  28.821  1.00  0.00     0.124 S 
ATOM     90  O   UNL A   1      32.515  34.930  29.954  1.00  0.00    -0.237 OA
ATOM     91  O   UNL A   1      33.998  36.083  28.343  1.00  0.00    -0.237 OA
ATOM     92  O   UNL A   1      33.036  33.888  27.775  1.00  0.00    -0.744 OA
ENDBRANCH  88  89
ENDBRANCH  56  81
BRANCH  68  93
ATOM     93  C   UNL A   1      39.768  33.748  37.245  1.00  0.00     0.058 A 
ATOM     94  C   UNL A   1      38.970  33.313  38.314  1.00  0.00     0.135 A 
ATOM     95  C   UNL A   1      40.288  35.052  37.304  1.00  0.00     0.135 A 
ATOM     96  F   UNL A   1      38.441  32.080  38.305  1.00  0.00    -0.206 F 
ATOM     97  C   UNL A   1      38.683  34.145  39.393  1.00  0.00     0.059 A 
ATOM     98  C   UNL A   1      40.039  35.890  38.387  1.00  0.00     0.059 A 
ATOM     99  F   UNL A   1      41.066  35.515  36.314  1.00  0.00    -0.206 F 
ATOM    100  C   UNL A   1      39.227  35.431  39.422  1.00  0.00     0.060 A 
BRANCH 100 101
ATOM    101  S   UNL A   1      38.879  36.484  40.847  1.00  0.00     0.124 S 
ATOM    102  O   UNL A   1      38.497  37.737  40.202  1.00  0.00    -0.237 OA
ATOM    103  O   UNL A   1      37.803  35.760  41.514  1.00  0.00    -0.237 OA
ATOM    104  O   UNL A   1      40.151  36.512  41.567  1.00  0.00    -0.744 OA
ENDBRANCH 100 101
ENDBRANCH  68  93
ENDBRANCH  42  43
ENDBRANCH  35  37
ENDBRANCH  34  35
ENDBRANCH  33  34
ENDBRANCH  32  33
ENDBRANCH  31  32
ENDBRANCH   1  31
TORSDOF 21
ENDMDL
MODEL 3
REMARK VINA RESULT:     -11.4      1.632      3.057
REMARK SMILES Cc1ncc(CC(=O)N2CCC(Cc3cccc(C(=O)OCCOCCOC(=O)c4ccc(-c5c6nc(c(-c7c(F)cc(S(=O)(=O)[O-])cc7F)c7ccc([nH]7)c(-c7c(F)cc(S(=O)(=O)[O-])cc7F)c7nc(c(-c8c(F)cc(S(=O)(=O)[O-])cc8F)c8ccc5[nH]8)C=C7)C=C6)cc4)c3)CC2)c(=O)[nH]1
REMARK SMILES IDX 23 1 22 2 21 3 19 4 20 5 18 6 14 7 15 8 96 9 16 10 17 11
REMARK SMILES IDX 13 12 12 13 7 14 8 15 9 16 10 17 98 18 11 19 97 20 6 21 5 22
REMARK SMILES IDX 1 23 2 24 3 25 101 26 4 27 99 28 100 30 24 31 25 32 26 33
REMARK SMILES IDX 27 34 28 35 29 36 30 37 31 38 95 39 32 40 94 41 33 42 34 43
REMARK SMILES IDX 35 44 88 45 36 46 93 47 87 48 89 49 37 50 92 51 86 52 85 53
REMARK SMILES IDX 38 55 72 56 51 57 71 58 52 59 55 60 70 61 90 62 53 63 54 64
REMARK SMILES IDX 69 66 91 67 56 68 39 69 40 70 49 71 41 72 42 73 48 74 50 75
REMARK SMILES IDX 43 76 44 77 45 78 46 79 47 80 73 81 74 82 83 83 75 84 76 85
REMARK SMILES IDX 82 86 84 87 77 88 78 89 79 90 80 91 81 92 57 93 58 94 67 95
REMARK SMILES IDX 59 96 60 97 66 98 68 99 61 100 62 101 63 102 64 103 65 104
REMARK H PARENT 101 29 89 54 55 65
REMARK Flexibility Score: inf
ROOT
ATOM      1  C   UNL A   1      39.378  22.165  26.237  1.00  0.00     0.202 C 
ENDROOT
BRANCH   1   2
ATOM      2  C   UNL A   1      38.284  23.232  26.121  1.00  0.00     0.261 C 
BRANCH   2   3
ATOM      3  O   UNL A   1      37.000  22.631  25.898  1.00  0.00    -0.460 OA
BRANCH   3   4
ATOM      4  C   UNL A   1      36.491  22.784  24.652  1.00  0.00     0.338 C 
ATOM      5  O   UNL A   1      37.057  23.273  23.684  1.00  0.00    -0.246 OA
BRANCH   4   6
ATOM      6  C   UNL A   1      35.178  22.101  24.560  1.00  0.00     0.060 A 
ATOM      7  C   UNL A   1      32.910  21.909  23.698  1.00  0.00    -0.047 A 
ATOM      8  C   UNL A   1      32.734  20.751  24.469  1.00  0.00     0.004 A 
ATOM      9  C   UNL A   1      34.125  22.608  23.789  1.00  0.00     0.019 A 
ATOM     10  C   UNL A   1      33.768  20.269  25.273  1.00  0.00     0.001 A 
ATOM     11  C   UNL A   1      34.994  20.932  25.304  1.00  0.00     0.016 A 
BRANCH   7  12
ATOM     12  C   UNL A   1      31.818  22.368  22.754  1.00  0.00     0.039 C 
BRANCH  12  13
ATOM     13  C   UNL A   1      31.048  23.595  23.281  1.00  0.00    -0.003 C 
ATOM     14  C   UNL A   1      31.342  26.812  25.842  1.00  0.00     0.227 C 
ATOM     15  O   UNL A   1      31.589  26.366  26.971  1.00  0.00    -0.275 OA
ATOM     16  N   UNL A   1      30.772  26.000  24.871  1.00  0.00    -0.342 N 
ATOM     17  C   UNL A   1      30.105  24.775  25.301  1.00  0.00     0.120 C 
ATOM     18  C   UNL A   1      30.939  26.105  23.421  1.00  0.00     0.120 C 
ATOM     19  C   UNL A   1      30.852  23.540  24.810  1.00  0.00     0.025 C 
ATOM     20  C   UNL A   1      31.745  24.908  22.900  1.00  0.00     0.025 C 
BRANCH  14  21
ATOM     21  C   UNL A   1      31.434  28.330  25.624  1.00  0.00     0.143 C 
BRANCH  21  22
ATOM     22  C   UNL A   1      32.642  29.048  26.113  1.00  0.00     0.045 A 
ATOM     23  C   UNL A   1      35.939  30.874  28.020  1.00  0.00     0.087 C 
ATOM     24  C   UNL A   1      34.810  30.217  27.285  1.00  0.00     0.105 A 
ATOM     25  N   UNL A   1      34.981  29.091  26.676  1.00  0.00    -0.243 NA
ATOM     26  N   UNL A   1      33.615  30.877  27.319  1.00  0.00    -0.311 N 
ATOM     27  C   UNL A   1      33.878  28.527  26.095  1.00  0.00     0.123 A 
ATOM     28  C   UNL A   1      32.489  30.382  26.728  1.00  0.00     0.254 A 
ATOM     29  H   UNL A   1      33.563  31.742  27.788  1.00  0.00     0.171 HD
ATOM     30  O   UNL A   1      31.428  30.993  26.735  1.00  0.00    -0.269 OA
ENDBRANCH  21  22
ENDBRANCH  14  21
ENDBRANCH  12  13
ENDBRANCH   7  12
ENDBRANCH   4   6
ENDBRANCH   3   4
ENDBRANCH   2   3
ENDBRANCH   1   2
BRANCH   1  31
ATOM     31  O   UNL A   1      40.510  22.488  27.046  1.00  0.00    -0.374 OA
BRANCH  31  32
ATOM     32  C   UNL A   1      41.796  22.106  26.556  1.00  0.00     0.202 C 
BRANCH  32  33
ATOM     33  C   UNL A   1      42.763  23.228  26.162  1.00  0.00     0.261 C 
BRANCH  33  34
ATOM     34  O   UNL A   1      42.154  24.530  26.221  1.00  0.00    -0.460 OA
BRANCH  34  35
ATOM     35  C   UNL A   1      43.017  25.544  26.464  1.00  0.00     0.338 C 
ATOM     36  O   UNL A   1      44.021  25.827  25.827  1.00  0.00    -0.246 OA
BRANCH  35  37
ATOM     37  C   UNL A   1      42.486  26.408  27.533  1.00  0.00     0.060 A 
ATOM     38  C   UNL A   1      43.079  27.665  27.706  1.00  0.00     0.016 A 
ATOM     39  C   UNL A   1      41.473  25.976  28.391  1.00  0.00     0.016 A 
ATOM     40  C   UNL A   1      42.691  28.479  28.767  1.00  0.00     0.010 A 
ATOM     41  C   UNL A   1      41.090  26.792  29.460  1.00  0.00     0.010 A 
ATOM     42  C   UNL A   1      41.719  28.033  29.672  1.00  0.00    -0.014 A 
BRANCH  42  43
ATOM     43  C   UNL A   1      41.444  28.811  30.904  1.00  0.00     0.031 A 
ATOM     44  C   UNL A   1      40.299  29.786  30.917  1.00  0.00     0.074 A 
ATOM     45  C   UNL A   1      42.206  28.647  31.999  1.00  0.00     0.049 A 
ATOM     46  N   UNL A   1      39.920  30.605  31.862  1.00  0.00    -0.248 NA
ATOM     47  C   UNL A   1      39.477  29.850  29.697  1.00  0.00     0.031 C 
ATOM     48  C   UNL A   1      43.326  27.715  32.114  1.00  0.00     0.029 A 
ATOM     49  N   UNL A   1      42.162  29.273  33.220  1.00  0.00    -0.354 N 
ATOM     50  C   UNL A   1      38.827  31.295  31.349  1.00  0.00     0.074 A 
ATOM     51  C   UNL A   1      38.622  30.815  29.998  1.00  0.00     0.031 C 
ATOM     52  C   UNL A   1      43.878  27.843  33.332  1.00  0.00     0.029 A 
ATOM     53  C   UNL A   1      43.173  28.892  34.068  1.00  0.00     0.049 A 
ATOM     54  H   UNL A   1      41.473  29.932  33.463  1.00  0.00     0.167 HD
ATOM     55  C   UNL A   1      38.064  32.239  31.950  1.00  0.00     0.037 A 
ATOM     56  C   UNL A   1      43.511  29.357  35.288  1.00  0.00     0.037 A 
ATOM     57  C   UNL A   1      38.275  32.706  33.298  1.00  0.00     0.049 A 
ATOM     58  C   UNL A   1      42.679  30.440  35.922  1.00  0.00     0.074 A 
ATOM     59  C   UNL A   1      37.528  33.624  34.015  1.00  0.00     0.029 A 
ATOM     60  N   UNL A   1      39.315  32.304  34.123  1.00  0.00    -0.354 N 
ATOM     61  N   UNL A   1      41.621  31.052  35.445  1.00  0.00    -0.248 NA
ATOM     62  C   UNL A   1      43.081  30.890  37.261  1.00  0.00     0.031 C 
ATOM     63  C   UNL A   1      38.153  33.824  35.251  1.00  0.00     0.029 A 
ATOM     64  C   UNL A   1      39.253  32.984  35.329  1.00  0.00     0.049 A 
ATOM     65  H   UNL A   1      39.997  31.635  33.887  1.00  0.00     0.167 HD
ATOM     66  C   UNL A   1      41.220  31.947  36.431  1.00  0.00     0.074 A 
ATOM     67  C   UNL A   1      42.141  31.785  37.539  1.00  0.00     0.031 C 
ATOM     68  C   UNL A   1      40.180  32.819  36.423  1.00  0.00     0.037 A 
BRANCH  55  69
ATOM     69  C   UNL A   1      36.957  32.861  31.142  1.00  0.00     0.058 A 
ATOM     70  C   UNL A   1      37.208  33.808  30.136  1.00  0.00     0.135 A 
ATOM     71  C   UNL A   1      35.623  32.485  31.367  1.00  0.00     0.135 A 
ATOM     72  F   UNL A   1      38.463  34.215  29.887  1.00  0.00    -0.206 F 
ATOM     73  C   UNL A   1      36.173  34.388  29.409  1.00  0.00     0.059 A 
ATOM     74  C   UNL A   1      34.574  33.029  30.630  1.00  0.00     0.059 A 
ATOM     75  F   UNL A   1      35.325  31.584  32.316  1.00  0.00    -0.206 F 
ATOM     76  C   UNL A   1      34.859  33.994  29.666  1.00  0.00     0.060 A 
BRANCH  76  77
ATOM     77  S   UNL A   1      33.525  34.766  28.725  1.00  0.00     0.124 S 
ATOM     78  O   UNL A   1      34.203  35.928  28.160  1.00  0.00    -0.237 OA
ATOM     79  O   UNL A   1      33.167  33.718  27.775  1.00  0.00    -0.237 OA
ATOM     80  O   UNL A   1      32.517  35.060  29.739  1.00  0.00    -0.744 OA
ENDBRANCH  76  77
ENDBRANCH  55  69
BRANCH  56  81
ATOM     81  C   UNL A   1      44.710  28.805  35.974  1.00  0.00     0.058 A 
ATOM     82  C   UNL A   1      45.983  29.353  35.771  1.00  0.00     0.135 A 
ATOM     83  C   UNL A   1      44.593  27.738  36.880  1.00  0.00     0.135 A 
ATOM     84  F   UNL A   1      46.148  30.365  34.906  1.00  0.00    -0.206 F 
ATOM     85  C   UNL A   1      47.100  28.867  36.444  1.00  0.00     0.059 A 
ATOM     86  C   UNL A   1      45.689  27.251  37.582  1.00  0.00     0.059 A 
ATOM     87  F   UNL A   1      43.393  27.185  37.117  1.00  0.00    -0.206 F 
ATOM     88  C   UNL A   1      46.940  27.821  37.355  1.00  0.00     0.060 A 
BRANCH  88  89
ATOM     89  S   UNL A   1      48.380  27.256  38.287  1.00  0.00     0.124 S 
ATOM     90  O   UNL A   1      48.265  25.808  38.157  1.00  0.00    -0.237 OA
ATOM     91  O   UNL A   1      49.479  27.878  37.556  1.00  0.00    -0.237 OA
ATOM     92  O   UNL A   1      48.145  27.792  39.624  1.00  0.00    -0.744 OA
ENDBRANCH  88  89
ENDBRANCH  56  81
BRANCH  68  93
ATOM     93  C   UNL A   1      39.962  33.656  37.655  1.00  0.00     0.058 A 
ATOM     94  C   UNL A   1      40.648  34.864  37.859  1.00  0.00     0.135 A 
ATOM     95  C   UNL A   1      39.007  33.277  38.613  1.00  0.00     0.135 A 
ATOM     96  F   UNL A   1      41.576  35.271  36.979  1.00  0.00    -0.206 F 
ATOM     97  C   UNL A   1      40.408  35.657  38.978  1.00  0.00     0.059 A 
ATOM     98  C   UNL A   1      38.730  34.068  39.723  1.00  0.00     0.059 A 
ATOM     99  F   UNL A   1      38.315  32.137  38.462  1.00  0.00    -0.206 F 
ATOM    100  C   UNL A   1      39.443  35.251  39.903  1.00  0.00     0.060 A 
BRANCH 100 101
ATOM    101  S   UNL A   1      39.115  36.309  41.329  1.00  0.00     0.124 S 
ATOM    102  O   UNL A   1      37.926  35.681  41.895  1.00  0.00    -0.237 OA
ATOM    103  O   UNL A   1      40.340  36.169  42.110  1.00  0.00    -0.237 OA
ATOM    104  O   UNL A   1      38.905  37.627  40.733  1.00  0.00    -0.744 OA
ENDBRANCH 100 101
ENDBRANCH  68  93
ENDBRANCH  42  43
ENDBRANCH  35  37
ENDBRANCH  34  35
ENDBRANCH  33  34
ENDBRANCH  32  33
ENDBRANCH  31  32
ENDBRANCH   1  31
TORSDOF 21
ENDMDL
