MODEL 1
REMARK VINA RESULT:     -12.8      0.000      0.000
REMARK SMILES CS(=O)(=O)Nc1ccc(-c2cc(Cl)cc3c2O[C@@H](C(F)(F)F)C(C(=O)OCCOCCOC(=O)c2ccc(-c4c5nc(c(-c6c(F)cc(S(=O)(=O)[O-])cc6F)c6ccc([nH]6)c(-c6c(F)cc(S(=O)(=O)[O-])cc6F)c6nc(c(-c7c(F)cc(S(=O)(=O)[O-])cc7F)c7ccc4[nH]7)C=C6)C=C5)cc2)=C3)cc1
REMARK SMILES IDX 29 1 28 2 27 3 26 4 24 5 25 6 23 7 10 8 11 9 16 10 12 11
REMARK SMILES IDX 15 12 17 13 13 14 14 15 101 16 18 17 9 18 6 19 7 20 103 21
REMARK SMILES IDX 8 22 102 23 5 24 2 26 1 27 3 28 4 29 19 30 20 31 21 32 22 33
REMARK SMILES IDX 30 34 31 35 32 36 33 37 34 38 35 39 36 40 100 41 37 42 99 43
REMARK SMILES IDX 38 44 39 45 40 46 93 47 41 48 98 49 92 50 94 51 42 52 97 53
REMARK SMILES IDX 91 54 90 55 43 57 77 58 56 59 76 60 57 61 60 62 75 63 95 64
REMARK SMILES IDX 58 65 59 66 74 68 96 69 61 70 44 71 45 72 54 73 46 74 47 75
REMARK SMILES IDX 53 76 55 77 48 78 49 79 50 80 51 81 52 82 78 83 79 84 88 85
REMARK SMILES IDX 80 86 81 87 87 88 89 89 82 90 83 91 84 92 85 93 86 94 62 95
REMARK SMILES IDX 63 96 72 97 64 98 65 99 71 100 73 101 66 102 67 103 68 104
REMARK SMILES IDX 69 105 70 106
REMARK H PARENT 5 25 94 56 60 67
REMARK Flexibility Score: inf
ROOT
ATOM      1  O   UNL A   1      38.781  21.852  26.454  1.00  0.00    -0.374 OA
ENDROOT
BRANCH   1   2
ATOM      2  C   UNL A   1      38.348  21.227  25.252  1.00  0.00     0.202 C 
BRANCH   2   3
ATOM      3  C   UNL A   1      37.102  21.783  24.541  1.00  0.00     0.261 C 
BRANCH   3   4
ATOM      4  O   UNL A   1      36.174  22.417  25.435  1.00  0.00    -0.460 OA
BRANCH   4   5
ATOM      5  C   UNL A   1      35.030  22.860  24.881  1.00  0.00     0.338 C 
ATOM      6  O   UNL A   1      34.453  22.337  23.937  1.00  0.00    -0.246 OA
BRANCH   5   7
ATOM      7  C   UNL A   1      34.417  23.971  25.648  1.00  0.00     0.087 C 
ATOM      8  C   UNL A   1      31.305  25.992  23.778  1.00  0.00     0.026 A 
ATOM      9  C   UNL A   1      31.481  25.655  22.415  1.00  0.00     0.033 A 
ATOM     10  C   UNL A   1      32.326  25.525  24.633  1.00  0.00     0.135 A 
ATOM     11  C   UNL A   1      32.733  25.284  21.922  1.00  0.00     0.042 A 
ATOM     12  C   UNL A   1      33.633  25.410  24.132  1.00  0.00     0.019 A 
ATOM     13  O   UNL A   1      31.978  24.615  25.664  1.00  0.00    -0.475 OA
ATOM     14  Cl  UNL A   1      32.926  24.976  20.243  1.00  0.00    -0.084 Cl
ATOM     15  C   UNL A   1      33.836  25.263  22.763  1.00  0.00     0.032 A 
ATOM     16  C   UNL A   1      34.735  25.148  25.082  1.00  0.00     0.027 C 
ATOM     17  C   UNL A   1      33.105  23.978  26.406  1.00  0.00     0.316 C 
BRANCH   8  18
ATOM     18  C   UNL A   1      30.583  27.317  23.952  1.00  0.00    -0.014 A 
ATOM     19  C   UNL A   1      29.854  30.065  23.494  1.00  0.00     0.048 A 
ATOM     20  C   UNL A   1      29.197  29.019  22.841  1.00  0.00     0.027 A 
ATOM     21  C   UNL A   1      30.787  29.732  24.471  1.00  0.00     0.027 A 
ATOM     22  C   UNL A   1      29.533  27.674  23.084  1.00  0.00     0.011 A 
ATOM     23  C   UNL A   1      31.145  28.377  24.698  1.00  0.00     0.011 A 
BRANCH  19  24
ATOM     24  N   UNL A   1      29.639  31.370  22.957  1.00  0.00    -0.284 N 
ATOM     25  H   UNL A   1      30.450  31.864  22.697  1.00  0.00     0.180 HD
BRANCH  24  26
ATOM     26  S   UNL A   1      28.203  32.167  22.714  1.00  0.00     0.229 S 
ATOM     27  C   UNL A   1      27.785  31.819  21.014  1.00  0.00     0.183 C 
ATOM     28  O   UNL A   1      28.397  33.589  22.875  1.00  0.00    -0.207 OA
ATOM     29  O   UNL A   1      27.244  31.452  23.535  1.00  0.00    -0.207 OA
ENDBRANCH  24  26
ENDBRANCH  19  24
ENDBRANCH   8  18
BRANCH  17  30
ATOM     30  C   UNL A   1      32.776  22.678  27.177  1.00  0.00     0.430 C 
ATOM     31  F   UNL A   1      33.686  22.512  28.177  1.00  0.00    -0.167 F 
ATOM     32  F   UNL A   1      31.563  22.749  27.774  1.00  0.00    -0.167 F 
ATOM     33  F   UNL A   1      32.792  21.551  26.444  1.00  0.00    -0.167 F 
ENDBRANCH  17  30
ENDBRANCH   5   7
ENDBRANCH   4   5
ENDBRANCH   3   4
ENDBRANCH   2   3
ENDBRANCH   1   2
BRANCH   1  34
ATOM     34  C   UNL A   1      40.156  21.740  26.811  1.00  0.00     0.202 C 
BRANCH  34  35
ATOM     35  C   UNL A   1      41.091  22.921  26.529  1.00  0.00     0.261 C 
BRANCH  35  36
ATOM     36  O   UNL A   1      40.412  24.179  26.401  1.00  0.00    -0.460 OA
BRANCH  36  37
ATOM     37  C   UNL A   1      41.231  25.245  26.240  1.00  0.00     0.338 C 
ATOM     38  O   UNL A   1      41.793  25.602  25.213  1.00  0.00    -0.246 OA
BRANCH  37  39
ATOM     39  C   UNL A   1      41.241  26.054  27.467  1.00  0.00     0.060 A 
ATOM     40  C   UNL A   1      40.126  25.989  28.310  1.00  0.00     0.016 A 
ATOM     41  C   UNL A   1      42.292  26.933  27.736  1.00  0.00     0.016 A 
ATOM     42  C   UNL A   1      40.042  26.829  29.417  1.00  0.00     0.010 A 
ATOM     43  C   UNL A   1      42.202  27.780  28.843  1.00  0.00     0.010 A 
ATOM     44  C   UNL A   1      41.065  27.752  29.670  1.00  0.00    -0.014 A 
BRANCH  44  45
ATOM     45  C   UNL A   1      40.896  28.762  30.741  1.00  0.00     0.031 A 
ATOM     46  C   UNL A   1      41.758  28.684  31.969  1.00  0.00     0.074 A 
ATOM     47  C   UNL A   1      39.978  29.735  30.613  1.00  0.00     0.049 A 
ATOM     48  N   UNL A   1      41.741  29.432  33.041  1.00  0.00    -0.248 NA
ATOM     49  C   UNL A   1      42.766  27.614  31.994  1.00  0.00     0.031 C 
ATOM     50  C   UNL A   1      39.100  29.914  29.456  1.00  0.00     0.029 A 
ATOM     51  N   UNL A   1      39.619  30.743  31.470  1.00  0.00    -0.354 N 
ATOM     52  C   UNL A   1      42.724  28.916  33.876  1.00  0.00     0.074 A 
ATOM     53  C   UNL A   1      43.296  27.773  33.197  1.00  0.00     0.031 C 
ATOM     54  C   UNL A   1      38.286  30.957  29.687  1.00  0.00     0.029 A 
ATOM     55  C   UNL A   1      38.562  31.494  31.019  1.00  0.00     0.049 A 
ATOM     56  H   UNL A   1      40.074  30.911  32.327  1.00  0.00     0.167 HD
ATOM     57  C   UNL A   1      43.115  29.358  35.097  1.00  0.00     0.037 A 
ATOM     58  C   UNL A   1      37.874  32.482  31.623  1.00  0.00     0.037 A 
ATOM     59  C   UNL A   1      42.528  30.493  35.763  1.00  0.00     0.049 A 
ATOM     60  C   UNL A   1      38.290  32.933  32.996  1.00  0.00     0.074 A 
ATOM     61  C   UNL A   1      42.875  31.054  36.978  1.00  0.00     0.029 A 
ATOM     62  N   UNL A   1      41.451  31.227  35.280  1.00  0.00    -0.354 N 
ATOM     63  N   UNL A   1      39.255  32.472  33.757  1.00  0.00    -0.248 NA
ATOM     64  C   UNL A   1      37.530  34.040  33.592  1.00  0.00     0.031 C 
ATOM     65  C   UNL A   1      41.970  32.083  37.260  1.00  0.00     0.029 A 
ATOM     66  C   UNL A   1      41.097  32.210  36.191  1.00  0.00     0.049 A 
ATOM     67  H   UNL A   1      41.005  31.072  34.415  1.00  0.00     0.167 HD
ATOM     68  C   UNL A   1      39.229  33.241  34.915  1.00  0.00     0.074 A 
ATOM     69  C   UNL A   1      38.161  34.207  34.747  1.00  0.00     0.031 C 
ATOM     70  C   UNL A   1      40.019  33.155  36.016  1.00  0.00     0.037 A 
BRANCH  57  71
ATOM     71  C   UNL A   1      44.192  28.577  35.803  1.00  0.00     0.058 A 
ATOM     72  C   UNL A   1      43.896  27.535  36.697  1.00  0.00     0.135 A 
ATOM     73  C   UNL A   1      45.546  28.889  35.594  1.00  0.00     0.135 A 
ATOM     74  F   UNL A   1      42.620  27.199  36.946  1.00  0.00    -0.206 F 
ATOM     75  C   UNL A   1      44.897  26.869  37.399  1.00  0.00     0.059 A 
ATOM     76  C   UNL A   1      46.566  28.214  36.259  1.00  0.00     0.059 A 
ATOM     77  F   UNL A   1      45.890  29.872  34.748  1.00  0.00    -0.206 F 
ATOM     78  C   UNL A   1      46.229  27.224  37.180  1.00  0.00     0.060 A 
BRANCH  78  79
ATOM     79  S   UNL A   1      47.515  26.386  38.131  1.00  0.00     0.124 S 
ATOM     80  O   UNL A   1      46.735  25.386  38.855  1.00  0.00    -0.237 OA
ATOM     81  O   UNL A   1      48.391  25.869  37.083  1.00  0.00    -0.237 OA
ATOM     82  O   UNL A   1      48.083  27.451  38.950  1.00  0.00    -0.744 OA
ENDBRANCH  78  79
ENDBRANCH  57  71
BRANCH  58  83
ATOM     83  C   UNL A   1      36.713  33.088  30.919  1.00  0.00     0.058 A 
ATOM     84  C   UNL A   1      35.397  32.798  31.302  1.00  0.00     0.135 A 
ATOM     85  C   UNL A   1      36.906  34.032  29.897  1.00  0.00     0.135 A 
ATOM     86  F   UNL A   1      35.161  31.895  32.264  1.00  0.00    -0.206 F 
ATOM     87  C   UNL A   1      34.312  33.436  30.708  1.00  0.00     0.059 A 
ATOM     88  C   UNL A   1      35.839  34.699  29.305  1.00  0.00     0.059 A 
ATOM     89  F   UNL A   1      38.149  34.351  29.502  1.00  0.00    -0.206 F 
ATOM     90  C   UNL A   1      34.544  34.396  29.721  1.00  0.00     0.060 A 
BRANCH  90  91
ATOM     91  S   UNL A   1      33.134  35.296  29.040  1.00  0.00     0.124 S 
ATOM     92  O   UNL A   1      32.334  35.539  30.235  1.00  0.00    -0.237 OA
ATOM     93  O   UNL A   1      33.777  36.467  28.452  1.00  0.00    -0.237 OA
ATOM     94  O   UNL A   1      32.566  34.355  28.080  1.00  0.00    -0.744 OA
ENDBRANCH  90  91
ENDBRANCH  58  83
BRANCH  70  95
ATOM     95  C   UNL A   1      39.769  34.142  37.126  1.00  0.00     0.058 A 
ATOM     96  C   UNL A   1      38.995  33.811  38.250  1.00  0.00     0.135 A 
ATOM     97  C   UNL A   1      40.357  35.418  37.091  1.00  0.00     0.135 A 
ATOM     98  F   UNL A   1      38.403  32.609  38.333  1.00  0.00    -0.206 F 
ATOM     99  C   UNL A   1      38.793  34.717  39.287  1.00  0.00     0.059 A 
ATOM    100  C   UNL A   1      40.195  36.328  38.132  1.00  0.00     0.059 A 
ATOM    101  F   UNL A   1      41.116  35.785  36.046  1.00  0.00    -0.206 F 
ATOM    102  C   UNL A   1      39.401  35.973  39.220  1.00  0.00     0.060 A 
BRANCH 102 103
ATOM    103  S   UNL A   1      39.157  37.126  40.588  1.00  0.00     0.124 S 
ATOM    104  O   UNL A   1      38.272  38.116  39.984  1.00  0.00    -0.237 OA
ATOM    105  O   UNL A   1      38.553  36.276  41.609  1.00  0.00    -0.237 OA
ATOM    106  O   UNL A   1      40.509  37.590  40.887  1.00  0.00    -0.744 OA
ENDBRANCH 102 103
ENDBRANCH  70  95
ENDBRANCH  44  45
ENDBRANCH  37  39
ENDBRANCH  36  37
ENDBRANCH  35  36
ENDBRANCH  34  35
ENDBRANCH   1  34
TORSDOF 21
ENDMDL
MODEL 2
REMARK VINA RESULT:     -11.2      4.793      6.143
REMARK SMILES CS(=O)(=O)Nc1ccc(-c2cc(Cl)cc3c2O[C@@H](C(F)(F)F)C(C(=O)OCCOCCOC(=O)c2ccc(-c4c5nc(c(-c6c(F)cc(S(=O)(=O)[O-])cc6F)c6ccc([nH]6)c(-c6c(F)cc(S(=O)(=O)[O-])cc6F)c6nc(c(-c7c(F)cc(S(=O)(=O)[O-])cc7F)c7ccc4[nH]7)C=C6)C=C5)cc2)=C3)cc1
REMARK SMILES IDX 29 1 28 2 27 3 26 4 24 5 25 6 23 7 10 8 11 9 16 10 12 11
REMARK SMILES IDX 15 12 17 13 13 14 14 15 101 16 18 17 9 18 6 19 7 20 103 21
REMARK SMILES IDX 8 22 102 23 5 24 2 26 1 27 3 28 4 29 19 30 20 31 21 32 22 33
REMARK SMILES IDX 30 34 31 35 32 36 33 37 34 38 35 39 36 40 100 41 37 42 99 43
REMARK SMILES IDX 38 44 39 45 40 46 93 47 41 48 98 49 92 50 94 51 42 52 97 53
REMARK SMILES IDX 91 54 90 55 43 57 77 58 56 59 76 60 57 61 60 62 75 63 95 64
REMARK SMILES IDX 58 65 59 66 74 68 96 69 61 70 44 71 45 72 54 73 46 74 47 75
REMARK SMILES IDX 53 76 55 77 48 78 49 79 50 80 51 81 52 82 78 83 79 84 88 85
REMARK SMILES IDX 80 86 81 87 87 88 89 89 82 90 83 91 84 92 85 93 86 94 62 95
REMARK SMILES IDX 63 96 72 97 64 98 65 99 71 100 73 101 66 102 67 103 68 104
REMARK SMILES IDX 69 105 70 106
REMARK H PARENT 5 25 94 56 60 67
REMARK Flexibility Score: inf
ROOT
ATOM      1  O   UNL A   1      35.779  20.068  24.715  1.00  0.00    -0.374 OA
ENDROOT
BRANCH   1   2
ATOM      2  C   UNL A   1      34.784  21.084  24.666  1.00  0.00     0.202 C 
BRANCH   2   3
ATOM      3  C   UNL A   1      33.365  20.748  25.153  1.00  0.00     0.261 C 
BRANCH   3   4
ATOM      4  O   UNL A   1      32.579  21.912  25.459  1.00  0.00    -0.460 OA
BRANCH   4   5
ATOM      5  C   UNL A   1      32.991  22.642  26.512  1.00  0.00     0.338 C 
ATOM      6  O   UNL A   1      33.985  22.410  27.188  1.00  0.00    -0.246 OA
BRANCH   5   7
ATOM      7  C   UNL A   1      32.211  23.891  26.681  1.00  0.00     0.087 C 
ATOM      8  C   UNL A   1      30.818  25.669  23.194  1.00  0.00     0.026 A 
ATOM      9  C   UNL A   1      31.637  25.094  22.194  1.00  0.00     0.033 A 
ATOM     10  C   UNL A   1      31.172  25.321  24.515  1.00  0.00     0.135 A 
ATOM     11  C   UNL A   1      32.904  24.597  22.502  1.00  0.00     0.042 A 
ATOM     12  C   UNL A   1      32.523  25.072  24.813  1.00  0.00     0.019 A 
ATOM     13  O   UNL A   1      30.227  24.618  25.304  1.00  0.00    -0.475 OA
ATOM     14  Cl  UNL A   1      33.907  23.994  21.245  1.00  0.00    -0.084 Cl
ATOM     15  C   UNL A   1      33.392  24.682  23.798  1.00  0.00     0.032 A 
ATOM     16  C   UNL A   1      32.922  24.939  26.230  1.00  0.00     0.027 C 
ATOM     17  C   UNL A   1      30.710  24.078  26.609  1.00  0.00     0.316 C 
BRANCH   8  18
ATOM     18  C   UNL A   1      30.283  27.031  22.782  1.00  0.00    -0.014 A 
ATOM     19  C   UNL A   1      29.601  29.822  22.967  1.00  0.00     0.048 A 
ATOM     20  C   UNL A   1      30.840  29.406  22.470  1.00  0.00     0.027 A 
ATOM     21  C   UNL A   1      28.656  28.842  23.249  1.00  0.00     0.027 A 
ATOM     22  C   UNL A   1      31.164  28.041  22.354  1.00  0.00     0.011 A 
ATOM     23  C   UNL A   1      28.992  27.465  23.157  1.00  0.00     0.011 A 
BRANCH  19  24
ATOM     24  N   UNL A   1      29.499  31.203  23.313  1.00  0.00    -0.284 N 
ATOM     25  H   UNL A   1      30.197  31.545  23.917  1.00  0.00     0.180 HD
BRANCH  24  26
ATOM     26  S   UNL A   1      28.359  32.311  22.833  1.00  0.00     0.229 S 
ATOM     27  C   UNL A   1      28.138  31.992  21.091  1.00  0.00     0.183 C 
ATOM     28  O   UNL A   1      28.870  33.650  23.011  1.00  0.00    -0.207 OA
ATOM     29  O   UNL A   1      27.138  31.889  23.494  1.00  0.00    -0.207 OA
ENDBRANCH  24  26
ENDBRANCH  19  24
ENDBRANCH   8  18
BRANCH  17  30
ATOM     30  C   UNL A   1      29.867  22.947  27.242  1.00  0.00     0.430 C 
ATOM     31  F   UNL A   1      29.651  21.979  26.309  1.00  0.00    -0.167 F 
ATOM     32  F   UNL A   1      30.525  22.350  28.264  1.00  0.00    -0.167 F 
ATOM     33  F   UNL A   1      28.661  23.316  27.708  1.00  0.00    -0.167 F 
ENDBRANCH  17  30
ENDBRANCH   5   7
ENDBRANCH   4   5
ENDBRANCH   3   4
ENDBRANCH   2   3
ENDBRANCH   1   2
BRANCH   1  34
ATOM     34  C   UNL A   1      37.133  20.464  24.917  1.00  0.00     0.202 C 
BRANCH  34  35
ATOM     35  C   UNL A   1      37.417  21.805  25.601  1.00  0.00     0.261 C 
BRANCH  35  36
ATOM     36  O   UNL A   1      38.773  22.252  25.459  1.00  0.00    -0.460 OA
BRANCH  36  37
ATOM     37  C   UNL A   1      39.530  22.111  26.573  1.00  0.00     0.338 C 
ATOM     38  O   UNL A   1      39.991  21.074  27.031  1.00  0.00    -0.246 OA
BRANCH  37  39
ATOM     39  C   UNL A   1      39.883  23.434  27.106  1.00  0.00     0.060 A 
ATOM     40  C   UNL A   1      39.442  24.566  26.409  1.00  0.00     0.016 A 
ATOM     41  C   UNL A   1      40.713  23.558  28.221  1.00  0.00     0.016 A 
ATOM     42  C   UNL A   1      39.856  25.833  26.811  1.00  0.00     0.010 A 
ATOM     43  C   UNL A   1      41.133  24.830  28.617  1.00  0.00     0.010 A 
ATOM     44  C   UNL A   1      40.730  25.969  27.897  1.00  0.00    -0.014 A 
BRANCH  44  45
ATOM     45  C   UNL A   1      41.307  27.296  28.215  1.00  0.00     0.031 A 
ATOM     46  C   UNL A   1      42.783  27.516  28.049  1.00  0.00     0.074 A 
ATOM     47  C   UNL A   1      40.514  28.291  28.648  1.00  0.00     0.049 A 
ATOM     48  N   UNL A   1      43.498  28.578  28.315  1.00  0.00    -0.248 NA
ATOM     49  C   UNL A   1      43.558  26.382  27.522  1.00  0.00     0.031 C 
ATOM     50  C   UNL A   1      39.066  28.193  28.828  1.00  0.00     0.029 A 
ATOM     51  N   UNL A   1      40.818  29.572  29.032  1.00  0.00    -0.354 N 
ATOM     52  C   UNL A   1      44.809  28.238  28.004  1.00  0.00     0.074 A 
ATOM     53  C   UNL A   1      44.792  26.861  27.557  1.00  0.00     0.031 C 
ATOM     54  C   UNL A   1      38.609  29.359  29.311  1.00  0.00     0.029 A 
ATOM     55  C   UNL A   1      39.735  30.271  29.507  1.00  0.00     0.049 A 
ATOM     56  H   UNL A   1      41.723  29.952  28.975  1.00  0.00     0.167 HD
ATOM     57  C   UNL A   1      45.923  29.007  28.080  1.00  0.00     0.037 A 
ATOM     58  C   UNL A   1      39.665  31.495  30.064  1.00  0.00     0.037 A 
ATOM     59  C   UNL A   1      45.922  30.374  28.536  1.00  0.00     0.049 A 
ATOM     60  C   UNL A   1      40.916  32.321  30.185  1.00  0.00     0.074 A 
ATOM     61  C   UNL A   1      46.984  31.258  28.612  1.00  0.00     0.029 A 
ATOM     62  N   UNL A   1      44.807  31.049  29.018  1.00  0.00    -0.354 N 
ATOM     63  N   UNL A   1      42.143  32.010  29.839  1.00  0.00    -0.248 NA
ATOM     64  C   UNL A   1      40.776  33.663  30.764  1.00  0.00     0.031 C 
ATOM     65  C   UNL A   1      46.525  32.442  29.199  1.00  0.00     0.029 A 
ATOM     66  C   UNL A   1      45.163  32.324  29.429  1.00  0.00     0.049 A 
ATOM     67  H   UNL A   1      43.897  30.677  29.060  1.00  0.00     0.167 HD
ATOM     68  C   UNL A   1      42.921  33.122  30.144  1.00  0.00     0.074 A 
ATOM     69  C   UNL A   1      42.019  34.119  30.689  1.00  0.00     0.031 C 
ATOM     70  C   UNL A   1      44.257  33.301  29.986  1.00  0.00     0.037 A 
BRANCH  57  71
ATOM     71  C   UNL A   1      47.234  28.363  27.710  1.00  0.00     0.058 A 
ATOM     72  C   UNL A   1      47.707  28.337  26.388  1.00  0.00     0.135 A 
ATOM     73  C   UNL A   1      48.023  27.747  28.695  1.00  0.00     0.135 A 
ATOM     74  F   UNL A   1      46.991  28.900  25.401  1.00  0.00    -0.206 F 
ATOM     75  C   UNL A   1      48.884  27.676  26.048  1.00  0.00     0.059 A 
ATOM     76  C   UNL A   1      49.221  27.110  28.383  1.00  0.00     0.059 A 
ATOM     77  F   UNL A   1      47.624  27.744  29.977  1.00  0.00    -0.206 F 
ATOM     78  C   UNL A   1      49.629  27.057  27.052  1.00  0.00     0.060 A 
BRANCH  78  79
ATOM     79  S   UNL A   1      51.128  26.163  26.591  1.00  0.00     0.124 S 
ATOM     80  O   UNL A   1      52.149  26.916  27.314  1.00  0.00    -0.237 OA
ATOM     81  O   UNL A   1      50.857  24.819  27.094  1.00  0.00    -0.237 OA
ATOM     82  O   UNL A   1      51.168  26.289  25.138  1.00  0.00    -0.744 OA
ENDBRANCH  78  79
ENDBRANCH  57  71
BRANCH  58  83
ATOM     83  C   UNL A   1      38.352  31.989  30.558  1.00  0.00     0.058 A 
ATOM     84  C   UNL A   1      37.931  31.749  31.872  1.00  0.00     0.135 A 
ATOM     85  C   UNL A   1      37.529  32.780  29.740  1.00  0.00     0.135 A 
ATOM     86  F   UNL A   1      38.677  30.989  32.688  1.00  0.00    -0.206 F 
ATOM     87  C   UNL A   1      36.747  32.290  32.365  1.00  0.00     0.059 A 
ATOM     88  C   UNL A   1      36.354  33.350  30.217  1.00  0.00     0.059 A 
ATOM     89  F   UNL A   1      37.893  33.047  28.475  1.00  0.00    -0.206 F 
ATOM     90  C   UNL A   1      35.974  33.102  31.534  1.00  0.00     0.060 A 
BRANCH  90  91
ATOM     91  S   UNL A   1      34.499  33.888  32.222  1.00  0.00     0.124 S 
ATOM     92  O   UNL A   1      33.863  34.421  31.022  1.00  0.00    -0.237 OA
ATOM     93  O   UNL A   1      33.823  32.762  32.857  1.00  0.00    -0.237 OA
ATOM     94  O   UNL A   1      35.045  34.881  33.141  1.00  0.00    -0.744 OA
ENDBRANCH  90  91
ENDBRANCH  58  83
BRANCH  70  95
ATOM     95  C   UNL A   1      44.830  34.632  30.397  1.00  0.00     0.058 A 
ATOM     96  C   UNL A   1      45.364  34.845  31.677  1.00  0.00     0.135 A 
ATOM     97  C   UNL A   1      44.896  35.693  29.477  1.00  0.00     0.135 A 
ATOM     98  F   UNL A   1      45.321  33.869  32.598  1.00  0.00    -0.206 F 
ATOM     99  C   UNL A   1      45.921  36.067  32.040  1.00  0.00     0.059 A 
ATOM    100  C   UNL A   1      45.477  36.914  29.808  1.00  0.00     0.059 A 
ATOM    101  F   UNL A   1      44.411  35.543  28.234  1.00  0.00    -0.206 F 
ATOM    102  C   UNL A   1      45.976  37.095  31.096  1.00  0.00     0.060 A 
BRANCH 102 103
ATOM    103  S   UNL A   1      46.731  38.666  31.570  1.00  0.00     0.124 S 
ATOM    104  O   UNL A   1      45.562  39.447  31.963  1.00  0.00    -0.237 OA
ATOM    105  O   UNL A   1      47.621  38.269  32.656  1.00  0.00    -0.237 OA
ATOM    106  O   UNL A   1      47.398  39.105  30.349  1.00  0.00    -0.744 OA
ENDBRANCH 102 103
ENDBRANCH  70  95
ENDBRANCH  44  45
ENDBRANCH  37  39
ENDBRANCH  36  37
ENDBRANCH  35  36
ENDBRANCH  34  35
ENDBRANCH   1  34
TORSDOF 21
ENDMDL
MODEL 3
REMARK VINA RESULT:     -10.7      5.423     12.184
REMARK SMILES CS(=O)(=O)Nc1ccc(-c2cc(Cl)cc3c2O[C@@H](C(F)(F)F)C(C(=O)OCCOCCOC(=O)c2ccc(-c4c5nc(c(-c6c(F)cc(S(=O)(=O)[O-])cc6F)c6ccc([nH]6)c(-c6c(F)cc(S(=O)(=O)[O-])cc6F)c6nc(c(-c7c(F)cc(S(=O)(=O)[O-])cc7F)c7ccc4[nH]7)C=C6)C=C5)cc2)=C3)cc1
REMARK SMILES IDX 29 1 28 2 27 3 26 4 24 5 25 6 23 7 10 8 11 9 16 10 12 11
REMARK SMILES IDX 15 12 17 13 13 14 14 15 101 16 18 17 9 18 6 19 7 20 103 21
REMARK SMILES IDX 8 22 102 23 5 24 2 26 1 27 3 28 4 29 19 30 20 31 21 32 22 33
REMARK SMILES IDX 30 34 31 35 32 36 33 37 34 38 35 39 36 40 100 41 37 42 99 43
REMARK SMILES IDX 38 44 39 45 40 46 93 47 41 48 98 49 92 50 94 51 42 52 97 53
REMARK SMILES IDX 91 54 90 55 43 57 77 58 56 59 76 60 57 61 60 62 75 63 95 64
REMARK SMILES IDX 58 65 59 66 74 68 96 69 61 70 44 71 45 72 54 73 46 74 47 75
REMARK SMILES IDX 53 76 55 77 48 78 49 79 50 80 51 81 52 82 78 83 79 84 88 85
REMARK SMILES IDX 80 86 81 87 87 88 89 89 82 90 83 91 84 92 85 93 86 94 62 95
REMARK SMILES IDX 63 96 72 97 64 98 65 99 71 100 73 101 66 102 67 103 68 104
REMARK SMILES IDX 69 105 70 106
REMARK H PARENT 5 25 94 56 60 67
REMARK Flexibility Score: inf
ROOT
ATOM      1  O   UNL A   1      50.030  24.592  38.783  1.00  0.00    -0.374 OA
ENDROOT
BRANCH   1   2
ATOM      2  C   UNL A   1      49.858  24.355  37.391  1.00  0.00     0.202 C 
BRANCH   2   3
ATOM      3  C   UNL A   1      49.065  23.113  36.949  1.00  0.00     0.261 C 
BRANCH   3   4
ATOM      4  O   UNL A   1      47.736  23.420  36.497  1.00  0.00    -0.460 OA
BRANCH   4   5
ATOM      5  C   UNL A   1      47.575  23.522  35.164  1.00  0.00     0.338 C 
ATOM      6  O   UNL A   1      48.036  22.749  34.335  1.00  0.00    -0.246 OA
BRANCH   5   7
ATOM      7  C   UNL A   1      46.615  24.587  34.785  1.00  0.00     0.087 C 
ATOM      8  C   UNL A   1      46.881  25.990  30.884  1.00  0.00     0.026 A 
ATOM      9  C   UNL A   1      48.176  25.582  30.486  1.00  0.00     0.033 A 
ATOM     10  C   UNL A   1      46.578  25.741  32.239  1.00  0.00     0.135 A 
ATOM     11  C   UNL A   1      49.180  25.360  31.429  1.00  0.00     0.042 A 
ATOM     12  C   UNL A   1      47.616  25.780  33.186  1.00  0.00     0.019 A 
ATOM     13  O   UNL A   1      45.500  24.870  32.540  1.00  0.00    -0.475 OA
ATOM     14  Cl  UNL A   1      50.765  24.959  30.901  1.00  0.00    -0.084 Cl
ATOM     15  C   UNL A   1      48.929  25.562  32.778  1.00  0.00     0.032 A 
ATOM     16  C   UNL A   1      47.265  25.752  34.622  1.00  0.00     0.027 C 
ATOM     17  C   UNL A   1      45.347  24.460  33.967  1.00  0.00     0.316 C 
BRANCH   8  18
ATOM     18  C   UNL A   1      46.401  27.207  30.109  1.00  0.00    -0.014 A 
ATOM     19  C   UNL A   1      46.525  29.634  28.565  1.00  0.00     0.048 A 
ATOM     20  C   UNL A   1      46.478  28.381  27.949  1.00  0.00     0.027 A 
ATOM     21  C   UNL A   1      46.379  29.680  29.948  1.00  0.00     0.027 A 
ATOM     22  C   UNL A   1      46.390  27.194  28.701  1.00  0.00     0.011 A 
ATOM     23  C   UNL A   1      46.316  28.483  30.709  1.00  0.00     0.011 A 
BRANCH  19  24
ATOM     24  N   UNL A   1      46.907  30.727  27.730  1.00  0.00    -0.284 N 
ATOM     25  H   UNL A   1      47.778  31.137  27.936  1.00  0.00     0.180 HD
BRANCH  24  26
ATOM     26  S   UNL A   1      46.078  31.400  26.459  1.00  0.00     0.229 S 
ATOM     27  C   UNL A   1      44.394  31.513  27.039  1.00  0.00     0.183 C 
ATOM     28  O   UNL A   1      46.131  30.519  25.316  1.00  0.00    -0.207 OA
ATOM     29  O   UNL A   1      46.582  32.758  26.372  1.00  0.00    -0.207 OA
ENDBRANCH  24  26
ENDBRANCH  19  24
ENDBRANCH   8  18
BRANCH  17  30
ATOM     30  C   UNL A   1      44.508  23.188  34.233  1.00  0.00     0.430 C 
ATOM     31  F   UNL A   1      43.309  23.306  33.598  1.00  0.00    -0.167 F 
ATOM     32  F   UNL A   1      45.103  22.085  33.721  1.00  0.00    -0.167 F 
ATOM     33  F   UNL A   1      44.243  22.931  35.526  1.00  0.00    -0.167 F 
ENDBRANCH  17  30
ENDBRANCH   5   7
ENDBRANCH   4   5
ENDBRANCH   3   4
ENDBRANCH   2   3
ENDBRANCH   1   2
BRANCH   1  34
ATOM     34  C   UNL A   1      48.870  24.600  39.610  1.00  0.00     0.202 C 
BRANCH  34  35
ATOM     35  C   UNL A   1      48.088  25.908  39.773  1.00  0.00     0.261 C 
BRANCH  35  36
ATOM     36  O   UNL A   1      47.242  26.220  38.656  1.00  0.00    -0.460 OA
BRANCH  36  37
ATOM     37  C   UNL A   1      47.530  27.394  38.045  1.00  0.00     0.338 C 
ATOM     38  O   UNL A   1      48.589  28.007  38.074  1.00  0.00    -0.246 OA
BRANCH  37  39
ATOM     39  C   UNL A   1      46.415  27.787  37.172  1.00  0.00     0.060 A 
ATOM     40  C   UNL A   1      46.597  28.886  36.325  1.00  0.00     0.016 A 
ATOM     41  C   UNL A   1      45.180  27.142  37.254  1.00  0.00     0.016 A 
ATOM     42  C   UNL A   1      45.528  29.366  35.572  1.00  0.00     0.010 A 
ATOM     43  C   UNL A   1      44.108  27.631  36.504  1.00  0.00     0.010 A 
ATOM     44  C   UNL A   1      44.270  28.761  35.682  1.00  0.00    -0.014 A 
BRANCH  44  45
ATOM     45  C   UNL A   1      43.097  29.377  35.019  1.00  0.00     0.031 A 
ATOM     46  C   UNL A   1      42.678  28.888  33.662  1.00  0.00     0.074 A 
ATOM     47  C   UNL A   1      42.418  30.363  35.628  1.00  0.00     0.049 A 
ATOM     48  N   UNL A   1      41.717  29.318  32.886  1.00  0.00    -0.248 NA
ATOM     49  C   UNL A   1      43.454  27.772  33.101  1.00  0.00     0.031 C 
ATOM     50  C   UNL A   1      42.727  30.903  36.952  1.00  0.00     0.029 A 
ATOM     51  N   UNL A   1      41.341  31.100  35.205  1.00  0.00    -0.354 N 
ATOM     52  C   UNL A   1      41.781  28.537  31.739  1.00  0.00     0.074 A 
ATOM     53  C   UNL A   1      42.893  27.628  31.909  1.00  0.00     0.031 C 
ATOM     54  C   UNL A   1      41.872  31.901  37.224  1.00  0.00     0.029 A 
ATOM     55  C   UNL A   1      40.981  32.094  36.081  1.00  0.00     0.049 A 
ATOM     56  H   UNL A   1      40.873  30.931  34.356  1.00  0.00     0.167 HD
ATOM     57  C   UNL A   1      40.980  28.574  30.646  1.00  0.00     0.037 A 
ATOM     58  C   UNL A   1      40.059  33.069  35.961  1.00  0.00     0.037 A 
ATOM     59  C   UNL A   1      39.881  29.494  30.489  1.00  0.00     0.049 A 
ATOM     60  C   UNL A   1      39.207  33.126  34.722  1.00  0.00     0.074 A 
ATOM     61  C   UNL A   1      38.979  29.589  29.444  1.00  0.00     0.029 A 
ATOM     62  N   UNL A   1      39.549  30.495  31.394  1.00  0.00    -0.354 N 
ATOM     63  N   UNL A   1      39.239  32.350  33.665  1.00  0.00    -0.248 NA
ATOM     64  C   UNL A   1      38.191  34.184  34.662  1.00  0.00     0.031 C 
ATOM     65  C   UNL A   1      38.145  30.687  29.685  1.00  0.00     0.029 A 
ATOM     66  C   UNL A   1      38.481  31.238  30.913  1.00  0.00     0.049 A 
ATOM     67  H   UNL A   1      40.005  30.654  32.252  1.00  0.00     0.167 HD
ATOM     68  C   UNL A   1      38.240  32.816  32.817  1.00  0.00     0.074 A 
ATOM     69  C   UNL A   1      37.611  33.933  33.495  1.00  0.00     0.031 C 
ATOM     70  C   UNL A   1      37.876  32.359  31.592  1.00  0.00     0.037 A 
BRANCH  57  71
ATOM     71  C   UNL A   1      41.302  27.627  29.520  1.00  0.00     0.058 A 
ATOM     72  C   UNL A   1      40.467  26.547  29.189  1.00  0.00     0.135 A 
ATOM     73  C   UNL A   1      42.477  27.794  28.768  1.00  0.00     0.135 A 
ATOM     74  F   UNL A   1      39.336  26.329  29.880  1.00  0.00    -0.206 F 
ATOM     75  C   UNL A   1      40.813  25.636  28.195  1.00  0.00     0.059 A 
ATOM     76  C   UNL A   1      42.826  26.915  27.746  1.00  0.00     0.059 A 
ATOM     77  F   UNL A   1      43.311  28.811  29.035  1.00  0.00    -0.206 F 
ATOM     78  C   UNL A   1      42.000  25.824  27.486  1.00  0.00     0.060 A 
BRANCH  78  79
ATOM     79  S   UNL A   1      42.460  24.609  26.231  1.00  0.00     0.124 S 
ATOM     80  O   UNL A   1      43.766  24.173  26.716  1.00  0.00    -0.237 OA
ATOM     81  O   UNL A   1      41.384  23.628  26.338  1.00  0.00    -0.237 OA
ATOM     82  O   UNL A   1      42.476  25.385  24.996  1.00  0.00    -0.744 OA
ENDBRANCH  78  79
ENDBRANCH  57  71
BRANCH  58  83
ATOM     83  C   UNL A   1      39.920  34.068  37.053  1.00  0.00     0.058 A 
ATOM     84  C   UNL A   1      40.628  35.277  37.027  1.00  0.00     0.135 A 
ATOM     85  C   UNL A   1      39.012  33.862  38.104  1.00  0.00     0.135 A 
ATOM     86  F   UNL A   1      41.515  35.515  36.050  1.00  0.00    -0.206 F 
ATOM     87  C   UNL A   1      40.429  36.255  37.997  1.00  0.00     0.059 A 
ATOM     88  C   UNL A   1      38.779  34.834  39.071  1.00  0.00     0.059 A 
ATOM     89  F   UNL A   1      38.303  32.724  38.167  1.00  0.00    -0.206 F 
ATOM     90  C   UNL A   1      39.491  36.029  39.006  1.00  0.00     0.060 A 
BRANCH  90  91
ATOM     91  S   UNL A   1      39.161  37.352  40.192  1.00  0.00     0.124 S 
ATOM     92  O   UNL A   1      38.294  38.233  39.418  1.00  0.00    -0.237 OA
ATOM     93  O   UNL A   1      38.523  36.627  41.286  1.00  0.00    -0.237 OA
ATOM     94  O   UNL A   1      40.491  37.876  40.490  1.00  0.00    -0.744 OA
ENDBRANCH  90  91
ENDBRANCH  58  83
BRANCH  70  95
ATOM     95  C   UNL A   1      36.734  33.059  30.903  1.00  0.00     0.058 A 
ATOM     96  C   UNL A   1      35.402  32.871  31.305  1.00  0.00     0.135 A 
ATOM     97  C   UNL A   1      36.980  33.972  29.864  1.00  0.00     0.135 A 
ATOM     98  F   UNL A   1      35.108  32.006  32.288  1.00  0.00    -0.206 F 
ATOM     99  C   UNL A   1      34.353  33.545  30.686  1.00  0.00     0.059 A 
ATOM    100  C   UNL A   1      35.950  34.681  29.252  1.00  0.00     0.059 A 
ATOM    101  F   UNL A   1      38.236  34.199  29.446  1.00  0.00    -0.206 F 
ATOM    102  C   UNL A   1      34.638  34.451  29.662  1.00  0.00     0.060 A 
BRANCH 102 103
ATOM    103  S   UNL A   1      33.271  35.342  28.889  1.00  0.00     0.124 S 
ATOM    104  O   UNL A   1      33.976  36.409  28.186  1.00  0.00    -0.237 OA
ATOM    105  O   UNL A   1      32.669  34.316  28.044  1.00  0.00    -0.237 OA
ATOM    106  O   UNL A   1      32.458  35.769  30.024  1.00  0.00    -0.744 OA
ENDBRANCH 102 103
ENDBRANCH  70  95
ENDBRANCH  44  45
ENDBRANCH  37  39
ENDBRANCH  36  37
ENDBRANCH  35  36
ENDBRANCH  34  35
ENDBRANCH   1  34
TORSDOF 21
ENDMDL
