MODEL 1
REMARK VINA RESULT:     -11.3      0.000      0.000
REMARK SMILES C[C@@H](C(=O)OCCOCCOC(=O)c1ccc(-c2c3nc(c(-c4c(F)cc(S(=O)(=O)[O-])cc4F)c4ccc([nH]4)c(-c4c(F)cc(S(=O)(=O)[O-])cc4F)c4nc(c(-c5c(F)cc(S(=O)(=O)[O-])cc5F)c5ccc2[nH]5)C=C4)C=C3)cc1)n1ccc(C(=O)N2CC[NH+](Cc3cccc(F)c3)CC2)n1
REMARK SMILES IDX 7 1 6 2 5 3 3 4 4 5 2 6 1 7 80 8 81 9 100 10 82 11 83 12
REMARK SMILES IDX 84 13 85 14 86 15 87 16 99 17 88 18 98 19 89 20 90 22 91 23
REMARK SMILES IDX 92 24 97 25 93 26 95 27 94 28 96 29 8 30 9 31 10 32 11 33
REMARK SMILES IDX 12 34 13 35 14 36 15 37 79 38 16 39 78 40 17 41 18 42 19 43
REMARK SMILES IDX 72 44 20 45 77 46 71 47 73 48 21 49 76 50 70 51 69 52 22 54
REMARK SMILES IDX 56 55 35 56 55 57 36 58 39 59 54 60 74 61 37 62 38 63 53 65
REMARK SMILES IDX 75 66 40 67 23 68 24 69 33 70 25 71 26 72 32 73 34 74 27 75
REMARK SMILES IDX 28 76 29 77 30 78 31 79 57 80 58 81 67 82 59 83 60 84 66 85
REMARK SMILES IDX 68 86 61 87 62 88 63 89 64 90 65 91 41 92 42 93 51 94 43 95
REMARK SMILES IDX 44 96 50 97 52 98 45 99 46 100 47 101 48 102 49 103
REMARK H PARENT 89 21 73 53 39 64
REMARK Flexibility Score: inf
ROOT
ATOM      1  C   UNL A   1      31.890  29.378  27.266  1.00  0.00     0.202 C 
ENDROOT
BRANCH   1   2
ATOM      2  C   UNL A   1      31.752  28.576  25.970  1.00  0.00     0.261 C 
BRANCH   2   3
ATOM      3  O   UNL A   1      31.697  27.173  26.267  1.00  0.00    -0.462 OA
BRANCH   3   4
ATOM      4  C   UNL A   1      30.618  26.508  25.765  1.00  0.00     0.330 C 
ATOM      5  O   UNL A   1      29.991  25.660  26.389  1.00  0.00    -0.250 OA
BRANCH   4   6
ATOM      6  C   UNL A   1      30.269  26.985  24.358  1.00  0.00     0.213 C 
ATOM      7  C   UNL A   1      28.835  26.622  23.962  1.00  0.00     0.046 C 
BRANCH   6   8
ATOM      8  N   UNL A   1      31.273  26.552  23.385  1.00  0.00    -0.258 N 
ATOM      9  C   UNL A   1      31.987  27.312  22.496  1.00  0.00     0.110 A 
ATOM     10  N   UNL A   1      31.687  25.277  23.404  1.00  0.00    -0.167 NA
ATOM     11  C   UNL A   1      32.936  26.479  21.947  1.00  0.00     0.056 A 
ATOM     12  C   UNL A   1      32.718  25.213  22.546  1.00  0.00     0.150 A 
BRANCH  12  13
ATOM     13  C   UNL A   1      33.534  23.996  22.399  1.00  0.00     0.274 C 
ATOM     14  O   UNL A   1      33.318  23.197  21.487  1.00  0.00    -0.267 OA
ATOM     15  N   UNL A   1      34.594  23.823  23.299  1.00  0.00    -0.326 N 
ATOM     16  C   UNL A   1      35.648  22.902  22.910  1.00  0.00     0.181 C 
ATOM     17  C   UNL A   1      34.402  24.059  24.733  1.00  0.00     0.181 C 
ATOM     18  C   UNL A   1      36.911  22.975  23.789  1.00  0.00     0.284 C 
ATOM     19  C   UNL A   1      35.703  24.095  25.553  1.00  0.00     0.284 C 
ATOM     20  N   UNL A   1      36.691  23.055  25.237  1.00  0.00    -0.328 N 
ATOM     21  H   UNL A   1      37.576  23.365  25.640  1.00  0.00     0.348 HD
BRANCH  20  22
ATOM     22  C   UNL A   1      36.562  21.788  25.958  1.00  0.00     0.299 C 
BRANCH  22  23
ATOM     23  C   UNL A   1      35.595  20.763  25.414  1.00  0.00     0.009 A 
ATOM     24  C   UNL A   1      36.055  19.541  24.898  1.00  0.00     0.010 A 
ATOM     25  C   UNL A   1      34.213  21.001  25.438  1.00  0.00     0.048 A 
ATOM     26  C   UNL A   1      35.156  18.548  24.499  1.00  0.00     0.004 A 
ATOM     27  C   UNL A   1      33.326  20.001  25.055  1.00  0.00     0.123 A 
ATOM     28  C   UNL A   1      33.784  18.773  24.598  1.00  0.00     0.039 A 
ATOM     29  F   UNL A   1      32.007  20.219  25.153  1.00  0.00    -0.207 F 
ENDBRANCH  22  23
ENDBRANCH  20  22
ENDBRANCH  12  13
ENDBRANCH   6   8
ENDBRANCH   4   6
ENDBRANCH   3   4
ENDBRANCH   2   3
ENDBRANCH   1   2
BRANCH   1  30
ATOM     30  O   UNL A   1      32.845  30.442  27.239  1.00  0.00    -0.374 OA
BRANCH  30  31
ATOM     31  C   UNL A   1      34.186  30.119  26.867  1.00  0.00     0.202 C 
BRANCH  31  32
ATOM     32  C   UNL A   1      35.092  29.553  27.969  1.00  0.00     0.261 C 
BRANCH  32  33
ATOM     33  O   UNL A   1      35.657  30.573  28.814  1.00  0.00    -0.460 OA
BRANCH  33  34
ATOM     34  C   UNL A   1      36.353  30.103  29.879  1.00  0.00     0.338 C 
ATOM     35  O   UNL A   1      35.888  29.661  30.923  1.00  0.00    -0.246 OA
BRANCH  34  36
ATOM     36  C   UNL A   1      37.793  30.022  29.572  1.00  0.00     0.060 A 
ATOM     37  C   UNL A   1      38.161  29.905  28.226  1.00  0.00     0.016 A 
ATOM     38  C   UNL A   1      38.761  29.954  30.578  1.00  0.00     0.016 A 
ATOM     39  C   UNL A   1      39.491  29.674  27.879  1.00  0.00     0.010 A 
ATOM     40  C   UNL A   1      40.097  29.712  30.227  1.00  0.00     0.010 A 
ATOM     41  C   UNL A   1      40.462  29.536  28.879  1.00  0.00    -0.014 A 
BRANCH  41  42
ATOM     42  C   UNL A   1      41.824  29.071  28.514  1.00  0.00     0.031 A 
ATOM     43  C   UNL A   1      42.961  30.058  28.514  1.00  0.00     0.074 A 
ATOM     44  C   UNL A   1      42.058  27.777  28.229  1.00  0.00     0.049 A 
ATOM     45  N   UNL A   1      44.222  29.871  28.219  1.00  0.00    -0.248 NA
ATOM     46  C   UNL A   1      42.631  31.441  28.899  1.00  0.00     0.031 C 
ATOM     47  C   UNL A   1      41.050  26.718  28.230  1.00  0.00     0.029 A 
ATOM     48  N   UNL A   1      43.220  27.136  27.878  1.00  0.00    -0.354 N 
ATOM     49  C   UNL A   1      44.837  31.107  28.383  1.00  0.00     0.074 A 
ATOM     50  C   UNL A   1      43.804  32.044  28.773  1.00  0.00     0.031 C 
ATOM     51  C   UNL A   1      41.636  25.558  27.882  1.00  0.00     0.029 A 
ATOM     52  C   UNL A   1      43.053  25.798  27.611  1.00  0.00     0.049 A 
ATOM     53  H   UNL A   1      44.090  27.592  27.823  1.00  0.00     0.167 HD
ATOM     54  C   UNL A   1      46.143  31.431  28.232  1.00  0.00     0.037 A 
ATOM     55  C   UNL A   1      43.936  24.877  27.179  1.00  0.00     0.037 A 
ATOM     56  C   UNL A   1      47.170  30.500  27.842  1.00  0.00     0.049 A 
ATOM     57  C   UNL A   1      45.374  25.271  26.963  1.00  0.00     0.074 A 
ATOM     58  C   UNL A   1      48.523  30.733  27.671  1.00  0.00     0.029 A 
ATOM     59  N   UNL A   1      46.956  29.160  27.559  1.00  0.00    -0.354 N 
ATOM     60  N   UNL A   1      45.943  26.441  27.138  1.00  0.00    -0.248 NA
ATOM     61  C   UNL A   1      46.291  24.221  26.495  1.00  0.00     0.031 C 
ATOM     62  C   UNL A   1      49.122  29.541  27.245  1.00  0.00     0.029 A 
ATOM     63  C   UNL A   1      48.149  28.556  27.194  1.00  0.00     0.049 A 
ATOM     64  H   UNL A   1      46.085  28.703  27.610  1.00  0.00     0.167 HD
ATOM     65  C   UNL A   1      47.286  26.261  26.822  1.00  0.00     0.074 A 
ATOM     66  C   UNL A   1      47.448  24.869  26.457  1.00  0.00     0.031 C 
ATOM     67  C   UNL A   1      48.295  27.167  26.838  1.00  0.00     0.037 A 
BRANCH  54  68
ATOM     68  C   UNL A   1      46.534  32.862  28.475  1.00  0.00     0.058 A 
ATOM     69  C   UNL A   1      47.039  33.287  29.714  1.00  0.00     0.135 A 
ATOM     70  C   UNL A   1      46.428  33.814  27.448  1.00  0.00     0.135 A 
ATOM     71  F   UNL A   1      47.144  32.421  30.734  1.00  0.00    -0.206 F 
ATOM     72  C   UNL A   1      47.400  34.612  29.935  1.00  0.00     0.059 A 
ATOM     73  C   UNL A   1      46.805  35.140  27.640  1.00  0.00     0.059 A 
ATOM     74  F   UNL A   1      45.949  33.460  26.246  1.00  0.00    -0.206 F 
ATOM     75  C   UNL A   1      47.275  35.532  28.892  1.00  0.00     0.060 A 
BRANCH  75  76
ATOM     76  S   UNL A   1      47.742  37.250  29.194  1.00  0.00     0.124 S 
ATOM     77  O   UNL A   1      46.700  37.966  28.464  1.00  0.00    -0.237 OA
ATOM     78  O   UNL A   1      47.672  37.343  30.649  1.00  0.00    -0.237 OA
ATOM     79  O   UNL A   1      49.083  37.343  28.627  1.00  0.00    -0.744 OA
ENDBRANCH  75  76
ENDBRANCH  54  68
BRANCH  55  80
ATOM     80  C   UNL A   1      43.482  23.487  26.907  1.00  0.00     0.058 A 
ATOM     81  C   UNL A   1      43.344  23.009  25.597  1.00  0.00     0.135 A 
ATOM     82  C   UNL A   1      43.180  22.610  27.961  1.00  0.00     0.135 A 
ATOM     83  F   UNL A   1      43.610  23.815  24.558  1.00  0.00    -0.206 F 
ATOM     84  C   UNL A   1      42.913  21.712  25.337  1.00  0.00     0.059 A 
ATOM     85  C   UNL A   1      42.769  21.302  27.727  1.00  0.00     0.059 A 
ATOM     86  F   UNL A   1      43.306  23.018  29.233  1.00  0.00    -0.206 F 
ATOM     87  C   UNL A   1      42.629  20.865  26.411  1.00  0.00     0.060 A 
BRANCH  87  88
ATOM     88  S   UNL A   1      42.123  19.166  26.067  1.00  0.00     0.124 S 
ATOM     89  O   UNL A   1      42.544  18.483  27.285  1.00  0.00    -0.237 OA
ATOM     90  O   UNL A   1      40.682  19.306  25.877  1.00  0.00    -0.237 OA
ATOM     91  O   UNL A   1      42.875  18.831  24.861  1.00  0.00    -0.744 OA
ENDBRANCH  87  88
ENDBRANCH  55  80
BRANCH  67  92
ATOM     92  C   UNL A   1      49.671  26.681  26.474  1.00  0.00     0.058 A 
ATOM     93  C   UNL A   1      50.470  25.978  27.387  1.00  0.00     0.135 A 
ATOM     94  C   UNL A   1      50.173  26.876  25.176  1.00  0.00     0.135 A 
ATOM     95  F   UNL A   1      50.039  25.770  28.642  1.00  0.00    -0.206 F 
ATOM     96  C   UNL A   1      51.729  25.500  27.035  1.00  0.00     0.059 A 
ATOM     97  C   UNL A   1      51.418  26.386  24.794  1.00  0.00     0.059 A 
ATOM     98  F   UNL A   1      49.444  27.534  24.260  1.00  0.00    -0.206 F 
ATOM     99  C   UNL A   1      52.194  25.708  25.734  1.00  0.00     0.060 A 
BRANCH  99 100
ATOM    100  S   UNL A   1      53.813  25.052  25.276  1.00  0.00     0.124 S 
ATOM    101  O   UNL A   1      53.584  23.614  25.371  1.00  0.00    -0.237 OA
ATOM    102  O   UNL A   1      53.994  25.577  23.927  1.00  0.00    -0.237 OA
ATOM    103  O   UNL A   1      54.705  25.614  26.286  1.00  0.00    -0.744 OA
ENDBRANCH  99 100
ENDBRANCH  67  92
ENDBRANCH  41  42
ENDBRANCH  34  36
ENDBRANCH  33  34
ENDBRANCH  32  33
ENDBRANCH  31  32
ENDBRANCH  30  31
ENDBRANCH   1  30
TORSDOF 21
ENDMDL
MODEL 2
REMARK VINA RESULT:     -11.0      0.579      7.906
REMARK SMILES C[C@@H](C(=O)OCCOCCOC(=O)c1ccc(-c2c3nc(c(-c4c(F)cc(S(=O)(=O)[O-])cc4F)c4ccc([nH]4)c(-c4c(F)cc(S(=O)(=O)[O-])cc4F)c4nc(c(-c5c(F)cc(S(=O)(=O)[O-])cc5F)c5ccc2[nH]5)C=C4)C=C3)cc1)n1ccc(C(=O)N2CC[NH+](Cc3cccc(F)c3)CC2)n1
REMARK SMILES IDX 7 1 6 2 5 3 3 4 4 5 2 6 1 7 80 8 81 9 100 10 82 11 83 12
REMARK SMILES IDX 84 13 85 14 86 15 87 16 99 17 88 18 98 19 89 20 90 22 91 23
REMARK SMILES IDX 92 24 97 25 93 26 95 27 94 28 96 29 8 30 9 31 10 32 11 33
REMARK SMILES IDX 12 34 13 35 14 36 15 37 79 38 16 39 78 40 17 41 18 42 19 43
REMARK SMILES IDX 72 44 20 45 77 46 71 47 73 48 21 49 76 50 70 51 69 52 22 54
REMARK SMILES IDX 56 55 35 56 55 57 36 58 39 59 54 60 74 61 37 62 38 63 53 65
REMARK SMILES IDX 75 66 40 67 23 68 24 69 33 70 25 71 26 72 32 73 34 74 27 75
REMARK SMILES IDX 28 76 29 77 30 78 31 79 57 80 58 81 67 82 59 83 60 84 66 85
REMARK SMILES IDX 68 86 61 87 62 88 63 89 64 90 65 91 41 92 42 93 51 94 43 95
REMARK SMILES IDX 44 96 50 97 52 98 45 99 46 100 47 101 48 102 49 103
REMARK H PARENT 89 21 73 53 39 64
REMARK Flexibility Score: inf
ROOT
ATOM      1  C   UNL A   1      31.807  29.046  27.355  1.00  0.00     0.202 C 
ENDROOT
BRANCH   1   2
ATOM      2  C   UNL A   1      31.780  28.144  26.118  1.00  0.00     0.261 C 
BRANCH   2   3
ATOM      3  O   UNL A   1      31.533  26.785  26.510  1.00  0.00    -0.462 OA
BRANCH   3   4
ATOM      4  C   UNL A   1      30.510  26.162  25.858  1.00  0.00     0.330 C 
ATOM      5  O   UNL A   1      29.897  25.204  26.313  1.00  0.00    -0.250 OA
BRANCH   4   6
ATOM      6  C   UNL A   1      30.201  26.837  24.524  1.00  0.00     0.213 C 
ATOM      7  C   UNL A   1      28.737  26.664  24.112  1.00  0.00     0.046 C 
BRANCH   6   8
ATOM      8  N   UNL A   1      31.153  26.429  23.489  1.00  0.00    -0.258 N 
ATOM      9  C   UNL A   1      31.721  27.189  22.500  1.00  0.00     0.110 A 
ATOM     10  N   UNL A   1      31.675  25.195  23.539  1.00  0.00    -0.167 NA
ATOM     11  C   UNL A   1      32.687  26.403  21.914  1.00  0.00     0.056 A 
ATOM     12  C   UNL A   1      32.631  25.163  22.596  1.00  0.00     0.150 A 
BRANCH  12  13
ATOM     13  C   UNL A   1      33.534  24.009  22.442  1.00  0.00     0.274 C 
ATOM     14  O   UNL A   1      33.354  23.183  21.546  1.00  0.00    -0.267 OA
ATOM     15  N   UNL A   1      34.628  23.931  23.313  1.00  0.00    -0.326 N 
ATOM     16  C   UNL A   1      35.739  23.086  22.906  1.00  0.00     0.181 C 
ATOM     17  C   UNL A   1      34.458  24.173  24.749  1.00  0.00     0.181 C 
ATOM     18  C   UNL A   1      37.015  23.268  23.747  1.00  0.00     0.284 C 
ATOM     19  C   UNL A   1      35.775  24.320  25.531  1.00  0.00     0.284 C 
ATOM     20  N   UNL A   1      36.830  23.354  25.200  1.00  0.00    -0.328 N 
ATOM     21  H   UNL A   1      37.699  23.736  25.574  1.00  0.00     0.348 HD
BRANCH  20  22
ATOM     22  C   UNL A   1      36.818  22.091  25.940  1.00  0.00     0.299 C 
BRANCH  22  23
ATOM     23  C   UNL A   1      35.556  21.262  25.899  1.00  0.00     0.009 A 
ATOM     24  C   UNL A   1      34.515  21.489  26.813  1.00  0.00     0.010 A 
ATOM     25  C   UNL A   1      35.388  20.264  24.928  1.00  0.00     0.048 A 
ATOM     26  C   UNL A   1      33.304  20.799  26.704  1.00  0.00     0.004 A 
ATOM     27  C   UNL A   1      34.175  19.595  24.817  1.00  0.00     0.123 A 
ATOM     28  C   UNL A   1      33.127  19.862  25.688  1.00  0.00     0.039 A 
ATOM     29  F   UNL A   1      34.007  18.696  23.838  1.00  0.00    -0.207 F 
ENDBRANCH  22  23
ENDBRANCH  20  22
ENDBRANCH  12  13
ENDBRANCH   6   8
ENDBRANCH   4   6
ENDBRANCH   3   4
ENDBRANCH   2   3
ENDBRANCH   1   2
BRANCH   1  30
ATOM     30  O   UNL A   1      32.743  30.126  27.313  1.00  0.00    -0.374 OA
BRANCH  30  31
ATOM     31  C   UNL A   1      34.074  29.835  26.881  1.00  0.00     0.202 C 
BRANCH  31  32
ATOM     32  C   UNL A   1      35.046  29.310  27.945  1.00  0.00     0.261 C 
BRANCH  32  33
ATOM     33  O   UNL A   1      35.769  30.359  28.616  1.00  0.00    -0.460 OA
BRANCH  33  34
ATOM     34  C   UNL A   1      36.457  29.957  29.715  1.00  0.00     0.338 C 
ATOM     35  O   UNL A   1      35.984  29.523  30.759  1.00  0.00    -0.246 OA
BRANCH  34  36
ATOM     36  C   UNL A   1      37.908  29.943  29.451  1.00  0.00     0.060 A 
ATOM     37  C   UNL A   1      38.320  29.864  28.114  1.00  0.00     0.016 A 
ATOM     38  C   UNL A   1      38.847  29.899  30.484  1.00  0.00     0.016 A 
ATOM     39  C   UNL A   1      39.669  29.694  27.806  1.00  0.00     0.010 A 
ATOM     40  C   UNL A   1      40.201  29.720  30.171  1.00  0.00     0.010 A 
ATOM     41  C   UNL A   1      40.614  29.581  28.833  1.00  0.00    -0.014 A 
BRANCH  41  42
ATOM     42  C   UNL A   1      42.005  29.180  28.502  1.00  0.00     0.031 A 
ATOM     43  C   UNL A   1      42.288  27.747  28.138  1.00  0.00     0.074 A 
ATOM     44  C   UNL A   1      42.998  30.087  28.483  1.00  0.00     0.049 A 
ATOM     45  N   UNL A   1      43.425  27.179  27.827  1.00  0.00    -0.248 NA
ATOM     46  C   UNL A   1      41.135  26.832  28.123  1.00  0.00     0.031 C 
ATOM     47  C   UNL A   1      42.846  31.511  28.780  1.00  0.00     0.029 A 
ATOM     48  N   UNL A   1      44.335  29.943  28.203  1.00  0.00    -0.354 N 
ATOM     49  C   UNL A   1      43.127  25.845  27.577  1.00  0.00     0.074 A 
ATOM     50  C   UNL A   1      41.706  25.680  27.804  1.00  0.00     0.031 C 
ATOM     51  C   UNL A   1      44.048  32.107  28.680  1.00  0.00     0.029 A 
ATOM     52  C   UNL A   1      45.055  31.105  28.336  1.00  0.00     0.049 A 
ATOM     53  H   UNL A   1      44.738  29.086  27.934  1.00  0.00     0.167 HD
ATOM     54  C   UNL A   1      43.957  24.849  27.185  1.00  0.00     0.037 A 
ATOM     55  C   UNL A   1      46.378  31.331  28.213  1.00  0.00     0.037 A 
ATOM     56  C   UNL A   1      45.370  25.012  26.962  1.00  0.00     0.049 A 
ATOM     57  C   UNL A   1      47.293  30.197  27.832  1.00  0.00     0.074 A 
ATOM     58  C   UNL A   1      46.293  24.063  26.555  1.00  0.00     0.029 A 
ATOM     59  N   UNL A   1      46.066  26.200  27.129  1.00  0.00    -0.354 N 
ATOM     60  N   UNL A   1      46.993  28.944  27.584  1.00  0.00    -0.248 NA
ATOM     61  C   UNL A   1      48.725  30.507  27.710  1.00  0.00     0.031 C 
ATOM     62  C   UNL A   1      47.554  24.669  26.515  1.00  0.00     0.029 A 
ATOM     63  C   UNL A   1      47.410  26.005  26.853  1.00  0.00     0.049 A 
ATOM     64  H   UNL A   1      45.664  27.056  27.402  1.00  0.00     0.167 HD
ATOM     65  C   UNL A   1      48.194  28.323  27.255  1.00  0.00     0.074 A 
ATOM     66  C   UNL A   1      49.223  29.339  27.325  1.00  0.00     0.031 C 
ATOM     67  C   UNL A   1      48.423  27.028  26.923  1.00  0.00     0.037 A 
BRANCH  54  68
ATOM     68  C   UNL A   1      43.358  23.484  26.989  1.00  0.00     0.058 A 
ATOM     69  C   UNL A   1      42.959  23.031  25.722  1.00  0.00     0.135 A 
ATOM     70  C   UNL A   1      43.204  22.610  28.077  1.00  0.00     0.135 A 
ATOM     71  F   UNL A   1      43.069  23.834  24.652  1.00  0.00    -0.206 F 
ATOM     72  C   UNL A   1      42.405  21.768  25.544  1.00  0.00     0.059 A 
ATOM     73  C   UNL A   1      42.673  21.334  27.918  1.00  0.00     0.059 A 
ATOM     74  F   UNL A   1      43.567  22.996  29.310  1.00  0.00    -0.206 F 
ATOM     75  C   UNL A   1      42.262  20.927  26.650  1.00  0.00     0.060 A 
BRANCH  75  76
ATOM     76  S   UNL A   1      41.536  19.292  26.406  1.00  0.00     0.124 S 
ATOM     77  O   UNL A   1      41.348  18.851  27.784  1.00  0.00    -0.237 OA
ATOM     78  O   UNL A   1      40.315  19.598  25.668  1.00  0.00    -0.237 OA
ATOM     79  O   UNL A   1      42.558  18.576  25.650  1.00  0.00    -0.744 OA
ENDBRANCH  75  76
ENDBRANCH  54  68
BRANCH  55  80
ATOM     80  C   UNL A   1      46.923  32.691  28.468  1.00  0.00     0.058 A 
ATOM     81  C   UNL A   1      47.009  33.644  27.445  1.00  0.00     0.135 A 
ATOM     82  C   UNL A   1      47.366  33.061  29.748  1.00  0.00     0.135 A 
ATOM     83  F   UNL A   1      46.610  33.334  26.203  1.00  0.00    -0.206 F 
ATOM     84  C   UNL A   1      47.524  34.916  27.676  1.00  0.00     0.059 A 
ATOM     85  C   UNL A   1      47.863  34.333  30.010  1.00  0.00     0.059 A 
ATOM     86  F   UNL A   1      47.294  32.186  30.763  1.00  0.00    -0.206 F 
ATOM     87  C   UNL A   1      47.947  35.252  28.965  1.00  0.00     0.060 A 
BRANCH  87  88
ATOM     88  S   UNL A   1      48.564  36.921  29.271  1.00  0.00     0.124 S 
ATOM     89  O   UNL A   1      48.113  37.154  30.638  1.00  0.00    -0.237 OA
ATOM     90  O   UNL A   1      50.003  36.756  29.091  1.00  0.00    -0.237 OA
ATOM     91  O   UNL A   1      47.900  37.715  28.241  1.00  0.00    -0.744 OA
ENDBRANCH  87  88
ENDBRANCH  55  80
BRANCH  67  92
ATOM     92  C   UNL A   1      49.834  26.637  26.583  1.00  0.00     0.058 A 
ATOM     93  C   UNL A   1      50.713  26.132  27.553  1.00  0.00     0.135 A 
ATOM     94  C   UNL A   1      50.295  26.717  25.258  1.00  0.00     0.135 A 
ATOM     95  F   UNL A   1      50.324  26.040  28.835  1.00  0.00    -0.206 F 
ATOM     96  C   UNL A   1      52.008  25.739  27.227  1.00  0.00     0.059 A 
ATOM     97  C   UNL A   1      51.576  26.308  24.904  1.00  0.00     0.059 A 
ATOM     98  F   UNL A   1      49.489  27.183  24.289  1.00  0.00    -0.206 F 
ATOM     99  C   UNL A   1      52.430  25.830  25.899  1.00  0.00     0.060 A 
BRANCH  99 100
ATOM    100  S   UNL A   1      54.099  25.283  25.479  1.00  0.00     0.124 S 
ATOM    101  O   UNL A   1      54.578  26.398  24.669  1.00  0.00    -0.237 OA
ATOM    102  O   UNL A   1      54.722  25.140  26.791  1.00  0.00    -0.237 OA
ATOM    103  O   UNL A   1      53.875  24.034  24.758  1.00  0.00    -0.744 OA
ENDBRANCH  99 100
ENDBRANCH  67  92
ENDBRANCH  41  42
ENDBRANCH  34  36
ENDBRANCH  33  34
ENDBRANCH  32  33
ENDBRANCH  31  32
ENDBRANCH  30  31
ENDBRANCH   1  30
TORSDOF 21
ENDMDL
MODEL 3
REMARK VINA RESULT:     -10.7      7.034     10.984
REMARK SMILES C[C@@H](C(=O)OCCOCCOC(=O)c1ccc(-c2c3nc(c(-c4c(F)cc(S(=O)(=O)[O-])cc4F)c4ccc([nH]4)c(-c4c(F)cc(S(=O)(=O)[O-])cc4F)c4nc(c(-c5c(F)cc(S(=O)(=O)[O-])cc5F)c5ccc2[nH]5)C=C4)C=C3)cc1)n1ccc(C(=O)N2CC[NH+](Cc3cccc(F)c3)CC2)n1
REMARK SMILES IDX 7 1 6 2 5 3 3 4 4 5 2 6 1 7 80 8 81 9 100 10 82 11 83 12
REMARK SMILES IDX 84 13 85 14 86 15 87 16 99 17 88 18 98 19 89 20 90 22 91 23
REMARK SMILES IDX 92 24 97 25 93 26 95 27 94 28 96 29 8 30 9 31 10 32 11 33
REMARK SMILES IDX 12 34 13 35 14 36 15 37 79 38 16 39 78 40 17 41 18 42 19 43
REMARK SMILES IDX 72 44 20 45 77 46 71 47 73 48 21 49 76 50 70 51 69 52 22 54
REMARK SMILES IDX 56 55 35 56 55 57 36 58 39 59 54 60 74 61 37 62 38 63 53 65
REMARK SMILES IDX 75 66 40 67 23 68 24 69 33 70 25 71 26 72 32 73 34 74 27 75
REMARK SMILES IDX 28 76 29 77 30 78 31 79 57 80 58 81 67 82 59 83 60 84 66 85
REMARK SMILES IDX 68 86 61 87 62 88 63 89 64 90 65 91 41 92 42 93 51 94 43 95
REMARK SMILES IDX 44 96 50 97 52 98 45 99 46 100 47 101 48 102 49 103
REMARK H PARENT 89 21 73 53 39 64
REMARK Flexibility Score: inf
ROOT
ATOM      1  C   UNL A   1      35.089  33.381  28.570  1.00  0.00     0.202 C 
ENDROOT
BRANCH   1   2
ATOM      2  C   UNL A   1      35.247  32.017  27.892  1.00  0.00     0.261 C 
BRANCH   2   3
ATOM      3  O   UNL A   1      33.958  31.497  27.534  1.00  0.00    -0.462 OA
BRANCH   3   4
ATOM      4  C   UNL A   1      33.957  30.240  27.008  1.00  0.00     0.330 C 
ATOM      5  O   UNL A   1      34.811  29.397  27.258  1.00  0.00    -0.250 OA
BRANCH   4   6
ATOM      6  C   UNL A   1      32.741  30.006  26.114  1.00  0.00     0.213 C 
ATOM      7  C   UNL A   1      31.710  31.130  26.234  1.00  0.00     0.046 C 
BRANCH   6   8
ATOM      8  N   UNL A   1      32.179  28.670  26.320  1.00  0.00    -0.258 N 
ATOM      9  C   UNL A   1      31.678  28.120  27.471  1.00  0.00     0.110 A 
ATOM     10  N   UNL A   1      31.983  27.878  25.256  1.00  0.00    -0.167 NA
ATOM     11  C   UNL A   1      31.095  26.927  27.109  1.00  0.00     0.056 A 
ATOM     12  C   UNL A   1      31.303  26.814  25.712  1.00  0.00     0.150 A 
BRANCH  12  13
ATOM     13  C   UNL A   1      30.773  25.782  24.804  1.00  0.00     0.274 C 
ATOM     14  O   UNL A   1      29.693  25.938  24.233  1.00  0.00    -0.267 OA
ATOM     15  N   UNL A   1      31.575  24.656  24.577  1.00  0.00    -0.326 N 
ATOM     16  C   UNL A   1      31.293  23.871  23.387  1.00  0.00     0.181 C 
ATOM     17  C   UNL A   1      32.233  23.970  25.693  1.00  0.00     0.181 C 
ATOM     18  C   UNL A   1      32.376  22.835  23.038  1.00  0.00     0.284 C 
ATOM     19  C   UNL A   1      33.286  22.931  25.272  1.00  0.00     0.284 C 
ATOM     20  N   UNL A   1      32.910  22.051  24.157  1.00  0.00    -0.328 N 
ATOM     21  H   UNL A   1      33.774  21.627  23.819  1.00  0.00     0.348 HD
BRANCH  20  22
ATOM     22  C   UNL A   1      32.194  20.822  24.505  1.00  0.00     0.299 C 
BRANCH  22  23
ATOM     23  C   UNL A   1      32.838  19.504  24.143  1.00  0.00     0.009 A 
ATOM     24  C   UNL A   1      32.254  18.655  23.190  1.00  0.00     0.010 A 
ATOM     25  C   UNL A   1      34.049  19.115  24.734  1.00  0.00     0.048 A 
ATOM     26  C   UNL A   1      32.906  17.491  22.774  1.00  0.00     0.004 A 
ATOM     27  C   UNL A   1      34.698  17.964  24.301  1.00  0.00     0.123 A 
ATOM     28  C   UNL A   1      34.144  17.155  23.318  1.00  0.00     0.039 A 
ATOM     29  F   UNL A   1      35.890  17.644  24.825  1.00  0.00    -0.207 F 
ENDBRANCH  22  23
ENDBRANCH  20  22
ENDBRANCH  12  13
ENDBRANCH   6   8
ENDBRANCH   4   6
ENDBRANCH   3   4
ENDBRANCH   2   3
ENDBRANCH   1   2
BRANCH   1  30
ATOM     30  O   UNL A   1      34.761  34.469  27.703  1.00  0.00    -0.374 OA
BRANCH  30  31
ATOM     31  C   UNL A   1      34.445  35.726  28.307  1.00  0.00     0.202 C 
BRANCH  31  32
ATOM     32  C   UNL A   1      32.992  35.930  28.756  1.00  0.00     0.261 C 
BRANCH  32  33
ATOM     33  O   UNL A   1      32.607  35.060  29.837  1.00  0.00    -0.460 OA
BRANCH  33  34
ATOM     34  C   UNL A   1      32.581  35.653  31.057  1.00  0.00     0.338 C 
ATOM     35  O   UNL A   1      31.703  36.384  31.500  1.00  0.00    -0.246 OA
BRANCH  34  36
ATOM     36  C   UNL A   1      33.694  35.175  31.898  1.00  0.00     0.060 A 
ATOM     37  C   UNL A   1      34.433  36.137  32.598  1.00  0.00     0.016 A 
ATOM     38  C   UNL A   1      34.078  33.832  31.924  1.00  0.00     0.016 A 
ATOM     39  C   UNL A   1      35.586  35.768  33.290  1.00  0.00     0.010 A 
ATOM     40  C   UNL A   1      35.243  33.466  32.612  1.00  0.00     0.010 A 
ATOM     41  C   UNL A   1      36.021  34.437  33.269  1.00  0.00    -0.014 A 
BRANCH  41  42
ATOM     42  C   UNL A   1      37.359  34.099  33.815  1.00  0.00     0.031 A 
ATOM     43  C   UNL A   1      37.505  33.842  35.292  1.00  0.00     0.074 A 
ATOM     44  C   UNL A   1      38.425  33.976  33.004  1.00  0.00     0.049 A 
ATOM     45  N   UNL A   1      38.576  33.542  35.980  1.00  0.00    -0.248 NA
ATOM     46  C   UNL A   1      36.277  33.934  36.100  1.00  0.00     0.031 C 
ATOM     47  C   UNL A   1      38.407  34.164  31.554  1.00  0.00     0.029 A 
ATOM     48  N   UNL A   1      39.733  33.670  33.287  1.00  0.00    -0.354 N 
ATOM     49  C   UNL A   1      38.156  33.410  37.298  1.00  0.00     0.074 A 
ATOM     50  C   UNL A   1      36.736  33.691  37.319  1.00  0.00     0.031 C 
ATOM     51  C   UNL A   1      39.651  33.981  31.075  1.00  0.00     0.029 A 
ATOM     52  C   UNL A   1      40.555  33.687  32.187  1.00  0.00     0.049 A 
ATOM     53  H   UNL A   1      40.051  33.457  34.195  1.00  0.00     0.167 HD
ATOM     54  C   UNL A   1      38.883  33.073  38.391  1.00  0.00     0.037 A 
ATOM     55  C   UNL A   1      41.887  33.507  32.088  1.00  0.00     0.037 A 
ATOM     56  C   UNL A   1      40.295  32.795  38.371  1.00  0.00     0.049 A 
ATOM     57  C   UNL A   1      42.687  33.190  33.325  1.00  0.00     0.074 A 
ATOM     58  C   UNL A   1      41.117  32.438  39.426  1.00  0.00     0.029 A 
ATOM     59  N   UNL A   1      41.095  32.846  37.240  1.00  0.00    -0.354 N 
ATOM     60  N   UNL A   1      42.271  33.052  34.562  1.00  0.00    -0.248 NA
ATOM     61  C   UNL A   1      44.135  33.001  33.153  1.00  0.00     0.031 C 
ATOM     62  C   UNL A   1      42.424  32.311  38.939  1.00  0.00     0.029 A 
ATOM     63  C   UNL A   1      42.407  32.546  37.574  1.00  0.00     0.049 A 
ATOM     64  H   UNL A   1      40.779  33.062  36.333  1.00  0.00     0.167 HD
ATOM     65  C   UNL A   1      43.401  32.738  35.310  1.00  0.00     0.074 A 
ATOM     66  C   UNL A   1      44.516  32.696  34.387  1.00  0.00     0.031 C 
ATOM     67  C   UNL A   1      43.506  32.503  36.642  1.00  0.00     0.037 A 
BRANCH  54  68
ATOM     68  C   UNL A   1      38.161  33.005  39.708  1.00  0.00     0.058 A 
ATOM     69  C   UNL A   1      37.415  31.876  40.081  1.00  0.00     0.135 A 
ATOM     70  C   UNL A   1      38.238  34.071  40.619  1.00  0.00     0.135 A 
ATOM     71  F   UNL A   1      37.295  30.837  39.239  1.00  0.00    -0.206 F 
ATOM     72  C   UNL A   1      36.749  31.816  41.300  1.00  0.00     0.059 A 
ATOM     73  C   UNL A   1      37.599  34.023  41.854  1.00  0.00     0.059 A 
ATOM     74  F   UNL A   1      38.936  35.174  40.310  1.00  0.00    -0.206 F 
ATOM     75  C   UNL A   1      36.844  32.896  42.179  1.00  0.00     0.060 A 
BRANCH  75  76
ATOM     76  S   UNL A   1      35.970  32.808  43.757  1.00  0.00     0.124 S 
ATOM     77  O   UNL A   1      34.589  33.019  43.335  1.00  0.00    -0.237 OA
ATOM     78  O   UNL A   1      36.292  31.462  44.218  1.00  0.00    -0.237 OA
ATOM     79  O   UNL A   1      36.562  33.891  44.534  1.00  0.00    -0.744 OA
ENDBRANCH  75  76
ENDBRANCH  54  68
BRANCH  55  80
ATOM     80  C   UNL A   1      42.555  33.636  30.766  1.00  0.00     0.058 A 
ATOM     81  C   UNL A   1      42.975  34.882  30.281  1.00  0.00     0.135 A 
ATOM     82  C   UNL A   1      42.788  32.508  29.964  1.00  0.00     0.135 A 
ATOM     83  F   UNL A   1      42.763  35.991  31.006  1.00  0.00    -0.206 F 
ATOM     84  C   UNL A   1      43.593  35.010  29.041  1.00  0.00     0.059 A 
ATOM     85  C   UNL A   1      43.425  32.606  28.732  1.00  0.00     0.059 A 
ATOM     86  F   UNL A   1      42.413  31.291  30.389  1.00  0.00    -0.206 F 
ATOM     87  C   UNL A   1      43.816  33.864  28.274  1.00  0.00     0.060 A 
BRANCH  87  88
ATOM     88  S   UNL A   1      44.670  34.029  26.691  1.00  0.00     0.124 S 
ATOM     89  O   UNL A   1      44.591  35.466  26.464  1.00  0.00    -0.237 OA
ATOM     90  O   UNL A   1      45.995  33.501  27.000  1.00  0.00    -0.237 OA
ATOM     91  O   UNL A   1      43.869  33.201  25.794  1.00  0.00    -0.744 OA
ENDBRANCH  87  88
ENDBRANCH  55  80
BRANCH  67  92
ATOM     92  C   UNL A   1      44.865  32.153  37.182  1.00  0.00     0.058 A 
ATOM     93  C   UNL A   1      45.734  33.134  37.682  1.00  0.00     0.135 A 
ATOM     94  C   UNL A   1      45.280  30.813  37.247  1.00  0.00     0.135 A 
ATOM     95  F   UNL A   1      45.388  34.431  37.637  1.00  0.00    -0.206 F 
ATOM     96  C   UNL A   1      46.977  32.802  38.212  1.00  0.00     0.059 A 
ATOM     97  C   UNL A   1      46.508  30.455  37.794  1.00  0.00     0.059 A 
ATOM     98  F   UNL A   1      44.481  29.834  36.792  1.00  0.00    -0.206 F 
ATOM     99  C   UNL A   1      47.355  31.458  38.265  1.00  0.00     0.060 A 
BRANCH  99 100
ATOM    100  S   UNL A   1      48.955  31.034  38.988  1.00  0.00     0.124 S 
ATOM    101  O   UNL A   1      48.770  31.452  40.374  1.00  0.00    -0.237 OA
ATOM    102  O   UNL A   1      49.028  29.594  38.765  1.00  0.00    -0.237 OA
ATOM    103  O   UNL A   1      49.900  31.832  38.213  1.00  0.00    -0.744 OA
ENDBRANCH  99 100
ENDBRANCH  67  92
ENDBRANCH  41  42
ENDBRANCH  34  36
ENDBRANCH  33  34
ENDBRANCH  32  33
ENDBRANCH  31  32
ENDBRANCH  30  31
ENDBRANCH   1  30
TORSDOF 21
ENDMDL
