MODEL 1
REMARK VINA RESULT:     -11.4      0.000      0.000
REMARK SMILES Cc1oc2cc3c(cc2c1C)[C@H](C)[C@@H](CC(=O)N[C@H](CC1=c2ccccc2=NC1)C(=O)OCCOCCOC(=O)c1ccc(-c2c4nc(c(-c5c(F)cc(S(=O)(=O)[O-])cc5F)c5ccc([nH]5)c(-c5c(F)cc(S(=O)(=O)[O-])cc5F)c5nc(c(-c6c(F)cc(S(=O)(=O)[O-])cc6F)c6ccc2[nH]6)C=C5)C=C4)cc1)C(=O)O3
REMARK SMILES IDX 35 1 34 2 33 3 32 4 30 5 31 6 19 7 18 8 16 9 17 10 15 12
REMARK SMILES IDX 14 13 1 14 2 15 3 16 10 17 4 18 9 19 11 20 5 21 8 22 6 23
REMARK SMILES IDX 7 24 109 25 12 26 107 27 13 28 108 29 20 30 21 31 22 32
REMARK SMILES IDX 29 33 23 34 27 35 28 36 24 37 26 38 25 39 36 40 37 41 38 42
REMARK SMILES IDX 39 43 40 44 41 45 42 46 106 47 43 48 105 49 44 50 45 51
REMARK SMILES IDX 46 52 99 53 47 54 104 55 98 56 100 57 48 58 103 59 97 60
REMARK SMILES IDX 96 61 49 63 83 64 62 65 82 66 63 67 66 68 81 69 101 70 64 71
REMARK SMILES IDX 65 72 80 74 102 75 67 76 50 77 51 78 60 79 52 80 53 81 59 82
REMARK SMILES IDX 61 83 54 84 55 85 56 86 57 87 58 88 84 89 85 90 94 91 86 92
REMARK SMILES IDX 87 93 93 94 95 95 88 96 89 97 90 98 91 99 92 100 68 101
REMARK SMILES IDX 69 102 78 103 70 104 71 105 77 106 79 107 72 108 73 109
REMARK SMILES IDX 74 110 75 111 76 112
REMARK H PARENT 18 11 100 62 66 73
REMARK Flexibility Score: inf
ROOT
ATOM      1  O   UNL A   1      34.830  29.304  26.961  1.00  0.00    -0.374 OA
ENDROOT
BRANCH   1   2
ATOM      2  C   UNL A   1      33.536  29.768  27.320  1.00  0.00     0.202 C 
BRANCH   2   3
ATOM      3  C   UNL A   1      32.225  29.039  26.911  1.00  0.00     0.261 C 
BRANCH   3   4
ATOM      4  O   UNL A   1      32.056  28.702  25.517  1.00  0.00    -0.462 OA
BRANCH   4   5
ATOM      5  C   UNL A   1      31.277  27.611  25.244  1.00  0.00     0.329 C 
ATOM      6  O   UNL A   1      30.637  27.003  26.098  1.00  0.00    -0.250 OA
BRANCH   5   7
ATOM      7  C   UNL A   1      31.156  27.293  23.713  1.00  0.00     0.196 C 
BRANCH   7   8
ATOM      8  N   UNL A   1      32.336  27.994  23.142  1.00  0.00    -0.342 N 
ATOM      9  C   UNL A   1      33.568  27.517  22.796  1.00  0.00     0.221 C 
ATOM     10  O   UNL A   1      34.497  28.324  22.736  1.00  0.00    -0.275 OA
ATOM     11  H   UNL A   1      32.208  28.957  22.986  1.00  0.00     0.164 HD
BRANCH   9  12
ATOM     12  C   UNL A   1      33.808  26.062  22.391  1.00  0.00     0.116 C 
BRANCH  12  13
ATOM     13  C   UNL A   1      33.576  25.013  23.493  1.00  0.00     0.116 C 
ATOM     14  C   UNL A   1      32.555  16.811  25.627  1.00  0.00     0.088 C 
ATOM     15  C   UNL A   1      32.963  18.178  25.244  1.00  0.00     0.105 A 
ATOM     16  O   UNL A   1      31.996  19.119  25.372  1.00  0.00    -0.461 OA
ATOM     17  C   UNL A   1      34.137  18.751  24.778  1.00  0.00    -0.002 A 
ATOM     18  C   UNL A   1      32.539  20.300  24.998  1.00  0.00     0.138 A 
ATOM     19  C   UNL A   1      33.860  20.146  24.605  1.00  0.00     0.024 A 
ATOM     20  C   UNL A   1      35.425  18.072  24.520  1.00  0.00     0.049 C 
ATOM     21  C   UNL A   1      31.857  21.496  24.992  1.00  0.00     0.095 A 
ATOM     22  C   UNL A   1      34.575  21.290  24.160  1.00  0.00     0.020 A 
ATOM     23  C   UNL A   1      32.568  22.588  24.503  1.00  0.00     0.138 A 
ATOM     24  C   UNL A   1      33.923  22.538  24.113  1.00  0.00    -0.001 A 
ATOM     25  O   UNL A   1      31.818  23.739  24.341  1.00  0.00    -0.426 OA
ATOM     26  C   UNL A   1      34.577  23.809  23.520  1.00  0.00     0.035 C 
ATOM     27  C   UNL A   1      32.320  24.267  23.193  1.00  0.00     0.315 C 
ATOM     28  C   UNL A   1      35.865  24.171  24.252  1.00  0.00     0.014 C 
ATOM     29  O   UNL A   1      31.954  23.962  22.066  1.00  0.00    -0.251 OA
ENDBRANCH  12  13
ENDBRANCH   9  12
ENDBRANCH   7   8
BRANCH   7  30
ATOM     30  C   UNL A   1      29.818  27.693  22.985  1.00  0.00     0.070 C 
BRANCH  30  31
ATOM     31  C   UNL A   1      29.030  28.939  23.505  1.00  0.00    -0.037 C 
ATOM     32  C   UNL A   1      29.263  30.218  23.101  1.00  0.00     0.001 A 
ATOM     33  C   UNL A   1      27.562  28.713  23.368  1.00  0.00     0.174 C 
ATOM     34  C   UNL A   1      28.803  31.458  23.791  1.00  0.00     0.010 A 
ATOM     35  C   UNL A   1      28.334  30.142  21.930  1.00  0.00     0.065 A 
ATOM     36  N   UNL A   1      27.326  29.340  22.063  1.00  0.00    -0.280 NA
ATOM     37  C   UNL A   1      28.343  32.493  23.045  1.00  0.00     0.001 A 
ATOM     38  C   UNL A   1      28.447  31.248  20.968  1.00  0.00     0.028 A 
ATOM     39  C   UNL A   1      28.398  32.438  21.586  1.00  0.00     0.002 A 
ENDBRANCH  30  31
ENDBRANCH   7  30
ENDBRANCH   5   7
ENDBRANCH   4   5
ENDBRANCH   3   4
ENDBRANCH   2   3
ENDBRANCH   1   2
BRANCH   1  40
ATOM     40  C   UNL A   1      35.934  30.015  27.510  1.00  0.00     0.202 C 
BRANCH  40  41
ATOM     41  C   UNL A   1      35.880  30.342  29.019  1.00  0.00     0.261 C 
BRANCH  41  42
ATOM     42  O   UNL A   1      36.452  29.288  29.820  1.00  0.00    -0.460 OA
BRANCH  42  43
ATOM     43  C   UNL A   1      36.891  29.649  31.056  1.00  0.00     0.338 C 
ATOM     44  O   UNL A   1      36.259  29.725  32.077  1.00  0.00    -0.246 OA
BRANCH  43  45
ATOM     45  C   UNL A   1      38.367  29.705  30.976  1.00  0.00     0.060 A 
ATOM     46  C   UNL A   1      39.142  28.589  30.668  1.00  0.00     0.016 A 
ATOM     47  C   UNL A   1      38.970  30.932  31.258  1.00  0.00     0.016 A 
ATOM     48  C   UNL A   1      40.536  28.727  30.598  1.00  0.00     0.010 A 
ATOM     49  C   UNL A   1      40.350  31.037  31.297  1.00  0.00     0.010 A 
ATOM     50  C   UNL A   1      41.145  29.962  30.888  1.00  0.00    -0.014 A 
BRANCH  50  51
ATOM     51  C   UNL A   1      42.550  30.203  30.476  1.00  0.00     0.031 A 
ATOM     52  C   UNL A   1      43.556  29.883  31.556  1.00  0.00     0.074 A 
ATOM     53  C   UNL A   1      42.963  30.128  29.194  1.00  0.00     0.049 A 
ATOM     54  N   UNL A   1      44.010  28.684  31.800  1.00  0.00    -0.248 NA
ATOM     55  C   UNL A   1      43.827  30.839  32.633  1.00  0.00     0.031 C 
ATOM     56  C   UNL A   1      42.588  29.040  28.285  1.00  0.00     0.029 A 
ATOM     57  N   UNL A   1      44.007  30.767  28.559  1.00  0.00    -0.354 N 
ATOM     58  C   UNL A   1      44.589  28.708  33.061  1.00  0.00     0.074 A 
ATOM     59  C   UNL A   1      44.450  30.067  33.537  1.00  0.00     0.031 C 
ATOM     60  C   UNL A   1      43.501  28.980  27.292  1.00  0.00     0.029 A 
ATOM     61  C   UNL A   1      44.445  30.092  27.421  1.00  0.00     0.049 A 
ATOM     62  H   UNL A   1      44.403  31.611  28.878  1.00  0.00     0.167 HD
ATOM     63  C   UNL A   1      45.152  27.621  33.660  1.00  0.00     0.037 A 
ATOM     64  C   UNL A   1      45.734  30.093  26.975  1.00  0.00     0.037 A 
ATOM     65  C   UNL A   1      45.181  26.423  32.876  1.00  0.00     0.049 A 
ATOM     66  C   UNL A   1      46.344  29.069  27.900  1.00  0.00     0.074 A 
ATOM     67  C   UNL A   1      44.496  25.231  32.778  1.00  0.00     0.029 A 
ATOM     68  N   UNL A   1      46.154  26.334  31.908  1.00  0.00    -0.354 N 
ATOM     69  N   UNL A   1      46.245  27.769  27.793  1.00  0.00    -0.248 NA
ATOM     70  C   UNL A   1      46.764  29.540  29.222  1.00  0.00     0.031 C 
ATOM     71  C   UNL A   1      44.786  24.733  31.464  1.00  0.00     0.029 A 
ATOM     72  C   UNL A   1      45.604  25.674  30.841  1.00  0.00     0.049 A 
ATOM     73  H   UNL A   1      47.073  26.680  31.970  1.00  0.00     0.167 HD
ATOM     74  C   UNL A   1      46.312  27.284  29.102  1.00  0.00     0.074 A 
ATOM     75  C   UNL A   1      46.660  28.422  29.926  1.00  0.00     0.031 C 
ATOM     76  C   UNL A   1      45.900  26.035  29.471  1.00  0.00     0.037 A 
BRANCH  63  77
ATOM     77  C   UNL A   1      45.946  27.678  34.907  1.00  0.00     0.058 A 
ATOM     78  C   UNL A   1      45.254  27.529  36.120  1.00  0.00     0.135 A 
ATOM     79  C   UNL A   1      47.286  28.078  34.958  1.00  0.00     0.135 A 
ATOM     80  F   UNL A   1      43.962  27.160  36.110  1.00  0.00    -0.206 F 
ATOM     81  C   UNL A   1      45.847  27.808  37.340  1.00  0.00     0.059 A 
ATOM     82  C   UNL A   1      47.910  28.354  36.178  1.00  0.00     0.059 A 
ATOM     83  F   UNL A   1      47.989  28.248  33.827  1.00  0.00    -0.206 F 
ATOM     84  C   UNL A   1      47.174  28.238  37.360  1.00  0.00     0.060 A 
BRANCH  84  85
ATOM     85  S   UNL A   1      47.890  28.669  38.961  1.00  0.00     0.124 S 
ATOM     86  O   UNL A   1      49.318  28.673  38.660  1.00  0.00    -0.237 OA
ATOM     87  O   UNL A   1      47.293  29.977  39.214  1.00  0.00    -0.237 OA
ATOM     88  O   UNL A   1      47.437  27.595  39.838  1.00  0.00    -0.744 OA
ENDBRANCH  84  85
ENDBRANCH  63  77
BRANCH  64  89
ATOM     89  C   UNL A   1      46.335  31.442  26.708  1.00  0.00     0.058 A 
ATOM     90  C   UNL A   1      45.475  32.467  26.255  1.00  0.00     0.135 A 
ATOM     91  C   UNL A   1      47.679  31.806  26.886  1.00  0.00     0.135 A 
ATOM     92  F   UNL A   1      44.206  32.185  25.918  1.00  0.00    -0.206 F 
ATOM     93  C   UNL A   1      45.877  33.796  26.167  1.00  0.00     0.059 A 
ATOM     94  C   UNL A   1      48.103  33.137  26.830  1.00  0.00     0.059 A 
ATOM     95  F   UNL A   1      48.617  30.887  27.152  1.00  0.00    -0.206 F 
ATOM     96  C   UNL A   1      47.181  34.130  26.515  1.00  0.00     0.060 A 
BRANCH  96  97
ATOM     97  S   UNL A   1      47.615  35.878  26.626  1.00  0.00     0.124 S 
ATOM     98  O   UNL A   1      46.608  36.499  25.774  1.00  0.00    -0.237 OA
ATOM     99  O   UNL A   1      47.477  36.123  28.059  1.00  0.00    -0.237 OA
ATOM    100  O   UNL A   1      48.983  35.921  26.119  1.00  0.00    -0.744 OA
ENDBRANCH  96  97
ENDBRANCH  64  89
BRANCH  76 101
ATOM    101  C   UNL A   1      45.549  25.103  28.361  1.00  0.00     0.058 A 
ATOM    102  C   UNL A   1      44.223  25.010  27.917  1.00  0.00     0.135 A 
ATOM    103  C   UNL A   1      46.521  24.348  27.682  1.00  0.00     0.135 A 
ATOM    104  F   UNL A   1      43.255  25.722  28.519  1.00  0.00    -0.206 F 
ATOM    105  C   UNL A   1      43.875  24.224  26.825  1.00  0.00     0.059 A 
ATOM    106  C   UNL A   1      46.200  23.575  26.568  1.00  0.00     0.059 A 
ATOM    107  F   UNL A   1      47.807  24.375  28.070  1.00  0.00    -0.206 F 
ATOM    108  C   UNL A   1      44.874  23.525  26.143  1.00  0.00     0.060 A 
BRANCH 108 109
ATOM    109  S   UNL A   1      44.421  22.624  24.648  1.00  0.00     0.124 S 
ATOM    110  O   UNL A   1      43.004  22.945  24.512  1.00  0.00    -0.237 OA
ATOM    111  O   UNL A   1      45.302  23.219  23.647  1.00  0.00    -0.237 OA
ATOM    112  O   UNL A   1      44.720  21.233  24.979  1.00  0.00    -0.744 OA
ENDBRANCH 108 109
ENDBRANCH  76 101
ENDBRANCH  50  51
ENDBRANCH  43  45
ENDBRANCH  42  43
ENDBRANCH  41  42
ENDBRANCH  40  41
ENDBRANCH   1  40
TORSDOF 22
ENDMDL
MODEL 2
REMARK VINA RESULT:     -11.1      3.401      8.419
REMARK SMILES Cc1oc2cc3c(cc2c1C)[C@H](C)[C@@H](CC(=O)N[C@H](CC1=c2ccccc2=NC1)C(=O)OCCOCCOC(=O)c1ccc(-c2c4nc(c(-c5c(F)cc(S(=O)(=O)[O-])cc5F)c5ccc([nH]5)c(-c5c(F)cc(S(=O)(=O)[O-])cc5F)c5nc(c(-c6c(F)cc(S(=O)(=O)[O-])cc6F)c6ccc2[nH]6)C=C5)C=C4)cc1)C(=O)O3
REMARK SMILES IDX 35 1 34 2 33 3 32 4 30 5 31 6 19 7 18 8 16 9 17 10 15 12
REMARK SMILES IDX 14 13 1 14 2 15 3 16 10 17 4 18 9 19 11 20 5 21 8 22 6 23
REMARK SMILES IDX 7 24 109 25 12 26 107 27 13 28 108 29 20 30 21 31 22 32
REMARK SMILES IDX 29 33 23 34 27 35 28 36 24 37 26 38 25 39 36 40 37 41 38 42
REMARK SMILES IDX 39 43 40 44 41 45 42 46 106 47 43 48 105 49 44 50 45 51
REMARK SMILES IDX 46 52 99 53 47 54 104 55 98 56 100 57 48 58 103 59 97 60
REMARK SMILES IDX 96 61 49 63 83 64 62 65 82 66 63 67 66 68 81 69 101 70 64 71
REMARK SMILES IDX 65 72 80 74 102 75 67 76 50 77 51 78 60 79 52 80 53 81 59 82
REMARK SMILES IDX 61 83 54 84 55 85 56 86 57 87 58 88 84 89 85 90 94 91 86 92
REMARK SMILES IDX 87 93 93 94 95 95 88 96 89 97 90 98 91 99 92 100 68 101
REMARK SMILES IDX 69 102 78 103 70 104 71 105 77 106 79 107 72 108 73 109
REMARK SMILES IDX 74 110 75 111 76 112
REMARK H PARENT 18 11 100 62 66 73
REMARK Flexibility Score: inf
ROOT
ATOM      1  O   UNL A   1      37.384  22.506  26.373  1.00  0.00    -0.374 OA
ENDROOT
BRANCH   1   2
ATOM      2  C   UNL A   1      36.064  22.952  26.098  1.00  0.00     0.202 C 
BRANCH   2   3
ATOM      3  C   UNL A   1      35.749  24.174  25.191  1.00  0.00     0.261 C 
BRANCH   3   4
ATOM      4  O   UNL A   1      34.515  24.149  24.442  1.00  0.00    -0.462 OA
BRANCH   4   5
ATOM      5  C   UNL A   1      34.578  23.623  23.181  1.00  0.00     0.329 C 
ATOM      6  O   UNL A   1      35.631  23.371  22.602  1.00  0.00    -0.250 OA
BRANCH   5   7
ATOM      7  C   UNL A   1      33.178  23.229  22.594  1.00  0.00     0.196 C 
BRANCH   7   8
ATOM      8  N   UNL A   1      32.860  24.382  21.711  1.00  0.00    -0.342 N 
ATOM      9  C   UNL A   1      31.932  25.374  21.849  1.00  0.00     0.221 C 
ATOM     10  O   UNL A   1      31.572  25.966  20.830  1.00  0.00    -0.275 OA
ATOM     11  H   UNL A   1      33.408  24.440  20.896  1.00  0.00     0.164 HD
BRANCH   9  12
ATOM     12  C   UNL A   1      31.411  25.834  23.211  1.00  0.00     0.116 C 
BRANCH  12  13
ATOM     13  C   UNL A   1      31.816  27.256  23.637  1.00  0.00     0.116 C 
ATOM     14  C   UNL A   1      35.020  32.415  29.637  1.00  0.00     0.088 C 
ATOM     15  C   UNL A   1      34.691  31.460  28.559  1.00  0.00     0.105 A 
ATOM     16  O   UNL A   1      33.413  31.521  28.113  1.00  0.00    -0.461 OA
ATOM     17  C   UNL A   1      35.400  30.491  27.865  1.00  0.00    -0.002 A 
ATOM     18  C   UNL A   1      33.291  30.601  27.128  1.00  0.00     0.138 A 
ATOM     19  C   UNL A   1      34.480  29.915  26.929  1.00  0.00     0.024 A 
ATOM     20  C   UNL A   1      36.822  30.124  28.038  1.00  0.00     0.049 C 
ATOM     21  C   UNL A   1      32.128  30.366  26.430  1.00  0.00     0.095 A 
ATOM     22  C   UNL A   1      34.519  28.895  25.942  1.00  0.00     0.020 A 
ATOM     23  C   UNL A   1      32.184  29.327  25.507  1.00  0.00     0.138 A 
ATOM     24  C   UNL A   1      33.354  28.596  25.209  1.00  0.00    -0.001 A 
ATOM     25  O   UNL A   1      30.966  28.991  24.941  1.00  0.00    -0.426 OA
ATOM     26  C   UNL A   1      33.265  27.417  24.211  1.00  0.00     0.035 C 
ATOM     27  C   UNL A   1      31.039  27.636  24.852  1.00  0.00     0.315 C 
ATOM     28  C   UNL A   1      34.296  27.548  23.095  1.00  0.00     0.014 C 
ATOM     29  O   UNL A   1      30.749  26.861  25.753  1.00  0.00    -0.251 OA
ENDBRANCH  12  13
ENDBRANCH   9  12
ENDBRANCH   7   8
BRANCH   7  30
ATOM     30  C   UNL A   1      32.016  22.925  23.613  1.00  0.00     0.070 C 
BRANCH  30  31
ATOM     31  C   UNL A   1      31.802  21.448  24.080  1.00  0.00    -0.037 C 
ATOM     32  C   UNL A   1      32.612  20.409  23.738  1.00  0.00     0.001 A 
ATOM     33  C   UNL A   1      31.652  21.396  25.564  1.00  0.00     0.174 C 
ATOM     34  C   UNL A   1      32.283  18.959  23.855  1.00  0.00     0.010 A 
ATOM     35  C   UNL A   1      33.557  20.615  24.879  1.00  0.00     0.065 A 
ATOM     36  N   UNL A   1      33.040  21.122  25.953  1.00  0.00    -0.280 NA
ATOM     37  C   UNL A   1      33.240  18.101  24.287  1.00  0.00     0.001 A 
ATOM     38  C   UNL A   1      34.821  19.869  24.788  1.00  0.00     0.028 A 
ATOM     39  C   UNL A   1      34.602  18.570  24.530  1.00  0.00     0.002 A 
ENDBRANCH  30  31
ENDBRANCH   7  30
ENDBRANCH   5   7
ENDBRANCH   4   5
ENDBRANCH   3   4
ENDBRANCH   2   3
ENDBRANCH   1   2
BRANCH   1  40
ATOM     40  C   UNL A   1      38.430  23.449  26.161  1.00  0.00     0.202 C 
BRANCH  40  41
ATOM     41  C   UNL A   1      39.855  23.024  26.579  1.00  0.00     0.261 C 
BRANCH  41  42
ATOM     42  O   UNL A   1      40.258  23.635  27.822  1.00  0.00    -0.460 OA
BRANCH  42  43
ATOM     43  C   UNL A   1      41.467  24.258  27.817  1.00  0.00     0.338 C 
ATOM     44  O   UNL A   1      42.458  23.953  27.206  1.00  0.00    -0.246 OA
BRANCH  43  45
ATOM     45  C   UNL A   1      41.278  25.543  28.525  1.00  0.00     0.060 A 
ATOM     46  C   UNL A   1      40.045  26.187  28.589  1.00  0.00     0.016 A 
ATOM     47  C   UNL A   1      42.410  26.114  29.110  1.00  0.00     0.016 A 
ATOM     48  C   UNL A   1      39.946  27.396  29.292  1.00  0.00     0.010 A 
ATOM     49  C   UNL A   1      42.330  27.361  29.707  1.00  0.00     0.010 A 
ATOM     50  C   UNL A   1      41.086  27.977  29.877  1.00  0.00    -0.014 A 
BRANCH  50  51
ATOM     51  C   UNL A   1      40.927  29.039  30.901  1.00  0.00     0.031 A 
ATOM     52  C   UNL A   1      41.542  28.684  32.235  1.00  0.00     0.074 A 
ATOM     53  C   UNL A   1      40.816  30.347  30.593  1.00  0.00     0.049 A 
ATOM     54  N   UNL A   1      42.807  28.832  32.518  1.00  0.00    -0.248 NA
ATOM     55  C   UNL A   1      40.829  27.823  33.181  1.00  0.00     0.031 C 
ATOM     56  C   UNL A   1      41.677  31.026  29.618  1.00  0.00     0.029 A 
ATOM     57  N   UNL A   1      40.191  31.370  31.273  1.00  0.00    -0.354 N 
ATOM     58  C   UNL A   1      43.072  28.066  33.646  1.00  0.00     0.074 A 
ATOM     59  C   UNL A   1      41.812  27.459  34.018  1.00  0.00     0.031 C 
ATOM     60  C   UNL A   1      41.657  32.349  29.879  1.00  0.00     0.029 A 
ATOM     61  C   UNL A   1      40.694  32.627  30.946  1.00  0.00     0.049 A 
ATOM     62  H   UNL A   1      39.465  31.227  31.924  1.00  0.00     0.167 HD
ATOM     63  C   UNL A   1      44.302  27.961  34.221  1.00  0.00     0.037 A 
ATOM     64  C   UNL A   1      40.753  33.681  31.811  1.00  0.00     0.037 A 
ATOM     65  C   UNL A   1      45.337  28.755  33.631  1.00  0.00     0.049 A 
ATOM     66  C   UNL A   1      41.985  33.318  32.601  1.00  0.00     0.074 A 
ATOM     67  C   UNL A   1      46.411  28.594  32.783  1.00  0.00     0.029 A 
ATOM     68  N   UNL A   1      45.355  30.092  33.950  1.00  0.00    -0.354 N 
ATOM     69  N   UNL A   1      43.226  33.482  32.224  1.00  0.00    -0.248 NA
ATOM     70  C   UNL A   1      41.806  32.374  33.708  1.00  0.00     0.031 C 
ATOM     71  C   UNL A   1      46.694  29.905  32.275  1.00  0.00     0.029 A 
ATOM     72  C   UNL A   1      45.751  30.771  32.827  1.00  0.00     0.049 A 
ATOM     73  H   UNL A   1      45.127  30.488  34.821  1.00  0.00     0.167 HD
ATOM     74  C   UNL A   1      43.942  32.457  32.848  1.00  0.00     0.074 A 
ATOM     75  C   UNL A   1      43.014  31.832  33.767  1.00  0.00     0.031 C 
ATOM     76  C   UNL A   1      45.185  32.049  32.456  1.00  0.00     0.037 A 
BRANCH  63  77
ATOM     77  C   UNL A   1      44.554  27.316  35.529  1.00  0.00     0.058 A 
ATOM     78  C   UNL A   1      44.348  28.093  36.682  1.00  0.00     0.135 A 
ATOM     79  C   UNL A   1      45.179  26.073  35.676  1.00  0.00     0.135 A 
ATOM     80  F   UNL A   1      43.765  29.299  36.579  1.00  0.00    -0.206 F 
ATOM     81  C   UNL A   1      44.784  27.680  37.930  1.00  0.00     0.059 A 
ATOM     82  C   UNL A   1      45.617  25.629  36.927  1.00  0.00     0.059 A 
ATOM     83  F   UNL A   1      45.410  25.298  34.605  1.00  0.00    -0.206 F 
ATOM     84  C   UNL A   1      45.434  26.451  38.043  1.00  0.00     0.060 A 
BRANCH  84  85
ATOM     85  S   UNL A   1      46.060  25.980  39.670  1.00  0.00     0.124 S 
ATOM     86  O   UNL A   1      47.266  25.235  39.325  1.00  0.00    -0.237 OA
ATOM     87  O   UNL A   1      46.276  27.281  40.296  1.00  0.00    -0.237 OA
ATOM     88  O   UNL A   1      44.973  25.188  40.236  1.00  0.00    -0.744 OA
ENDBRANCH  84  85
ENDBRANCH  63  77
BRANCH  64  89
ATOM     89  C   UNL A   1      39.450  34.091  32.434  1.00  0.00     0.058 A 
ATOM     90  C   UNL A   1      38.286  34.010  31.638  1.00  0.00     0.135 A 
ATOM     91  C   UNL A   1      39.259  34.532  33.753  1.00  0.00     0.135 A 
ATOM     92  F   UNL A   1      38.382  33.738  30.326  1.00  0.00    -0.206 F 
ATOM     93  C   UNL A   1      37.007  34.172  32.163  1.00  0.00     0.059 A 
ATOM     94  C   UNL A   1      37.986  34.675  34.312  1.00  0.00     0.059 A 
ATOM     95  F   UNL A   1      40.301  34.807  34.550  1.00  0.00    -0.206 F 
ATOM     96  C   UNL A   1      36.866  34.447  33.519  1.00  0.00     0.060 A 
BRANCH  96  97
ATOM     97  S   UNL A   1      35.208  34.415  34.229  1.00  0.00     0.124 S 
ATOM     98  O   UNL A   1      35.467  33.978  35.596  1.00  0.00    -0.237 OA
ATOM     99  O   UNL A   1      34.796  35.808  34.073  1.00  0.00    -0.237 OA
ATOM    100  O   UNL A   1      34.496  33.460  33.386  1.00  0.00    -0.744 OA
ENDBRANCH  96  97
ENDBRANCH  64  89
BRANCH  76 101
ATOM    101  C   UNL A   1      45.860  32.895  31.429  1.00  0.00     0.058 A 
ATOM    102  C   UNL A   1      45.681  32.619  30.066  1.00  0.00     0.135 A 
ATOM    103  C   UNL A   1      46.630  34.019  31.774  1.00  0.00     0.135 A 
ATOM    104  F   UNL A   1      44.941  31.567  29.679  1.00  0.00    -0.206 F 
ATOM    105  C   UNL A   1      46.217  33.441  29.082  1.00  0.00     0.059 A 
ATOM    106  C   UNL A   1      47.154  34.872  30.804  1.00  0.00     0.059 A 
ATOM    107  F   UNL A   1      46.858  34.327  33.061  1.00  0.00    -0.206 F 
ATOM    108  C   UNL A   1      46.936  34.577  29.460  1.00  0.00     0.060 A 
BRANCH 108 109
ATOM    109  S   UNL A   1      47.503  35.702  28.168  1.00  0.00     0.124 S 
ATOM    110  O   UNL A   1      47.541  36.981  28.869  1.00  0.00    -0.237 OA
ATOM    111  O   UNL A   1      48.803  35.137  27.813  1.00  0.00    -0.237 OA
ATOM    112  O   UNL A   1      46.479  35.584  27.133  1.00  0.00    -0.744 OA
ENDBRANCH 108 109
ENDBRANCH  76 101
ENDBRANCH  50  51
ENDBRANCH  43  45
ENDBRANCH  42  43
ENDBRANCH  41  42
ENDBRANCH  40  41
ENDBRANCH   1  40
TORSDOF 22
ENDMDL
MODEL 3
REMARK VINA RESULT:     -11.1      2.635      7.367
REMARK SMILES Cc1oc2cc3c(cc2c1C)[C@H](C)[C@@H](CC(=O)N[C@H](CC1=c2ccccc2=NC1)C(=O)OCCOCCOC(=O)c1ccc(-c2c4nc(c(-c5c(F)cc(S(=O)(=O)[O-])cc5F)c5ccc([nH]5)c(-c5c(F)cc(S(=O)(=O)[O-])cc5F)c5nc(c(-c6c(F)cc(S(=O)(=O)[O-])cc6F)c6ccc2[nH]6)C=C5)C=C4)cc1)C(=O)O3
REMARK SMILES IDX 35 1 34 2 33 3 32 4 30 5 31 6 19 7 18 8 16 9 17 10 15 12
REMARK SMILES IDX 14 13 1 14 2 15 3 16 10 17 4 18 9 19 11 20 5 21 8 22 6 23
REMARK SMILES IDX 7 24 109 25 12 26 107 27 13 28 108 29 20 30 21 31 22 32
REMARK SMILES IDX 29 33 23 34 27 35 28 36 24 37 26 38 25 39 36 40 37 41 38 42
REMARK SMILES IDX 39 43 40 44 41 45 42 46 106 47 43 48 105 49 44 50 45 51
REMARK SMILES IDX 46 52 99 53 47 54 104 55 98 56 100 57 48 58 103 59 97 60
REMARK SMILES IDX 96 61 49 63 83 64 62 65 82 66 63 67 66 68 81 69 101 70 64 71
REMARK SMILES IDX 65 72 80 74 102 75 67 76 50 77 51 78 60 79 52 80 53 81 59 82
REMARK SMILES IDX 61 83 54 84 55 85 56 86 57 87 58 88 84 89 85 90 94 91 86 92
REMARK SMILES IDX 87 93 93 94 95 95 88 96 89 97 90 98 91 99 92 100 68 101
REMARK SMILES IDX 69 102 78 103 70 104 71 105 77 106 79 107 72 108 73 109
REMARK SMILES IDX 74 110 75 111 76 112
REMARK H PARENT 18 11 100 62 66 73
REMARK Flexibility Score: inf
ROOT
ATOM      1  O   UNL A   1      33.774  28.373  27.247  1.00  0.00    -0.374 OA
ENDROOT
BRANCH   1   2
ATOM      2  C   UNL A   1      32.412  28.571  27.594  1.00  0.00     0.202 C 
BRANCH   2   3
ATOM      3  C   UNL A   1      31.322  27.474  27.433  1.00  0.00     0.261 C 
BRANCH   3   4
ATOM      4  O   UNL A   1      31.726  26.212  26.860  1.00  0.00    -0.462 OA
BRANCH   4   5
ATOM      5  C   UNL A   1      30.795  25.565  26.094  1.00  0.00     0.329 C 
ATOM      6  O   UNL A   1      29.585  25.633  26.294  1.00  0.00    -0.250 OA
BRANCH   5   7
ATOM      7  C   UNL A   1      31.403  24.846  24.840  1.00  0.00     0.196 C 
BRANCH   7   8
ATOM      8  N   UNL A   1      32.683  25.574  24.637  1.00  0.00    -0.342 N 
ATOM      9  C   UNL A   1      33.952  25.102  24.456  1.00  0.00     0.221 C 
ATOM     10  O   UNL A   1      34.887  25.861  24.717  1.00  0.00    -0.275 OA
ATOM     11  H   UNL A   1      32.603  26.554  24.631  1.00  0.00     0.164 HD
BRANCH   9  12
ATOM     12  C   UNL A   1      34.244  23.726  23.857  1.00  0.00     0.116 C 
BRANCH  12  13
ATOM     13  C   UNL A   1      33.877  22.520  24.738  1.00  0.00     0.116 C 
ATOM     14  C   UNL A   1      32.862  14.074  25.449  1.00  0.00     0.088 C 
ATOM     15  C   UNL A   1      33.270  15.489  25.344  1.00  0.00     0.105 A 
ATOM     16  O   UNL A   1      32.256  16.383  25.441  1.00  0.00    -0.461 OA
ATOM     17  C   UNL A   1      34.480  16.146  25.174  1.00  0.00    -0.002 A 
ATOM     18  C   UNL A   1      32.804  17.617  25.342  1.00  0.00     0.138 A 
ATOM     19  C   UNL A   1      34.178  17.546  25.162  1.00  0.00     0.024 A 
ATOM     20  C   UNL A   1      35.820  15.535  25.044  1.00  0.00     0.049 C 
ATOM     21  C   UNL A   1      32.083  18.788  25.394  1.00  0.00     0.095 A 
ATOM     22  C   UNL A   1      34.907  18.756  25.017  1.00  0.00     0.020 A 
ATOM     23  C   UNL A   1      32.818  19.953  25.197  1.00  0.00     0.138 A 
ATOM     24  C   UNL A   1      34.221  19.985  25.041  1.00  0.00    -0.001 A 
ATOM     25  O   UNL A   1      32.057  21.103  25.079  1.00  0.00    -0.426 OA
ATOM     26  C   UNL A   1      34.910  21.342  24.760  1.00  0.00     0.035 C 
ATOM     27  C   UNL A   1      32.721  21.806  24.123  1.00  0.00     0.315 C 
ATOM     28  C   UNL A   1      36.042  21.611  25.746  1.00  0.00     0.014 C 
ATOM     29  O   UNL A   1      32.561  21.668  22.918  1.00  0.00    -0.251 OA
ENDBRANCH  12  13
ENDBRANCH   9  12
ENDBRANCH   7   8
BRANCH   7  30
ATOM     30  C   UNL A   1      30.533  24.798  23.529  1.00  0.00     0.070 C 
BRANCH  30  31
ATOM     31  C   UNL A   1      30.107  26.149  22.867  1.00  0.00    -0.037 C 
ATOM     32  C   UNL A   1      29.899  27.307  23.552  1.00  0.00     0.001 A 
ATOM     33  C   UNL A   1      31.028  26.484  21.742  1.00  0.00     0.174 C 
ATOM     34  C   UNL A   1      29.174  28.510  23.050  1.00  0.00     0.010 A 
ATOM     35  C   UNL A   1      31.329  27.745  23.482  1.00  0.00     0.065 A 
ATOM     36  N   UNL A   1      31.988  27.343  22.442  1.00  0.00    -0.280 NA
ATOM     37  C   UNL A   1      29.667  29.742  23.336  1.00  0.00     0.001 A 
ATOM     38  C   UNL A   1      31.684  28.870  24.359  1.00  0.00     0.028 A 
ATOM     39  C   UNL A   1      30.826  29.891  24.211  1.00  0.00     0.002 A 
ENDBRANCH  30  31
ENDBRANCH   7  30
ENDBRANCH   5   7
ENDBRANCH   4   5
ENDBRANCH   3   4
ENDBRANCH   2   3
ENDBRANCH   1   2
BRANCH   1  40
ATOM     40  C   UNL A   1      34.538  29.544  26.978  1.00  0.00     0.202 C 
BRANCH  40  41
ATOM     41  C   UNL A   1      33.882  30.902  27.309  1.00  0.00     0.261 C 
BRANCH  41  42
ATOM     42  O   UNL A   1      34.232  31.364  28.629  1.00  0.00    -0.460 OA
BRANCH  42  43
ATOM     43  C   UNL A   1      34.889  32.553  28.692  1.00  0.00     0.338 C 
ATOM     44  O   UNL A   1      34.468  33.650  28.428  1.00  0.00    -0.246 OA
BRANCH  43  45
ATOM     45  C   UNL A   1      36.169  32.289  29.384  1.00  0.00     0.060 A 
ATOM     46  C   UNL A   1      36.380  32.623  30.719  1.00  0.00     0.016 A 
ATOM     47  C   UNL A   1      37.189  31.711  28.626  1.00  0.00     0.016 A 
ATOM     48  C   UNL A   1      37.619  32.327  31.306  1.00  0.00     0.010 A 
ATOM     49  C   UNL A   1      38.445  31.522  29.179  1.00  0.00     0.010 A 
ATOM     50  C   UNL A   1      38.650  31.750  30.543  1.00  0.00    -0.014 A 
BRANCH  50  51
ATOM     51  C   UNL A   1      39.806  31.119  31.226  1.00  0.00     0.031 A 
ATOM     52  C   UNL A   1      40.038  29.684  30.812  1.00  0.00     0.074 A 
ATOM     53  C   UNL A   1      40.868  31.819  31.675  1.00  0.00     0.049 A 
ATOM     54  N   UNL A   1      40.691  29.330  29.740  1.00  0.00    -0.248 NA
ATOM     55  C   UNL A   1      39.245  28.600  31.397  1.00  0.00     0.031 C 
ATOM     56  C   UNL A   1      41.541  32.860  30.890  1.00  0.00     0.029 A 
ATOM     57  N   UNL A   1      41.737  31.549  32.710  1.00  0.00    -0.354 N 
ATOM     58  C   UNL A   1      40.378  28.002  29.482  1.00  0.00     0.074 A 
ATOM     59  C   UNL A   1      39.476  27.595  30.538  1.00  0.00     0.031 C 
ATOM     60  C   UNL A   1      42.792  33.016  31.373  1.00  0.00     0.029 A 
ATOM     61  C   UNL A   1      42.967  32.188  32.568  1.00  0.00     0.049 A 
ATOM     62  H   UNL A   1      41.512  30.964  33.470  1.00  0.00     0.167 HD
ATOM     63  C   UNL A   1      40.864  27.298  28.422  1.00  0.00     0.037 A 
ATOM     64  C   UNL A   1      44.152  31.683  33.015  1.00  0.00     0.037 A 
ATOM     65  C   UNL A   1      41.799  27.992  27.589  1.00  0.00     0.049 A 
ATOM     66  C   UNL A   1      44.461  30.696  31.915  1.00  0.00     0.074 A 
ATOM     67  C   UNL A   1      41.825  28.636  26.371  1.00  0.00     0.029 A 
ATOM     68  N   UNL A   1      43.090  28.093  28.052  1.00  0.00    -0.354 N 
ATOM     69  N   UNL A   1      44.956  30.976  30.738  1.00  0.00    -0.248 NA
ATOM     70  C   UNL A   1      43.823  29.380  32.011  1.00  0.00     0.031 C 
ATOM     71  C   UNL A   1      42.980  29.485  26.414  1.00  0.00     0.029 A 
ATOM     72  C   UNL A   1      43.562  29.322  27.670  1.00  0.00     0.049 A 
ATOM     73  H   UNL A   1      43.584  27.412  28.562  1.00  0.00     0.167 HD
ATOM     74  C   UNL A   1      44.443  30.000  29.879  1.00  0.00     0.074 A 
ATOM     75  C   UNL A   1      43.779  29.036  30.732  1.00  0.00     0.031 C 
ATOM     76  C   UNL A   1      44.419  30.120  28.519  1.00  0.00     0.037 A 
BRANCH  63  77
ATOM     77  C   UNL A   1      40.700  25.838  28.250  1.00  0.00     0.058 A 
ATOM     78  C   UNL A   1      41.801  25.023  28.562  1.00  0.00     0.135 A 
ATOM     79  C   UNL A   1      39.607  25.248  27.604  1.00  0.00     0.135 A 
ATOM     80  F   UNL A   1      42.875  25.557  29.170  1.00  0.00    -0.206 F 
ATOM     81  C   UNL A   1      41.845  23.685  28.209  1.00  0.00     0.059 A 
ATOM     82  C   UNL A   1      39.623  23.897  27.248  1.00  0.00     0.059 A 
ATOM     83  F   UNL A   1      38.536  25.985  27.273  1.00  0.00    -0.206 F 
ATOM     84  C   UNL A   1      40.756  23.131  27.535  1.00  0.00     0.060 A 
BRANCH  84  85
ATOM     85  S   UNL A   1      40.880  21.405  27.020  1.00  0.00     0.124 S 
ATOM     86  O   UNL A   1      40.742  20.701  28.291  1.00  0.00    -0.237 OA
ATOM     87  O   UNL A   1      39.752  21.284  26.102  1.00  0.00    -0.237 OA
ATOM     88  O   UNL A   1      42.199  21.328  26.401  1.00  0.00    -0.744 OA
ENDBRANCH  84  85
ENDBRANCH  63  77
BRANCH  64  89
ATOM     89  C   UNL A   1      44.214  31.351  34.478  1.00  0.00     0.058 A 
ATOM     90  C   UNL A   1      45.129  32.070  35.277  1.00  0.00     0.135 A 
ATOM     91  C   UNL A   1      43.428  30.403  35.151  1.00  0.00     0.135 A 
ATOM     92  F   UNL A   1      46.024  32.894  34.705  1.00  0.00    -0.206 F 
ATOM     93  C   UNL A   1      45.134  31.990  36.666  1.00  0.00     0.059 A 
ATOM     94  C   UNL A   1      43.393  30.322  36.546  1.00  0.00     0.059 A 
ATOM     95  F   UNL A   1      42.644  29.548  34.480  1.00  0.00    -0.206 F 
ATOM     96  C   UNL A   1      44.218  31.154  37.296  1.00  0.00     0.060 A 
BRANCH  96  97
ATOM     97  S   UNL A   1      44.075  31.243  39.092  1.00  0.00     0.124 S 
ATOM     98  O   UNL A   1      44.942  32.370  39.414  1.00  0.00    -0.237 OA
ATOM     99  O   UNL A   1      42.642  31.472  39.260  1.00  0.00    -0.237 OA
ATOM    100  O   UNL A   1      44.550  29.936  39.535  1.00  0.00    -0.744 OA
ENDBRANCH  96  97
ENDBRANCH  64  89
BRANCH  76 101
ATOM    101  C   UNL A   1      45.165  31.280  27.949  1.00  0.00     0.058 A 
ATOM    102  C   UNL A   1      46.504  31.131  27.564  1.00  0.00     0.135 A 
ATOM    103  C   UNL A   1      44.551  32.523  27.718  1.00  0.00     0.135 A 
ATOM    104  F   UNL A   1      47.136  29.959  27.747  1.00  0.00    -0.206 F 
ATOM    105  C   UNL A   1      47.201  32.161  26.944  1.00  0.00     0.059 A 
ATOM    106  C   UNL A   1      45.222  33.560  27.074  1.00  0.00     0.059 A 
ATOM    107  F   UNL A   1      43.277  32.739  28.083  1.00  0.00    -0.206 F 
ATOM    108  C   UNL A   1      46.546  33.367  26.684  1.00  0.00     0.060 A 
BRANCH 108 109
ATOM    109  S   UNL A   1      47.427  34.638  25.756  1.00  0.00     0.124 S 
ATOM    110  O   UNL A   1      48.674  33.962  25.415  1.00  0.00    -0.237 OA
ATOM    111  O   UNL A   1      46.521  34.893  24.640  1.00  0.00    -0.237 OA
ATOM    112  O   UNL A   1      47.551  35.738  26.710  1.00  0.00    -0.744 OA
ENDBRANCH 108 109
ENDBRANCH  76 101
ENDBRANCH  50  51
ENDBRANCH  43  45
ENDBRANCH  42  43
ENDBRANCH  41  42
ENDBRANCH  40  41
ENDBRANCH   1  40
TORSDOF 22
ENDMDL
