MODEL 1
REMARK VINA RESULT:      -9.8      0.000      0.000
REMARK SMILES Cc1[nH]c2ccccc2c1[C@H]([NH3+])CC(=O)OCCOCCOC(=O)c1ccc(-c2c3nc(c(-c4c(F)cc(S(=O)(=O)[O-])cc4F)c4ccc([nH]4)c(-c4c(F)cc(S(=O)(=O)[O-])cc4F)c4nc(c(-c5c(F)cc(S(=O)(=O)[O-])cc5F)c5ccc2[nH]5)C=C4)C=C3)cc1
REMARK SMILES IDX 20 1 19 2 18 3 17 4 16 5 14 6 15 7 13 8 11 9 10 10 1 11 2 12
REMARK SMILES IDX 3 13 4 14 9 16 5 17 8 18 6 19 7 20 12 21 21 25 22 26 23 27
REMARK SMILES IDX 24 28 25 29 26 30 90 31 27 32 89 33 28 34 29 35 30 36 83 37
REMARK SMILES IDX 31 38 88 39 82 40 84 41 32 42 87 43 81 44 80 45 33 47 67 48
REMARK SMILES IDX 46 49 66 50 47 51 50 52 65 53 85 54 48 55 49 56 64 58 86 59
REMARK SMILES IDX 51 60 34 61 35 62 44 63 36 64 37 65 43 66 45 67 38 68 39 69
REMARK SMILES IDX 40 70 41 71 42 72 68 73 69 74 78 75 70 76 71 77 77 78 79 79
REMARK SMILES IDX 72 80 73 81 74 82 75 83 76 84 52 85 53 86 62 87 54 88 55 89
REMARK SMILES IDX 61 90 63 91 56 92 57 93 58 94 59 95 60 96
REMARK H PARENT 3 15 12 22 12 23 12 24 84 46 50 57
REMARK Flexibility Score: inf
ROOT
ATOM      1  C   UNL A   1      41.134  19.707  26.432  1.00  0.00     0.202 C 
ENDROOT
BRANCH   1   2
ATOM      2  O   UNL A   1      42.312  19.964  25.672  1.00  0.00    -0.374 OA
BRANCH   2   3
ATOM      3  C   UNL A   1      43.143  18.831  25.404  1.00  0.00     0.202 C 
BRANCH   3   4
ATOM      4  C   UNL A   1      44.543  19.143  24.864  1.00  0.00     0.261 C 
BRANCH   4   5
ATOM      5  O   UNL A   1      44.540  20.328  24.043  1.00  0.00    -0.463 OA
BRANCH   5   6
ATOM      6  C   UNL A   1      45.481  21.272  24.294  1.00  0.00     0.312 C 
ATOM      7  O   UNL A   1      46.525  21.080  24.907  1.00  0.00    -0.252 OA
BRANCH   6   8
ATOM      8  C   UNL A   1      45.095  22.620  23.731  1.00  0.00     0.192 C 
BRANCH   8   9
ATOM      9  C   UNL A   1      44.255  23.460  24.703  1.00  0.00     0.225 C 
BRANCH   9  10
ATOM     10  C   UNL A   1      44.967  23.690  26.023  1.00  0.00     0.038 A 
ATOM     11  C   UNL A   1      47.433  24.546  25.511  1.00  0.00     0.065 C 
ATOM     12  C   UNL A   1      46.251  24.149  26.325  1.00  0.00     0.022 A 
ATOM     13  N   UNL A   1      46.345  24.239  27.695  1.00  0.00    -0.358 N 
ATOM     14  C   UNL A   1      45.196  23.810  28.305  1.00  0.00     0.046 A 
ATOM     15  H   UNL A   1      47.137  24.570  28.177  1.00  0.00     0.166 HD
ATOM     16  C   UNL A   1      44.324  23.424  27.293  1.00  0.00     0.009 A 
ATOM     17  C   UNL A   1      44.868  23.737  29.664  1.00  0.00     0.027 A 
ATOM     18  C   UNL A   1      43.062  22.907  27.662  1.00  0.00     0.011 A 
ATOM     19  C   UNL A   1      43.608  23.233  30.001  1.00  0.00     0.002 A 
ATOM     20  C   UNL A   1      42.719  22.815  29.016  1.00  0.00     0.001 A 
ENDBRANCH   9  10
BRANCH   9  21
ATOM     21  N   UNL A   1      42.935  22.877  24.914  1.00  0.00    -0.351 N 
ATOM     22  H   UNL A   1      43.023  21.866  25.009  1.00  0.00     0.345 HD
ATOM     23  H   UNL A   1      42.337  23.094  24.118  1.00  0.00     0.345 HD
ATOM     24  H   UNL A   1      42.526  23.264  25.764  1.00  0.00     0.345 HD
ENDBRANCH   9  21
ENDBRANCH   8   9
ENDBRANCH   6   8
ENDBRANCH   5   6
ENDBRANCH   4   5
ENDBRANCH   3   4
ENDBRANCH   2   3
ENDBRANCH   1   2
BRANCH   1  25
ATOM     25  C   UNL A   1      40.413  20.938  26.997  1.00  0.00     0.261 C 
BRANCH  25  26
ATOM     26  O   UNL A   1      40.193  21.947  25.995  1.00  0.00    -0.460 OA
BRANCH  26  27
ATOM     27  C   UNL A   1      39.058  22.663  26.151  1.00  0.00     0.338 C 
ATOM     28  O   UNL A   1      37.907  22.259  26.014  1.00  0.00    -0.246 OA
BRANCH  27  29
ATOM     29  C   UNL A   1      39.363  24.003  26.685  1.00  0.00     0.060 A 
ATOM     30  C   UNL A   1      39.981  24.912  25.818  1.00  0.00     0.016 A 
ATOM     31  C   UNL A   1      39.118  24.351  28.016  1.00  0.00     0.016 A 
ATOM     32  C   UNL A   1      40.408  26.151  26.290  1.00  0.00     0.010 A 
ATOM     33  C   UNL A   1      39.554  25.595  28.491  1.00  0.00     0.010 A 
ATOM     34  C   UNL A   1      40.233  26.486  27.639  1.00  0.00    -0.014 A 
BRANCH  34  35
ATOM     35  C   UNL A   1      40.891  27.704  28.176  1.00  0.00     0.031 A 
ATOM     36  C   UNL A   1      42.391  27.816  28.104  1.00  0.00     0.074 A 
ATOM     37  C   UNL A   1      40.162  28.720  28.673  1.00  0.00     0.049 A 
ATOM     38  N   UNL A   1      43.171  28.783  28.514  1.00  0.00    -0.248 NA
ATOM     39  C   UNL A   1      43.107  26.687  27.488  1.00  0.00     0.031 C 
ATOM     40  C   UNL A   1      38.703  28.747  28.758  1.00  0.00     0.029 A 
ATOM     41  N   UNL A   1      40.554  29.926  29.200  1.00  0.00    -0.354 N 
ATOM     42  C   UNL A   1      44.467  28.382  28.209  1.00  0.00     0.074 A 
ATOM     43  C   UNL A   1      44.371  27.068  27.609  1.00  0.00     0.031 C 
ATOM     44  C   UNL A   1      38.321  29.913  29.311  1.00  0.00     0.029 A 
ATOM     45  C   UNL A   1      39.507  30.699  29.645  1.00  0.00     0.049 A 
ATOM     46  H   UNL A   1      41.494  30.211  29.253  1.00  0.00     0.167 HD
ATOM     47  C   UNL A   1      45.629  29.050  28.400  1.00  0.00     0.037 A 
ATOM     48  C   UNL A   1      39.510  31.894  30.268  1.00  0.00     0.037 A 
ATOM     49  C   UNL A   1      45.721  30.359  28.993  1.00  0.00     0.049 A 
ATOM     50  C   UNL A   1      40.820  32.590  30.531  1.00  0.00     0.074 A 
ATOM     51  C   UNL A   1      46.851  31.127  29.213  1.00  0.00     0.029 A 
ATOM     52  N   UNL A   1      44.643  31.093  29.465  1.00  0.00    -0.354 N 
ATOM     53  N   UNL A   1      42.036  32.207  30.218  1.00  0.00    -0.248 NA
ATOM     54  C   UNL A   1      40.761  33.881  31.230  1.00  0.00     0.031 C 
ATOM     55  C   UNL A   1      46.462  32.303  29.862  1.00  0.00     0.029 A 
ATOM     56  C   UNL A   1      45.084  32.293  30.000  1.00  0.00     0.049 A 
ATOM     57  H   UNL A   1      43.702  30.805  29.427  1.00  0.00     0.167 HD
ATOM     58  C   UNL A   1      42.881  33.220  30.661  1.00  0.00     0.074 A 
ATOM     59  C   UNL A   1      42.037  34.239  31.251  1.00  0.00     0.031 C 
ATOM     60  C   UNL A   1      44.232  33.300  30.583  1.00  0.00     0.037 A 
BRANCH  47  61
ATOM     61  C   UNL A   1      46.902  28.367  27.983  1.00  0.00     0.058 A 
ATOM     62  C   UNL A   1      47.502  28.617  26.739  1.00  0.00     0.135 A 
ATOM     63  C   UNL A   1      47.549  27.475  28.854  1.00  0.00     0.135 A 
ATOM     64  F   UNL A   1      46.918  29.447  25.861  1.00  0.00    -0.206 F 
ATOM     65  C   UNL A   1      48.686  27.989  26.363  1.00  0.00     0.059 A 
ATOM     66  C   UNL A   1      48.747  26.856  28.510  1.00  0.00     0.059 A 
ATOM     67  F   UNL A   1      47.017  27.198  30.055  1.00  0.00    -0.206 F 
ATOM     68  C   UNL A   1      49.300  27.109  27.256  1.00  0.00     0.060 A 
BRANCH  68  69
ATOM     69  S   UNL A   1      50.839  26.306  26.756  1.00  0.00     0.124 S 
ATOM     70  O   UNL A   1      50.690  26.271  25.304  1.00  0.00    -0.237 OA
ATOM     71  O   UNL A   1      51.851  27.224  27.267  1.00  0.00    -0.237 OA
ATOM     72  O   UNL A   1      50.777  25.009  27.425  1.00  0.00    -0.744 OA
ENDBRANCH  68  69
ENDBRANCH  47  61
BRANCH  48  73
ATOM     73  C   UNL A   1      38.226  32.508  30.701  1.00  0.00     0.058 A 
ATOM     74  C   UNL A   1      37.470  33.306  29.830  1.00  0.00     0.135 A 
ATOM     75  C   UNL A   1      37.733  32.313  32.001  1.00  0.00     0.135 A 
ATOM     76  F   UNL A   1      37.905  33.533  28.580  1.00  0.00    -0.206 F 
ATOM     77  C   UNL A   1      36.279  33.901  30.234  1.00  0.00     0.059 A 
ATOM     78  C   UNL A   1      36.533  32.876  32.421  1.00  0.00     0.059 A 
ATOM     79  F   UNL A   1      38.414  31.552  32.871  1.00  0.00    -0.206 F 
ATOM     80  C   UNL A   1      35.817  33.677  31.533  1.00  0.00     0.060 A 
BRANCH  80  81
ATOM     81  S   UNL A   1      34.247  34.415  32.036  1.00  0.00     0.124 S 
ATOM     82  O   UNL A   1      33.574  34.577  30.753  1.00  0.00    -0.237 OA
ATOM     83  O   UNL A   1      33.698  33.394  32.923  1.00  0.00    -0.237 OA
ATOM     84  O   UNL A   1      34.656  35.652  32.696  1.00  0.00    -0.744 OA
ENDBRANCH  80  81
ENDBRANCH  48  73
BRANCH  60  85
ATOM     85  C   UNL A   1      44.888  34.543  31.122  1.00  0.00     0.058 A 
ATOM     86  C   UNL A   1      45.346  34.620  32.446  1.00  0.00     0.135 A 
ATOM     87  C   UNL A   1      45.108  35.651  30.287  1.00  0.00     0.135 A 
ATOM     88  F   UNL A   1      45.156  33.591  33.287  1.00  0.00    -0.206 F 
ATOM     89  C   UNL A   1      45.979  35.760  32.931  1.00  0.00     0.059 A 
ATOM     90  C   UNL A   1      45.764  36.791  30.743  1.00  0.00     0.059 A 
ATOM     91  F   UNL A   1      44.700  35.627  29.008  1.00  0.00    -0.206 F 
ATOM     92  C   UNL A   1      46.185  36.841  32.071  1.00  0.00     0.060 A 
BRANCH  92  93
ATOM     93  S   UNL A   1      47.038  38.302  32.703  1.00  0.00     0.124 S 
ATOM     94  O   UNL A   1      46.793  38.187  34.137  1.00  0.00    -0.237 OA
ATOM     95  O   UNL A   1      48.415  38.070  32.275  1.00  0.00    -0.237 OA
ATOM     96  O   UNL A   1      46.358  39.408  32.036  1.00  0.00    -0.744 OA
ENDBRANCH  92  93
ENDBRANCH  60  85
ENDBRANCH  34  35
ENDBRANCH  27  29
ENDBRANCH  26  27
ENDBRANCH  25  26
ENDBRANCH   1  25
TORSDOF 20
ENDMDL
MODEL 2
REMARK VINA RESULT:      -9.4      5.376      7.705
REMARK SMILES Cc1[nH]c2ccccc2c1[C@H]([NH3+])CC(=O)OCCOCCOC(=O)c1ccc(-c2c3nc(c(-c4c(F)cc(S(=O)(=O)[O-])cc4F)c4ccc([nH]4)c(-c4c(F)cc(S(=O)(=O)[O-])cc4F)c4nc(c(-c5c(F)cc(S(=O)(=O)[O-])cc5F)c5ccc2[nH]5)C=C4)C=C3)cc1
REMARK SMILES IDX 20 1 19 2 18 3 17 4 16 5 14 6 15 7 13 8 11 9 10 10 1 11 2 12
REMARK SMILES IDX 3 13 4 14 9 16 5 17 8 18 6 19 7 20 12 21 21 25 22 26 23 27
REMARK SMILES IDX 24 28 25 29 26 30 90 31 27 32 89 33 28 34 29 35 30 36 83 37
REMARK SMILES IDX 31 38 88 39 82 40 84 41 32 42 87 43 81 44 80 45 33 47 67 48
REMARK SMILES IDX 46 49 66 50 47 51 50 52 65 53 85 54 48 55 49 56 64 58 86 59
REMARK SMILES IDX 51 60 34 61 35 62 44 63 36 64 37 65 43 66 45 67 38 68 39 69
REMARK SMILES IDX 40 70 41 71 42 72 68 73 69 74 78 75 70 76 71 77 77 78 79 79
REMARK SMILES IDX 72 80 73 81 74 82 75 83 76 84 52 85 53 86 62 87 54 88 55 89
REMARK SMILES IDX 61 90 63 91 56 92 57 93 58 94 59 95 60 96
REMARK H PARENT 3 15 12 22 12 23 12 24 84 46 50 57
REMARK Flexibility Score: inf
ROOT
ATOM      1  C   UNL A   1      42.848  21.206  26.535  1.00  0.00     0.202 C 
ENDROOT
BRANCH   1   2
ATOM      2  O   UNL A   1      41.864  20.564  25.728  1.00  0.00    -0.374 OA
BRANCH   2   3
ATOM      3  C   UNL A   1      40.564  20.433  26.311  1.00  0.00     0.202 C 
BRANCH   3   4
ATOM      4  C   UNL A   1      39.711  21.705  26.332  1.00  0.00     0.261 C 
BRANCH   4   5
ATOM      5  O   UNL A   1      38.545  21.573  25.494  1.00  0.00    -0.463 OA
BRANCH   5   6
ATOM      6  C   UNL A   1      37.620  22.565  25.540  1.00  0.00     0.312 C 
ATOM      7  O   UNL A   1      37.786  23.659  26.065  1.00  0.00    -0.252 OA
BRANCH   6   8
ATOM      8  C   UNL A   1      36.329  22.164  24.866  1.00  0.00     0.192 C 
BRANCH   8   9
ATOM      9  C   UNL A   1      35.449  21.258  25.739  1.00  0.00     0.225 C 
BRANCH   9  10
ATOM     10  C   UNL A   1      34.194  20.809  25.014  1.00  0.00     0.038 A 
ATOM     11  C   UNL A   1      32.484  22.845  24.954  1.00  0.00     0.065 C 
ATOM     12  C   UNL A   1      33.012  21.477  24.692  1.00  0.00     0.022 A 
ATOM     13  N   UNL A   1      32.235  20.610  23.957  1.00  0.00    -0.358 N 
ATOM     14  C   UNL A   1      32.836  19.386  23.829  1.00  0.00     0.046 A 
ATOM     15  H   UNL A   1      31.358  20.840  23.572  1.00  0.00     0.166 HD
ATOM     16  C   UNL A   1      34.047  19.460  24.507  1.00  0.00     0.009 A 
ATOM     17  C   UNL A   1      32.401  18.232  23.167  1.00  0.00     0.027 A 
ATOM     18  C   UNL A   1      34.856  18.303  24.553  1.00  0.00     0.011 A 
ATOM     19  C   UNL A   1      33.227  17.105  23.216  1.00  0.00     0.002 A 
ATOM     20  C   UNL A   1      34.435  17.135  23.907  1.00  0.00     0.001 A 
ENDBRANCH   9  10
BRANCH   9  21
ATOM     21  N   UNL A   1      35.122  21.891  27.011  1.00  0.00    -0.351 N 
ATOM     22  H   UNL A   1      35.946  22.370  27.373  1.00  0.00     0.345 HD
ATOM     23  H   UNL A   1      34.822  21.180  27.677  1.00  0.00     0.345 HD
ATOM     24  H   UNL A   1      34.371  22.566  26.871  1.00  0.00     0.345 HD
ENDBRANCH   9  21
ENDBRANCH   8   9
ENDBRANCH   6   8
ENDBRANCH   5   6
ENDBRANCH   4   5
ENDBRANCH   3   4
ENDBRANCH   2   3
ENDBRANCH   1   2
BRANCH   1  25
ATOM     25  C   UNL A   1      43.332  22.576  26.045  1.00  0.00     0.261 C 
BRANCH  25  26
ATOM     26  O   UNL A   1      42.886  23.647  26.896  1.00  0.00    -0.460 OA
BRANCH  26  27
ATOM     27  C   UNL A   1      42.496  24.765  26.245  1.00  0.00     0.338 C 
ATOM     28  O   UNL A   1      42.439  24.928  25.031  1.00  0.00    -0.246 OA
BRANCH  27  29
ATOM     29  C   UNL A   1      41.969  25.759  27.198  1.00  0.00     0.060 A 
ATOM     30  C   UNL A   1      42.638  26.986  27.277  1.00  0.00     0.016 A 
ATOM     31  C   UNL A   1      40.892  25.486  28.045  1.00  0.00     0.016 A 
ATOM     32  C   UNL A   1      42.271  27.924  28.240  1.00  0.00     0.010 A 
ATOM     33  C   UNL A   1      40.528  26.426  29.018  1.00  0.00     0.010 A 
ATOM     34  C   UNL A   1      41.239  27.634  29.143  1.00  0.00    -0.014 A 
BRANCH  34  35
ATOM     35  C   UNL A   1      41.012  28.537  30.299  1.00  0.00     0.031 A 
ATOM     36  C   UNL A   1      41.888  28.401  31.517  1.00  0.00     0.074 A 
ATOM     37  C   UNL A   1      40.074  29.501  30.248  1.00  0.00     0.049 A 
ATOM     38  N   UNL A   1      41.864  29.078  32.636  1.00  0.00    -0.248 NA
ATOM     39  C   UNL A   1      42.931  27.365  31.465  1.00  0.00     0.031 C 
ATOM     40  C   UNL A   1      39.192  29.759  29.111  1.00  0.00     0.029 A 
ATOM     41  N   UNL A   1      39.708  30.442  31.179  1.00  0.00    -0.354 N 
ATOM     42  C   UNL A   1      42.882  28.551  33.422  1.00  0.00     0.074 A 
ATOM     43  C   UNL A   1      43.484  27.475  32.664  1.00  0.00     0.031 C 
ATOM     44  C   UNL A   1      38.381  30.789  29.414  1.00  0.00     0.029 A 
ATOM     45  C   UNL A   1      38.667  31.243  30.774  1.00  0.00     0.049 A 
ATOM     46  H   UNL A   1      40.150  30.535  32.053  1.00  0.00     0.167 HD
ATOM     47  C   UNL A   1      43.286  28.934  34.656  1.00  0.00     0.037 A 
ATOM     48  C   UNL A   1      38.007  32.216  31.433  1.00  0.00     0.037 A 
ATOM     49  C   UNL A   1      42.687  30.008  35.406  1.00  0.00     0.049 A 
ATOM     50  C   UNL A   1      38.431  32.581  32.833  1.00  0.00     0.074 A 
ATOM     51  C   UNL A   1      43.038  30.483  36.657  1.00  0.00     0.029 A 
ATOM     52  N   UNL A   1      41.611  30.770  34.977  1.00  0.00    -0.354 N 
ATOM     53  N   UNL A   1      39.409  32.086  33.555  1.00  0.00    -0.248 NA
ATOM     54  C   UNL A   1      37.664  33.637  33.508  1.00  0.00     0.031 C 
ATOM     55  C   UNL A   1      42.143  31.500  37.006  1.00  0.00     0.029 A 
ATOM     56  C   UNL A   1      41.267  31.694  35.951  1.00  0.00     0.049 A 
ATOM     57  H   UNL A   1      41.157  30.670  34.109  1.00  0.00     0.167 HD
ATOM     58  C   UNL A   1      39.388  32.787  34.757  1.00  0.00     0.074 A 
ATOM     59  C   UNL A   1      38.309  33.749  34.660  1.00  0.00     0.031 C 
ATOM     60  C   UNL A   1      40.191  32.649  35.841  1.00  0.00     0.037 A 
BRANCH  47  61
ATOM     61  C   UNL A   1      44.419  28.172  35.286  1.00  0.00     0.058 A 
ATOM     62  C   UNL A   1      44.196  27.020  36.058  1.00  0.00     0.135 A 
ATOM     63  C   UNL A   1      45.748  28.579  35.087  1.00  0.00     0.135 A 
ATOM     64  F   UNL A   1      42.945  26.597  36.295  1.00  0.00    -0.206 F 
ATOM     65  C   UNL A   1      45.250  26.313  36.630  1.00  0.00     0.059 A 
ATOM     66  C   UNL A   1      46.819  27.873  35.627  1.00  0.00     0.059 A 
ATOM     67  F   UNL A   1      46.017  29.674  34.359  1.00  0.00    -0.206 F 
ATOM     68  C   UNL A   1      46.558  26.749  36.409  1.00  0.00     0.060 A 
BRANCH  68  69
ATOM     69  S   UNL A   1      47.915  25.818  37.154  1.00  0.00     0.124 S 
ATOM     70  O   UNL A   1      47.619  25.961  38.576  1.00  0.00    -0.237 OA
ATOM     71  O   UNL A   1      47.721  24.483  36.598  1.00  0.00    -0.237 OA
ATOM     72  O   UNL A   1      49.106  26.522  36.686  1.00  0.00    -0.744 OA
ENDBRANCH  68  69
ENDBRANCH  47  61
BRANCH  48  73
ATOM     73  C   UNL A   1      36.864  32.911  30.783  1.00  0.00     0.058 A 
ATOM     74  C   UNL A   1      35.538  32.584  31.099  1.00  0.00     0.135 A 
ATOM     75  C   UNL A   1      37.078  33.914  29.824  1.00  0.00     0.135 A 
ATOM     76  F   UNL A   1      35.281  31.623  32.000  1.00  0.00    -0.206 F 
ATOM     77  C   UNL A   1      34.463  33.215  30.480  1.00  0.00     0.059 A 
ATOM     78  C   UNL A   1      36.022  34.577  29.209  1.00  0.00     0.059 A 
ATOM     79  F   UNL A   1      38.328  34.271  29.491  1.00  0.00    -0.206 F 
ATOM     80  C   UNL A   1      34.716  34.213  29.536  1.00  0.00     0.060 A 
BRANCH  80  81
ATOM     81  S   UNL A   1      33.316  35.058  28.770  1.00  0.00     0.124 S 
ATOM     82  O   UNL A   1      33.988  36.081  27.977  1.00  0.00    -0.237 OA
ATOM     83  O   UNL A   1      32.681  33.980  28.019  1.00  0.00    -0.237 OA
ATOM     84  O   UNL A   1      32.553  35.547  29.916  1.00  0.00    -0.744 OA
ENDBRANCH  80  81
ENDBRANCH  48  73
BRANCH  60  85
ATOM     85  C   UNL A   1      39.957  33.575  37.003  1.00  0.00     0.058 A 
ATOM     86  C   UNL A   1      40.677  34.771  37.150  1.00  0.00     0.135 A 
ATOM     87  C   UNL A   1      38.964  33.287  37.954  1.00  0.00     0.135 A 
ATOM     88  F   UNL A   1      41.640  35.091  36.272  1.00  0.00    -0.206 F 
ATOM     89  C   UNL A   1      40.435  35.639  38.211  1.00  0.00     0.059 A 
ATOM     90  C   UNL A   1      38.687  34.154  39.007  1.00  0.00     0.059 A 
ATOM     91  F   UNL A   1      38.239  32.162  37.855  1.00  0.00    -0.206 F 
ATOM     92  C   UNL A   1      39.436  35.322  39.134  1.00  0.00     0.060 A 
BRANCH  92  93
ATOM     93  S   UNL A   1      39.110  36.473  40.486  1.00  0.00     0.124 S 
ATOM     94  O   UNL A   1      38.137  35.727  41.278  1.00  0.00    -0.237 OA
ATOM     95  O   UNL A   1      40.430  36.631  41.089  1.00  0.00    -0.237 OA
ATOM     96  O   UNL A   1      38.592  37.657  39.808  1.00  0.00    -0.744 OA
ENDBRANCH  92  93
ENDBRANCH  60  85
ENDBRANCH  34  35
ENDBRANCH  27  29
ENDBRANCH  26  27
ENDBRANCH  25  26
ENDBRANCH   1  25
TORSDOF 20
ENDMDL
MODEL 3
REMARK VINA RESULT:      -9.3      4.011     11.977
REMARK SMILES Cc1[nH]c2ccccc2c1[C@H]([NH3+])CC(=O)OCCOCCOC(=O)c1ccc(-c2c3nc(c(-c4c(F)cc(S(=O)(=O)[O-])cc4F)c4ccc([nH]4)c(-c4c(F)cc(S(=O)(=O)[O-])cc4F)c4nc(c(-c5c(F)cc(S(=O)(=O)[O-])cc5F)c5ccc2[nH]5)C=C4)C=C3)cc1
REMARK SMILES IDX 20 1 19 2 18 3 17 4 16 5 14 6 15 7 13 8 11 9 10 10 1 11 2 12
REMARK SMILES IDX 3 13 4 14 9 16 5 17 8 18 6 19 7 20 12 21 21 25 22 26 23 27
REMARK SMILES IDX 24 28 25 29 26 30 90 31 27 32 89 33 28 34 29 35 30 36 83 37
REMARK SMILES IDX 31 38 88 39 82 40 84 41 32 42 87 43 81 44 80 45 33 47 67 48
REMARK SMILES IDX 46 49 66 50 47 51 50 52 65 53 85 54 48 55 49 56 64 58 86 59
REMARK SMILES IDX 51 60 34 61 35 62 44 63 36 64 37 65 43 66 45 67 38 68 39 69
REMARK SMILES IDX 40 70 41 71 42 72 68 73 69 74 78 75 70 76 71 77 77 78 79 79
REMARK SMILES IDX 72 80 73 81 74 82 75 83 76 84 52 85 53 86 62 87 54 88 55 89
REMARK SMILES IDX 61 90 63 91 56 92 57 93 58 94 59 95 60 96
REMARK H PARENT 3 15 12 22 12 23 12 24 84 46 50 57
REMARK Flexibility Score: inf
ROOT
ATOM      1  C   UNL A   1      34.149  34.349  28.055  1.00  0.00     0.202 C 
ENDROOT
BRANCH   1   2
ATOM      2  O   UNL A   1      34.280  35.211  29.183  1.00  0.00    -0.374 OA
BRANCH   2   3
ATOM      3  C   UNL A   1      33.086  35.443  29.935  1.00  0.00     0.202 C 
BRANCH   3   4
ATOM      4  C   UNL A   1      33.286  35.806  31.410  1.00  0.00     0.261 C 
BRANCH   4   5
ATOM      5  O   UNL A   1      34.282  34.968  32.030  1.00  0.00    -0.463 OA
BRANCH   5   6
ATOM      6  C   UNL A   1      33.887  33.755  32.493  1.00  0.00     0.312 C 
ATOM      7  O   UNL A   1      32.930  33.562  33.233  1.00  0.00    -0.252 OA
BRANCH   6   8
ATOM      8  C   UNL A   1      34.777  32.642  31.994  1.00  0.00     0.192 C 
BRANCH   8   9
ATOM      9  C   UNL A   1      35.941  32.329  32.945  1.00  0.00     0.225 C 
BRANCH   9  10
ATOM     10  C   UNL A   1      37.121  33.257  32.729  1.00  0.00     0.038 A 
ATOM     11  C   UNL A   1      37.932  34.153  35.099  1.00  0.00     0.065 C 
ATOM     12  C   UNL A   1      37.924  33.970  33.621  1.00  0.00     0.022 A 
ATOM     13  N   UNL A   1      38.905  34.595  32.884  1.00  0.00    -0.358 N 
ATOM     14  C   UNL A   1      38.748  34.362  31.543  1.00  0.00     0.046 A 
ATOM     15  H   UNL A   1      39.628  35.140  33.271  1.00  0.00     0.166 HD
ATOM     16  C   UNL A   1      37.622  33.559  31.404  1.00  0.00     0.009 A 
ATOM     17  C   UNL A   1      39.513  34.799  30.455  1.00  0.00     0.027 A 
ATOM     18  C   UNL A   1      37.220  33.197  30.099  1.00  0.00     0.011 A 
ATOM     19  C   UNL A   1      39.101  34.415  29.176  1.00  0.00     0.002 A 
ATOM     20  C   UNL A   1      37.965  33.631  28.997  1.00  0.00     0.001 A 
ENDBRANCH   9  10
BRANCH   9  21
ATOM     21  N   UNL A   1      36.349  30.932  32.853  1.00  0.00    -0.351 N 
ATOM     22  H   UNL A   1      35.950  30.410  33.633  1.00  0.00     0.345 HD
ATOM     23  H   UNL A   1      37.366  30.872  32.888  1.00  0.00     0.345 HD
ATOM     24  H   UNL A   1      36.014  30.538  31.974  1.00  0.00     0.345 HD
ENDBRANCH   9  21
ENDBRANCH   8   9
ENDBRANCH   6   8
ENDBRANCH   5   6
ENDBRANCH   4   5
ENDBRANCH   3   4
ENDBRANCH   2   3
ENDBRANCH   1   2
BRANCH   1  25
ATOM     25  C   UNL A   1      34.011  32.853  28.361  1.00  0.00     0.261 C 
BRANCH  25  26
ATOM     26  O   UNL A   1      34.992  32.062  27.668  1.00  0.00    -0.460 OA
BRANCH  26  27
ATOM     27  C   UNL A   1      34.850  30.726  27.814  1.00  0.00     0.338 C 
ATOM     28  O   UNL A   1      33.855  30.057  27.554  1.00  0.00    -0.246 OA
BRANCH  27  29
ATOM     29  C   UNL A   1      36.138  30.109  28.185  1.00  0.00     0.060 A 
ATOM     30  C   UNL A   1      36.217  29.504  29.445  1.00  0.00     0.016 A 
ATOM     31  C   UNL A   1      37.263  30.174  27.359  1.00  0.00     0.016 A 
ATOM     32  C   UNL A   1      37.434  29.011  29.910  1.00  0.00     0.010 A 
ATOM     33  C   UNL A   1      38.488  29.683  27.831  1.00  0.00     0.010 A 
ATOM     34  C   UNL A   1      38.587  29.133  29.122  1.00  0.00    -0.014 A 
BRANCH  34  35
ATOM     35  C   UNL A   1      39.909  28.813  29.717  1.00  0.00     0.031 A 
ATOM     36  C   UNL A   1      40.366  29.573  30.934  1.00  0.00     0.074 A 
ATOM     37  C   UNL A   1      40.671  27.825  29.213  1.00  0.00     0.049 A 
ATOM     38  N   UNL A   1      41.480  29.461  31.611  1.00  0.00    -0.248 NA
ATOM     39  C   UNL A   1      39.444  30.593  31.458  1.00  0.00     0.031 C 
ATOM     40  C   UNL A   1      40.320  26.991  28.064  1.00  0.00     0.029 A 
ATOM     41  N   UNL A   1      41.900  27.356  29.607  1.00  0.00    -0.354 N 
ATOM     42  C   UNL A   1      41.396  30.395  32.637  1.00  0.00     0.074 A 
ATOM     43  C   UNL A   1      40.135  31.088  32.474  1.00  0.00     0.031 C 
ATOM     44  C   UNL A   1      41.316  26.115  27.842  1.00  0.00     0.029 A 
ATOM     45  C   UNL A   1      42.385  26.344  28.812  1.00  0.00     0.049 A 
ATOM     46  H   UNL A   1      42.388  27.710  30.385  1.00  0.00     0.167 HD
ATOM     47  C   UNL A   1      42.281  30.646  33.631  1.00  0.00     0.037 A 
ATOM     48  C   UNL A   1      43.564  25.692  28.852  1.00  0.00     0.037 A 
ATOM     49  C   UNL A   1      43.532  29.952  33.793  1.00  0.00     0.049 A 
ATOM     50  C   UNL A   1      44.564  26.035  29.927  1.00  0.00     0.074 A 
ATOM     51  C   UNL A   1      44.489  30.122  34.779  1.00  0.00     0.029 A 
ATOM     52  N   UNL A   1      44.005  28.960  32.946  1.00  0.00    -0.354 N 
ATOM     53  N   UNL A   1      44.461  26.907  30.903  1.00  0.00    -0.248 NA
ATOM     54  C   UNL A   1      45.839  25.304  29.909  1.00  0.00     0.031 C 
ATOM     55  C   UNL A   1      45.561  29.267  34.501  1.00  0.00     0.029 A 
ATOM     56  C   UNL A   1      45.251  28.528  33.371  1.00  0.00     0.049 A 
ATOM     57  H   UNL A   1      43.525  28.614  32.159  1.00  0.00     0.167 HD
ATOM     58  C   UNL A   1      45.646  26.811  31.626  1.00  0.00     0.074 A 
ATOM     59  C   UNL A   1      46.446  25.788  30.984  1.00  0.00     0.031 C 
ATOM     60  C   UNL A   1      46.035  27.505  32.724  1.00  0.00     0.037 A 
BRANCH  47  61
ATOM     61  C   UNL A   1      41.938  31.733  34.612  1.00  0.00     0.058 A 
ATOM     62  C   UNL A   1      41.286  31.457  35.824  1.00  0.00     0.135 A 
ATOM     63  C   UNL A   1      42.297  33.066  34.350  1.00  0.00     0.135 A 
ATOM     64  F   UNL A   1      40.905  30.204  36.117  1.00  0.00    -0.206 F 
ATOM     65  C   UNL A   1      40.981  32.467  36.732  1.00  0.00     0.059 A 
ATOM     66  C   UNL A   1      42.025  34.088  35.255  1.00  0.00     0.059 A 
ATOM     67  F   UNL A   1      42.920  33.386  33.205  1.00  0.00    -0.206 F 
ATOM     68  C   UNL A   1      41.354  33.779  36.437  1.00  0.00     0.060 A 
BRANCH  68  69
ATOM     69  S   UNL A   1      40.955  35.078  37.627  1.00  0.00     0.124 S 
ATOM     70  O   UNL A   1      40.716  36.217  36.745  1.00  0.00    -0.237 OA
ATOM     71  O   UNL A   1      39.777  34.538  38.297  1.00  0.00    -0.237 OA
ATOM     72  O   UNL A   1      42.157  35.165  38.451  1.00  0.00    -0.744 OA
ENDBRANCH  68  69
ENDBRANCH  47  61
BRANCH  48  73
ATOM     73  C   UNL A   1      43.875  24.656  27.832  1.00  0.00     0.058 A 
ATOM     74  C   UNL A   1      44.545  24.980  26.644  1.00  0.00     0.135 A 
ATOM     75  C   UNL A   1      43.498  23.316  28.025  1.00  0.00     0.135 A 
ATOM     76  F   UNL A   1      44.914  26.248  26.407  1.00  0.00    -0.206 F 
ATOM     77  C   UNL A   1      44.820  24.019  25.676  1.00  0.00     0.059 A 
ATOM     78  C   UNL A   1      43.784  22.333  27.084  1.00  0.00     0.059 A 
ATOM     79  F   UNL A   1      42.862  22.951  29.148  1.00  0.00    -0.206 F 
ATOM     80  C   UNL A   1      44.437  22.696  25.907  1.00  0.00     0.060 A 
BRANCH  80  81
ATOM     81  S   UNL A   1      44.839  21.446  24.666  1.00  0.00     0.124 S 
ATOM     82  O   UNL A   1      46.232  21.156  24.980  1.00  0.00    -0.237 OA
ATOM     83  O   UNL A   1      43.880  20.390  24.974  1.00  0.00    -0.237 OA
ATOM     84  O   UNL A   1      44.607  22.143  23.404  1.00  0.00    -0.744 OA
ENDBRANCH  80  81
ENDBRANCH  48  73
BRANCH  60  85
ATOM     85  C   UNL A   1      47.373  27.167  33.323  1.00  0.00     0.058 A 
ATOM     86  C   UNL A   1      48.545  27.837  32.938  1.00  0.00     0.135 A 
ATOM     87  C   UNL A   1      47.476  26.197  34.333  1.00  0.00     0.135 A 
ATOM     88  F   UNL A   1      48.503  28.771  31.974  1.00  0.00    -0.206 F 
ATOM     89  C   UNL A   1      49.775  27.542  33.517  1.00  0.00     0.059 A 
ATOM     90  C   UNL A   1      48.691  25.904  34.945  1.00  0.00     0.059 A 
ATOM     91  F   UNL A   1      46.385  25.533  34.747  1.00  0.00    -0.206 F 
ATOM     92  C   UNL A   1      49.838  26.574  34.522  1.00  0.00     0.060 A 
BRANCH  92  93
ATOM     93  S   UNL A   1      51.435  26.224  35.290  1.00  0.00     0.124 S 
ATOM     94  O   UNL A   1      51.953  27.570  35.514  1.00  0.00    -0.237 OA
ATOM     95  O   UNL A   1      51.051  25.485  36.489  1.00  0.00    -0.237 OA
ATOM     96  O   UNL A   1      52.135  25.442  34.276  1.00  0.00    -0.744 OA
ENDBRANCH  92  93
ENDBRANCH  60  85
ENDBRANCH  34  35
ENDBRANCH  27  29
ENDBRANCH  26  27
ENDBRANCH  25  26
ENDBRANCH   1  25
TORSDOF 20
ENDMDL
