MODEL 1
REMARK VINA RESULT:     -12.1      0.000      0.000
REMARK SMILES NS(=O)(=O)c1ccc(-c2cc(Cl)cc3c2O[C@@H](C(F)(F)F)C(C(=O)OCCOCCOC(=O)c2ccc(-c4c5nc(c(-c6c(F)cc(S(=O)(=O)[O-])cc6F)c6ccc([nH]6)c(-c6c(F)cc(S(=O)(=O)[O-])cc6F)c6nc(c(-c7c(F)cc(S(=O)(=O)[O-])cc7F)c7ccc4[nH]7)C=C6)C=C5)cc2)=C3)cc1
REMARK SMILES IDX 28 1 27 2 26 3 25 4 23 5 24 6 22 7 9 8 10 9 15 10 11 11
REMARK SMILES IDX 14 12 16 13 12 14 13 15 100 16 17 17 8 18 5 19 6 20 102 21
REMARK SMILES IDX 7 22 101 23 2 24 3 25 4 26 1 27 18 30 19 31 20 32 21 33
REMARK SMILES IDX 29 34 30 35 31 36 32 37 33 38 34 39 35 40 99 41 36 42 98 43
REMARK SMILES IDX 37 44 38 45 39 46 92 47 40 48 97 49 91 50 93 51 41 52 96 53
REMARK SMILES IDX 90 54 89 55 42 57 76 58 55 59 75 60 56 61 59 62 74 63 94 64
REMARK SMILES IDX 57 65 58 66 73 68 95 69 60 70 43 71 44 72 53 73 45 74 46 75
REMARK SMILES IDX 52 76 54 77 47 78 48 79 49 80 50 81 51 82 77 83 78 84 87 85
REMARK SMILES IDX 79 86 80 87 86 88 88 89 81 90 82 91 83 92 84 93 85 94 61 95
REMARK SMILES IDX 62 96 71 97 63 98 64 99 70 100 72 101 65 102 66 103 67 104
REMARK SMILES IDX 68 105 69 106
REMARK H PARENT 1 28 1 29 93 56 59 67
REMARK Flexibility Score: inf
ROOT
ATOM      1  O   UNL A   1      37.715  22.086  24.657  1.00  0.00    -0.374 OA
ENDROOT
BRANCH   1   2
ATOM      2  C   UNL A   1      36.582  22.914  24.883  1.00  0.00     0.202 C 
BRANCH   2   3
ATOM      3  C   UNL A   1      35.730  22.666  26.138  1.00  0.00     0.261 C 
BRANCH   3   4
ATOM      4  O   UNL A   1      34.613  23.563  26.257  1.00  0.00    -0.460 OA
BRANCH   4   5
ATOM      5  C   UNL A   1      33.478  23.021  26.740  1.00  0.00     0.338 C 
ATOM      6  O   UNL A   1      33.361  22.481  27.832  1.00  0.00    -0.246 OA
BRANCH   5   7
ATOM      7  C   UNL A   1      32.300  23.294  25.885  1.00  0.00     0.087 C 
ATOM      8  C   UNL A   1      32.251  26.883  23.787  1.00  0.00     0.026 A 
ATOM      9  C   UNL A   1      33.174  27.705  24.472  1.00  0.00     0.033 A 
ATOM     10  C   UNL A   1      32.024  25.624  24.382  1.00  0.00     0.135 A 
ATOM     11  C   UNL A   1      33.488  27.461  25.810  1.00  0.00     0.042 A 
ATOM     12  C   UNL A   1      32.101  25.516  25.779  1.00  0.00     0.019 A 
ATOM     13  O   UNL A   1      32.303  24.450  23.646  1.00  0.00    -0.475 OA
ATOM     14  Cl  UNL A   1      34.548  28.526  26.642  1.00  0.00    -0.084 Cl
ATOM     15  C   UNL A   1      32.869  26.425  26.495  1.00  0.00     0.032 A 
ATOM     16  C   UNL A   1      31.577  24.292  26.419  1.00  0.00     0.027 C 
ATOM     17  C   UNL A   1      32.173  23.161  24.382  1.00  0.00     0.316 C 
BRANCH   8  18
ATOM     18  C   UNL A   1      31.153  27.687  23.113  1.00  0.00    -0.015 A 
ATOM     19  C   UNL A   1      29.227  29.705  22.510  1.00  0.00     0.082 A 
ATOM     20  C   UNL A   1      30.517  29.789  21.987  1.00  0.00     0.022 A 
ATOM     21  C   UNL A   1      28.865  28.602  23.282  1.00  0.00     0.022 A 
ATOM     22  C   UNL A   1      31.458  28.781  22.272  1.00  0.00     0.010 A 
ATOM     23  C   UNL A   1      29.817  27.602  23.568  1.00  0.00     0.010 A 
BRANCH  19  24
ATOM     24  S   UNL A   1      28.096  31.059  22.314  1.00  0.00     0.238 S 
ATOM     25  O   UNL A   1      27.230  31.138  23.471  1.00  0.00    -0.207 OA
ATOM     26  O   UNL A   1      27.579  31.054  20.968  1.00  0.00    -0.207 OA
BRANCH  24  27
ATOM     27  N   UNL A   1      29.094  32.405  22.419  1.00  0.00    -0.225 NA
ATOM     28  H   UNL A   1      29.740  32.288  23.199  1.00  0.00     0.137 HD
ATOM     29  H   UNL A   1      28.527  33.238  22.569  1.00  0.00     0.137 HD
ENDBRANCH  24  27
ENDBRANCH  19  24
ENDBRANCH   8  18
BRANCH  17  30
ATOM     30  C   UNL A   1      32.875  21.929  23.767  1.00  0.00     0.430 C 
ATOM     31  F   UNL A   1      33.186  21.056  24.765  1.00  0.00    -0.167 F 
ATOM     32  F   UNL A   1      32.063  21.260  22.917  1.00  0.00    -0.167 F 
ATOM     33  F   UNL A   1      34.017  22.189  23.108  1.00  0.00    -0.167 F 
ENDBRANCH  17  30
ENDBRANCH   5   7
ENDBRANCH   4   5
ENDBRANCH   3   4
ENDBRANCH   2   3
ENDBRANCH   1   2
BRANCH   1  34
ATOM     34  C   UNL A   1      38.330  21.461  25.781  1.00  0.00     0.202 C 
BRANCH  34  35
ATOM     35  C   UNL A   1      39.756  21.868  26.162  1.00  0.00     0.261 C 
BRANCH  35  36
ATOM     36  O   UNL A   1      39.814  23.037  26.992  1.00  0.00    -0.460 OA
BRANCH  36  37
ATOM     37  C   UNL A   1      40.944  23.775  26.854  1.00  0.00     0.338 C 
ATOM     38  O   UNL A   1      41.912  23.527  26.158  1.00  0.00    -0.246 OA
BRANCH  37  39
ATOM     39  C   UNL A   1      40.779  25.047  27.572  1.00  0.00     0.060 A 
ATOM     40  C   UNL A   1      41.821  25.983  27.531  1.00  0.00     0.016 A 
ATOM     41  C   UNL A   1      39.647  25.264  28.358  1.00  0.00     0.016 A 
ATOM     42  C   UNL A   1      41.747  27.136  28.310  1.00  0.00     0.010 A 
ATOM     43  C   UNL A   1      39.582  26.412  29.144  1.00  0.00     0.010 A 
ATOM     44  C   UNL A   1      40.644  27.335  29.150  1.00  0.00    -0.014 A 
BRANCH  44  45
ATOM     45  C   UNL A   1      40.650  28.408  30.169  1.00  0.00     0.031 A 
ATOM     46  C   UNL A   1      41.627  28.302  31.307  1.00  0.00     0.074 A 
ATOM     47  C   UNL A   1      39.773  29.425  30.107  1.00  0.00     0.049 A 
ATOM     48  N   UNL A   1      41.697  28.999  32.409  1.00  0.00    -0.248 NA
ATOM     49  C   UNL A   1      42.658  27.256  31.188  1.00  0.00     0.031 C 
ATOM     50  C   UNL A   1      38.819  29.654  29.023  1.00  0.00     0.029 A 
ATOM     51  N   UNL A   1      39.527  30.441  30.994  1.00  0.00    -0.354 N 
ATOM     52  C   UNL A   1      42.764  28.467  33.125  1.00  0.00     0.074 A 
ATOM     53  C   UNL A   1      43.293  27.370  32.345  1.00  0.00     0.031 C 
ATOM     54  C   UNL A   1      38.071  30.730  29.321  1.00  0.00     0.029 A 
ATOM     55  C   UNL A   1      38.461  31.233  30.637  1.00  0.00     0.049 A 
ATOM     56  H   UNL A   1      40.060  30.589  31.808  1.00  0.00     0.167 HD
ATOM     57  C   UNL A   1      43.257  28.864  34.321  1.00  0.00     0.037 A 
ATOM     58  C   UNL A   1      37.850  32.224  31.317  1.00  0.00     0.037 A 
ATOM     59  C   UNL A   1      42.714  29.958  35.083  1.00  0.00     0.049 A 
ATOM     60  C   UNL A   1      38.363  32.595  32.687  1.00  0.00     0.074 A 
ATOM     61  C   UNL A   1      43.129  30.443  36.309  1.00  0.00     0.029 A 
ATOM     62  N   UNL A   1      41.634  30.736  34.688  1.00  0.00    -0.354 N 
ATOM     63  N   UNL A   1      39.366  32.082  33.360  1.00  0.00    -0.248 NA
ATOM     64  C   UNL A   1      37.662  33.677  33.392  1.00  0.00     0.031 C 
ATOM     65  C   UNL A   1      42.272  31.483  36.680  1.00  0.00     0.029 A 
ATOM     66  C   UNL A   1      41.362  31.689  35.653  1.00  0.00     0.049 A 
ATOM     67  H   UNL A   1      41.135  30.626  33.847  1.00  0.00     0.167 HD
ATOM     68  C   UNL A   1      39.447  32.813  34.541  1.00  0.00     0.074 A 
ATOM     69  C   UNL A   1      38.388  33.799  34.495  1.00  0.00     0.031 C 
ATOM     70  C   UNL A   1      40.324  32.687  35.568  1.00  0.00     0.037 A 
BRANCH  57  71
ATOM     71  C   UNL A   1      44.423  28.102  34.886  1.00  0.00     0.058 A 
ATOM     72  C   UNL A   1      45.748  28.413  34.541  1.00  0.00     0.135 A 
ATOM     73  C   UNL A   1      44.217  27.071  35.818  1.00  0.00     0.135 A 
ATOM     74  F   UNL A   1      46.003  29.375  33.639  1.00  0.00    -0.206 F 
ATOM     75  C   UNL A   1      46.824  27.716  35.079  1.00  0.00     0.059 A 
ATOM     76  C   UNL A   1      45.279  26.381  36.394  1.00  0.00     0.059 A 
ATOM     77  F   UNL A   1      42.971  26.727  36.182  1.00  0.00    -0.206 F 
ATOM     78  C   UNL A   1      46.580  26.703  36.008  1.00  0.00     0.060 A 
BRANCH  78  79
ATOM     79  S   UNL A   1      47.989  25.820  36.709  1.00  0.00     0.124 S 
ATOM     80  O   UNL A   1      48.415  25.004  35.575  1.00  0.00    -0.237 OA
ATOM     81  O   UNL A   1      48.887  26.910  37.076  1.00  0.00    -0.237 OA
ATOM     82  O   UNL A   1      47.409  25.084  37.827  1.00  0.00    -0.744 OA
ENDBRANCH  78  79
ENDBRANCH  57  71
BRANCH  58  83
ATOM     83  C   UNL A   1      36.681  32.930  30.726  1.00  0.00     0.058 A 
ATOM     84  C   UNL A   1      36.848  33.838  29.669  1.00  0.00     0.135 A 
ATOM     85  C   UNL A   1      35.380  32.730  31.214  1.00  0.00     0.135 A 
ATOM     86  F   UNL A   1      38.073  34.071  29.172  1.00  0.00    -0.206 F 
ATOM     87  C   UNL A   1      35.773  34.541  29.133  1.00  0.00     0.059 A 
ATOM     88  C   UNL A   1      34.284  33.399  30.674  1.00  0.00     0.059 A 
ATOM     89  F   UNL A   1      35.162  31.864  32.215  1.00  0.00    -0.206 F 
ATOM     90  C   UNL A   1      34.494  34.315  29.644  1.00  0.00     0.060 A 
BRANCH  90  91
ATOM     91  S   UNL A   1      33.105  35.217  28.926  1.00  0.00     0.124 S 
ATOM     92  O   UNL A   1      33.762  36.419  28.427  1.00  0.00    -0.237 OA
ATOM     93  O   UNL A   1      32.626  34.284  27.912  1.00  0.00    -0.237 OA
ATOM     94  O   UNL A   1      32.208  35.413  30.062  1.00  0.00    -0.744 OA
ENDBRANCH  90  91
ENDBRANCH  58  83
BRANCH  70  95
ATOM     95  C   UNL A   1      40.242  33.686  36.691  1.00  0.00     0.058 A 
ATOM     96  C   UNL A   1      40.925  34.909  36.655  1.00  0.00     0.135 A 
ATOM     97  C   UNL A   1      39.385  33.444  37.779  1.00  0.00     0.135 A 
ATOM     98  F   UNL A   1      41.762  35.188  35.642  1.00  0.00    -0.206 F 
ATOM     99  C   UNL A   1      40.770  35.856  37.663  1.00  0.00     0.059 A 
ATOM    100  C   UNL A   1      39.191  34.388  38.781  1.00  0.00     0.059 A 
ATOM    101  F   UNL A   1      38.700  32.292  37.857  1.00  0.00    -0.206 F 
ATOM    102  C   UNL A   1      39.893  35.590  38.717  1.00  0.00     0.060 A 
BRANCH 102 103
ATOM    103  S   UNL A   1      39.650  36.856  39.981  1.00  0.00     0.124 S 
ATOM    104  O   UNL A   1      41.025  37.181  40.341  1.00  0.00    -0.237 OA
ATOM    105  O   UNL A   1      38.924  37.890  39.250  1.00  0.00    -0.237 OA
ATOM    106  O   UNL A   1      38.878  36.166  41.011  1.00  0.00    -0.744 OA
ENDBRANCH 102 103
ENDBRANCH  70  95
ENDBRANCH  44  45
ENDBRANCH  37  39
ENDBRANCH  36  37
ENDBRANCH  35  36
ENDBRANCH  34  35
ENDBRANCH   1  34
TORSDOF 21
ENDMDL
MODEL 2
REMARK VINA RESULT:     -11.3      5.666      9.732
REMARK SMILES NS(=O)(=O)c1ccc(-c2cc(Cl)cc3c2O[C@@H](C(F)(F)F)C(C(=O)OCCOCCOC(=O)c2ccc(-c4c5nc(c(-c6c(F)cc(S(=O)(=O)[O-])cc6F)c6ccc([nH]6)c(-c6c(F)cc(S(=O)(=O)[O-])cc6F)c6nc(c(-c7c(F)cc(S(=O)(=O)[O-])cc7F)c7ccc4[nH]7)C=C6)C=C5)cc2)=C3)cc1
REMARK SMILES IDX 28 1 27 2 26 3 25 4 23 5 24 6 22 7 9 8 10 9 15 10 11 11
REMARK SMILES IDX 14 12 16 13 12 14 13 15 100 16 17 17 8 18 5 19 6 20 102 21
REMARK SMILES IDX 7 22 101 23 2 24 3 25 4 26 1 27 18 30 19 31 20 32 21 33
REMARK SMILES IDX 29 34 30 35 31 36 32 37 33 38 34 39 35 40 99 41 36 42 98 43
REMARK SMILES IDX 37 44 38 45 39 46 92 47 40 48 97 49 91 50 93 51 41 52 96 53
REMARK SMILES IDX 90 54 89 55 42 57 76 58 55 59 75 60 56 61 59 62 74 63 94 64
REMARK SMILES IDX 57 65 58 66 73 68 95 69 60 70 43 71 44 72 53 73 45 74 46 75
REMARK SMILES IDX 52 76 54 77 47 78 48 79 49 80 50 81 51 82 77 83 78 84 87 85
REMARK SMILES IDX 79 86 80 87 86 88 88 89 81 90 82 91 83 92 84 93 85 94 61 95
REMARK SMILES IDX 62 96 71 97 63 98 64 99 70 100 72 101 65 102 66 103 67 104
REMARK SMILES IDX 68 105 69 106
REMARK H PARENT 1 28 1 29 93 56 59 67
REMARK Flexibility Score: inf
ROOT
ATOM      1  O   UNL A   1      38.357  22.140  25.805  1.00  0.00    -0.374 OA
ENDROOT
BRANCH   1   2
ATOM      2  C   UNL A   1      37.195  22.948  25.672  1.00  0.00     0.202 C 
BRANCH   2   3
ATOM      3  C   UNL A   1      35.852  22.388  26.165  1.00  0.00     0.261 C 
BRANCH   3   4
ATOM      4  O   UNL A   1      34.786  23.353  26.140  1.00  0.00    -0.460 OA
BRANCH   4   5
ATOM      5  C   UNL A   1      33.616  22.944  26.668  1.00  0.00     0.338 C 
ATOM      6  O   UNL A   1      33.461  22.530  27.810  1.00  0.00    -0.246 OA
BRANCH   5   7
ATOM      7  C   UNL A   1      32.460  23.206  25.780  1.00  0.00     0.087 C 
ATOM      8  C   UNL A   1      32.370  26.853  23.785  1.00  0.00     0.026 A 
ATOM      9  C   UNL A   1      33.243  27.682  24.526  1.00  0.00     0.033 A 
ATOM     10  C   UNL A   1      32.163  25.570  24.336  1.00  0.00     0.135 A 
ATOM     11  C   UNL A   1      33.518  27.408  25.867  1.00  0.00     0.042 A 
ATOM     12  C   UNL A   1      32.195  25.424  25.731  1.00  0.00     0.019 A 
ATOM     13  O   UNL A   1      32.504  24.428  23.576  1.00  0.00    -0.475 OA
ATOM     14  Cl  UNL A   1      34.515  28.479  26.766  1.00  0.00    -0.084 Cl
ATOM     15  C   UNL A   1      32.909  26.333  26.499  1.00  0.00     0.032 A 
ATOM     16  C   UNL A   1      31.688  24.165  26.316  1.00  0.00     0.027 C 
ATOM     17  C   UNL A   1      32.389  23.114  24.270  1.00  0.00     0.316 C 
BRANCH   8  18
ATOM     18  C   UNL A   1      31.272  27.643  23.097  1.00  0.00    -0.015 A 
ATOM     19  C   UNL A   1      29.310  29.622  22.481  1.00  0.00     0.082 A 
ATOM     20  C   UNL A   1      30.612  29.753  22.000  1.00  0.00     0.022 A 
ATOM     21  C   UNL A   1      28.955  28.491  23.216  1.00  0.00     0.022 A 
ATOM     22  C   UNL A   1      31.571  28.765  22.291  1.00  0.00     0.010 A 
ATOM     23  C   UNL A   1      29.925  27.511  23.508  1.00  0.00     0.010 A 
BRANCH  19  24
ATOM     24  S   UNL A   1      28.148  30.949  22.281  1.00  0.00     0.238 S 
ATOM     25  O   UNL A   1      27.262  30.994  23.425  1.00  0.00    -0.207 OA
ATOM     26  O   UNL A   1      27.653  30.946  20.927  1.00  0.00    -0.207 OA
BRANCH  24  27
ATOM     27  N   UNL A   1      29.110  32.319  22.416  1.00  0.00    -0.225 NA
ATOM     28  H   UNL A   1      29.579  32.316  23.322  1.00  0.00     0.137 HD
ATOM     29  H   UNL A   1      28.529  33.152  22.337  1.00  0.00     0.137 HD
ENDBRANCH  24  27
ENDBRANCH  19  24
ENDBRANCH   8  18
BRANCH  17  30
ATOM     30  C   UNL A   1      33.150  21.923  23.645  1.00  0.00     0.430 C 
ATOM     31  F   UNL A   1      32.480  21.506  22.535  1.00  0.00    -0.167 F 
ATOM     32  F   UNL A   1      34.387  22.280  23.230  1.00  0.00    -0.167 F 
ATOM     33  F   UNL A   1      33.289  20.849  24.441  1.00  0.00    -0.167 F 
ENDBRANCH  17  30
ENDBRANCH   5   7
ENDBRANCH   4   5
ENDBRANCH   3   4
ENDBRANCH   2   3
ENDBRANCH   1   2
BRANCH   1  34
ATOM     34  C   UNL A   1      38.301  20.794  25.339  1.00  0.00     0.202 C 
BRANCH  34  35
ATOM     35  C   UNL A   1      39.411  19.823  25.753  1.00  0.00     0.261 C 
BRANCH  35  36
ATOM     36  O   UNL A   1      40.731  20.357  25.579  1.00  0.00    -0.460 OA
BRANCH  36  37
ATOM     37  C   UNL A   1      41.511  20.313  26.688  1.00  0.00     0.338 C 
ATOM     38  O   UNL A   1      41.975  19.325  27.230  1.00  0.00    -0.246 OA
BRANCH  37  39
ATOM     39  C   UNL A   1      41.864  21.683  27.084  1.00  0.00     0.060 A 
ATOM     40  C   UNL A   1      41.736  22.711  26.140  1.00  0.00     0.016 A 
ATOM     41  C   UNL A   1      42.411  21.927  28.343  1.00  0.00     0.016 A 
ATOM     42  C   UNL A   1      42.191  23.992  26.445  1.00  0.00     0.010 A 
ATOM     43  C   UNL A   1      42.874  23.207  28.641  1.00  0.00     0.010 A 
ATOM     44  C   UNL A   1      42.797  24.235  27.684  1.00  0.00    -0.014 A 
BRANCH  44  45
ATOM     45  C   UNL A   1      43.513  25.505  27.943  1.00  0.00     0.031 A 
ATOM     46  C   UNL A   1      42.717  26.684  28.428  1.00  0.00     0.074 A 
ATOM     47  C   UNL A   1      44.831  25.615  27.704  1.00  0.00     0.049 A 
ATOM     48  N   UNL A   1      43.070  27.935  28.541  1.00  0.00    -0.248 NA
ATOM     49  C   UNL A   1      41.325  26.412  28.828  1.00  0.00     0.031 C 
ATOM     50  C   UNL A   1      45.710  24.525  27.283  1.00  0.00     0.029 A 
ATOM     51  N   UNL A   1      45.655  26.711  27.757  1.00  0.00    -0.354 N 
ATOM     52  C   UNL A   1      41.944  28.605  29.005  1.00  0.00     0.074 A 
ATOM     53  C   UNL A   1      40.887  27.626  29.125  1.00  0.00     0.031 C 
ATOM     54  C   UNL A   1      46.947  25.012  27.090  1.00  0.00     0.029 A 
ATOM     55  C   UNL A   1      46.935  26.455  27.327  1.00  0.00     0.049 A 
ATOM     56  H   UNL A   1      45.358  27.595  28.071  1.00  0.00     0.167 HD
ATOM     57  C   UNL A   1      41.811  29.918  29.308  1.00  0.00     0.037 A 
ATOM     58  C   UNL A   1      47.964  27.299  27.113  1.00  0.00     0.037 A 
ATOM     59  C   UNL A   1      42.875  30.877  29.180  1.00  0.00     0.049 A 
ATOM     60  C   UNL A   1      47.768  28.772  27.376  1.00  0.00     0.074 A 
ATOM     61  C   UNL A   1      42.851  32.233  29.452  1.00  0.00     0.029 A 
ATOM     62  N   UNL A   1      44.158  30.580  28.741  1.00  0.00    -0.354 N 
ATOM     63  N   UNL A   1      46.698  29.399  27.807  1.00  0.00    -0.248 NA
ATOM     64  C   UNL A   1      48.916  29.654  27.124  1.00  0.00     0.031 C 
ATOM     65  C   UNL A   1      44.103  32.765  29.132  1.00  0.00     0.029 A 
ATOM     66  C   UNL A   1      44.929  31.728  28.723  1.00  0.00     0.049 A 
ATOM     67  H   UNL A   1      44.473  29.684  28.480  1.00  0.00     0.167 HD
ATOM     68  C   UNL A   1      47.062  30.737  27.926  1.00  0.00     0.074 A 
ATOM     69  C   UNL A   1      48.447  30.831  27.515  1.00  0.00     0.031 C 
ATOM     70  C   UNL A   1      46.320  31.792  28.345  1.00  0.00     0.037 A 
BRANCH  57  71
ATOM     71  C   UNL A   1      40.466  30.394  29.785  1.00  0.00     0.058 A 
ATOM     72  C   UNL A   1      39.348  30.424  28.936  1.00  0.00     0.135 A 
ATOM     73  C   UNL A   1      40.282  30.789  31.121  1.00  0.00     0.135 A 
ATOM     74  F   UNL A   1      39.471  30.077  27.644  1.00  0.00    -0.206 F 
ATOM     75  C   UNL A   1      38.103  30.849  29.386  1.00  0.00     0.059 A 
ATOM     76  C   UNL A   1      39.039  31.189  31.601  1.00  0.00     0.059 A 
ATOM     77  F   UNL A   1      41.317  30.785  31.976  1.00  0.00    -0.206 F 
ATOM     78  C   UNL A   1      37.957  31.227  30.721  1.00  0.00     0.060 A 
BRANCH  78  79
ATOM     79  S   UNL A   1      36.330  31.762  31.292  1.00  0.00     0.124 S 
ATOM     80  O   UNL A   1      36.204  31.024  32.545  1.00  0.00    -0.237 OA
ATOM     81  O   UNL A   1      36.505  33.205  31.421  1.00  0.00    -0.237 OA
ATOM     82  O   UNL A   1      35.436  31.334  30.221  1.00  0.00    -0.744 OA
ENDBRANCH  78  79
ENDBRANCH  57  71
BRANCH  58  83
ATOM     83  C   UNL A   1      49.268  26.783  26.614  1.00  0.00     0.058 A 
ATOM     84  C   UNL A   1      49.597  26.858  25.253  1.00  0.00     0.135 A 
ATOM     85  C   UNL A   1      50.201  26.190  27.478  1.00  0.00     0.135 A 
ATOM     86  F   UNL A   1      48.736  27.409  24.383  1.00  0.00    -0.206 F 
ATOM     87  C   UNL A   1      50.792  26.340  24.760  1.00  0.00     0.059 A 
ATOM     88  C   UNL A   1      51.416  25.692  27.015  1.00  0.00     0.059 A 
ATOM     89  F   UNL A   1      49.943  26.104  28.792  1.00  0.00    -0.206 F 
ATOM     90  C   UNL A   1      51.695  25.758  25.651  1.00  0.00     0.060 A 
BRANCH  90  91
ATOM     91  S   UNL A   1      53.250  25.110  25.003  1.00  0.00     0.124 S 
ATOM     92  O   UNL A   1      54.228  25.908  25.732  1.00  0.00    -0.237 OA
ATOM     93  O   UNL A   1      53.171  23.701  25.375  1.00  0.00    -0.237 OA
ATOM     94  O   UNL A   1      53.156  25.378  23.571  1.00  0.00    -0.744 OA
ENDBRANCH  90  91
ENDBRANCH  58  83
BRANCH  70  95
ATOM     95  C   UNL A   1      47.002  33.128  28.469  1.00  0.00     0.058 A 
ATOM     96  C   UNL A   1      47.056  34.040  27.406  1.00  0.00     0.135 A 
ATOM     97  C   UNL A   1      47.527  33.532  29.709  1.00  0.00     0.135 A 
ATOM     98  F   UNL A   1      46.576  33.702  26.199  1.00  0.00    -0.206 F 
ATOM     99  C   UNL A   1      47.616  35.305  27.564  1.00  0.00     0.059 A 
ATOM    100  C   UNL A   1      48.063  34.801  29.897  1.00  0.00     0.059 A 
ATOM    101  F   UNL A   1      47.491  32.699  30.762  1.00  0.00    -0.206 F 
ATOM    102  C   UNL A   1      48.108  35.678  28.817  1.00  0.00     0.060 A 
BRANCH 102 103
ATOM    103  S   UNL A   1      48.768  37.346  29.024  1.00  0.00     0.124 S 
ATOM    104  O   UNL A   1      48.968  37.758  27.639  1.00  0.00    -0.237 OA
ATOM    105  O   UNL A   1      47.688  38.021  29.737  1.00  0.00    -0.237 OA
ATOM    106  O   UNL A   1      49.988  37.137  29.798  1.00  0.00    -0.744 OA
ENDBRANCH 102 103
ENDBRANCH  70  95
ENDBRANCH  44  45
ENDBRANCH  37  39
ENDBRANCH  36  37
ENDBRANCH  35  36
ENDBRANCH  34  35
ENDBRANCH   1  34
TORSDOF 21
ENDMDL
MODEL 3
REMARK VINA RESULT:     -11.1      6.468     13.442
REMARK SMILES NS(=O)(=O)c1ccc(-c2cc(Cl)cc3c2O[C@@H](C(F)(F)F)C(C(=O)OCCOCCOC(=O)c2ccc(-c4c5nc(c(-c6c(F)cc(S(=O)(=O)[O-])cc6F)c6ccc([nH]6)c(-c6c(F)cc(S(=O)(=O)[O-])cc6F)c6nc(c(-c7c(F)cc(S(=O)(=O)[O-])cc7F)c7ccc4[nH]7)C=C6)C=C5)cc2)=C3)cc1
REMARK SMILES IDX 28 1 27 2 26 3 25 4 23 5 24 6 22 7 9 8 10 9 15 10 11 11
REMARK SMILES IDX 14 12 16 13 12 14 13 15 100 16 17 17 8 18 5 19 6 20 102 21
REMARK SMILES IDX 7 22 101 23 2 24 3 25 4 26 1 27 18 30 19 31 20 32 21 33
REMARK SMILES IDX 29 34 30 35 31 36 32 37 33 38 34 39 35 40 99 41 36 42 98 43
REMARK SMILES IDX 37 44 38 45 39 46 92 47 40 48 97 49 91 50 93 51 41 52 96 53
REMARK SMILES IDX 90 54 89 55 42 57 76 58 55 59 75 60 56 61 59 62 74 63 94 64
REMARK SMILES IDX 57 65 58 66 73 68 95 69 60 70 43 71 44 72 53 73 45 74 46 75
REMARK SMILES IDX 52 76 54 77 47 78 48 79 49 80 50 81 51 82 77 83 78 84 87 85
REMARK SMILES IDX 79 86 80 87 86 88 88 89 81 90 82 91 83 92 84 93 85 94 61 95
REMARK SMILES IDX 62 96 71 97 63 98 64 99 70 100 72 101 65 102 66 103 67 104
REMARK SMILES IDX 68 105 69 106
REMARK H PARENT 1 28 1 29 93 56 59 67
REMARK Flexibility Score: inf
ROOT
ATOM      1  O   UNL A   1      35.186  33.947  30.744  1.00  0.00    -0.374 OA
ENDROOT
BRANCH   1   2
ATOM      2  C   UNL A   1      34.479  34.856  31.576  1.00  0.00     0.202 C 
BRANCH   2   3
ATOM      3  C   UNL A   1      34.447  34.593  33.090  1.00  0.00     0.261 C 
BRANCH   3   4
ATOM      4  O   UNL A   1      35.274  33.489  33.496  1.00  0.00    -0.460 OA
BRANCH   4   5
ATOM      5  C   UNL A   1      36.503  33.813  33.941  1.00  0.00     0.338 C 
ATOM      6  O   UNL A   1      36.917  34.953  34.109  1.00  0.00    -0.246 OA
BRANCH   5   7
ATOM      7  C   UNL A   1      37.281  32.636  34.391  1.00  0.00     0.087 C 
ATOM      8  C   UNL A   1      41.243  32.381  33.155  1.00  0.00     0.026 A 
ATOM      9  C   UNL A   1      41.316  33.230  32.028  1.00  0.00     0.033 A 
ATOM     10  C   UNL A   1      39.950  32.230  33.699  1.00  0.00     0.135 A 
ATOM     11  C   UNL A   1      40.172  33.533  31.289  1.00  0.00     0.042 A 
ATOM     12  C   UNL A   1      38.846  32.285  32.835  1.00  0.00     0.019 A 
ATOM     13  O   UNL A   1      39.716  32.604  35.042  1.00  0.00    -0.475 OA
ATOM     14  Cl  UNL A   1      40.305  34.500  29.875  1.00  0.00    -0.084 Cl
ATOM     15  C   UNL A   1      38.950  32.973  31.634  1.00  0.00     0.032 A 
ATOM     16  C   UNL A   1      37.533  31.834  33.343  1.00  0.00     0.027 C 
ATOM     17  C   UNL A   1      38.301  32.549  35.507  1.00  0.00     0.316 C 
BRANCH   8  18
ATOM     18  C   UNL A   1      42.247  31.244  33.086  1.00  0.00    -0.015 A 
ATOM     19  C   UNL A   1      43.763  28.992  32.204  1.00  0.00     0.082 A 
ATOM     20  C   UNL A   1      44.218  30.286  31.952  1.00  0.00     0.022 A 
ATOM     21  C   UNL A   1      42.594  28.803  32.940  1.00  0.00     0.022 A 
ATOM     22  C   UNL A   1      43.477  31.393  32.405  1.00  0.00     0.010 A 
ATOM     23  C   UNL A   1      41.854  29.918  33.383  1.00  0.00     0.010 A 
BRANCH  19  24
ATOM     24  S   UNL A   1      44.588  27.599  31.477  1.00  0.00     0.238 S 
ATOM     25  O   UNL A   1      45.099  27.965  30.173  1.00  0.00    -0.207 OA
ATOM     26  O   UNL A   1      43.793  26.415  31.685  1.00  0.00    -0.207 OA
BRANCH  24  27
ATOM     27  N   UNL A   1      45.948  27.416  32.446  1.00  0.00    -0.225 NA
ATOM     28  H   UNL A   1      45.701  26.885  33.281  1.00  0.00     0.137 HD
ATOM     29  H   UNL A   1      46.297  28.334  32.718  1.00  0.00     0.137 HD
ENDBRANCH  24  27
ENDBRANCH  19  24
ENDBRANCH   8  18
BRANCH  17  30
ATOM     30  C   UNL A   1      37.952  33.347  36.783  1.00  0.00     0.430 C 
ATOM     31  F   UNL A   1      38.513  34.585  36.695  1.00  0.00    -0.167 F 
ATOM     32  F   UNL A   1      36.619  33.543  36.904  1.00  0.00    -0.167 F 
ATOM     33  F   UNL A   1      38.383  32.806  37.936  1.00  0.00    -0.167 F 
ENDBRANCH  17  30
ENDBRANCH   5   7
ENDBRANCH   4   5
ENDBRANCH   3   4
ENDBRANCH   2   3
ENDBRANCH   1   2
BRANCH   1  34
ATOM     34  C   UNL A   1      34.433  33.055  29.925  1.00  0.00     0.202 C 
BRANCH  34  35
ATOM     35  C   UNL A   1      35.095  31.760  29.443  1.00  0.00     0.261 C 
BRANCH  35  36
ATOM     36  O   UNL A   1      36.422  31.572  29.954  1.00  0.00    -0.460 OA
BRANCH  36  37
ATOM     37  C   UNL A   1      36.639  30.368  30.539  1.00  0.00     0.338 C 
ATOM     38  O   UNL A   1      35.902  29.771  31.305  1.00  0.00    -0.246 OA
BRANCH  37  39
ATOM     39  C   UNL A   1      37.868  29.779  29.989  1.00  0.00     0.060 A 
ATOM     40  C   UNL A   1      38.850  29.318  30.876  1.00  0.00     0.016 A 
ATOM     41  C   UNL A   1      38.085  29.779  28.611  1.00  0.00     0.016 A 
ATOM     42  C   UNL A   1      40.078  28.881  30.383  1.00  0.00     0.010 A 
ATOM     43  C   UNL A   1      39.318  29.350  28.123  1.00  0.00     0.010 A 
ATOM     44  C   UNL A   1      40.330  28.933  29.006  1.00  0.00    -0.014 A 
BRANCH  44  45
ATOM     45  C   UNL A   1      41.695  28.720  28.476  1.00  0.00     0.031 A 
ATOM     46  C   UNL A   1      42.086  27.330  28.056  1.00  0.00     0.074 A 
ATOM     47  C   UNL A   1      42.579  29.731  28.417  1.00  0.00     0.049 A 
ATOM     48  N   UNL A   1      43.262  26.857  27.746  1.00  0.00    -0.248 NA
ATOM     49  C   UNL A   1      40.999  26.338  27.990  1.00  0.00     0.031 C 
ATOM     50  C   UNL A   1      42.292  31.127  28.749  1.00  0.00     0.029 A 
ATOM     51  N   UNL A   1      43.908  29.731  28.081  1.00  0.00    -0.354 N 
ATOM     52  C   UNL A   1      43.064  25.509  27.467  1.00  0.00     0.074 A 
ATOM     53  C   UNL A   1      41.660  25.234  27.673  1.00  0.00     0.031 C 
ATOM     54  C   UNL A   1      43.421  31.844  28.625  1.00  0.00     0.029 A 
ATOM     55  C   UNL A   1      44.517  30.952  28.253  1.00  0.00     0.049 A 
ATOM     56  H   UNL A   1      44.382  28.934  27.751  1.00  0.00     0.167 HD
ATOM     57  C   UNL A   1      43.975  24.589  27.070  1.00  0.00     0.037 A 
ATOM     58  C   UNL A   1      45.818  31.294  28.158  1.00  0.00     0.037 A 
ATOM     59  C   UNL A   1      45.370  24.882  26.873  1.00  0.00     0.049 A 
ATOM     60  C   UNL A   1      46.829  30.234  27.797  1.00  0.00     0.074 A 
ATOM     61  C   UNL A   1      46.382  24.027  26.478  1.00  0.00     0.029 A 
ATOM     62  N   UNL A   1      45.948  26.130  27.057  1.00  0.00    -0.354 N 
ATOM     63  N   UNL A   1      46.635  28.960  27.543  1.00  0.00    -0.248 NA
ATOM     64  C   UNL A   1      48.234  30.653  27.711  1.00  0.00     0.031 C 
ATOM     65  C   UNL A   1      47.582  24.745  26.471  1.00  0.00     0.029 A 
ATOM     66  C   UNL A   1      47.305  26.064  26.796  1.00  0.00     0.049 A 
ATOM     67  H   UNL A   1      45.465  26.942  27.333  1.00  0.00     0.167 HD
ATOM     68  C   UNL A   1      47.884  28.442  27.217  1.00  0.00     0.074 A 
ATOM     69  C   UNL A   1      48.828  29.536  27.313  1.00  0.00     0.031 C 
ATOM     70  C   UNL A   1      48.221  27.177  26.861  1.00  0.00     0.037 A 
BRANCH  57  71
ATOM     71  C   UNL A   1      43.496  23.181  26.845  1.00  0.00     0.058 A 
ATOM     72  C   UNL A   1      43.332  22.653  25.554  1.00  0.00     0.135 A 
ATOM     73  C   UNL A   1      43.235  22.334  27.934  1.00  0.00     0.135 A 
ATOM     74  F   UNL A   1      43.548  23.424  24.476  1.00  0.00    -0.206 F 
ATOM     75  C   UNL A   1      42.905  21.346  25.351  1.00  0.00     0.059 A 
ATOM     76  C   UNL A   1      42.836  21.013  27.755  1.00  0.00     0.059 A 
ATOM     77  F   UNL A   1      43.369  22.787  29.191  1.00  0.00    -0.206 F 
ATOM     78  C   UNL A   1      42.662  20.531  26.458  1.00  0.00     0.060 A 
BRANCH  78  79
ATOM     79  S   UNL A   1      42.124  18.832  26.176  1.00  0.00     0.124 S 
ATOM     80  O   UNL A   1      42.312  18.243  27.498  1.00  0.00    -0.237 OA
ATOM     81  O   UNL A   1      40.739  19.011  25.754  1.00  0.00    -0.237 OA
ATOM     82  O   UNL A   1      43.035  18.353  25.142  1.00  0.00    -0.744 OA
ENDBRANCH  78  79
ENDBRANCH  57  71
BRANCH  58  83
ATOM     83  C   UNL A   1      46.246  32.696  28.418  1.00  0.00     0.058 A 
ATOM     84  C   UNL A   1      46.657  33.096  29.698  1.00  0.00     0.135 A 
ATOM     85  C   UNL A   1      46.237  33.666  27.403  1.00  0.00     0.135 A 
ATOM     86  F   UNL A   1      46.676  32.209  30.705  1.00  0.00    -0.206 F 
ATOM     87  C   UNL A   1      47.018  34.413  29.971  1.00  0.00     0.059 A 
ATOM     88  C   UNL A   1      46.622  34.982  27.644  1.00  0.00     0.059 A 
ATOM     89  F   UNL A   1      45.865  33.333  26.158  1.00  0.00    -0.206 F 
ATOM     90  C   UNL A   1      46.997  35.349  28.936  1.00  0.00     0.060 A 
BRANCH  90  91
ATOM     91  S   UNL A   1      47.487  37.048  29.297  1.00  0.00     0.124 S 
ATOM     92  O   UNL A   1      47.528  37.632  27.962  1.00  0.00    -0.237 OA
ATOM     93  O   UNL A   1      46.401  37.502  30.160  1.00  0.00    -0.237 OA
ATOM     94  O   UNL A   1      48.780  36.892  29.958  1.00  0.00    -0.744 OA
ENDBRANCH  90  91
ENDBRANCH  58  83
BRANCH  70  95
ATOM     95  C   UNL A   1      49.648  26.913  26.464  1.00  0.00     0.058 A 
ATOM     96  C   UNL A   1      50.598  26.422  27.370  1.00  0.00     0.135 A 
ATOM     97  C   UNL A   1      50.039  27.070  25.122  1.00  0.00     0.135 A 
ATOM     98  F   UNL A   1      50.279  26.261  28.664  1.00  0.00    -0.206 F 
ATOM     99  C   UNL A   1      51.890  26.103  26.963  1.00  0.00     0.059 A 
ATOM    100  C   UNL A   1      51.315  26.729  24.688  1.00  0.00     0.059 A 
ATOM    101  F   UNL A   1      49.164  27.528  24.212  1.00  0.00    -0.206 F 
ATOM    102  C   UNL A   1      52.236  26.251  25.618  1.00  0.00     0.060 A 
BRANCH 102 103
ATOM    103  S   UNL A   1      53.895  25.768  25.093  1.00  0.00     0.124 S 
ATOM    104  O   UNL A   1      54.657  25.947  26.324  1.00  0.00    -0.237 OA
ATOM    105  O   UNL A   1      53.695  24.388  24.665  1.00  0.00    -0.237 OA
ATOM    106  O   UNL A   1      54.202  26.713  24.023  1.00  0.00    -0.744 OA
ENDBRANCH 102 103
ENDBRANCH  70  95
ENDBRANCH  44  45
ENDBRANCH  37  39
ENDBRANCH  36  37
ENDBRANCH  35  36
ENDBRANCH  34  35
ENDBRANCH   1  34
TORSDOF 21
ENDMDL
