MODEL 1
REMARK VINA RESULT:     -11.2      0.000      0.000
REMARK SMILES CC1(C)CCC[C@@H]1Nc1nc2c(cc1C(=O)OCCOCCOC(=O)c1ccc(-c3c4nc(c(-c5c(F)cc(S(=O)(=O)[O-])cc5F)c5ccc([nH]5)c(-c5c(F)cc(S(=O)(=O)[O-])cc5F)c5nc(c(-c6c(F)cc(S(=O)(=O)[O-])cc6F)c6ccc3[nH]6)C=C5)C=C4)cc1)CCC2
REMARK SMILES IDX 21 1 20 2 19 3 18 4 17 5 15 6 16 7 14 8 9 9 10 10 11 11
REMARK SMILES IDX 13 12 12 13 94 14 92 15 93 16 8 17 7 19 1 20 2 21 3 22 4 23
REMARK SMILES IDX 5 24 6 25 22 26 23 27 24 28 25 29 26 30 27 31 91 32 28 33
REMARK SMILES IDX 90 34 29 35 30 36 31 37 84 38 32 39 89 40 83 41 85 42 33 43
REMARK SMILES IDX 88 44 82 45 81 46 34 48 68 49 47 50 67 51 48 52 51 53 66 54
REMARK SMILES IDX 86 55 49 56 50 57 65 59 87 60 52 61 35 62 36 63 45 64 37 65
REMARK SMILES IDX 38 66 44 67 46 68 39 69 40 70 41 71 42 72 43 73 69 74 70 75
REMARK SMILES IDX 79 76 71 77 72 78 78 79 80 80 73 81 74 82 75 83 76 84 77 85
REMARK SMILES IDX 53 86 54 87 63 88 55 89 56 90 62 91 64 92 57 93 58 94 59 95
REMARK SMILES IDX 60 96 61 97
REMARK H PARENT 8 18 85 47 51 58
REMARK Flexibility Score: inf
ROOT
ATOM      1  C   UNL A   1      34.414  32.337  28.389  1.00  0.00     0.202 C 
ENDROOT
BRANCH   1   2
ATOM      2  O   UNL A   1      34.469  31.418  27.297  1.00  0.00    -0.374 OA
BRANCH   2   3
ATOM      3  C   UNL A   1      33.410  30.466  27.186  1.00  0.00     0.202 C 
BRANCH   3   4
ATOM      4  C   UNL A   1      33.675  29.275  26.265  1.00  0.00     0.261 C 
BRANCH   4   5
ATOM      5  O   UNL A   1      33.636  28.040  26.998  1.00  0.00    -0.460 OA
BRANCH   5   6
ATOM      6  C   UNL A   1      32.502  27.316  26.851  1.00  0.00     0.341 C 
ATOM      7  O   UNL A   1      31.434  27.516  27.413  1.00  0.00    -0.246 OA
BRANCH   6   8
ATOM      8  C   UNL A   1      32.636  26.344  25.755  1.00  0.00     0.102 A 
ATOM      9  C   UNL A   1      31.729  26.179  24.700  1.00  0.00     0.141 A 
ATOM     10  N   UNL A   1      31.970  25.289  23.700  1.00  0.00    -0.235 NA
ATOM     11  C   UNL A   1      33.111  24.588  23.753  1.00  0.00     0.046 A 
ATOM     12  C   UNL A   1      33.808  25.562  25.798  1.00  0.00     0.025 A 
ATOM     13  C   UNL A   1      34.036  24.669  24.775  1.00  0.00    -0.025 A 
ATOM     14  C   UNL A   1      33.613  23.717  22.639  1.00  0.00     0.057 C 
ATOM     15  C   UNL A   1      35.214  23.794  24.518  1.00  0.00     0.038 C 
ATOM     16  C   UNL A   1      34.705  22.918  23.360  1.00  0.00     0.011 C 
BRANCH   9  17
ATOM     17  N   UNL A   1      30.553  26.832  24.476  1.00  0.00    -0.366 N 
ATOM     18  H   UNL A   1      29.893  26.802  25.206  1.00  0.00     0.162 HD
BRANCH  17  19
ATOM     19  C   UNL A   1      30.161  27.564  23.296  1.00  0.00     0.086 C 
ATOM     20  C   UNL A   1      32.293  28.825  22.790  1.00  0.00     0.013 C 
ATOM     21  C   UNL A   1      30.831  28.954  23.218  1.00  0.00    -0.015 C 
ATOM     22  C   UNL A   1      30.773  29.776  24.520  1.00  0.00     0.013 C 
ATOM     23  C   UNL A   1      29.961  29.619  22.137  1.00  0.00     0.008 C 
ATOM     24  C   UNL A   1      28.534  29.159  22.449  1.00  0.00     0.003 C 
ATOM     25  C   UNL A   1      28.665  27.867  23.258  1.00  0.00     0.025 C 
ENDBRANCH  17  19
ENDBRANCH   9  17
ENDBRANCH   6   8
ENDBRANCH   5   6
ENDBRANCH   4   5
ENDBRANCH   3   4
ENDBRANCH   2   3
ENDBRANCH   1   2
BRANCH   1  26
ATOM     26  C   UNL A   1      35.216  31.980  29.649  1.00  0.00     0.261 C 
BRANCH  26  27
ATOM     27  O   UNL A   1      35.764  30.650  29.633  1.00  0.00    -0.460 OA
BRANCH  27  28
ATOM     28  C   UNL A   1      36.598  30.363  30.662  1.00  0.00     0.338 C 
ATOM     29  O   UNL A   1      36.287  30.078  31.810  1.00  0.00    -0.246 OA
BRANCH  28  30
ATOM     30  C   UNL A   1      37.993  30.318  30.196  1.00  0.00     0.060 A 
ATOM     31  C   UNL A   1      38.238  30.111  28.832  1.00  0.00     0.016 A 
ATOM     32  C   UNL A   1      39.043  30.326  31.115  1.00  0.00     0.016 A 
ATOM     33  C   UNL A   1      39.539  29.880  28.384  1.00  0.00     0.010 A 
ATOM     34  C   UNL A   1      40.344  30.080  30.666  1.00  0.00     0.010 A 
ATOM     35  C   UNL A   1      40.593  29.822  29.305  1.00  0.00    -0.014 A 
BRANCH  35  36
ATOM     36  C   UNL A   1      41.920  29.305  28.886  1.00  0.00     0.031 A 
ATOM     37  C   UNL A   1      43.061  30.279  28.771  1.00  0.00     0.074 A 
ATOM     38  C   UNL A   1      42.114  28.004  28.614  1.00  0.00     0.049 A 
ATOM     39  N   UNL A   1      44.289  30.072  28.372  1.00  0.00    -0.248 NA
ATOM     40  C   UNL A   1      42.784  31.668  29.174  1.00  0.00     0.031 C 
ATOM     41  C   UNL A   1      41.114  26.949  28.764  1.00  0.00     0.029 A 
ATOM     42  N   UNL A   1      43.218  27.347  28.133  1.00  0.00    -0.354 N 
ATOM     43  C   UNL A   1      44.937  31.295  28.500  1.00  0.00     0.074 A 
ATOM     44  C   UNL A   1      43.956  32.251  28.966  1.00  0.00     0.031 C 
ATOM     45  C   UNL A   1      41.627  25.788  28.323  1.00  0.00     0.029 A 
ATOM     46  C   UNL A   1      42.996  26.017  27.867  1.00  0.00     0.049 A 
ATOM     47  H   UNL A   1      44.088  27.788  27.991  1.00  0.00     0.167 HD
ATOM     48  C   UNL A   1      46.238  31.588  28.273  1.00  0.00     0.037 A 
ATOM     49  C   UNL A   1      43.801  25.092  27.309  1.00  0.00     0.037 A 
ATOM     50  C   UNL A   1      47.205  30.639  27.789  1.00  0.00     0.049 A 
ATOM     51  C   UNL A   1      45.209  25.472  26.934  1.00  0.00     0.074 A 
ATOM     52  C   UNL A   1      48.549  30.837  27.531  1.00  0.00     0.029 A 
ATOM     53  N   UNL A   1      46.928  29.316  27.477  1.00  0.00    -0.354 N 
ATOM     54  N   UNL A   1      45.818  26.625  27.084  1.00  0.00    -0.248 NA
ATOM     55  C   UNL A   1      46.044  24.424  26.331  1.00  0.00     0.031 C 
ATOM     56  C   UNL A   1      49.075  29.645  27.019  1.00  0.00     0.029 A 
ATOM     57  C   UNL A   1      48.069  28.692  27.001  1.00  0.00     0.049 A 
ATOM     58  H   UNL A   1      46.049  28.884  27.578  1.00  0.00     0.167 HD
ATOM     59  C   UNL A   1      47.115  26.433  26.622  1.00  0.00     0.074 A 
ATOM     60  C   UNL A   1      47.205  25.053  26.190  1.00  0.00     0.031 C 
ATOM     61  C   UNL A   1      48.141  27.318  26.571  1.00  0.00     0.037 A 
BRANCH  48  62
ATOM     62  C   UNL A   1      46.688  32.994  28.544  1.00  0.00     0.058 A 
ATOM     63  C   UNL A   1      46.561  34.000  27.572  1.00  0.00     0.135 A 
ATOM     64  C   UNL A   1      47.219  33.351  29.792  1.00  0.00     0.135 A 
ATOM     65  F   UNL A   1      46.079  33.707  26.354  1.00  0.00    -0.206 F 
ATOM     66  C   UNL A   1      46.958  35.309  27.825  1.00  0.00     0.059 A 
ATOM     67  C   UNL A   1      47.602  34.658  30.075  1.00  0.00     0.059 A 
ATOM     68  F   UNL A   1      47.367  32.424  30.753  1.00  0.00    -0.206 F 
ATOM     69  C   UNL A   1      47.477  35.629  29.081  1.00  0.00     0.060 A 
BRANCH  69  70
ATOM     70  S   UNL A   1      47.973  37.335  29.396  1.00  0.00     0.124 S 
ATOM     71  O   UNL A   1      48.142  37.327  30.845  1.00  0.00    -0.237 OA
ATOM     72  O   UNL A   1      49.200  37.451  28.615  1.00  0.00    -0.237 OA
ATOM     73  O   UNL A   1      46.843  38.115  28.901  1.00  0.00    -0.744 OA
ENDBRANCH  69  70
ENDBRANCH  48  62
BRANCH  49  74
ATOM     74  C   UNL A   1      43.297  23.713  27.081  1.00  0.00     0.058 A 
ATOM     75  C   UNL A   1      42.779  23.331  25.835  1.00  0.00     0.135 A 
ATOM     76  C   UNL A   1      43.336  22.747  28.099  1.00  0.00     0.135 A 
ATOM     77  F   UNL A   1      42.711  24.222  24.836  1.00  0.00    -0.206 F 
ATOM     78  C   UNL A   1      42.312  22.040  25.607  1.00  0.00     0.059 A 
ATOM     79  C   UNL A   1      42.894  21.444  27.888  1.00  0.00     0.059 A 
ATOM     80  F   UNL A   1      43.831  23.062  29.306  1.00  0.00    -0.206 F 
ATOM     81  C   UNL A   1      42.379  21.103  26.639  1.00  0.00     0.060 A 
BRANCH  81  82
ATOM     82  S   UNL A   1      41.823  19.415  26.308  1.00  0.00     0.124 S 
ATOM     83  O   UNL A   1      42.310  18.708  27.487  1.00  0.00    -0.237 OA
ATOM     84  O   UNL A   1      40.375  19.586  26.219  1.00  0.00    -0.237 OA
ATOM     85  O   UNL A   1      42.487  19.083  25.051  1.00  0.00    -0.744 OA
ENDBRANCH  81  82
ENDBRANCH  49  74
BRANCH  61  86
ATOM     86  C   UNL A   1      49.459  26.824  26.045  1.00  0.00     0.058 A 
ATOM     87  C   UNL A   1      49.839  27.032  24.710  1.00  0.00     0.135 A 
ATOM     88  C   UNL A   1      50.380  26.199  26.901  1.00  0.00     0.135 A 
ATOM     89  F   UNL A   1      48.992  27.617  23.849  1.00  0.00    -0.206 F 
ATOM     90  C   UNL A   1      51.083  26.624  24.239  1.00  0.00     0.059 A 
ATOM     91  C   UNL A   1      51.639  25.806  26.458  1.00  0.00     0.059 A 
ATOM     92  F   UNL A   1      50.068  25.987  28.189  1.00  0.00    -0.206 F 
ATOM     93  C   UNL A   1      51.979  26.017  25.123  1.00  0.00     0.060 A 
BRANCH  93  94
ATOM     94  S   UNL A   1      53.606  25.535  24.507  1.00  0.00     0.124 S 
ATOM     95  O   UNL A   1      53.491  25.854  23.088  1.00  0.00    -0.237 OA
ATOM     96  O   UNL A   1      54.498  26.396  25.280  1.00  0.00    -0.237 OA
ATOM     97  O   UNL A   1      53.684  24.114  24.828  1.00  0.00    -0.744 OA
ENDBRANCH  93  94
ENDBRANCH  61  86
ENDBRANCH  35  36
ENDBRANCH  28  30
ENDBRANCH  27  28
ENDBRANCH  26  27
ENDBRANCH   1  26
TORSDOF 19
ENDMDL
MODEL 2
REMARK VINA RESULT:     -11.1      4.765      6.476
REMARK SMILES CC1(C)CCC[C@@H]1Nc1nc2c(cc1C(=O)OCCOCCOC(=O)c1ccc(-c3c4nc(c(-c5c(F)cc(S(=O)(=O)[O-])cc5F)c5ccc([nH]5)c(-c5c(F)cc(S(=O)(=O)[O-])cc5F)c5nc(c(-c6c(F)cc(S(=O)(=O)[O-])cc6F)c6ccc3[nH]6)C=C5)C=C4)cc1)CCC2
REMARK SMILES IDX 21 1 20 2 19 3 18 4 17 5 15 6 16 7 14 8 9 9 10 10 11 11
REMARK SMILES IDX 13 12 12 13 94 14 92 15 93 16 8 17 7 19 1 20 2 21 3 22 4 23
REMARK SMILES IDX 5 24 6 25 22 26 23 27 24 28 25 29 26 30 27 31 91 32 28 33
REMARK SMILES IDX 90 34 29 35 30 36 31 37 84 38 32 39 89 40 83 41 85 42 33 43
REMARK SMILES IDX 88 44 82 45 81 46 34 48 68 49 47 50 67 51 48 52 51 53 66 54
REMARK SMILES IDX 86 55 49 56 50 57 65 59 87 60 52 61 35 62 36 63 45 64 37 65
REMARK SMILES IDX 38 66 44 67 46 68 39 69 40 70 41 71 42 72 43 73 69 74 70 75
REMARK SMILES IDX 79 76 71 77 72 78 78 79 80 80 73 81 74 82 75 83 76 84 77 85
REMARK SMILES IDX 53 86 54 87 63 88 55 89 56 90 62 91 64 92 57 93 58 94 59 95
REMARK SMILES IDX 60 96 61 97
REMARK H PARENT 8 18 85 47 51 58
REMARK Flexibility Score: inf
ROOT
ATOM      1  C   UNL A   1      32.069  28.442  27.593  1.00  0.00     0.202 C 
ENDROOT
BRANCH   1   2
ATOM      2  O   UNL A   1      31.277  27.613  26.742  1.00  0.00    -0.374 OA
BRANCH   2   3
ATOM      3  C   UNL A   1      31.939  26.546  26.061  1.00  0.00     0.202 C 
BRANCH   3   4
ATOM      4  C   UNL A   1      31.261  25.178  26.139  1.00  0.00     0.261 C 
BRANCH   4   5
ATOM      5  O   UNL A   1      32.157  24.136  25.725  1.00  0.00    -0.460 OA
BRANCH   5   6
ATOM      6  C   UNL A   1      32.548  23.287  26.704  1.00  0.00     0.341 C 
ATOM      7  O   UNL A   1      31.859  22.870  27.624  1.00  0.00    -0.246 OA
BRANCH   6   8
ATOM      8  C   UNL A   1      33.887  22.743  26.425  1.00  0.00     0.102 A 
ATOM      9  C   UNL A   1      34.182  21.394  26.186  1.00  0.00     0.141 A 
ATOM     10  N   UNL A   1      35.446  20.996  25.880  1.00  0.00    -0.235 NA
ATOM     11  C   UNL A   1      36.394  21.940  25.801  1.00  0.00     0.046 A 
ATOM     12  C   UNL A   1      34.916  23.704  26.370  1.00  0.00     0.025 A 
ATOM     13  C   UNL A   1      36.189  23.282  26.055  1.00  0.00    -0.025 A 
ATOM     14  C   UNL A   1      37.782  21.694  25.289  1.00  0.00     0.057 C 
ATOM     15  C   UNL A   1      37.431  24.076  25.841  1.00  0.00     0.038 C 
ATOM     16  C   UNL A   1      38.497  22.969  25.752  1.00  0.00     0.011 C 
BRANCH   9  17
ATOM     17  N   UNL A   1      33.337  20.323  26.189  1.00  0.00    -0.366 N 
ATOM     18  H   UNL A   1      33.298  19.802  27.024  1.00  0.00     0.162 HD
BRANCH  17  19
ATOM     19  C   UNL A   1      32.493  19.863  25.113  1.00  0.00     0.086 C 
ATOM     20  C   UNL A   1      32.525  17.367  25.517  1.00  0.00     0.013 C 
ATOM     21  C   UNL A   1      32.938  18.489  24.564  1.00  0.00    -0.015 C 
ATOM     22  C   UNL A   1      34.448  18.362  24.282  1.00  0.00     0.013 C 
ATOM     23  C   UNL A   1      32.151  18.453  23.242  1.00  0.00     0.008 C 
ATOM     24  C   UNL A   1      32.244  19.880  22.695  1.00  0.00     0.003 C 
ATOM     25  C   UNL A   1      32.533  20.784  23.896  1.00  0.00     0.025 C 
ENDBRANCH  17  19
ENDBRANCH   9  17
ENDBRANCH   6   8
ENDBRANCH   5   6
ENDBRANCH   4   5
ENDBRANCH   3   4
ENDBRANCH   2   3
ENDBRANCH   1   2
BRANCH   1  26
ATOM     26  C   UNL A   1      32.299  29.893  27.144  1.00  0.00     0.261 C 
BRANCH  26  27
ATOM     27  O   UNL A   1      33.652  30.171  26.742  1.00  0.00    -0.460 OA
BRANCH  27  28
ATOM     28  C   UNL A   1      34.371  30.905  27.626  1.00  0.00     0.338 C 
ATOM     29  O   UNL A   1      34.055  31.972  28.133  1.00  0.00    -0.246 OA
BRANCH  28  30
ATOM     30  C   UNL A   1      35.591  30.183  28.022  1.00  0.00     0.060 A 
ATOM     31  C   UNL A   1      35.655  29.627  29.306  1.00  0.00     0.016 A 
ATOM     32  C   UNL A   1      36.712  30.187  27.191  1.00  0.00     0.016 A 
ATOM     33  C   UNL A   1      36.857  29.099  29.779  1.00  0.00     0.010 A 
ATOM     34  C   UNL A   1      37.919  29.670  27.672  1.00  0.00     0.010 A 
ATOM     35  C   UNL A   1      38.005  29.156  28.979  1.00  0.00    -0.014 A 
BRANCH  35  36
ATOM     36  C   UNL A   1      39.336  28.858  29.565  1.00  0.00     0.031 A 
ATOM     37  C   UNL A   1      39.864  29.772  30.637  1.00  0.00     0.074 A 
ATOM     38  C   UNL A   1      40.063  27.804  29.158  1.00  0.00     0.049 A 
ATOM     39  N   UNL A   1      41.018  29.746  31.253  1.00  0.00    -0.248 NA
ATOM     40  C   UNL A   1      38.966  30.849  31.086  1.00  0.00     0.031 C 
ATOM     41  C   UNL A   1      39.632  26.802  28.188  1.00  0.00     0.029 A 
ATOM     42  N   UNL A   1      41.333  27.411  29.499  1.00  0.00    -0.354 N 
ATOM     43  C   UNL A   1      40.974  30.783  32.177  1.00  0.00     0.074 A 
ATOM     44  C   UNL A   1      39.702  31.451  32.009  1.00  0.00     0.031 C 
ATOM     45  C   UNL A   1      40.640  25.943  27.961  1.00  0.00     0.029 A 
ATOM     46  C   UNL A   1      41.788  26.332  28.778  1.00  0.00     0.049 A 
ATOM     47  H   UNL A   1      41.868  27.859  30.194  1.00  0.00     0.167 HD
ATOM     48  C   UNL A   1      41.902  31.131  33.098  1.00  0.00     0.037 A 
ATOM     49  C   UNL A   1      42.995  25.735  28.769  1.00  0.00     0.037 A 
ATOM     50  C   UNL A   1      43.175  30.478  33.247  1.00  0.00     0.049 A 
ATOM     51  C   UNL A   1      44.065  26.224  29.708  1.00  0.00     0.074 A 
ATOM     52  C   UNL A   1      44.182  30.753  34.154  1.00  0.00     0.029 A 
ATOM     53  N   UNL A   1      43.621  29.427  32.460  1.00  0.00    -0.354 N 
ATOM     54  N   UNL A   1      44.003  27.189  30.595  1.00  0.00    -0.248 NA
ATOM     55  C   UNL A   1      45.362  25.536  29.658  1.00  0.00     0.031 C 
ATOM     56  C   UNL A   1      45.257  29.898  33.886  1.00  0.00     0.029 A 
ATOM     57  C   UNL A   1      44.901  29.061  32.840  1.00  0.00     0.049 A 
ATOM     58  H   UNL A   1      43.105  29.004  31.736  1.00  0.00     0.167 HD
ATOM     59  C   UNL A   1      45.240  27.204  31.229  1.00  0.00     0.074 A 
ATOM     60  C   UNL A   1      46.031  26.150  30.626  1.00  0.00     0.031 C 
ATOM     61  C   UNL A   1      45.677  28.010  32.227  1.00  0.00     0.037 A 
BRANCH  48  62
ATOM     62  C   UNL A   1      41.571  32.273  34.016  1.00  0.00     0.058 A 
ATOM     63  C   UNL A   1      40.919  32.059  35.241  1.00  0.00     0.135 A 
ATOM     64  C   UNL A   1      41.937  33.587  33.688  1.00  0.00     0.135 A 
ATOM     65  F   UNL A   1      40.528  30.823  35.592  1.00  0.00    -0.206 F 
ATOM     66  C   UNL A   1      40.627  33.111  36.103  1.00  0.00     0.059 A 
ATOM     67  C   UNL A   1      41.676  34.652  34.545  1.00  0.00     0.059 A 
ATOM     68  F   UNL A   1      42.556  33.846  32.525  1.00  0.00    -0.206 F 
ATOM     69  C   UNL A   1      41.011  34.405  35.746  1.00  0.00     0.060 A 
BRANCH  69  70
ATOM     70  S   UNL A   1      40.639  35.755  36.884  1.00  0.00     0.124 S 
ATOM     71  O   UNL A   1      40.127  35.027  38.042  1.00  0.00    -0.237 OA
ATOM     72  O   UNL A   1      41.943  36.385  37.057  1.00  0.00    -0.237 OA
ATOM     73  O   UNL A   1      39.652  36.549  36.158  1.00  0.00    -0.744 OA
ENDBRANCH  69  70
ENDBRANCH  48  62
BRANCH  49  74
ATOM     74  C   UNL A   1      43.252  24.600  27.845  1.00  0.00     0.058 A 
ATOM     75  C   UNL A   1      43.819  24.812  26.581  1.00  0.00     0.135 A 
ATOM     76  C   UNL A   1      42.948  23.279  28.215  1.00  0.00     0.135 A 
ATOM     77  F   UNL A   1      44.115  26.056  26.180  1.00  0.00    -0.206 F 
ATOM     78  C   UNL A   1      44.072  23.756  25.711  1.00  0.00     0.059 A 
ATOM     79  C   UNL A   1      43.211  22.205  27.370  1.00  0.00     0.059 A 
ATOM     80  F   UNL A   1      42.412  23.024  29.419  1.00  0.00    -0.206 F 
ATOM     81  C   UNL A   1      43.769  22.455  26.117  1.00  0.00     0.060 A 
BRANCH  81  82
ATOM     82  S   UNL A   1      44.158  21.090  24.999  1.00  0.00     0.124 S 
ATOM     83  O   UNL A   1      45.451  20.649  25.512  1.00  0.00    -0.237 OA
ATOM     84  O   UNL A   1      43.037  20.183  25.228  1.00  0.00    -0.237 OA
ATOM     85  O   UNL A   1      44.183  21.727  23.686  1.00  0.00    -0.744 OA
ENDBRANCH  81  82
ENDBRANCH  49  74
BRANCH  61  86
ATOM     86  C   UNL A   1      47.067  27.781  32.748  1.00  0.00     0.058 A 
ATOM     87  C   UNL A   1      47.320  26.869  33.785  1.00  0.00     0.135 A 
ATOM     88  C   UNL A   1      48.166  28.426  32.158  1.00  0.00     0.135 A 
ATOM     89  F   UNL A   1      46.304  26.232  34.388  1.00  0.00    -0.206 F 
ATOM     90  C   UNL A   1      48.614  26.616  34.227  1.00  0.00     0.059 A 
ATOM     91  C   UNL A   1      49.470  28.169  32.567  1.00  0.00     0.059 A 
ATOM     92  F   UNL A   1      47.978  29.299  31.156  1.00  0.00    -0.206 F 
ATOM     93  C   UNL A   1      49.684  27.267  33.608  1.00  0.00     0.060 A 
BRANCH  93  94
ATOM     94  S   UNL A   1      51.361  26.892  34.163  1.00  0.00     0.124 S 
ATOM     95  O   UNL A   1      51.631  25.642  33.462  1.00  0.00    -0.237 OA
ATOM     96  O   UNL A   1      52.110  28.056  33.696  1.00  0.00    -0.237 OA
ATOM     97  O   UNL A   1      51.223  26.784  35.612  1.00  0.00    -0.744 OA
ENDBRANCH  93  94
ENDBRANCH  61  86
ENDBRANCH  35  36
ENDBRANCH  28  30
ENDBRANCH  27  28
ENDBRANCH  26  27
ENDBRANCH   1  26
TORSDOF 19
ENDMDL
MODEL 3
REMARK VINA RESULT:     -11.1      6.329     12.167
REMARK SMILES CC1(C)CCC[C@@H]1Nc1nc2c(cc1C(=O)OCCOCCOC(=O)c1ccc(-c3c4nc(c(-c5c(F)cc(S(=O)(=O)[O-])cc5F)c5ccc([nH]5)c(-c5c(F)cc(S(=O)(=O)[O-])cc5F)c5nc(c(-c6c(F)cc(S(=O)(=O)[O-])cc6F)c6ccc3[nH]6)C=C5)C=C4)cc1)CCC2
REMARK SMILES IDX 21 1 20 2 19 3 18 4 17 5 15 6 16 7 14 8 9 9 10 10 11 11
REMARK SMILES IDX 13 12 12 13 94 14 92 15 93 16 8 17 7 19 1 20 2 21 3 22 4 23
REMARK SMILES IDX 5 24 6 25 22 26 23 27 24 28 25 29 26 30 27 31 91 32 28 33
REMARK SMILES IDX 90 34 29 35 30 36 31 37 84 38 32 39 89 40 83 41 85 42 33 43
REMARK SMILES IDX 88 44 82 45 81 46 34 48 68 49 47 50 67 51 48 52 51 53 66 54
REMARK SMILES IDX 86 55 49 56 50 57 65 59 87 60 52 61 35 62 36 63 45 64 37 65
REMARK SMILES IDX 38 66 44 67 46 68 39 69 40 70 41 71 42 72 43 73 69 74 70 75
REMARK SMILES IDX 79 76 71 77 72 78 78 79 80 80 73 81 74 82 75 83 76 84 77 85
REMARK SMILES IDX 53 86 54 87 63 88 55 89 56 90 62 91 64 92 57 93 58 94 59 95
REMARK SMILES IDX 60 96 61 97
REMARK H PARENT 8 18 85 47 51 58
REMARK Flexibility Score: inf
ROOT
ATOM      1  C   UNL A   1      41.723  21.452  26.251  1.00  0.00     0.202 C 
ENDROOT
BRANCH   1   2
ATOM      2  O   UNL A   1      40.634  21.822  27.097  1.00  0.00    -0.374 OA
BRANCH   2   3
ATOM      3  C   UNL A   1      39.533  22.500  26.492  1.00  0.00     0.202 C 
BRANCH   3   4
ATOM      4  C   UNL A   1      38.549  21.621  25.718  1.00  0.00     0.261 C 
BRANCH   4   5
ATOM      5  O   UNL A   1      37.227  22.182  25.745  1.00  0.00    -0.460 OA
BRANCH   5   6
ATOM      6  C   UNL A   1      36.237  21.349  25.351  1.00  0.00     0.341 C 
ATOM      7  O   UNL A   1      36.364  20.183  25.001  1.00  0.00    -0.246 OA
BRANCH   6   8
ATOM      8  C   UNL A   1      34.916  21.954  25.581  1.00  0.00     0.102 A 
ATOM      9  C   UNL A   1      33.721  21.247  25.773  1.00  0.00     0.141 A 
ATOM     10  N   UNL A   1      32.556  21.898  26.037  1.00  0.00    -0.235 NA
ATOM     11  C   UNL A   1      32.595  23.235  26.121  1.00  0.00     0.046 A 
ATOM     12  C   UNL A   1      34.913  23.361  25.639  1.00  0.00     0.025 A 
ATOM     13  C   UNL A   1      33.724  24.002  25.911  1.00  0.00    -0.025 A 
ATOM     14  C   UNL A   1      31.448  24.079  26.592  1.00  0.00     0.057 C 
ATOM     15  C   UNL A   1      33.447  25.451  26.118  1.00  0.00     0.038 C 
ATOM     16  C   UNL A   1      31.909  25.474  26.149  1.00  0.00     0.011 C 
BRANCH   9  17
ATOM     17  N   UNL A   1      33.516  19.899  25.759  1.00  0.00    -0.366 N 
ATOM     18  H   UNL A   1      33.977  19.382  26.459  1.00  0.00     0.162 HD
BRANCH  17  19
ATOM     19  C   UNL A   1      32.702  19.140  24.841  1.00  0.00     0.086 C 
ATOM     20  C   UNL A   1      33.011  16.802  25.750  1.00  0.00     0.013 C 
ATOM     21  C   UNL A   1      33.279  17.733  24.568  1.00  0.00    -0.015 C 
ATOM     22  C   UNL A   1      34.787  17.702  24.251  1.00  0.00     0.013 C 
ATOM     23  C   UNL A   1      32.470  17.341  23.319  1.00  0.00     0.008 C 
ATOM     24  C   UNL A   1      32.396  18.623  22.485  1.00  0.00     0.003 C 
ATOM     25  C   UNL A   1      32.614  19.784  23.458  1.00  0.00     0.025 C 
ENDBRANCH  17  19
ENDBRANCH   9  17
ENDBRANCH   6   8
ENDBRANCH   5   6
ENDBRANCH   4   5
ENDBRANCH   3   4
ENDBRANCH   2   3
ENDBRANCH   1   2
BRANCH   1  26
ATOM     26  C   UNL A   1      42.965  22.355  26.267  1.00  0.00     0.261 C 
BRANCH  26  27
ATOM     27  O   UNL A   1      42.795  23.564  27.030  1.00  0.00    -0.460 OA
BRANCH  27  28
ATOM     28  C   UNL A   1      42.591  24.681  26.290  1.00  0.00     0.338 C 
ATOM     29  O   UNL A   1      42.732  24.806  25.082  1.00  0.00    -0.246 OA
BRANCH  28  30
ATOM     30  C   UNL A   1      42.041  25.759  27.128  1.00  0.00     0.060 A 
ATOM     31  C   UNL A   1      42.714  26.986  27.171  1.00  0.00     0.016 A 
ATOM     32  C   UNL A   1      40.962  25.509  27.977  1.00  0.00     0.016 A 
ATOM     33  C   UNL A   1      42.329  27.963  28.090  1.00  0.00     0.010 A 
ATOM     34  C   UNL A   1      40.585  26.484  28.906  1.00  0.00     0.010 A 
ATOM     35  C   UNL A   1      41.289  27.700  28.991  1.00  0.00    -0.014 A 
BRANCH  35  36
ATOM     36  C   UNL A   1      41.055  28.605  30.143  1.00  0.00     0.031 A 
ATOM     37  C   UNL A   1      41.873  28.400  31.389  1.00  0.00     0.074 A 
ATOM     38  C   UNL A   1      40.139  29.587  30.091  1.00  0.00     0.049 A 
ATOM     39  N   UNL A   1      41.807  29.026  32.535  1.00  0.00    -0.248 NA
ATOM     40  C   UNL A   1      42.915  27.361  31.329  1.00  0.00     0.031 C 
ATOM     41  C   UNL A   1      39.341  29.939  28.920  1.00  0.00     0.029 A 
ATOM     42  N   UNL A   1      39.710  30.460  31.059  1.00  0.00    -0.354 N 
ATOM     43  C   UNL A   1      42.812  28.477  33.322  1.00  0.00     0.074 A 
ATOM     44  C   UNL A   1      43.441  27.432  32.543  1.00  0.00     0.031 C 
ATOM     45  C   UNL A   1      38.474  30.911  29.252  1.00  0.00     0.029 A 
ATOM     46  C   UNL A   1      38.662  31.255  30.659  1.00  0.00     0.049 A 
ATOM     47  H   UNL A   1      40.116  30.513  31.955  1.00  0.00     0.167 HD
ATOM     48  C   UNL A   1      43.191  28.828  34.573  1.00  0.00     0.037 A 
ATOM     49  C   UNL A   1      37.931  32.148  31.353  1.00  0.00     0.037 A 
ATOM     50  C   UNL A   1      42.548  29.852  35.352  1.00  0.00     0.049 A 
ATOM     51  C   UNL A   1      38.281  32.429  32.790  1.00  0.00     0.074 A 
ATOM     52  C   UNL A   1      42.860  30.286  36.628  1.00  0.00     0.029 A 
ATOM     53  N   UNL A   1      41.453  30.594  34.934  1.00  0.00    -0.354 N 
ATOM     54  N   UNL A   1      39.249  31.921  33.515  1.00  0.00    -0.248 NA
ATOM     55  C   UNL A   1      37.451  33.413  33.498  1.00  0.00     0.031 C 
ATOM     56  C   UNL A   1      41.925  31.259  36.999  1.00  0.00     0.029 A 
ATOM     57  C   UNL A   1      41.058  31.463  35.937  1.00  0.00     0.049 A 
ATOM     58  H   UNL A   1      41.019  30.514  34.053  1.00  0.00     0.167 HD
ATOM     59  C   UNL A   1      39.165  32.546  34.754  1.00  0.00     0.074 A 
ATOM     60  C   UNL A   1      38.053  33.471  34.680  1.00  0.00     0.031 C 
ATOM     61  C   UNL A   1      39.946  32.376  35.849  1.00  0.00     0.037 A 
BRANCH  48  62
ATOM     62  C   UNL A   1      44.354  28.094  35.175  1.00  0.00     0.058 A 
ATOM     63  C   UNL A   1      45.668  28.574  35.038  1.00  0.00     0.135 A 
ATOM     64  C   UNL A   1      44.158  26.924  35.922  1.00  0.00     0.135 A 
ATOM     65  F   UNL A   1      45.913  29.677  34.314  1.00  0.00    -0.206 F 
ATOM     66  C   UNL A   1      46.747  27.908  35.609  1.00  0.00     0.059 A 
ATOM     67  C   UNL A   1      45.219  26.254  36.522  1.00  0.00     0.059 A 
ATOM     68  F   UNL A   1      42.922  26.421  36.077  1.00  0.00    -0.206 F 
ATOM     69  C   UNL A   1      46.512  26.749  36.352  1.00  0.00     0.060 A 
BRANCH  69  70
ATOM     70  S   UNL A   1      47.923  25.908  37.099  1.00  0.00     0.124 S 
ATOM     71  O   UNL A   1      47.304  24.682  37.592  1.00  0.00    -0.237 OA
ATOM     72  O   UNL A   1      48.827  25.750  35.965  1.00  0.00    -0.237 OA
ATOM     73  O   UNL A   1      48.370  26.842  38.128  1.00  0.00    -0.744 OA
ENDBRANCH  69  70
ENDBRANCH  48  62
BRANCH  49  74
ATOM     74  C   UNL A   1      36.800  32.850  30.692  1.00  0.00     0.058 A 
ATOM     75  C   UNL A   1      35.472  32.499  30.969  1.00  0.00     0.135 A 
ATOM     76  C   UNL A   1      37.026  33.896  29.782  1.00  0.00     0.135 A 
ATOM     77  F   UNL A   1      35.207  31.500  31.823  1.00  0.00    -0.206 F 
ATOM     78  C   UNL A   1      34.404  33.155  30.363  1.00  0.00     0.059 A 
ATOM     79  C   UNL A   1      35.974  34.580  29.179  1.00  0.00     0.059 A 
ATOM     80  F   UNL A   1      38.280  34.275  29.491  1.00  0.00    -0.206 F 
ATOM     81  C   UNL A   1      34.667  34.198  29.473  1.00  0.00     0.060 A 
BRANCH  81  82
ATOM     82  S   UNL A   1      33.269  35.078  28.741  1.00  0.00     0.124 S 
ATOM     83  O   UNL A   1      33.943  36.147  28.012  1.00  0.00    -0.237 OA
ATOM     84  O   UNL A   1      32.651  34.038  27.923  1.00  0.00    -0.237 OA
ATOM     85  O   UNL A   1      32.490  35.498  29.902  1.00  0.00    -0.744 OA
ENDBRANCH  81  82
ENDBRANCH  49  74
BRANCH  61  86
ATOM     86  C   UNL A   1      39.641  33.216  37.057  1.00  0.00     0.058 A 
ATOM     87  C   UNL A   1      38.714  32.799  38.024  1.00  0.00     0.135 A 
ATOM     88  C   UNL A   1      40.334  34.416  37.285  1.00  0.00     0.135 A 
ATOM     89  F   UNL A   1      38.019  31.664  37.851  1.00  0.00    -0.206 F 
ATOM     90  C   UNL A   1      38.475  33.551  39.171  1.00  0.00     0.059 A 
ATOM     91  C   UNL A   1      40.130  35.171  38.435  1.00  0.00     0.059 A 
ATOM     92  F   UNL A   1      41.239  34.853  36.394  1.00  0.00    -0.206 F 
ATOM     93  C   UNL A   1      39.192  34.734  39.370  1.00  0.00     0.060 A 
BRANCH  93  94
ATOM     94  S   UNL A   1      38.903  35.674  40.883  1.00  0.00     0.124 S 
ATOM     95  O   UNL A   1      40.142  35.439  41.617  1.00  0.00    -0.237 OA
ATOM     96  O   UNL A   1      38.715  37.030  40.376  1.00  0.00    -0.237 OA
ATOM     97  O   UNL A   1      37.711  35.051  41.449  1.00  0.00    -0.744 OA
ENDBRANCH  93  94
ENDBRANCH  61  86
ENDBRANCH  35  36
ENDBRANCH  28  30
ENDBRANCH  27  28
ENDBRANCH  26  27
ENDBRANCH   1  26
TORSDOF 19
ENDMDL
