MODEL 1
REMARK VINA RESULT:      -9.2      0.000      0.000
REMARK SMILES Cc1ccc(F)cc1NS(=O)(=O)c1ccc(C(=O)OCCOCCOC(=O)c2ccc(-c3c4nc(c(-c5c(F)cc(S(=O)(=O)[O-])cc5F)c5ccc([nH]5)c(-c5c(F)cc(S(=O)(=O)[O-])cc5F)c5nc(c(-c6c(F)cc(S(=O)(=O)[O-])cc6F)c6ccc3[nH]6)C=C5)C=C4)cc2)cc1
REMARK SMILES IDX 22 1 21 2 20 3 19 4 17 5 18 6 16 7 13 8 14 9 95 10 15 11
REMARK SMILES IDX 94 12 10 13 11 14 12 15 9 16 8 18 1 19 2 20 3 21 4 22 7 23
REMARK SMILES IDX 5 24 6 25 23 26 24 27 25 28 26 29 27 30 28 31 29 32 93 33
REMARK SMILES IDX 30 34 92 35 31 36 32 37 33 38 86 39 34 40 91 41 85 42 87 43
REMARK SMILES IDX 35 44 90 45 84 46 83 47 36 49 70 50 49 51 69 52 50 53 53 54
REMARK SMILES IDX 68 55 88 56 51 57 52 58 67 60 89 61 54 62 37 63 38 64 47 65
REMARK SMILES IDX 39 66 40 67 46 68 48 69 41 70 42 71 43 72 44 73 45 74 71 75
REMARK SMILES IDX 72 76 81 77 73 78 74 79 80 80 82 81 75 82 76 83 77 84 78 85
REMARK SMILES IDX 79 86 55 87 56 88 65 89 57 90 58 91 64 92 66 93 59 94 60 95
REMARK SMILES IDX 61 96 62 97 63 98
REMARK H PARENT 9 17 87 48 53 59
REMARK Flexibility Score: inf
ROOT
ATOM      1  O   UNL A   1      33.923  34.023  31.213  1.00  0.00    -0.374 OA
ENDROOT
BRANCH   1   2
ATOM      2  C   UNL A   1      35.104  33.942  32.006  1.00  0.00     0.202 C 
BRANCH   2   3
ATOM      3  C   UNL A   1      35.505  32.562  32.546  1.00  0.00     0.261 C 
BRANCH   3   4
ATOM      4  O   UNL A   1      36.924  32.366  32.604  1.00  0.00    -0.460 OA
BRANCH   4   5
ATOM      5  C   UNL A   1      37.417  32.105  33.841  1.00  0.00     0.338 C 
ATOM      6  O   UNL A   1      36.934  32.466  34.905  1.00  0.00    -0.246 OA
BRANCH   5   7
ATOM      7  C   UNL A   1      38.599  31.202  33.777  1.00  0.00     0.060 A 
ATOM      8  C   UNL A   1      40.771  29.458  33.441  1.00  0.00     0.087 A 
ATOM      9  C   UNL A   1      39.502  29.063  33.020  1.00  0.00     0.023 A 
ATOM     10  C   UNL A   1      40.943  30.692  34.091  1.00  0.00     0.023 A 
ATOM     11  C   UNL A   1      38.429  29.950  33.160  1.00  0.00     0.017 A 
ATOM     12  C   UNL A   1      39.858  31.558  34.270  1.00  0.00     0.017 A 
BRANCH   8  13
ATOM     13  S   UNL A   1      42.207  28.441  33.198  1.00  0.00     0.261 S 
ATOM     14  O   UNL A   1      43.350  29.318  33.369  1.00  0.00    -0.201 OA
ATOM     15  O   UNL A   1      42.021  27.713  31.963  1.00  0.00    -0.201 OA
BRANCH  13  16
ATOM     16  N   UNL A   1      42.407  27.273  34.401  1.00  0.00    -0.279 N 
ATOM     17  H   UNL A   1      42.079  27.508  35.299  1.00  0.00     0.180 HD
BRANCH  16  18
ATOM     18  C   UNL A   1      42.999  25.979  34.260  1.00  0.00     0.055 A 
ATOM     19  C   UNL A   1      41.409  25.017  36.066  1.00  0.00     0.046 C 
ATOM     20  C   UNL A   1      42.458  24.891  34.988  1.00  0.00    -0.027 A 
ATOM     21  C   UNL A   1      42.971  23.596  34.776  1.00  0.00     0.008 A 
ATOM     22  C   UNL A   1      44.045  23.391  33.917  1.00  0.00     0.039 A 
ATOM     23  C   UNL A   1      44.171  25.779  33.531  1.00  0.00     0.066 A 
ATOM     24  C   UNL A   1      44.655  24.489  33.331  1.00  0.00     0.125 A 
ATOM     25  F   UNL A   1      45.726  24.302  32.548  1.00  0.00    -0.207 F 
ENDBRANCH  16  18
ENDBRANCH  13  16
ENDBRANCH   8  13
ENDBRANCH   5   7
ENDBRANCH   4   5
ENDBRANCH   3   4
ENDBRANCH   2   3
ENDBRANCH   1   2
BRANCH   1  26
ATOM     26  C   UNL A   1      34.058  34.479  29.865  1.00  0.00     0.202 C 
BRANCH  26  27
ATOM     27  C   UNL A   1      34.216  33.414  28.770  1.00  0.00     0.261 C 
BRANCH  27  28
ATOM     28  O   UNL A   1      34.252  32.076  29.303  1.00  0.00    -0.460 OA
BRANCH  28  29
ATOM     29  C   UNL A   1      34.377  31.094  28.377  1.00  0.00     0.338 C 
ATOM     30  O   UNL A   1      33.610  30.847  27.456  1.00  0.00    -0.246 OA
BRANCH  29  31
ATOM     31  C   UNL A   1      35.695  30.449  28.502  1.00  0.00     0.060 A 
ATOM     32  C   UNL A   1      36.116  30.062  29.781  1.00  0.00     0.016 A 
ATOM     33  C   UNL A   1      36.541  30.305  27.402  1.00  0.00     0.016 A 
ATOM     34  C   UNL A   1      37.402  29.561  29.971  1.00  0.00     0.010 A 
ATOM     35  C   UNL A   1      37.837  29.811  27.597  1.00  0.00     0.010 A 
ATOM     36  C   UNL A   1      38.283  29.465  28.885  1.00  0.00    -0.014 A 
BRANCH  36  37
ATOM     37  C   UNL A   1      39.708  29.127  29.121  1.00  0.00     0.031 A 
ATOM     38  C   UNL A   1      40.623  30.175  29.697  1.00  0.00     0.074 A 
ATOM     39  C   UNL A   1      40.176  27.898  28.843  1.00  0.00     0.049 A 
ATOM     40  N   UNL A   1      41.905  30.110  29.944  1.00  0.00    -0.248 NA
ATOM     41  C   UNL A   1      40.008  31.469  30.036  1.00  0.00     0.031 C 
ATOM     42  C   UNL A   1      39.379  26.791  28.316  1.00  0.00     0.029 A 
ATOM     43  N   UNL A   1      41.441  27.378  28.959  1.00  0.00    -0.354 N 
ATOM     44  C   UNL A   1      42.253  31.352  30.462  1.00  0.00     0.074 A 
ATOM     45  C   UNL A   1      41.053  32.161  30.466  1.00  0.00     0.031 C 
ATOM     46  C   UNL A   1      40.178  25.723  28.143  1.00  0.00     0.029 A 
ATOM     47  C   UNL A   1      41.546  26.081  28.515  1.00  0.00     0.049 A 
ATOM     48  H   UNL A   1      42.201  27.885  29.326  1.00  0.00     0.167 HD
ATOM     49  C   UNL A   1      43.463  31.777  30.901  1.00  0.00     0.037 A 
ATOM     50  C   UNL A   1      42.626  25.282  28.402  1.00  0.00     0.037 A 
ATOM     51  C   UNL A   1      44.654  30.967  30.895  1.00  0.00     0.049 A 
ATOM     52  C   UNL A   1      43.973  25.797  28.836  1.00  0.00     0.074 A 
ATOM     53  C   UNL A   1      45.923  31.298  31.336  1.00  0.00     0.029 A 
ATOM     54  N   UNL A   1      44.726  29.668  30.413  1.00  0.00    -0.354 N 
ATOM     55  N   UNL A   1      44.284  26.966  29.347  1.00  0.00    -0.248 NA
ATOM     56  C   UNL A   1      45.115  24.886  28.683  1.00  0.00     0.031 C 
ATOM     57  C   UNL A   1      46.772  30.218  31.078  1.00  0.00     0.029 A 
ATOM     58  C   UNL A   1      46.023  29.192  30.524  1.00  0.00     0.049 A 
ATOM     59  H   UNL A   1      43.967  29.159  30.047  1.00  0.00     0.167 HD
ATOM     60  C   UNL A   1      45.653  26.919  29.599  1.00  0.00     0.074 A 
ATOM     61  C   UNL A   1      46.105  25.605  29.194  1.00  0.00     0.031 C 
ATOM     62  C   UNL A   1      46.458  27.878  30.120  1.00  0.00     0.037 A 
BRANCH  49  63
ATOM     63  C   UNL A   1      43.563  33.192  31.402  1.00  0.00     0.058 A 
ATOM     64  C   UNL A   1      43.676  34.281  30.523  1.00  0.00     0.135 A 
ATOM     65  C   UNL A   1      43.517  33.464  32.778  1.00  0.00     0.135 A 
ATOM     66  F   UNL A   1      43.742  34.077  29.198  1.00  0.00    -0.206 F 
ATOM     67  C   UNL A   1      43.770  35.588  30.992  1.00  0.00     0.059 A 
ATOM     68  C   UNL A   1      43.581  34.765  33.270  1.00  0.00     0.059 A 
ATOM     69  F   UNL A   1      43.410  32.460  33.663  1.00  0.00    -0.206 F 
ATOM     70  C   UNL A   1      43.723  35.819  32.369  1.00  0.00     0.060 A 
BRANCH  70  71
ATOM     71  S   UNL A   1      43.847  37.519  32.963  1.00  0.00     0.124 S 
ATOM     72  O   UNL A   1      45.142  37.497  33.638  1.00  0.00    -0.237 OA
ATOM     73  O   UNL A   1      43.792  38.288  31.725  1.00  0.00    -0.237 OA
ATOM     74  O   UNL A   1      42.687  37.659  33.838  1.00  0.00    -0.744 OA
ENDBRANCH  70  71
ENDBRANCH  49  63
BRANCH  50  75
ATOM     75  C   UNL A   1      42.479  23.913  27.841  1.00  0.00     0.058 A 
ATOM     76  C   UNL A   1      42.421  22.789  28.678  1.00  0.00     0.135 A 
ATOM     77  C   UNL A   1      42.386  23.703  26.456  1.00  0.00     0.135 A 
ATOM     78  F   UNL A   1      42.516  22.938  30.008  1.00  0.00    -0.206 F 
ATOM     79  C   UNL A   1      42.287  21.503  28.163  1.00  0.00     0.059 A 
ATOM     80  C   UNL A   1      42.228  22.430  25.918  1.00  0.00     0.059 A 
ATOM     81  F   UNL A   1      42.428  24.746  25.613  1.00  0.00    -0.206 F 
ATOM     82  C   UNL A   1      42.186  21.335  26.780  1.00  0.00     0.060 A 
BRANCH  82  83
ATOM     83  S   UNL A   1      41.956  19.667  26.125  1.00  0.00     0.124 S 
ATOM     84  O   UNL A   1      42.895  19.658  25.010  1.00  0.00    -0.237 OA
ATOM     85  O   UNL A   1      42.313  18.837  27.270  1.00  0.00    -0.237 OA
ATOM     86  O   UNL A   1      40.542  19.643  25.761  1.00  0.00    -0.744 OA
ENDBRANCH  82  83
ENDBRANCH  50  75
BRANCH  62  87
ATOM     87  C   UNL A   1      47.911  27.534  30.315  1.00  0.00     0.058 A 
ATOM     88  C   UNL A   1      48.877  27.832  29.342  1.00  0.00     0.135 A 
ATOM     89  C   UNL A   1      48.347  26.946  31.514  1.00  0.00     0.135 A 
ATOM     90  F   UNL A   1      48.514  28.387  28.176  1.00  0.00    -0.206 F 
ATOM     91  C   UNL A   1      50.223  27.539  29.542  1.00  0.00     0.059 A 
ATOM     92  C   UNL A   1      49.691  26.671  31.746  1.00  0.00     0.059 A 
ATOM     93  F   UNL A   1      47.465  26.651  32.482  1.00  0.00    -0.206 F 
ATOM     94  C   UNL A   1      50.620  26.960  30.749  1.00  0.00     0.060 A 
BRANCH  94  95
ATOM     95  S   UNL A   1      52.373  26.616  31.009  1.00  0.00     0.124 S 
ATOM     96  O   UNL A   1      52.317  25.469  31.909  1.00  0.00    -0.237 OA
ATOM     97  O   UNL A   1      52.843  26.337  29.655  1.00  0.00    -0.237 OA
ATOM     98  O   UNL A   1      52.879  27.853  31.597  1.00  0.00    -0.744 OA
ENDBRANCH  94  95
ENDBRANCH  62  87
ENDBRANCH  36  37
ENDBRANCH  29  31
ENDBRANCH  28  29
ENDBRANCH  27  28
ENDBRANCH  26  27
ENDBRANCH   1  26
TORSDOF 20
ENDMDL
MODEL 2
REMARK VINA RESULT:      -8.9      5.370     12.240
REMARK SMILES Cc1ccc(F)cc1NS(=O)(=O)c1ccc(C(=O)OCCOCCOC(=O)c2ccc(-c3c4nc(c(-c5c(F)cc(S(=O)(=O)[O-])cc5F)c5ccc([nH]5)c(-c5c(F)cc(S(=O)(=O)[O-])cc5F)c5nc(c(-c6c(F)cc(S(=O)(=O)[O-])cc6F)c6ccc3[nH]6)C=C5)C=C4)cc2)cc1
REMARK SMILES IDX 22 1 21 2 20 3 19 4 17 5 18 6 16 7 13 8 14 9 95 10 15 11
REMARK SMILES IDX 94 12 10 13 11 14 12 15 9 16 8 18 1 19 2 20 3 21 4 22 7 23
REMARK SMILES IDX 5 24 6 25 23 26 24 27 25 28 26 29 27 30 28 31 29 32 93 33
REMARK SMILES IDX 30 34 92 35 31 36 32 37 33 38 86 39 34 40 91 41 85 42 87 43
REMARK SMILES IDX 35 44 90 45 84 46 83 47 36 49 70 50 49 51 69 52 50 53 53 54
REMARK SMILES IDX 68 55 88 56 51 57 52 58 67 60 89 61 54 62 37 63 38 64 47 65
REMARK SMILES IDX 39 66 40 67 46 68 48 69 41 70 42 71 43 72 44 73 45 74 71 75
REMARK SMILES IDX 72 76 81 77 73 78 74 79 80 80 82 81 75 82 76 83 77 84 78 85
REMARK SMILES IDX 79 86 55 87 56 88 65 89 57 90 58 91 64 92 66 93 59 94 60 95
REMARK SMILES IDX 61 96 62 97 63 98
REMARK H PARENT 9 17 87 48 53 59
REMARK Flexibility Score: inf
ROOT
ATOM      1  O   UNL A   1      40.812  22.076  27.548  1.00  0.00    -0.374 OA
ENDROOT
BRANCH   1   2
ATOM      2  C   UNL A   1      39.754  22.639  26.778  1.00  0.00     0.202 C 
BRANCH   2   3
ATOM      3  C   UNL A   1      38.972  21.701  25.850  1.00  0.00     0.261 C 
BRANCH   3   4
ATOM      4  O   UNL A   1      37.618  22.121  25.628  1.00  0.00    -0.460 OA
BRANCH   4   5
ATOM      5  C   UNL A   1      36.756  21.125  25.302  1.00  0.00     0.338 C 
ATOM      6  O   UNL A   1      37.054  20.000  24.926  1.00  0.00    -0.246 OA
BRANCH   5   7
ATOM      7  C   UNL A   1      35.344  21.522  25.560  1.00  0.00     0.060 A 
ATOM      8  C   UNL A   1      32.750  22.485  26.028  1.00  0.00     0.087 A 
ATOM      9  C   UNL A   1      33.825  23.045  26.716  1.00  0.00     0.023 A 
ATOM     10  C   UNL A   1      32.961  21.400  25.160  1.00  0.00     0.023 A 
ATOM     11  C   UNL A   1      35.120  22.584  26.454  1.00  0.00     0.017 A 
ATOM     12  C   UNL A   1      34.253  20.911  24.935  1.00  0.00     0.017 A 
BRANCH   8  13
ATOM     13  S   UNL A   1      31.090  23.088  26.215  1.00  0.00     0.261 S 
ATOM     14  O   UNL A   1      31.079  23.850  27.449  1.00  0.00    -0.201 OA
ATOM     15  O   UNL A   1      30.197  21.965  26.040  1.00  0.00    -0.201 OA
BRANCH  13  16
ATOM     16  N   UNL A   1      30.655  24.217  25.037  1.00  0.00    -0.279 N 
ATOM     17  H   UNL A   1      29.700  24.456  24.991  1.00  0.00     0.180 HD
BRANCH  16  18
ATOM     18  C   UNL A   1      31.517  24.864  24.098  1.00  0.00     0.055 A 
ATOM     19  C   UNL A   1      31.506  27.026  25.524  1.00  0.00     0.046 C 
ATOM     20  C   UNL A   1      31.992  26.167  24.382  1.00  0.00    -0.027 A 
ATOM     21  C   UNL A   1      32.922  26.768  23.512  1.00  0.00     0.008 A 
ATOM     22  C   UNL A   1      33.320  26.124  22.345  1.00  0.00     0.039 A 
ATOM     23  C   UNL A   1      31.801  24.306  22.851  1.00  0.00     0.066 A 
ATOM     24  C   UNL A   1      32.729  24.915  22.010  1.00  0.00     0.125 A 
ATOM     25  F   UNL A   1      33.066  24.319  20.860  1.00  0.00    -0.207 F 
ENDBRANCH  16  18
ENDBRANCH  13  16
ENDBRANCH   8  13
ENDBRANCH   5   7
ENDBRANCH   4   5
ENDBRANCH   3   4
ENDBRANCH   2   3
ENDBRANCH   1   2
BRANCH   1  26
ATOM     26  C   UNL A   1      42.136  22.149  27.012  1.00  0.00     0.202 C 
BRANCH  26  27
ATOM     27  C   UNL A   1      42.361  23.072  25.806  1.00  0.00     0.261 C 
BRANCH  27  28
ATOM     28  O   UNL A   1      42.967  24.326  26.176  1.00  0.00    -0.460 OA
BRANCH  28  29
ATOM     29  C   UNL A   1      42.167  25.411  26.037  1.00  0.00     0.338 C 
ATOM     30  O   UNL A   1      41.455  25.685  25.079  1.00  0.00    -0.246 OA
BRANCH  29  31
ATOM     31  C   UNL A   1      42.110  26.160  27.304  1.00  0.00     0.060 A 
ATOM     32  C   UNL A   1      41.044  25.896  28.173  1.00  0.00     0.016 A 
ATOM     33  C   UNL A   1      43.033  27.165  27.596  1.00  0.00     0.016 A 
ATOM     34  C   UNL A   1      40.876  26.663  29.325  1.00  0.00     0.010 A 
ATOM     35  C   UNL A   1      42.856  27.941  28.747  1.00  0.00     0.010 A 
ATOM     36  C   UNL A   1      41.761  27.714  29.601  1.00  0.00    -0.014 A 
BRANCH  36  37
ATOM     37  C   UNL A   1      41.465  28.653  30.710  1.00  0.00     0.031 A 
ATOM     38  C   UNL A   1      42.290  28.582  31.968  1.00  0.00     0.074 A 
ATOM     39  C   UNL A   1      40.488  29.569  30.591  1.00  0.00     0.049 A 
ATOM     40  N   UNL A   1      42.179  29.275  33.071  1.00  0.00    -0.248 NA
ATOM     41  C   UNL A   1      43.383  27.597  31.981  1.00  0.00     0.031 C 
ATOM     42  C   UNL A   1      39.648  29.756  29.410  1.00  0.00     0.029 A 
ATOM     43  N   UNL A   1      40.034  30.509  31.481  1.00  0.00    -0.354 N 
ATOM     44  C   UNL A   1      43.182  28.808  33.913  1.00  0.00     0.074 A 
ATOM     45  C   UNL A   1      43.872  27.752  33.203  1.00  0.00     0.031 C 
ATOM     46  C   UNL A   1      38.769  30.745  29.653  1.00  0.00     0.029 A 
ATOM     47  C   UNL A   1      38.964  31.237  31.016  1.00  0.00     0.049 A 
ATOM     48  H   UNL A   1      40.435  30.650  32.369  1.00  0.00     0.167 HD
ATOM     49  C   UNL A   1      43.501  29.226  35.162  1.00  0.00     0.037 A 
ATOM     50  C   UNL A   1      38.215  32.175  31.628  1.00  0.00     0.037 A 
ATOM     51  C   UNL A   1      42.809  30.277  35.862  1.00  0.00     0.049 A 
ATOM     52  C   UNL A   1      38.549  32.580  33.040  1.00  0.00     0.074 A 
ATOM     53  C   UNL A   1      43.069  30.788  37.122  1.00  0.00     0.029 A 
ATOM     54  N   UNL A   1      41.715  30.972  35.369  1.00  0.00    -0.354 N 
ATOM     55  N   UNL A   1      39.514  32.147  33.816  1.00  0.00    -0.248 NA
ATOM     56  C   UNL A   1      37.694  33.602  33.659  1.00  0.00     0.031 C 
ATOM     57  C   UNL A   1      42.104  31.757  37.409  1.00  0.00     0.029 A 
ATOM     58  C   UNL A   1      41.272  31.889  36.308  1.00  0.00     0.049 A 
ATOM     59  H   UNL A   1      41.312  30.833  34.481  1.00  0.00     0.167 HD
ATOM     60  C   UNL A   1      39.398  32.863  35.005  1.00  0.00     0.074 A 
ATOM     61  C   UNL A   1      38.275  33.762  34.840  1.00  0.00     0.031 C 
ATOM     62  C   UNL A   1      40.154  32.782  36.128  1.00  0.00     0.037 A 
BRANCH  49  63
ATOM     63  C   UNL A   1      44.635  28.526  35.860  1.00  0.00     0.058 A 
ATOM     64  C   UNL A   1      45.970  28.926  35.688  1.00  0.00     0.135 A 
ATOM     65  C   UNL A   1      44.379  27.457  36.734  1.00  0.00     0.135 A 
ATOM     66  F   UNL A   1      46.272  29.931  34.851  1.00  0.00    -0.206 F 
ATOM     67  C   UNL A   1      47.014  28.272  36.336  1.00  0.00     0.059 A 
ATOM     68  C   UNL A   1      45.405  26.806  37.414  1.00  0.00     0.059 A 
ATOM     69  F   UNL A   1      43.121  27.033  36.935  1.00  0.00    -0.206 F 
ATOM     70  C   UNL A   1      46.721  27.212  37.196  1.00  0.00     0.060 A 
BRANCH  70  71
ATOM     71  S   UNL A   1      48.085  26.373  38.028  1.00  0.00     0.124 S 
ATOM     72  O   UNL A   1      47.448  25.128  38.447  1.00  0.00    -0.237 OA
ATOM     73  O   UNL A   1      49.073  26.249  36.961  1.00  0.00    -0.237 OA
ATOM     74  O   UNL A   1      48.442  27.288  39.106  1.00  0.00    -0.744 OA
ENDBRANCH  70  71
ENDBRANCH  49  63
BRANCH  50  75
ATOM     75  C   UNL A   1      37.066  32.790  30.911  1.00  0.00     0.058 A 
ATOM     76  C   UNL A   1      35.759  32.320  31.099  1.00  0.00     0.135 A 
ATOM     77  C   UNL A   1      37.254  33.866  30.029  1.00  0.00     0.135 A 
ATOM     78  F   UNL A   1      35.529  31.287  31.924  1.00  0.00    -0.206 F 
ATOM     79  C   UNL A   1      34.677  32.886  30.430  1.00  0.00     0.059 A 
ATOM     80  C   UNL A   1      36.187  34.464  29.368  1.00  0.00     0.059 A 
ATOM     81  F   UNL A   1      38.485  34.358  29.822  1.00  0.00    -0.206 F 
ATOM     82  C   UNL A   1      34.902  33.962  29.570  1.00  0.00     0.060 A 
BRANCH  82  83
ATOM     83  S   UNL A   1      33.486  34.727  28.750  1.00  0.00     0.124 S 
ATOM     84  O   UNL A   1      34.099  35.902  28.140  1.00  0.00    -0.237 OA
ATOM     85  O   UNL A   1      33.061  33.677  27.831  1.00  0.00    -0.237 OA
ATOM     86  O   UNL A   1      32.566  34.994  29.851  1.00  0.00    -0.744 OA
ENDBRANCH  82  83
ENDBRANCH  50  75
BRANCH  62  87
ATOM     87  C   UNL A   1      39.816  33.714  37.262  1.00  0.00     0.058 A 
ATOM     88  C   UNL A   1      38.907  33.353  38.268  1.00  0.00     0.135 A 
ATOM     89  C   UNL A   1      40.451  34.962  37.368  1.00  0.00     0.135 A 
ATOM     90  F   UNL A   1      38.268  32.174  38.210  1.00  0.00    -0.206 F 
ATOM     91  C   UNL A   1      38.623  34.206  39.329  1.00  0.00     0.059 A 
ATOM     92  C   UNL A   1      40.202  35.820  38.436  1.00  0.00     0.059 A 
ATOM     93  F   UNL A   1      41.338  35.352  36.438  1.00  0.00    -0.206 F 
ATOM     94  C   UNL A   1      39.277  35.438  39.405  1.00  0.00     0.060 A 
BRANCH  94  95
ATOM     95  S   UNL A   1      38.924  36.522  40.805  1.00  0.00     0.124 S 
ATOM     96  O   UNL A   1      37.895  35.765  41.511  1.00  0.00    -0.237 OA
ATOM     97  O   UNL A   1      40.220  36.605  41.472  1.00  0.00    -0.237 OA
ATOM     98  O   UNL A   1      38.473  37.758  40.173  1.00  0.00    -0.744 OA
ENDBRANCH  94  95
ENDBRANCH  62  87
ENDBRANCH  36  37
ENDBRANCH  29  31
ENDBRANCH  28  29
ENDBRANCH  27  28
ENDBRANCH  26  27
ENDBRANCH   1  26
TORSDOF 20
ENDMDL
MODEL 3
REMARK VINA RESULT:      -8.8      4.040      6.737
REMARK SMILES Cc1ccc(F)cc1NS(=O)(=O)c1ccc(C(=O)OCCOCCOC(=O)c2ccc(-c3c4nc(c(-c5c(F)cc(S(=O)(=O)[O-])cc5F)c5ccc([nH]5)c(-c5c(F)cc(S(=O)(=O)[O-])cc5F)c5nc(c(-c6c(F)cc(S(=O)(=O)[O-])cc6F)c6ccc3[nH]6)C=C5)C=C4)cc2)cc1
REMARK SMILES IDX 22 1 21 2 20 3 19 4 17 5 18 6 16 7 13 8 14 9 95 10 15 11
REMARK SMILES IDX 94 12 10 13 11 14 12 15 9 16 8 18 1 19 2 20 3 21 4 22 7 23
REMARK SMILES IDX 5 24 6 25 23 26 24 27 25 28 26 29 27 30 28 31 29 32 93 33
REMARK SMILES IDX 30 34 92 35 31 36 32 37 33 38 86 39 34 40 91 41 85 42 87 43
REMARK SMILES IDX 35 44 90 45 84 46 83 47 36 49 70 50 49 51 69 52 50 53 53 54
REMARK SMILES IDX 68 55 88 56 51 57 52 58 67 60 89 61 54 62 37 63 38 64 47 65
REMARK SMILES IDX 39 66 40 67 46 68 48 69 41 70 42 71 43 72 44 73 45 74 71 75
REMARK SMILES IDX 72 76 81 77 73 78 74 79 80 80 82 81 75 82 76 83 77 84 78 85
REMARK SMILES IDX 79 86 55 87 56 88 65 89 57 90 58 91 64 92 66 93 59 94 60 95
REMARK SMILES IDX 61 96 62 97 63 98
REMARK H PARENT 9 17 87 48 53 59
REMARK Flexibility Score: inf
ROOT
ATOM      1  O   UNL A   1      33.790  32.454  28.716  1.00  0.00    -0.374 OA
ENDROOT
BRANCH   1   2
ATOM      2  C   UNL A   1      34.274  31.669  27.631  1.00  0.00     0.202 C 
BRANCH   2   3
ATOM      3  C   UNL A   1      34.102  30.147  27.721  1.00  0.00     0.261 C 
BRANCH   3   4
ATOM      4  O   UNL A   1      34.181  29.490  26.448  1.00  0.00    -0.460 OA
BRANCH   4   5
ATOM      5  C   UNL A   1      32.984  29.226  25.865  1.00  0.00     0.338 C 
ATOM      6  O   UNL A   1      32.269  30.026  25.279  1.00  0.00    -0.246 OA
BRANCH   5   7
ATOM      7  C   UNL A   1      32.662  27.773  25.920  1.00  0.00     0.060 A 
ATOM      8  C   UNL A   1      32.213  25.015  26.182  1.00  0.00     0.087 A 
ATOM      9  C   UNL A   1      33.519  25.491  26.071  1.00  0.00     0.023 A 
ATOM     10  C   UNL A   1      31.131  25.907  26.092  1.00  0.00     0.023 A 
ATOM     11  C   UNL A   1      33.739  26.870  25.974  1.00  0.00     0.017 A 
ATOM     12  C   UNL A   1      31.354  27.283  25.949  1.00  0.00     0.017 A 
BRANCH   8  13
ATOM     13  S   UNL A   1      31.851  23.294  26.423  1.00  0.00     0.261 S 
ATOM     14  O   UNL A   1      30.446  23.133  26.103  1.00  0.00    -0.201 OA
ATOM     15  O   UNL A   1      32.352  22.922  27.728  1.00  0.00    -0.201 OA
BRANCH  13  16
ATOM     16  N   UNL A   1      32.638  22.287  25.319  1.00  0.00    -0.279 N 
ATOM     17  H   UNL A   1      32.102  21.555  24.935  1.00  0.00     0.180 HD
BRANCH  16  18
ATOM     18  C   UNL A   1      33.996  22.379  24.879  1.00  0.00     0.055 A 
ATOM     19  C   UNL A   1      33.216  23.062  22.505  1.00  0.00     0.046 C 
ATOM     20  C   UNL A   1      34.265  22.837  23.567  1.00  0.00    -0.027 A 
ATOM     21  C   UNL A   1      35.601  23.027  23.163  1.00  0.00     0.008 A 
ATOM     22  C   UNL A   1      36.652  22.701  24.014  1.00  0.00     0.039 A 
ATOM     23  C   UNL A   1      35.056  21.908  25.655  1.00  0.00     0.066 A 
ATOM     24  C   UNL A   1      36.368  22.113  25.237  1.00  0.00     0.125 A 
ATOM     25  F   UNL A   1      37.378  21.745  26.035  1.00  0.00    -0.207 F 
ENDBRANCH  16  18
ENDBRANCH  13  16
ENDBRANCH   8  13
ENDBRANCH   5   7
ENDBRANCH   4   5
ENDBRANCH   3   4
ENDBRANCH   2   3
ENDBRANCH   1   2
BRANCH   1  26
ATOM     26  C   UNL A   1      34.470  33.677  29.008  1.00  0.00     0.202 C 
BRANCH  26  27
ATOM     27  C   UNL A   1      35.343  33.717  30.270  1.00  0.00     0.261 C 
BRANCH  27  28
ATOM     28  O   UNL A   1      36.568  32.973  30.117  1.00  0.00    -0.460 OA
BRANCH  28  29
ATOM     29  C   UNL A   1      36.576  31.756  30.715  1.00  0.00     0.338 C 
ATOM     30  O   UNL A   1      35.686  31.261  31.393  1.00  0.00    -0.246 OA
BRANCH  29  31
ATOM     31  C   UNL A   1      37.758  30.991  30.281  1.00  0.00     0.060 A 
ATOM     32  C   UNL A   1      38.708  30.647  31.251  1.00  0.00     0.016 A 
ATOM     33  C   UNL A   1      37.975  30.691  28.936  1.00  0.00     0.016 A 
ATOM     34  C   UNL A   1      39.900  30.032  30.873  1.00  0.00     0.010 A 
ATOM     35  C   UNL A   1      39.178  30.082  28.557  1.00  0.00     0.010 A 
ATOM     36  C   UNL A   1      40.158  29.778  29.519  1.00  0.00    -0.014 A 
BRANCH  36  37
ATOM     37  C   UNL A   1      41.503  29.313  29.100  1.00  0.00     0.031 A 
ATOM     38  C   UNL A   1      42.641  30.298  29.074  1.00  0.00     0.074 A 
ATOM     39  C   UNL A   1      41.711  28.028  28.766  1.00  0.00     0.049 A 
ATOM     40  N   UNL A   1      43.883  30.120  28.704  1.00  0.00    -0.248 NA
ATOM     41  C   UNL A   1      42.337  31.666  29.525  1.00  0.00     0.031 C 
ATOM     42  C   UNL A   1      40.696  26.976  28.786  1.00  0.00     0.029 A 
ATOM     43  N   UNL A   1      42.848  27.391  28.334  1.00  0.00    -0.354 N 
ATOM     44  C   UNL A   1      44.507  31.351  28.870  1.00  0.00     0.074 A 
ATOM     45  C   UNL A   1      43.500  32.275  29.347  1.00  0.00     0.031 C 
ATOM     46  C   UNL A   1      41.254  25.824  28.373  1.00  0.00     0.029 A 
ATOM     47  C   UNL A   1      42.654  26.065  28.029  1.00  0.00     0.049 A 
ATOM     48  H   UNL A   1      43.720  27.842  28.252  1.00  0.00     0.167 HD
ATOM     49  C   UNL A   1      45.804  31.678  28.651  1.00  0.00     0.037 A 
ATOM     50  C   UNL A   1      43.504  25.156  27.510  1.00  0.00     0.037 A 
ATOM     51  C   UNL A   1      46.800  30.754  28.176  1.00  0.00     0.049 A 
ATOM     52  C   UNL A   1      44.925  25.559  27.215  1.00  0.00     0.074 A 
ATOM     53  C   UNL A   1      48.145  30.983  27.942  1.00  0.00     0.029 A 
ATOM     54  N   UNL A   1      46.560  29.426  27.853  1.00  0.00    -0.354 N 
ATOM     55  N   UNL A   1      45.509  26.720  27.399  1.00  0.00    -0.248 NA
ATOM     56  C   UNL A   1      45.804  24.530  26.644  1.00  0.00     0.031 C 
ATOM     57  C   UNL A   1      48.706  29.808  27.433  1.00  0.00     0.029 A 
ATOM     58  C   UNL A   1      47.725  28.831  27.398  1.00  0.00     0.049 A 
ATOM     59  H   UNL A   1      45.689  28.974  27.936  1.00  0.00     0.167 HD
ATOM     60  C   UNL A   1      46.829  26.552  26.990  1.00  0.00     0.074 A 
ATOM     61  C   UNL A   1      46.959  25.176  26.560  1.00  0.00     0.031 C 
ATOM     62  C   UNL A   1      47.840  27.456  26.976  1.00  0.00     0.037 A 
BRANCH  49  63
ATOM     63  C   UNL A   1      46.211  33.105  28.899  1.00  0.00     0.058 A 
ATOM     64  C   UNL A   1      46.657  33.539  30.158  1.00  0.00     0.135 A 
ATOM     65  C   UNL A   1      46.180  34.045  27.856  1.00  0.00     0.135 A 
ATOM     66  F   UNL A   1      46.691  32.686  31.194  1.00  0.00    -0.206 F 
ATOM     67  C   UNL A   1      47.031  34.861  30.381  1.00  0.00     0.059 A 
ATOM     68  C   UNL A   1      46.575  35.366  28.049  1.00  0.00     0.059 A 
ATOM     69  F   UNL A   1      45.761  33.684  26.633  1.00  0.00    -0.206 F 
ATOM     70  C   UNL A   1      46.985  35.767  29.320  1.00  0.00     0.060 A 
BRANCH  70  71
ATOM     71  S   UNL A   1      47.471  37.479  29.624  1.00  0.00     0.124 S 
ATOM     72  O   UNL A   1      48.485  37.680  28.594  1.00  0.00    -0.237 OA
ATOM     73  O   UNL A   1      46.218  38.200  29.427  1.00  0.00    -0.237 OA
ATOM     74  O   UNL A   1      47.967  37.454  30.996  1.00  0.00    -0.744 OA
ENDBRANCH  70  71
ENDBRANCH  49  63
BRANCH  50  75
ATOM     75  C   UNL A   1      43.030  23.776  27.227  1.00  0.00     0.058 A 
ATOM     76  C   UNL A   1      42.597  23.407  25.945  1.00  0.00     0.135 A 
ATOM     77  C   UNL A   1      43.007  22.796  28.232  1.00  0.00     0.135 A 
ATOM     78  F   UNL A   1      42.589  24.310  24.954  1.00  0.00    -0.206 F 
ATOM     79  C   UNL A   1      42.148  22.118  25.670  1.00  0.00     0.059 A 
ATOM     80  C   UNL A   1      42.586  21.495  27.977  1.00  0.00     0.059 A 
ATOM     81  F   UNL A   1      43.420  23.096  29.473  1.00  0.00    -0.206 F 
ATOM     82  C   UNL A   1      42.151  21.168  26.693  1.00  0.00     0.060 A 
BRANCH  82  83
ATOM     83  S   UNL A   1      41.620  19.484  26.313  1.00  0.00     0.124 S 
ATOM     84  O   UNL A   1      42.521  19.132  25.221  1.00  0.00    -0.237 OA
ATOM     85  O   UNL A   1      41.851  18.797  27.579  1.00  0.00    -0.237 OA
ATOM     86  O   UNL A   1      40.217  19.650  25.946  1.00  0.00    -0.744 OA
ENDBRANCH  82  83
ENDBRANCH  50  75
BRANCH  62  87
ATOM     87  C   UNL A   1      49.190  26.981  26.509  1.00  0.00     0.058 A 
ATOM     88  C   UNL A   1      50.082  26.327  27.373  1.00  0.00     0.135 A 
ATOM     89  C   UNL A   1      49.573  27.137  25.167  1.00  0.00     0.135 A 
ATOM     90  F   UNL A   1      49.768  26.157  28.667  1.00  0.00    -0.206 F 
ATOM     91  C   UNL A   1      51.315  25.862  26.928  1.00  0.00     0.059 A 
ATOM     92  C   UNL A   1      50.791  26.656  24.694  1.00  0.00     0.059 A 
ATOM     93  F   UNL A   1      48.753  27.746  24.296  1.00  0.00    -0.206 F 
ATOM     94  C   UNL A   1      51.660  26.030  25.585  1.00  0.00     0.060 A 
BRANCH  94  95
ATOM     95  S   UNL A   1      53.250  25.394  25.012  1.00  0.00     0.124 S 
ATOM     96  O   UNL A   1      53.185  25.686  23.583  1.00  0.00    -0.237 OA
ATOM     97  O   UNL A   1      54.202  26.190  25.780  1.00  0.00    -0.237 OA
ATOM     98  O   UNL A   1      53.197  23.979  25.367  1.00  0.00    -0.744 OA
ENDBRANCH  94  95
ENDBRANCH  62  87
ENDBRANCH  36  37
ENDBRANCH  29  31
ENDBRANCH  28  29
ENDBRANCH  27  28
ENDBRANCH  26  27
ENDBRANCH   1  26
TORSDOF 20
ENDMDL
