MODEL 1
REMARK VINA RESULT:     -10.6      0.000      0.000
REMARK SMILES O=C1CN(S(=O)(=O)c2ccc(CC(=O)OCCOCCOC(=O)c3ccc(-c4c5nc(c(-c6c(F)cc(S(=O)(=O)[O-])cc6F)c6ccc([nH]6)c(-c6c(F)cc(S(=O)(=O)[O-])cc6F)c6nc(c(-c7c(F)cc(S(=O)(=O)[O-])cc7F)c7ccc4[nH]7)C=C6)C=C5)cc3)cc2)CCN1
REMARK SMILES IDX 18 1 17 2 16 3 15 4 13 5 14 6 12 7 11 8 8 9 9 10 91 11 10 12
REMARK SMILES IDX 90 13 5 14 6 15 7 16 4 17 1 18 2 19 3 20 94 21 93 22 92 24
REMARK SMILES IDX 19 25 20 26 21 27 22 28 23 29 24 30 25 31 89 32 26 33 88 34
REMARK SMILES IDX 27 35 28 36 29 37 82 38 30 39 87 40 81 41 83 42 31 43 86 44
REMARK SMILES IDX 80 45 79 46 32 48 66 49 45 50 65 51 46 52 49 53 64 54 84 55
REMARK SMILES IDX 47 56 48 57 63 59 85 60 50 61 33 62 34 63 43 64 35 65 36 66
REMARK SMILES IDX 42 67 44 68 37 69 38 70 39 71 40 72 41 73 67 74 68 75 77 76
REMARK SMILES IDX 69 77 70 78 76 79 78 80 71 81 72 82 73 83 74 84 75 85 51 86
REMARK SMILES IDX 52 87 61 88 53 89 54 90 60 91 62 92 55 93 56 94 57 95 58 96
REMARK SMILES IDX 59 97
REMARK H PARENT 94 23 83 47 49 58
REMARK Flexibility Score: inf
ROOT
ATOM      1  O   UNL A   1      34.822  33.537  31.120  1.00  0.00    -0.374 OA
ENDROOT
BRANCH   1   2
ATOM      2  C   UNL A   1      34.176  34.044  29.954  1.00  0.00     0.202 C 
BRANCH   2   3
ATOM      3  C   UNL A   1      34.651  33.522  28.594  1.00  0.00     0.261 C 
BRANCH   3   4
ATOM      4  O   UNL A   1      33.616  32.848  27.851  1.00  0.00    -0.463 OA
BRANCH   4   5
ATOM      5  C   UNL A   1      33.792  31.512  27.682  1.00  0.00     0.310 C 
ATOM      6  O   UNL A   1      34.839  30.912  27.914  1.00  0.00    -0.252 OA
BRANCH   5   7
ATOM      7  C   UNL A   1      32.583  30.783  27.142  1.00  0.00     0.158 C 
BRANCH   7   8
ATOM      8  C   UNL A   1      32.720  29.335  26.724  1.00  0.00    -0.037 A 
ATOM      9  C   UNL A   1      32.871  26.660  25.874  1.00  0.00     0.082 A 
ATOM     10  C   UNL A   1      33.705  27.619  25.294  1.00  0.00     0.022 A 
ATOM     11  C   UNL A   1      31.988  27.023  26.895  1.00  0.00     0.022 A 
ATOM     12  C   UNL A   1      33.624  28.952  25.717  1.00  0.00     0.006 A 
ATOM     13  C   UNL A   1      31.906  28.355  27.308  1.00  0.00     0.006 A 
BRANCH   9  14
ATOM     14  S   UNL A   1      33.076  24.938  25.472  1.00  0.00     0.243 S 
ATOM     15  O   UNL A   1      33.254  24.228  26.723  1.00  0.00    -0.207 OA
ATOM     16  O   UNL A   1      34.072  24.846  24.431  1.00  0.00    -0.207 OA
BRANCH  14  17
ATOM     17  N   UNL A   1      31.593  24.437  24.775  1.00  0.00    -0.187 NA
ATOM     18  O   UNL A   1      29.828  23.010  27.641  1.00  0.00    -0.274 OA
ATOM     19  C   UNL A   1      30.443  23.061  26.579  1.00  0.00     0.235 C 
ATOM     20  C   UNL A   1      30.436  24.304  25.703  1.00  0.00     0.202 C 
ATOM     21  N   UNL A   1      31.058  21.943  26.075  1.00  0.00    -0.354 N 
ATOM     22  C   UNL A   1      31.932  21.950  24.915  1.00  0.00     0.132 C 
ATOM     23  H   UNL A   1      30.895  21.083  26.528  1.00  0.00     0.163 HD
ATOM     24  C   UNL A   1      31.719  23.157  23.989  1.00  0.00     0.124 C 
ENDBRANCH  14  17
ENDBRANCH   9  14
ENDBRANCH   7   8
ENDBRANCH   5   7
ENDBRANCH   4   5
ENDBRANCH   3   4
ENDBRANCH   2   3
ENDBRANCH   1   2
BRANCH   1  25
ATOM     25  C   UNL A   1      35.978  32.724  30.939  1.00  0.00     0.202 C 
BRANCH  25  26
ATOM     26  C   UNL A   1      36.746  32.263  32.185  1.00  0.00     0.261 C 
BRANCH  26  27
ATOM     27  O   UNL A   1      36.579  30.867  32.476  1.00  0.00    -0.460 OA
BRANCH  27  28
ATOM     28  C   UNL A   1      36.738  30.056  31.400  1.00  0.00     0.338 C 
ATOM     29  O   UNL A   1      35.857  29.491  30.771  1.00  0.00    -0.246 OA
BRANCH  28  30
ATOM     30  C   UNL A   1      38.139  30.073  30.940  1.00  0.00     0.060 A 
ATOM     31  C   UNL A   1      38.356  30.187  29.560  1.00  0.00     0.016 A 
ATOM     32  C   UNL A   1      39.212  29.883  31.814  1.00  0.00     0.016 A 
ATOM     33  C   UNL A   1      39.638  30.035  29.040  1.00  0.00     0.010 A 
ATOM     34  C   UNL A   1      40.499  29.727  31.289  1.00  0.00     0.010 A 
ATOM     35  C   UNL A   1      40.709  29.753  29.898  1.00  0.00    -0.014 A 
BRANCH  35  36
ATOM     36  C   UNL A   1      42.000  29.311  29.316  1.00  0.00     0.031 A 
ATOM     37  C   UNL A   1      43.132  30.301  29.228  1.00  0.00     0.074 A 
ATOM     38  C   UNL A   1      42.178  28.037  28.924  1.00  0.00     0.049 A 
ATOM     39  N   UNL A   1      44.340  30.141  28.753  1.00  0.00    -0.248 NA
ATOM     40  C   UNL A   1      42.865  31.653  29.745  1.00  0.00     0.031 C 
ATOM     41  C   UNL A   1      41.168  26.982  29.001  1.00  0.00     0.029 A 
ATOM     42  N   UNL A   1      43.274  27.414  28.382  1.00  0.00    -0.354 N 
ATOM     43  C   UNL A   1      44.971  31.371  28.903  1.00  0.00     0.074 A 
ATOM     44  C   UNL A   1      44.004  32.277  29.484  1.00  0.00     0.031 C 
ATOM     45  C   UNL A   1      41.689  25.842  28.515  1.00  0.00     0.029 A 
ATOM     46  C   UNL A   1      43.058  26.094  28.065  1.00  0.00     0.049 A 
ATOM     47  H   UNL A   1      44.134  27.870  28.234  1.00  0.00     0.167 HD
ATOM     48  C   UNL A   1      46.246  31.711  28.594  1.00  0.00     0.037 A 
ATOM     49  C   UNL A   1      43.867  25.199  27.464  1.00  0.00     0.037 A 
ATOM     50  C   UNL A   1      47.202  30.800  28.021  1.00  0.00     0.049 A 
ATOM     51  C   UNL A   1      45.263  25.614  27.081  1.00  0.00     0.074 A 
ATOM     52  C   UNL A   1      48.523  31.039  27.683  1.00  0.00     0.029 A 
ATOM     53  N   UNL A   1      46.939  29.477  27.695  1.00  0.00    -0.354 N 
ATOM     54  N   UNL A   1      45.854  26.776  27.243  1.00  0.00    -0.248 NA
ATOM     55  C   UNL A   1      46.108  24.597  26.440  1.00  0.00     0.031 C 
ATOM     56  C   UNL A   1      49.042  29.875  27.105  1.00  0.00     0.029 A 
ATOM     57  C   UNL A   1      48.066  28.892  27.141  1.00  0.00     0.049 A 
ATOM     58  H   UNL A   1      46.079  29.021  27.839  1.00  0.00     0.167 HD
ATOM     59  C   UNL A   1      47.149  26.616  26.760  1.00  0.00     0.074 A 
ATOM     60  C   UNL A   1      47.257  25.246  26.304  1.00  0.00     0.031 C 
ATOM     61  C   UNL A   1      48.160  27.521  26.705  1.00  0.00     0.037 A 
BRANCH  48  62
ATOM     62  C   UNL A   1      46.670  33.135  28.843  1.00  0.00     0.058 A 
ATOM     63  C   UNL A   1      47.247  33.536  30.059  1.00  0.00     0.135 A 
ATOM     64  C   UNL A   1      46.526  34.104  27.838  1.00  0.00     0.135 A 
ATOM     65  F   UNL A   1      47.395  32.656  31.062  1.00  0.00    -0.206 F 
ATOM     66  C   UNL A   1      47.641  34.853  30.278  1.00  0.00     0.059 A 
ATOM     67  C   UNL A   1      46.940  35.420  28.024  1.00  0.00     0.059 A 
ATOM     68  F   UNL A   1      45.978  33.777  26.657  1.00  0.00    -0.206 F 
ATOM     69  C   UNL A   1      47.484  35.788  29.254  1.00  0.00     0.060 A 
BRANCH  69  70
ATOM     70  S   UNL A   1      48.006  37.491  29.550  1.00  0.00     0.124 S 
ATOM     71  O   UNL A   1      48.399  37.913  28.209  1.00  0.00    -0.237 OA
ATOM     72  O   UNL A   1      46.792  38.103  30.077  1.00  0.00    -0.237 OA
ATOM     73  O   UNL A   1      49.100  37.350  30.506  1.00  0.00    -0.744 OA
ENDBRANCH  69  70
ENDBRANCH  48  62
BRANCH  49  74
ATOM     74  C   UNL A   1      43.374  23.823  27.185  1.00  0.00     0.058 A 
ATOM     75  C   UNL A   1      43.273  22.865  28.203  1.00  0.00     0.135 A 
ATOM     76  C   UNL A   1      42.987  23.441  25.890  1.00  0.00     0.135 A 
ATOM     77  F   UNL A   1      43.640  23.177  29.456  1.00  0.00    -0.206 F 
ATOM     78  C   UNL A   1      42.824  21.573  27.948  1.00  0.00     0.059 A 
ATOM     79  C   UNL A   1      42.508  22.164  25.615  1.00  0.00     0.059 A 
ATOM     80  F   UNL A   1      43.052  24.323  24.881  1.00  0.00    -0.206 F 
ATOM     81  C   UNL A   1      42.439  21.233  26.650  1.00  0.00     0.060 A 
BRANCH  81  82
ATOM     82  S   UNL A   1      41.809  19.569  26.340  1.00  0.00     0.124 S 
ATOM     83  O   UNL A   1      42.514  19.212  25.113  1.00  0.00    -0.237 OA
ATOM     84  O   UNL A   1      42.222  18.856  27.544  1.00  0.00    -0.237 OA
ATOM     85  O   UNL A   1      40.370  19.774  26.204  1.00  0.00    -0.744 OA
ENDBRANCH  81  82
ENDBRANCH  49  74
BRANCH  61  86
ATOM     86  C   UNL A   1      49.490  27.046  26.182  1.00  0.00     0.058 A 
ATOM     87  C   UNL A   1      50.437  26.425  27.009  1.00  0.00     0.135 A 
ATOM     88  C   UNL A   1      49.794  27.171  24.816  1.00  0.00     0.135 A 
ATOM     89  F   UNL A   1      50.199  26.282  28.323  1.00  0.00    -0.206 F 
ATOM     90  C   UNL A   1      51.654  25.972  26.507  1.00  0.00     0.059 A 
ATOM     91  C   UNL A   1      50.990  26.698  24.287  1.00  0.00     0.059 A 
ATOM     92  F   UNL A   1      48.917  27.746  23.976  1.00  0.00    -0.206 F 
ATOM     93  C   UNL A   1      51.921  26.111  25.143  1.00  0.00     0.060 A 
BRANCH  93  94
ATOM     94  S   UNL A   1      53.491  25.498  24.500  1.00  0.00     0.124 S 
ATOM     95  O   UNL A   1      53.458  24.102  24.925  1.00  0.00    -0.237 OA
ATOM     96  O   UNL A   1      53.350  25.726  23.064  1.00  0.00    -0.237 OA
ATOM     97  O   UNL A   1      54.485  26.333  25.166  1.00  0.00    -0.744 OA
ENDBRANCH  93  94
ENDBRANCH  61  86
ENDBRANCH  35  36
ENDBRANCH  28  30
ENDBRANCH  27  28
ENDBRANCH  26  27
ENDBRANCH  25  26
ENDBRANCH   1  25
TORSDOF 20
ENDMDL
MODEL 2
REMARK VINA RESULT:     -10.5      4.326     11.562
REMARK SMILES O=C1CN(S(=O)(=O)c2ccc(CC(=O)OCCOCCOC(=O)c3ccc(-c4c5nc(c(-c6c(F)cc(S(=O)(=O)[O-])cc6F)c6ccc([nH]6)c(-c6c(F)cc(S(=O)(=O)[O-])cc6F)c6nc(c(-c7c(F)cc(S(=O)(=O)[O-])cc7F)c7ccc4[nH]7)C=C6)C=C5)cc3)cc2)CCN1
REMARK SMILES IDX 18 1 17 2 16 3 15 4 13 5 14 6 12 7 11 8 8 9 9 10 91 11 10 12
REMARK SMILES IDX 90 13 5 14 6 15 7 16 4 17 1 18 2 19 3 20 94 21 93 22 92 24
REMARK SMILES IDX 19 25 20 26 21 27 22 28 23 29 24 30 25 31 89 32 26 33 88 34
REMARK SMILES IDX 27 35 28 36 29 37 82 38 30 39 87 40 81 41 83 42 31 43 86 44
REMARK SMILES IDX 80 45 79 46 32 48 66 49 45 50 65 51 46 52 49 53 64 54 84 55
REMARK SMILES IDX 47 56 48 57 63 59 85 60 50 61 33 62 34 63 43 64 35 65 36 66
REMARK SMILES IDX 42 67 44 68 37 69 38 70 39 71 40 72 41 73 67 74 68 75 77 76
REMARK SMILES IDX 69 77 70 78 76 79 78 80 71 81 72 82 73 83 74 84 75 85 51 86
REMARK SMILES IDX 52 87 61 88 53 89 54 90 60 91 62 92 55 93 56 94 57 95 58 96
REMARK SMILES IDX 59 97
REMARK H PARENT 94 23 83 47 49 58
REMARK Flexibility Score: inf
ROOT
ATOM      1  O   UNL A   1      42.577  21.370  25.363  1.00  0.00    -0.374 OA
ENDROOT
BRANCH   1   2
ATOM      2  C   UNL A   1      43.963  21.613  25.586  1.00  0.00     0.202 C 
BRANCH   2   3
ATOM      3  C   UNL A   1      44.351  22.901  26.321  1.00  0.00     0.261 C 
BRANCH   3   4
ATOM      4  O   UNL A   1      43.270  23.465  27.087  1.00  0.00    -0.463 OA
BRANCH   4   5
ATOM      5  C   UNL A   1      43.261  23.149  28.408  1.00  0.00     0.310 C 
ATOM      6  O   UNL A   1      42.307  22.645  28.997  1.00  0.00    -0.252 OA
BRANCH   5   7
ATOM      7  C   UNL A   1      44.534  23.494  29.146  1.00  0.00     0.158 C 
BRANCH   7   8
ATOM      8  C   UNL A   1      44.444  24.121  30.520  1.00  0.00    -0.037 A 
ATOM      9  C   UNL A   1      44.398  25.249  33.095  1.00  0.00     0.082 A 
ATOM     10  C   UNL A   1      44.604  26.069  31.983  1.00  0.00     0.022 A 
ATOM     11  C   UNL A   1      44.184  23.878  32.925  1.00  0.00     0.022 A 
ATOM     12  C   UNL A   1      44.631  25.503  30.702  1.00  0.00     0.006 A 
ATOM     13  C   UNL A   1      44.219  23.317  31.646  1.00  0.00     0.006 A 
BRANCH   9  14
ATOM     14  S   UNL A   1      44.193  25.968  34.710  1.00  0.00     0.243 S 
ATOM     15  O   UNL A   1      43.061  26.871  34.633  1.00  0.00    -0.207 OA
ATOM     16  O   UNL A   1      45.483  26.449  35.143  1.00  0.00    -0.207 OA
BRANCH  14  17
ATOM     17  N   UNL A   1      43.778  24.674  35.754  1.00  0.00    -0.187 NA
ATOM     18  O   UNL A   1      40.322  25.465  36.642  1.00  0.00    -0.274 OA
ATOM     19  C   UNL A   1      41.537  25.325  36.762  1.00  0.00     0.235 C 
ATOM     20  C   UNL A   1      42.327  24.366  35.886  1.00  0.00     0.202 C 
ATOM     21  N   UNL A   1      42.210  25.937  37.789  1.00  0.00    -0.354 N 
ATOM     22  C   UNL A   1      43.658  25.954  37.914  1.00  0.00     0.132 C 
ATOM     23  H   UNL A   1      41.680  26.391  38.483  1.00  0.00     0.163 HD
ATOM     24  C   UNL A   1      44.357  24.829  37.136  1.00  0.00     0.124 C 
ENDBRANCH  14  17
ENDBRANCH   9  14
ENDBRANCH   7   8
ENDBRANCH   5   7
ENDBRANCH   4   5
ENDBRANCH   3   4
ENDBRANCH   2   3
ENDBRANCH   1   2
BRANCH   1  25
ATOM     25  C   UNL A   1      41.966  20.299  26.080  1.00  0.00     0.202 C 
BRANCH  25  26
ATOM     26  C   UNL A   1      40.468  20.397  26.397  1.00  0.00     0.261 C 
BRANCH  26  27
ATOM     27  O   UNL A   1      40.106  21.606  27.081  1.00  0.00    -0.460 OA
BRANCH  27  28
ATOM     28  C   UNL A   1      39.348  22.454  26.342  1.00  0.00     0.338 C 
ATOM     29  O   UNL A   1      38.502  22.151  25.516  1.00  0.00    -0.246 OA
BRANCH  28  30
ATOM     30  C   UNL A   1      39.538  23.846  26.793  1.00  0.00     0.060 A 
ATOM     31  C   UNL A   1      40.150  24.730  25.893  1.00  0.00     0.016 A 
ATOM     32  C   UNL A   1      39.222  24.257  28.090  1.00  0.00     0.016 A 
ATOM     33  C   UNL A   1      40.519  26.005  26.310  1.00  0.00     0.010 A 
ATOM     34  C   UNL A   1      39.597  25.539  28.507  1.00  0.00     0.010 A 
ATOM     35  C   UNL A   1      40.291  26.398  27.635  1.00  0.00    -0.014 A 
BRANCH  35  36
ATOM     36  C   UNL A   1      40.939  27.633  28.142  1.00  0.00     0.031 A 
ATOM     37  C   UNL A   1      42.437  27.757  28.046  1.00  0.00     0.074 A 
ATOM     38  C   UNL A   1      40.202  28.647  28.629  1.00  0.00     0.049 A 
ATOM     39  N   UNL A   1      43.215  28.736  28.429  1.00  0.00    -0.248 NA
ATOM     40  C   UNL A   1      43.153  26.625  27.435  1.00  0.00     0.031 C 
ATOM     41  C   UNL A   1      38.742  28.655  28.732  1.00  0.00     0.029 A 
ATOM     42  N   UNL A   1      40.581  29.867  29.129  1.00  0.00    -0.354 N 
ATOM     43  C   UNL A   1      44.509  28.334  28.117  1.00  0.00     0.074 A 
ATOM     44  C   UNL A   1      44.416  27.010  27.543  1.00  0.00     0.031 C 
ATOM     45  C   UNL A   1      38.350  29.822  29.271  1.00  0.00     0.029 A 
ATOM     46  C   UNL A   1      39.529  30.629  29.579  1.00  0.00     0.049 A 
ATOM     47  H   UNL A   1      41.517  30.167  29.163  1.00  0.00     0.167 HD
ATOM     48  C   UNL A   1      45.670  29.013  28.286  1.00  0.00     0.037 A 
ATOM     49  C   UNL A   1      39.523  31.833  30.187  1.00  0.00     0.037 A 
ATOM     50  C   UNL A   1      45.751  30.333  28.854  1.00  0.00     0.049 A 
ATOM     51  C   UNL A   1      40.830  32.547  30.412  1.00  0.00     0.074 A 
ATOM     52  C   UNL A   1      46.874  31.116  29.056  1.00  0.00     0.029 A 
ATOM     53  N   UNL A   1      44.666  31.065  29.317  1.00  0.00    -0.354 N 
ATOM     54  N   UNL A   1      42.047  32.164  30.097  1.00  0.00    -0.248 NA
ATOM     55  C   UNL A   1      40.767  33.861  31.066  1.00  0.00     0.031 C 
ATOM     56  C   UNL A   1      46.474  32.297  29.690  1.00  0.00     0.029 A 
ATOM     57  C   UNL A   1      45.095  32.280  29.824  1.00  0.00     0.049 A 
ATOM     58  H   UNL A   1      43.730  30.764  29.288  1.00  0.00     0.167 HD
ATOM     59  C   UNL A   1      42.886  33.204  30.481  1.00  0.00     0.074 A 
ATOM     60  C   UNL A   1      42.039  34.235  31.046  1.00  0.00     0.031 C 
ATOM     61  C   UNL A   1      44.235  33.301  30.370  1.00  0.00     0.037 A 
BRANCH  48  62
ATOM     62  C   UNL A   1      46.947  28.328  27.876  1.00  0.00     0.058 A 
ATOM     63  C   UNL A   1      47.673  27.518  28.764  1.00  0.00     0.135 A 
ATOM     64  C   UNL A   1      47.435  28.459  26.566  1.00  0.00     0.135 A 
ATOM     65  F   UNL A   1      47.264  27.369  30.035  1.00  0.00    -0.206 F 
ATOM     66  C   UNL A   1      48.851  26.885  28.376  1.00  0.00     0.059 A 
ATOM     67  C   UNL A   1      48.593  27.812  26.146  1.00  0.00     0.059 A 
ATOM     68  F   UNL A   1      46.782  29.224  25.675  1.00  0.00    -0.206 F 
ATOM     69  C   UNL A   1      49.302  27.038  27.064  1.00  0.00     0.060 A 
BRANCH  69  70
ATOM     70  S   UNL A   1      50.827  26.204  26.572  1.00  0.00     0.124 S 
ATOM     71  O   UNL A   1      50.725  26.245  25.116  1.00  0.00    -0.237 OA
ATOM     72  O   UNL A   1      51.853  27.059  27.159  1.00  0.00    -0.237 OA
ATOM     73  O   UNL A   1      50.700  24.879  27.171  1.00  0.00    -0.744 OA
ENDBRANCH  69  70
ENDBRANCH  48  62
BRANCH  49  74
ATOM     74  C   UNL A   1      38.236  32.436  30.627  1.00  0.00     0.058 A 
ATOM     75  C   UNL A   1      37.708  32.177  31.900  1.00  0.00     0.135 A 
ATOM     76  C   UNL A   1      37.510  33.289  29.781  1.00  0.00     0.135 A 
ATOM     77  F   UNL A   1      38.359  31.361  32.743  1.00  0.00    -0.206 F 
ATOM     78  C   UNL A   1      36.500  32.729  32.315  1.00  0.00     0.059 A 
ATOM     79  C   UNL A   1      36.313  33.875  30.183  1.00  0.00     0.059 A 
ATOM     80  F   UNL A   1      37.976  33.579  28.556  1.00  0.00    -0.206 F 
ATOM     81  C   UNL A   1      35.811  33.581  31.449  1.00  0.00     0.060 A 
BRANCH  81  82
ATOM     82  S   UNL A   1      34.269  34.331  32.016  1.00  0.00     0.124 S 
ATOM     83  O   UNL A   1      34.740  35.605  32.547  1.00  0.00    -0.237 OA
ATOM     84  O   UNL A   1      33.491  34.400  30.784  1.00  0.00    -0.237 OA
ATOM     85  O   UNL A   1      33.777  33.378  33.008  1.00  0.00    -0.744 OA
ENDBRANCH  81  82
ENDBRANCH  49  74
BRANCH  61  86
ATOM     86  C   UNL A   1      44.879  34.587  30.819  1.00  0.00     0.058 A 
ATOM     87  C   UNL A   1      45.042  35.680  29.955  1.00  0.00     0.135 A 
ATOM     88  C   UNL A   1      45.292  34.739  32.153  1.00  0.00     0.135 A 
ATOM     89  F   UNL A   1      44.668  35.588  28.669  1.00  0.00    -0.206 F 
ATOM     90  C   UNL A   1      45.620  36.869  30.389  1.00  0.00     0.059 A 
ATOM     91  C   UNL A   1      45.843  35.929  32.617  1.00  0.00     0.059 A 
ATOM     92  F   UNL A   1      45.148  33.729  33.026  1.00  0.00    -0.206 F 
ATOM     93  C   UNL A   1      46.016  36.985  31.723  1.00  0.00     0.060 A 
BRANCH  93  94
ATOM     94  S   UNL A   1      46.741  38.540  32.281  1.00  0.00     0.124 S 
ATOM     95  O   UNL A   1      46.190  38.656  33.628  1.00  0.00    -0.237 OA
ATOM     96  O   UNL A   1      48.173  38.263  32.205  1.00  0.00    -0.237 OA
ATOM     97  O   UNL A   1      46.245  39.516  31.315  1.00  0.00    -0.744 OA
ENDBRANCH  93  94
ENDBRANCH  61  86
ENDBRANCH  35  36
ENDBRANCH  28  30
ENDBRANCH  27  28
ENDBRANCH  26  27
ENDBRANCH  25  26
ENDBRANCH   1  25
TORSDOF 20
ENDMDL
MODEL 3
REMARK VINA RESULT:     -10.4      1.716      2.868
REMARK SMILES O=C1CN(S(=O)(=O)c2ccc(CC(=O)OCCOCCOC(=O)c3ccc(-c4c5nc(c(-c6c(F)cc(S(=O)(=O)[O-])cc6F)c6ccc([nH]6)c(-c6c(F)cc(S(=O)(=O)[O-])cc6F)c6nc(c(-c7c(F)cc(S(=O)(=O)[O-])cc7F)c7ccc4[nH]7)C=C6)C=C5)cc3)cc2)CCN1
REMARK SMILES IDX 18 1 17 2 16 3 15 4 13 5 14 6 12 7 11 8 8 9 9 10 91 11 10 12
REMARK SMILES IDX 90 13 5 14 6 15 7 16 4 17 1 18 2 19 3 20 94 21 93 22 92 24
REMARK SMILES IDX 19 25 20 26 21 27 22 28 23 29 24 30 25 31 89 32 26 33 88 34
REMARK SMILES IDX 27 35 28 36 29 37 82 38 30 39 87 40 81 41 83 42 31 43 86 44
REMARK SMILES IDX 80 45 79 46 32 48 66 49 45 50 65 51 46 52 49 53 64 54 84 55
REMARK SMILES IDX 47 56 48 57 63 59 85 60 50 61 33 62 34 63 43 64 35 65 36 66
REMARK SMILES IDX 42 67 44 68 37 69 38 70 39 71 40 72 41 73 67 74 68 75 77 76
REMARK SMILES IDX 69 77 70 78 76 79 78 80 71 81 72 82 73 83 74 84 75 85 51 86
REMARK SMILES IDX 52 87 61 88 53 89 54 90 60 91 62 92 55 93 56 94 57 95 58 96
REMARK SMILES IDX 59 97
REMARK H PARENT 94 23 83 47 49 58
REMARK Flexibility Score: inf
ROOT
ATOM      1  O   UNL A   1      34.484  32.796  27.591  1.00  0.00    -0.374 OA
ENDROOT
BRANCH   1   2
ATOM      2  C   UNL A   1      33.769  31.634  28.006  1.00  0.00     0.202 C 
BRANCH   2   3
ATOM      3  C   UNL A   1      33.598  30.502  26.988  1.00  0.00     0.261 C 
BRANCH   3   4
ATOM      4  O   UNL A   1      32.260  30.408  26.462  1.00  0.00    -0.463 OA
BRANCH   4   5
ATOM      5  C   UNL A   1      32.140  29.749  25.281  1.00  0.00     0.310 C 
ATOM      6  O   UNL A   1      31.094  29.643  24.645  1.00  0.00    -0.252 OA
BRANCH   5   7
ATOM      7  C   UNL A   1      33.416  29.102  24.789  1.00  0.00     0.158 C 
BRANCH   7   8
ATOM      8  C   UNL A   1      33.436  27.612  24.530  1.00  0.00    -0.037 A 
ATOM      9  C   UNL A   1      33.348  24.838  24.082  1.00  0.00     0.082 A 
ATOM     10  C   UNL A   1      33.261  25.717  23.000  1.00  0.00     0.022 A 
ATOM     11  C   UNL A   1      33.510  25.335  25.379  1.00  0.00     0.022 A 
ATOM     12  C   UNL A   1      33.301  27.099  23.227  1.00  0.00     0.006 A 
ATOM     13  C   UNL A   1      33.541  26.714  25.601  1.00  0.00     0.006 A 
BRANCH   9  14
ATOM     14  S   UNL A   1      33.470  23.085  23.801  1.00  0.00     0.243 S 
ATOM     15  O   UNL A   1      34.768  22.839  23.203  1.00  0.00    -0.207 OA
ATOM     16  O   UNL A   1      32.264  22.663  23.128  1.00  0.00    -0.207 OA
BRANCH  14  17
ATOM     17  N   UNL A   1      33.444  22.355  25.351  1.00  0.00    -0.187 NA
ATOM     18  O   UNL A   1      36.861  21.097  25.677  1.00  0.00    -0.274 OA
ATOM     19  C   UNL A   1      35.642  21.087  25.526  1.00  0.00     0.235 C 
ATOM     20  C   UNL A   1      34.757  22.212  26.039  1.00  0.00     0.202 C 
ATOM     21  N   UNL A   1      35.014  19.987  24.998  1.00  0.00    -0.354 N 
ATOM     22  C   UNL A   1      33.606  19.950  24.640  1.00  0.00     0.132 C 
ATOM     23  H   UNL A   1      35.550  19.174  24.854  1.00  0.00     0.163 HD
ATOM     24  C   UNL A   1      32.759  21.014  25.355  1.00  0.00     0.124 C 
ENDBRANCH  14  17
ENDBRANCH   9  14
ENDBRANCH   7   8
ENDBRANCH   5   7
ENDBRANCH   4   5
ENDBRANCH   3   4
ENDBRANCH   2   3
ENDBRANCH   1   2
BRANCH   1  25
ATOM     25  C   UNL A   1      34.354  33.974  28.383  1.00  0.00     0.202 C 
BRANCH  25  26
ATOM     26  C   UNL A   1      34.517  33.850  29.904  1.00  0.00     0.261 C 
BRANCH  26  27
ATOM     27  O   UNL A   1      35.849  33.503  30.310  1.00  0.00    -0.460 OA
BRANCH  27  28
ATOM     28  C   UNL A   1      35.925  32.358  31.033  1.00  0.00     0.338 C 
ATOM     29  O   UNL A   1      35.126  31.963  31.867  1.00  0.00    -0.246 OA
BRANCH  28  30
ATOM     30  C   UNL A   1      37.037  31.515  30.554  1.00  0.00     0.060 A 
ATOM     31  C   UNL A   1      37.895  30.979  31.523  1.00  0.00     0.016 A 
ATOM     32  C   UNL A   1      37.298  31.332  29.194  1.00  0.00     0.016 A 
ATOM     33  C   UNL A   1      39.060  30.323  31.138  1.00  0.00     0.010 A 
ATOM     34  C   UNL A   1      38.472  30.675  28.809  1.00  0.00     0.010 A 
ATOM     35  C   UNL A   1      39.381  30.213  29.779  1.00  0.00    -0.014 A 
BRANCH  35  36
ATOM     36  C   UNL A   1      40.746  29.776  29.394  1.00  0.00     0.031 A 
ATOM     37  C   UNL A   1      41.867  30.781  29.433  1.00  0.00     0.074 A 
ATOM     38  C   UNL A   1      40.991  28.495  29.067  1.00  0.00     0.049 A 
ATOM     39  N   UNL A   1      43.130  30.628  29.135  1.00  0.00    -0.248 NA
ATOM     40  C   UNL A   1      41.515  32.142  29.870  1.00  0.00     0.031 C 
ATOM     41  C   UNL A   1      39.992  27.427  29.035  1.00  0.00     0.029 A 
ATOM     42  N   UNL A   1      42.159  27.875  28.699  1.00  0.00    -0.354 N 
ATOM     43  C   UNL A   1      43.720  31.871  29.334  1.00  0.00     0.074 A 
ATOM     44  C   UNL A   1      42.672  32.777  29.749  1.00  0.00     0.031 C 
ATOM     45  C   UNL A   1      40.590  26.283  28.658  1.00  0.00     0.029 A 
ATOM     46  C   UNL A   1      42.004  26.544  28.394  1.00  0.00     0.049 A 
ATOM     47  H   UNL A   1      43.025  28.340  28.658  1.00  0.00     0.167 HD
ATOM     48  C   UNL A   1      45.021  32.223  29.194  1.00  0.00     0.037 A 
ATOM     49  C   UNL A   1      42.899  25.646  27.936  1.00  0.00     0.037 A 
ATOM     50  C   UNL A   1      46.059  31.312  28.784  1.00  0.00     0.049 A 
ATOM     51  C   UNL A   1      44.330  26.072  27.737  1.00  0.00     0.074 A 
ATOM     52  C   UNL A   1      47.410  31.562  28.625  1.00  0.00     0.029 A 
ATOM     53  N   UNL A   1      45.859  29.976  28.464  1.00  0.00    -0.354 N 
ATOM     54  N   UNL A   1      44.879  27.247  27.946  1.00  0.00    -0.248 NA
ATOM     55  C   UNL A   1      45.267  25.052  27.248  1.00  0.00     0.031 C 
ATOM     56  C   UNL A   1      48.018  30.392  28.157  1.00  0.00     0.029 A 
ATOM     57  C   UNL A   1      47.058  29.394  28.087  1.00  0.00     0.049 A 
ATOM     58  H   UNL A   1      44.993  29.511  28.501  1.00  0.00     0.167 HD
ATOM     59  C   UNL A   1      46.229  27.095  27.650  1.00  0.00     0.074 A 
ATOM     60  C   UNL A   1      46.416  25.714  27.253  1.00  0.00     0.031 C 
ATOM     61  C   UNL A   1      47.227  28.014  27.708  1.00  0.00     0.037 A 
BRANCH  48  62
ATOM     62  C   UNL A   1      45.390  33.659  29.458  1.00  0.00     0.058 A 
ATOM     63  C   UNL A   1      45.347  34.634  28.448  1.00  0.00     0.135 A 
ATOM     64  C   UNL A   1      45.763  34.071  30.748  1.00  0.00     0.135 A 
ATOM     65  F   UNL A   1      45.014  34.296  27.193  1.00  0.00    -0.206 F 
ATOM     66  C   UNL A   1      45.686  35.961  28.703  1.00  0.00     0.059 A 
ATOM     67  C   UNL A   1      46.077  35.397  31.031  1.00  0.00     0.059 A 
ATOM     68  F   UNL A   1      45.825  33.180  31.750  1.00  0.00    -0.206 F 
ATOM     69  C   UNL A   1      46.049  36.332  29.998  1.00  0.00     0.060 A 
BRANCH  69  70
ATOM     70  S   UNL A   1      46.478  38.058  30.315  1.00  0.00     0.124 S 
ATOM     71  O   UNL A   1      45.162  38.690  30.314  1.00  0.00    -0.237 OA
ATOM     72  O   UNL A   1      47.143  37.981  31.610  1.00  0.00    -0.237 OA
ATOM     73  O   UNL A   1      47.339  38.407  29.189  1.00  0.00    -0.744 OA
ENDBRANCH  69  70
ENDBRANCH  48  62
BRANCH  49  74
ATOM     74  C   UNL A   1      42.465  24.255  27.632  1.00  0.00     0.058 A 
ATOM     75  C   UNL A   1      41.984  23.903  26.364  1.00  0.00     0.135 A 
ATOM     76  C   UNL A   1      42.531  23.247  28.607  1.00  0.00     0.135 A 
ATOM     77  F   UNL A   1      41.892  24.831  25.399  1.00  0.00    -0.206 F 
ATOM     78  C   UNL A   1      41.567  22.607  26.075  1.00  0.00     0.059 A 
ATOM     79  C   UNL A   1      42.146  21.937  28.336  1.00  0.00     0.059 A 
ATOM     80  F   UNL A   1      42.996  23.527  29.835  1.00  0.00    -0.206 F 
ATOM     81  C   UNL A   1      41.656  21.629  27.068  1.00  0.00     0.060 A 
BRANCH  81  82
ATOM     82  S   UNL A   1      41.159  19.940  26.668  1.00  0.00     0.124 S 
ATOM     83  O   UNL A   1      42.336  19.447  25.962  1.00  0.00    -0.237 OA
ATOM     84  O   UNL A   1      40.921  19.369  27.990  1.00  0.00    -0.237 OA
ATOM     85  O   UNL A   1      39.964  20.126  25.850  1.00  0.00    -0.744 OA
ENDBRANCH  81  82
ENDBRANCH  49  74
BRANCH  61  86
ATOM     86  C   UNL A   1      48.622  27.546  27.387  1.00  0.00     0.058 A 
ATOM     87  C   UNL A   1      49.137  27.578  26.083  1.00  0.00     0.135 A 
ATOM     88  C   UNL A   1      49.471  27.106  28.416  1.00  0.00     0.135 A 
ATOM     89  F   UNL A   1      48.368  27.986  25.061  1.00  0.00    -0.206 F 
ATOM     90  C   UNL A   1      50.436  27.162  25.804  1.00  0.00     0.059 A 
ATOM     91  C   UNL A   1      50.783  26.715  28.166  1.00  0.00     0.059 A 
ATOM     92  F   UNL A   1      49.034  27.068  29.686  1.00  0.00    -0.206 F 
ATOM     93  C   UNL A   1      51.252  26.734  26.853  1.00  0.00     0.060 A 
BRANCH  93  94
ATOM     94  S   UNL A   1      52.943  26.221  26.483  1.00  0.00     0.124 S 
ATOM     95  O   UNL A   1      52.760  24.807  26.171  1.00  0.00    -0.237 OA
ATOM     96  O   UNL A   1      53.290  27.079  25.354  1.00  0.00    -0.237 OA
ATOM     97  O   UNL A   1      53.664  26.502  27.721  1.00  0.00    -0.744 OA
ENDBRANCH  93  94
ENDBRANCH  61  86
ENDBRANCH  35  36
ENDBRANCH  28  30
ENDBRANCH  27  28
ENDBRANCH  26  27
ENDBRANCH  25  26
ENDBRANCH   1  25
TORSDOF 20
ENDMDL
