MODEL 1
REMARK VINA RESULT:     -10.5      0.000      0.000
REMARK SMILES O=C(OCCOCCOC(=O)c1c(F)cccc1Oc1cccc(Cl)c1)c1ccc(-c2c3nc(c(-c4c(F)cc(S(=O)(=O)[O-])cc4F)c4ccc([nH]4)c(-c4c(F)cc(S(=O)(=O)[O-])cc4F)c4nc(c(-c5c(F)cc(S(=O)(=O)[O-])cc5F)c5ccc2[nH]5)C=C4)C=C3)cc1
REMARK SMILES IDX 5 1 4 2 3 3 2 4 1 5 27 6 28 7 92 8 29 9 91 10 30 11 31 12
REMARK SMILES IDX 32 13 85 14 33 15 90 16 84 17 86 18 34 19 89 20 83 21 82 22
REMARK SMILES IDX 35 24 69 25 48 26 68 27 49 28 52 29 67 30 87 31 50 32 51 33
REMARK SMILES IDX 66 35 88 36 53 37 36 38 37 39 46 40 38 41 39 42 45 43 47 44
REMARK SMILES IDX 40 45 41 46 42 47 43 48 44 49 70 50 71 51 80 52 72 53 73 54
REMARK SMILES IDX 79 55 81 56 74 57 75 58 76 59 77 60 78 61 54 62 55 63 64 64
REMARK SMILES IDX 56 65 57 66 63 67 65 68 58 69 59 70 60 71 61 72 62 73 6 74
REMARK SMILES IDX 7 75 8 76 9 77 10 78 11 79 12 80 13 81 18 82 14 83 15 84
REMARK SMILES IDX 17 85 16 86 19 87 20 88 21 89 26 90 22 91 24 92 23 93 25 94
REMARK H PARENT 86 23 52 34
REMARK Flexibility Score: inf
ROOT
ATOM      1  C   UNL A   1      32.164  27.090  26.352  1.00  0.00     0.202 C 
ENDROOT
BRANCH   1   2
ATOM      2  C   UNL A   1      32.606  28.017  27.495  1.00  0.00     0.261 C 
BRANCH   2   3
ATOM      3  O   UNL A   1      33.975  28.411  27.370  1.00  0.00    -0.460 OA
BRANCH   3   4
ATOM      4  C   UNL A   1      34.219  29.742  27.521  1.00  0.00     0.338 C 
ATOM      5  O   UNL A   1      33.506  30.675  27.203  1.00  0.00    -0.246 OA
BRANCH   4   6
ATOM      6  C   UNL A   1      35.589  29.833  28.050  1.00  0.00     0.060 A 
ATOM      7  C   UNL A   1      36.547  30.401  27.217  1.00  0.00     0.016 A 
ATOM      8  C   UNL A   1      35.965  29.252  29.260  1.00  0.00     0.016 A 
ATOM      9  C   UNL A   1      37.887  30.244  27.497  1.00  0.00     0.010 A 
ATOM     10  C   UNL A   1      37.330  29.167  29.579  1.00  0.00     0.010 A 
ATOM     11  C   UNL A   1      38.309  29.606  28.665  1.00  0.00    -0.014 A 
BRANCH  11  12
ATOM     12  C   UNL A   1      39.757  29.281  28.785  1.00  0.00     0.031 A 
ATOM     13  C   UNL A   1      40.671  30.225  29.522  1.00  0.00     0.074 A 
ATOM     14  C   UNL A   1      40.219  28.065  28.421  1.00  0.00     0.049 A 
ATOM     15  N   UNL A   1      41.973  30.198  29.628  1.00  0.00    -0.248 NA
ATOM     16  C   UNL A   1      40.041  31.350  30.234  1.00  0.00     0.031 C 
ATOM     17  C   UNL A   1      39.410  26.995  27.830  1.00  0.00     0.029 A 
ATOM     18  N   UNL A   1      41.456  27.490  28.567  1.00  0.00    -0.354 N 
ATOM     19  C   UNL A   1      42.322  31.342  30.335  1.00  0.00     0.074 A 
ATOM     20  C   UNL A   1      41.094  32.035  30.655  1.00  0.00     0.031 C 
ATOM     21  C   UNL A   1      40.132  25.867  27.785  1.00  0.00     0.029 A 
ATOM     22  C   UNL A   1      41.500  26.169  28.183  1.00  0.00     0.049 A 
ATOM     23  H   UNL A   1      42.239  27.978  28.914  1.00  0.00     0.167 HD
ATOM     24  C   UNL A   1      43.560  31.776  30.671  1.00  0.00     0.037 A 
ATOM     25  C   UNL A   1      42.536  25.310  28.105  1.00  0.00     0.037 A 
ATOM     26  C   UNL A   1      44.760  31.025  30.409  1.00  0.00     0.049 A 
ATOM     27  C   UNL A   1      43.909  25.822  28.435  1.00  0.00     0.074 A 
ATOM     28  C   UNL A   1      46.076  31.395  30.620  1.00  0.00     0.029 A 
ATOM     29  N   UNL A   1      44.783  29.727  29.918  1.00  0.00    -0.354 N 
ATOM     30  N   UNL A   1      44.255  26.996  28.908  1.00  0.00    -0.248 NA
ATOM     31  C   UNL A   1      45.036  24.920  28.172  1.00  0.00     0.031 C 
ATOM     32  C   UNL A   1      46.896  30.330  30.231  1.00  0.00     0.029 A 
ATOM     33  C   UNL A   1      46.089  29.278  29.823  1.00  0.00     0.049 A 
ATOM     34  H   UNL A   1      43.987  29.201  29.673  1.00  0.00     0.167 HD
ATOM     35  C   UNL A   1      45.642  26.977  28.995  1.00  0.00     0.074 A 
ATOM     36  C   UNL A   1      46.067  25.663  28.552  1.00  0.00     0.031 C 
ATOM     37  C   UNL A   1      46.486  27.961  29.390  1.00  0.00     0.037 A 
BRANCH  24  38
ATOM     38  C   UNL A   1      43.680  33.147  31.277  1.00  0.00     0.058 A 
ATOM     39  C   UNL A   1      43.642  33.296  32.673  1.00  0.00     0.135 A 
ATOM     40  C   UNL A   1      43.829  34.307  30.501  1.00  0.00     0.135 A 
ATOM     41  F   UNL A   1      43.512  32.221  33.466  1.00  0.00    -0.206 F 
ATOM     42  C   UNL A   1      43.745  34.544  33.280  1.00  0.00     0.059 A 
ATOM     43  C   UNL A   1      43.961  35.565  31.088  1.00  0.00     0.059 A 
ATOM     44  F   UNL A   1      43.905  34.221  29.164  1.00  0.00    -0.206 F 
ATOM     45  C   UNL A   1      43.910  35.673  32.478  1.00  0.00     0.060 A 
BRANCH  45  46
ATOM     46  S   UNL A   1      44.120  37.275  33.286  1.00  0.00     0.124 S 
ATOM     47  O   UNL A   1      43.129  37.205  34.354  1.00  0.00    -0.237 OA
ATOM     48  O   UNL A   1      45.516  37.226  33.707  1.00  0.00    -0.237 OA
ATOM     49  O   UNL A   1      43.831  38.230  32.220  1.00  0.00    -0.744 OA
ENDBRANCH  45  46
ENDBRANCH  24  38
BRANCH  25  50
ATOM     50  C   UNL A   1      42.317  23.920  27.615  1.00  0.00     0.058 A 
ATOM     51  C   UNL A   1      42.277  22.835  28.507  1.00  0.00     0.135 A 
ATOM     52  C   UNL A   1      42.180  23.638  26.247  1.00  0.00     0.135 A 
ATOM     53  F   UNL A   1      42.394  23.043  29.827  1.00  0.00    -0.206 F 
ATOM     54  C   UNL A   1      42.164  21.524  28.062  1.00  0.00     0.059 A 
ATOM     55  C   UNL A   1      42.029  22.333  25.779  1.00  0.00     0.059 A 
ATOM     56  F   UNL A   1      42.183  24.639  25.354  1.00  0.00    -0.206 F 
ATOM     57  C   UNL A   1      42.045  21.281  26.695  1.00  0.00     0.060 A 
BRANCH  57  58
ATOM     58  S   UNL A   1      41.903  19.567  26.144  1.00  0.00     0.124 S 
ATOM     59  O   UNL A   1      40.473  19.463  25.878  1.00  0.00    -0.237 OA
ATOM     60  O   UNL A   1      42.770  19.551  24.969  1.00  0.00    -0.237 OA
ATOM     61  O   UNL A   1      42.389  18.803  27.289  1.00  0.00    -0.744 OA
ENDBRANCH  57  58
ENDBRANCH  25  50
BRANCH  37  62
ATOM     62  C   UNL A   1      47.955  27.649  29.391  1.00  0.00     0.058 A 
ATOM     63  C   UNL A   1      48.574  27.177  30.558  1.00  0.00     0.135 A 
ATOM     64  C   UNL A   1      48.758  27.885  28.265  1.00  0.00     0.135 A 
ATOM     65  F   UNL A   1      47.848  26.940  31.663  1.00  0.00    -0.206 F 
ATOM     66  C   UNL A   1      49.946  26.964  30.614  1.00  0.00     0.059 A 
ATOM     67  C   UNL A   1      50.130  27.654  28.291  1.00  0.00     0.059 A 
ATOM     68  F   UNL A   1      48.207  28.326  27.123  1.00  0.00    -0.206 F 
ATOM     69  C   UNL A   1      50.716  27.210  29.477  1.00  0.00     0.060 A 
BRANCH  69  70
ATOM     70  S   UNL A   1      52.494  26.919  29.565  1.00  0.00     0.124 S 
ATOM     71  O   UNL A   1      52.793  26.471  28.210  1.00  0.00    -0.237 OA
ATOM     72  O   UNL A   1      53.006  28.237  29.926  1.00  0.00    -0.237 OA
ATOM     73  O   UNL A   1      52.620  25.900  30.605  1.00  0.00    -0.744 OA
ENDBRANCH  69  70
ENDBRANCH  37  62
ENDBRANCH  11  12
ENDBRANCH   4   6
ENDBRANCH   3   4
ENDBRANCH   2   3
ENDBRANCH   1   2
BRANCH   1  74
ATOM     74  O   UNL A   1      31.618  25.873  26.847  1.00  0.00    -0.374 OA
BRANCH  74  75
ATOM     75  C   UNL A   1      31.372  24.855  25.882  1.00  0.00     0.202 C 
BRANCH  75  76
ATOM     76  C   UNL A   1      31.554  23.476  26.505  1.00  0.00     0.261 C 
BRANCH  76  77
ATOM     77  O   UNL A   1      32.817  23.469  27.182  1.00  0.00    -0.459 OA
BRANCH  77  78
ATOM     78  C   UNL A   1      33.597  22.362  27.031  1.00  0.00     0.345 C 
ATOM     79  O   UNL A   1      33.732  21.449  27.807  1.00  0.00    -0.246 OA
BRANCH  78  80
ATOM     80  C   UNL A   1      34.266  22.509  25.724  1.00  0.00     0.138 A 
ATOM     81  C   UNL A   1      35.451  23.271  25.759  1.00  0.00     0.141 A 
ATOM     82  C   UNL A   1      33.810  22.025  24.492  1.00  0.00     0.144 A 
ATOM     83  F   UNL A   1      35.962  23.695  26.926  1.00  0.00    -0.206 F 
ATOM     84  C   UNL A   1      36.140  23.622  24.604  1.00  0.00     0.040 A 
ATOM     85  C   UNL A   1      34.529  22.391  23.330  1.00  0.00     0.048 A 
ATOM     86  C   UNL A   1      35.667  23.194  23.377  1.00  0.00     0.007 A 
BRANCH  82  87
ATOM     87  O   UNL A   1      32.755  21.225  24.130  1.00  0.00    -0.456 OA
BRANCH  87  88
ATOM     88  C   UNL A   1      32.851  19.885  23.894  1.00  0.00     0.128 A 
ATOM     89  C   UNL A   1      32.172  19.357  22.797  1.00  0.00     0.047 A 
ATOM     90  C   UNL A   1      33.835  19.136  24.536  1.00  0.00     0.067 A 
ATOM     91  C   UNL A   1      32.434  18.054  22.379  1.00  0.00     0.005 A 
ATOM     92  C   UNL A   1      34.067  17.821  24.136  1.00  0.00     0.044 A 
ATOM     93  C   UNL A   1      33.368  17.274  23.062  1.00  0.00     0.021 A 
ATOM     94  Cl  UNL A   1      35.256  16.879  24.947  1.00  0.00    -0.084 Cl
ENDBRANCH  87  88
ENDBRANCH  82  87
ENDBRANCH  78  80
ENDBRANCH  77  78
ENDBRANCH  76  77
ENDBRANCH  75  76
ENDBRANCH  74  75
ENDBRANCH   1  74
TORSDOF 19
ENDMDL
MODEL 2
REMARK VINA RESULT:     -10.4      5.499     10.718
REMARK SMILES O=C(OCCOCCOC(=O)c1c(F)cccc1Oc1cccc(Cl)c1)c1ccc(-c2c3nc(c(-c4c(F)cc(S(=O)(=O)[O-])cc4F)c4ccc([nH]4)c(-c4c(F)cc(S(=O)(=O)[O-])cc4F)c4nc(c(-c5c(F)cc(S(=O)(=O)[O-])cc5F)c5ccc2[nH]5)C=C4)C=C3)cc1
REMARK SMILES IDX 5 1 4 2 3 3 2 4 1 5 27 6 28 7 92 8 29 9 91 10 30 11 31 12
REMARK SMILES IDX 32 13 85 14 33 15 90 16 84 17 86 18 34 19 89 20 83 21 82 22
REMARK SMILES IDX 35 24 69 25 48 26 68 27 49 28 52 29 67 30 87 31 50 32 51 33
REMARK SMILES IDX 66 35 88 36 53 37 36 38 37 39 46 40 38 41 39 42 45 43 47 44
REMARK SMILES IDX 40 45 41 46 42 47 43 48 44 49 70 50 71 51 80 52 72 53 73 54
REMARK SMILES IDX 79 55 81 56 74 57 75 58 76 59 77 60 78 61 54 62 55 63 64 64
REMARK SMILES IDX 56 65 57 66 63 67 65 68 58 69 59 70 60 71 61 72 62 73 6 74
REMARK SMILES IDX 7 75 8 76 9 77 10 78 11 79 12 80 13 81 18 82 14 83 15 84
REMARK SMILES IDX 17 85 16 86 19 87 20 88 21 89 26 90 22 91 24 92 23 93 25 94
REMARK H PARENT 86 23 52 34
REMARK Flexibility Score: inf
ROOT
ATOM      1  C   UNL A   1      38.131  22.828  26.083  1.00  0.00     0.202 C 
ENDROOT
BRANCH   1   2
ATOM      2  C   UNL A   1      39.401  23.523  26.599  1.00  0.00     0.261 C 
BRANCH   2   3
ATOM      3  O   UNL A   1      39.262  24.945  26.634  1.00  0.00    -0.460 OA
BRANCH   3   4
ATOM      4  C   UNL A   1      40.379  25.653  26.314  1.00  0.00     0.338 C 
ATOM      5  O   UNL A   1      40.977  25.671  25.255  1.00  0.00    -0.246 OA
BRANCH   4   6
ATOM      6  C   UNL A   1      40.794  26.319  27.559  1.00  0.00     0.060 A 
ATOM      7  C   UNL A   1      40.077  26.005  28.708  1.00  0.00     0.016 A 
ATOM      8  C   UNL A   1      41.754  27.329  27.583  1.00  0.00     0.016 A 
ATOM      9  C   UNL A   1      40.186  26.798  29.830  1.00  0.00     0.010 A 
ATOM     10  C   UNL A   1      41.919  28.083  28.757  1.00  0.00     0.010 A 
ATOM     11  C   UNL A   1      41.087  27.863  29.873  1.00  0.00    -0.014 A 
BRANCH  11  12
ATOM     12  C   UNL A   1      40.987  28.800  31.027  1.00  0.00     0.031 A 
ATOM     13  C   UNL A   1      39.849  29.787  31.084  1.00  0.00     0.074 A 
ATOM     14  C   UNL A   1      41.778  28.641  32.109  1.00  0.00     0.049 A 
ATOM     15  N   UNL A   1      39.652  30.769  31.923  1.00  0.00    -0.248 NA
ATOM     16  C   UNL A   1      38.794  29.655  30.064  1.00  0.00     0.031 C 
ATOM     17  C   UNL A   1      42.825  27.625  32.250  1.00  0.00     0.029 A 
ATOM     18  N   UNL A   1      41.775  29.272  33.328  1.00  0.00    -0.354 N 
ATOM     19  C   UNL A   1      38.508  31.424  31.481  1.00  0.00     0.074 A 
ATOM     20  C   UNL A   1      38.038  30.715  30.312  1.00  0.00     0.031 C 
ATOM     21  C   UNL A   1      43.269  27.619  33.514  1.00  0.00     0.029 A 
ATOM     22  C   UNL A   1      42.664  28.734  34.230  1.00  0.00     0.049 A 
ATOM     23  H   UNL A   1      41.192  30.038  33.537  1.00  0.00     0.167 HD
ATOM     24  C   UNL A   1      37.918  32.525  32.003  1.00  0.00     0.037 A 
ATOM     25  C   UNL A   1      43.000  29.126  35.475  1.00  0.00     0.037 A 
ATOM     26  C   UNL A   1      38.361  33.162  33.215  1.00  0.00     0.049 A 
ATOM     27  C   UNL A   1      42.371  30.377  36.018  1.00  0.00     0.074 A 
ATOM     28  C   UNL A   1      37.903  34.331  33.796  1.00  0.00     0.029 A 
ATOM     29  N   UNL A   1      39.339  32.653  34.058  1.00  0.00    -0.354 N 
ATOM     30  N   UNL A   1      41.427  31.119  35.487  1.00  0.00    -0.248 NA
ATOM     31  C   UNL A   1      42.884  30.878  37.299  1.00  0.00     0.031 C 
ATOM     32  C   UNL A   1      38.624  34.542  34.976  1.00  0.00     0.029 A 
ATOM     33  C   UNL A   1      39.497  33.480  35.156  1.00  0.00     0.049 A 
ATOM     34  H   UNL A   1      39.847  31.824  33.898  1.00  0.00     0.167 HD
ATOM     35  C   UNL A   1      41.236  32.178  36.366  1.00  0.00     0.074 A 
ATOM     36  C   UNL A   1      42.143  31.964  37.477  1.00  0.00     0.031 C 
ATOM     37  C   UNL A   1      40.399  33.238  36.256  1.00  0.00     0.037 A 
BRANCH  24  38
ATOM     38  C   UNL A   1      36.792  33.149  31.225  1.00  0.00     0.058 A 
ATOM     39  C   UNL A   1      37.071  33.862  30.047  1.00  0.00     0.135 A 
ATOM     40  C   UNL A   1      35.450  33.054  31.627  1.00  0.00     0.135 A 
ATOM     41  F   UNL A   1      38.334  33.976  29.608  1.00  0.00    -0.206 F 
ATOM     42  C   UNL A   1      36.063  34.459  29.297  1.00  0.00     0.059 A 
ATOM     43  C   UNL A   1      34.422  33.621  30.876  1.00  0.00     0.059 A 
ATOM     44  F   UNL A   1      35.123  32.357  32.726  1.00  0.00    -0.206 F 
ATOM     45  C   UNL A   1      34.740  34.329  29.717  1.00  0.00     0.060 A 
BRANCH  45  46
ATOM     46  S   UNL A   1      33.439  35.045  28.688  1.00  0.00     0.124 S 
ATOM     47  O   UNL A   1      34.158  36.102  27.987  1.00  0.00    -0.237 OA
ATOM     48  O   UNL A   1      33.029  33.905  27.874  1.00  0.00    -0.237 OA
ATOM     49  O   UNL A   1      32.449  35.494  29.663  1.00  0.00    -0.744 OA
ENDBRANCH  45  46
ENDBRANCH  24  38
BRANCH  25  50
ATOM     50  C   UNL A   1      44.037  28.377  36.239  1.00  0.00     0.058 A 
ATOM     51  C   UNL A   1      45.392  28.746  36.175  1.00  0.00     0.135 A 
ATOM     52  C   UNL A   1      43.708  27.259  37.019  1.00  0.00     0.135 A 
ATOM     53  F   UNL A   1      45.767  29.811  35.451  1.00  0.00    -0.206 F 
ATOM     54  C   UNL A   1      46.384  28.006  36.807  1.00  0.00     0.059 A 
ATOM     55  C   UNL A   1      44.681  26.522  37.693  1.00  0.00     0.059 A 
ATOM     56  F   UNL A   1      42.426  26.880  37.138  1.00  0.00    -0.206 F 
ATOM     57  C   UNL A   1      46.020  26.892  37.561  1.00  0.00     0.060 A 
BRANCH  57  58
ATOM     58  S   UNL A   1      47.329  25.948  38.370  1.00  0.00     0.124 S 
ATOM     59  O   UNL A   1      47.959  25.286  37.232  1.00  0.00    -0.237 OA
ATOM     60  O   UNL A   1      48.116  27.000  39.007  1.00  0.00    -0.237 OA
ATOM     61  O   UNL A   1      46.601  25.074  39.284  1.00  0.00    -0.744 OA
ENDBRANCH  57  58
ENDBRANCH  25  50
BRANCH  37  62
ATOM     62  C   UNL A   1      40.399  34.236  37.378  1.00  0.00     0.058 A 
ATOM     63  C   UNL A   1      39.460  34.130  38.414  1.00  0.00     0.135 A 
ATOM     64  C   UNL A   1      41.277  35.330  37.390  1.00  0.00     0.135 A 
ATOM     65  F   UNL A   1      38.596  33.103  38.445  1.00  0.00    -0.206 F 
ATOM     66  C   UNL A   1      39.380  35.088  39.418  1.00  0.00     0.059 A 
ATOM     67  C   UNL A   1      41.231  36.287  38.398  1.00  0.00     0.059 A 
ATOM     68  F   UNL A   1      42.200  35.466  36.425  1.00  0.00    -0.206 F 
ATOM     69  C   UNL A   1      40.267  36.165  39.400  1.00  0.00     0.060 A 
BRANCH  69  70
ATOM     70  S   UNL A   1      40.154  37.393  40.716  1.00  0.00     0.124 S 
ATOM     71  O   UNL A   1      39.901  38.616  39.964  1.00  0.00    -0.237 OA
ATOM     72  O   UNL A   1      39.036  36.893  41.510  1.00  0.00    -0.237 OA
ATOM     73  O   UNL A   1      41.459  37.314  41.367  1.00  0.00    -0.744 OA
ENDBRANCH  69  70
ENDBRANCH  37  62
ENDBRANCH  11  12
ENDBRANCH   4   6
ENDBRANCH   3   4
ENDBRANCH   2   3
ENDBRANCH   1   2
BRANCH   1  74
ATOM     74  O   UNL A   1      38.437  21.825  25.121  1.00  0.00    -0.374 OA
BRANCH  74  75
ATOM     75  C   UNL A   1      37.926  20.522  25.387  1.00  0.00     0.202 C 
BRANCH  75  76
ATOM     76  C   UNL A   1      39.067  19.519  25.506  1.00  0.00     0.261 C 
BRANCH  76  77
ATOM     77  O   UNL A   1      40.297  20.253  25.464  1.00  0.00    -0.459 OA
BRANCH  77  78
ATOM     78  C   UNL A   1      41.134  20.123  26.531  1.00  0.00     0.345 C 
ATOM     79  O   UNL A   1      40.829  19.989  27.690  1.00  0.00    -0.246 OA
BRANCH  78  80
ATOM     80  C   UNL A   1      42.504  20.199  25.988  1.00  0.00     0.138 A 
ATOM     81  C   UNL A   1      43.099  18.948  25.731  1.00  0.00     0.141 A 
ATOM     82  C   UNL A   1      43.253  21.362  25.770  1.00  0.00     0.144 A 
ATOM     83  F   UNL A   1      42.395  17.812  25.859  1.00  0.00    -0.206 F 
ATOM     84  C   UNL A   1      44.429  18.826  25.344  1.00  0.00     0.040 A 
ATOM     85  C   UNL A   1      44.602  21.214  25.372  1.00  0.00     0.048 A 
ATOM     86  C   UNL A   1      45.193  19.967  25.178  1.00  0.00     0.007 A 
BRANCH  82  87
ATOM     87  O   UNL A   1      42.959  22.700  25.863  1.00  0.00    -0.456 OA
BRANCH  87  88
ATOM     88  C   UNL A   1      43.165  23.456  26.978  1.00  0.00     0.128 A 
ATOM     89  C   UNL A   1      42.671  22.988  28.195  1.00  0.00     0.047 A 
ATOM     90  C   UNL A   1      44.098  24.492  26.952  1.00  0.00     0.067 A 
ATOM     91  C   UNL A   1      43.063  23.598  29.385  1.00  0.00     0.005 A 
ATOM     92  C   UNL A   1      44.458  25.121  28.143  1.00  0.00     0.044 A 
ATOM     93  C   UNL A   1      43.942  24.681  29.361  1.00  0.00     0.021 A 
ATOM     94  Cl  UNL A   1      45.582  26.422  28.114  1.00  0.00    -0.084 Cl
ENDBRANCH  87  88
ENDBRANCH  82  87
ENDBRANCH  78  80
ENDBRANCH  77  78
ENDBRANCH  76  77
ENDBRANCH  75  76
ENDBRANCH  74  75
ENDBRANCH   1  74
TORSDOF 19
ENDMDL
MODEL 3
REMARK VINA RESULT:     -10.4      5.043      9.696
REMARK SMILES O=C(OCCOCCOC(=O)c1c(F)cccc1Oc1cccc(Cl)c1)c1ccc(-c2c3nc(c(-c4c(F)cc(S(=O)(=O)[O-])cc4F)c4ccc([nH]4)c(-c4c(F)cc(S(=O)(=O)[O-])cc4F)c4nc(c(-c5c(F)cc(S(=O)(=O)[O-])cc5F)c5ccc2[nH]5)C=C4)C=C3)cc1
REMARK SMILES IDX 5 1 4 2 3 3 2 4 1 5 27 6 28 7 92 8 29 9 91 10 30 11 31 12
REMARK SMILES IDX 32 13 85 14 33 15 90 16 84 17 86 18 34 19 89 20 83 21 82 22
REMARK SMILES IDX 35 24 69 25 48 26 68 27 49 28 52 29 67 30 87 31 50 32 51 33
REMARK SMILES IDX 66 35 88 36 53 37 36 38 37 39 46 40 38 41 39 42 45 43 47 44
REMARK SMILES IDX 40 45 41 46 42 47 43 48 44 49 70 50 71 51 80 52 72 53 73 54
REMARK SMILES IDX 79 55 81 56 74 57 75 58 76 59 77 60 78 61 54 62 55 63 64 64
REMARK SMILES IDX 56 65 57 66 63 67 65 68 58 69 59 70 60 71 61 72 62 73 6 74
REMARK SMILES IDX 7 75 8 76 9 77 10 78 11 79 12 80 13 81 18 82 14 83 15 84
REMARK SMILES IDX 17 85 16 86 19 87 20 88 21 89 26 90 22 91 24 92 23 93 25 94
REMARK H PARENT 86 23 52 34
REMARK Flexibility Score: inf
ROOT
ATOM      1  C   UNL A   1      39.969  21.514  26.516  1.00  0.00     0.202 C 
ENDROOT
BRANCH   1   2
ATOM      2  C   UNL A   1      41.195  22.395  26.225  1.00  0.00     0.261 C 
BRANCH   2   3
ATOM      3  O   UNL A   1      41.283  23.507  27.119  1.00  0.00    -0.460 OA
BRANCH   3   4
ATOM      4  C   UNL A   1      41.719  24.672  26.567  1.00  0.00     0.338 C 
ATOM      5  O   UNL A   1      42.462  24.818  25.614  1.00  0.00    -0.246 OA
BRANCH   4   6
ATOM      6  C   UNL A   1      41.196  25.740  27.434  1.00  0.00     0.060 A 
ATOM      7  C   UNL A   1      41.908  26.933  27.461  1.00  0.00     0.016 A 
ATOM      8  C   UNL A   1      40.128  25.537  28.308  1.00  0.00     0.016 A 
ATOM      9  C   UNL A   1      41.678  27.853  28.460  1.00  0.00     0.010 A 
ATOM     10  C   UNL A   1      39.845  26.518  29.274  1.00  0.00     0.010 A 
ATOM     11  C   UNL A   1      40.663  27.658  29.399  1.00  0.00    -0.014 A 
BRANCH  11  12
ATOM     12  C   UNL A   1      40.624  28.580  30.569  1.00  0.00     0.031 A 
ATOM     13  C   UNL A   1      39.534  29.617  30.660  1.00  0.00     0.074 A 
ATOM     14  C   UNL A   1      41.423  28.366  31.636  1.00  0.00     0.049 A 
ATOM     15  N   UNL A   1      39.395  30.593  31.517  1.00  0.00    -0.248 NA
ATOM     16  C   UNL A   1      38.460  29.551  29.654  1.00  0.00     0.031 C 
ATOM     17  C   UNL A   1      42.424  27.300  31.744  1.00  0.00     0.029 A 
ATOM     18  N   UNL A   1      41.467  28.976  32.865  1.00  0.00    -0.354 N 
ATOM     19  C   UNL A   1      38.277  31.307  31.104  1.00  0.00     0.074 A 
ATOM     20  C   UNL A   1      37.758  30.640  29.930  1.00  0.00     0.031 C 
ATOM     21  C   UNL A   1      42.885  27.252  33.002  1.00  0.00     0.029 A 
ATOM     22  C   UNL A   1      42.344  28.382  33.745  1.00  0.00     0.049 A 
ATOM     23  H   UNL A   1      40.923  29.764  33.095  1.00  0.00     0.167 HD
ATOM     24  C   UNL A   1      37.746  32.425  31.652  1.00  0.00     0.037 A 
ATOM     25  C   UNL A   1      42.715  28.737  34.990  1.00  0.00     0.037 A 
ATOM     26  C   UNL A   1      38.236  33.021  32.868  1.00  0.00     0.049 A 
ATOM     27  C   UNL A   1      42.153  30.007  35.563  1.00  0.00     0.074 A 
ATOM     28  C   UNL A   1      37.842  34.199  33.474  1.00  0.00     0.029 A 
ATOM     29  N   UNL A   1      39.202  32.452  33.686  1.00  0.00    -0.354 N 
ATOM     30  N   UNL A   1      41.237  30.800  35.058  1.00  0.00    -0.248 NA
ATOM     31  C   UNL A   1      42.708  30.461  36.844  1.00  0.00     0.031 C 
ATOM     32  C   UNL A   1      38.589  34.357  34.646  1.00  0.00     0.029 A 
ATOM     33  C   UNL A   1      39.414  33.253  34.796  1.00  0.00     0.049 A 
ATOM     34  H   UNL A   1      39.669  31.604  33.506  1.00  0.00     0.167 HD
ATOM     35  C   UNL A   1      41.109  31.852  35.957  1.00  0.00     0.074 A 
ATOM     36  C   UNL A   1      42.021  31.578  37.051  1.00  0.00     0.031 C 
ATOM     37  C   UNL A   1      40.320  32.951  35.877  1.00  0.00     0.037 A 
BRANCH  24  38
ATOM     38  C   UNL A   1      36.640  33.113  30.902  1.00  0.00     0.058 A 
ATOM     39  C   UNL A   1      35.322  33.043  31.385  1.00  0.00     0.135 A 
ATOM     40  C   UNL A   1      36.862  33.836  29.719  1.00  0.00     0.135 A 
ATOM     41  F   UNL A   1      35.052  32.375  32.517  1.00  0.00    -0.206 F 
ATOM     42  C   UNL A   1      34.265  33.660  30.723  1.00  0.00     0.059 A 
ATOM     43  C   UNL A   1      35.822  34.485  29.054  1.00  0.00     0.059 A 
ATOM     44  F   UNL A   1      38.105  33.965  29.230  1.00  0.00    -0.206 F 
ATOM     45  C   UNL A   1      34.526  34.384  29.561  1.00  0.00     0.060 A 
BRANCH  45  46
ATOM     46  S   UNL A   1      33.154  35.242  28.758  1.00  0.00     0.124 S 
ATOM     47  O   UNL A   1      32.376  35.700  29.903  1.00  0.00    -0.237 OA
ATOM     48  O   UNL A   1      33.844  36.282  28.000  1.00  0.00    -0.237 OA
ATOM     49  O   UNL A   1      32.531  34.199  27.949  1.00  0.00    -0.744 OA
ENDBRANCH  45  46
ENDBRANCH  24  38
BRANCH  25  50
ATOM     50  C   UNL A   1      43.728  27.929  35.726  1.00  0.00     0.058 A 
ATOM     51  C   UNL A   1      45.104  28.124  35.517  1.00  0.00     0.135 A 
ATOM     52  C   UNL A   1      43.348  26.920  36.624  1.00  0.00     0.135 A 
ATOM     53  F   UNL A   1      45.528  29.079  34.675  1.00  0.00    -0.206 F 
ATOM     54  C   UNL A   1      46.060  27.320  36.125  1.00  0.00     0.059 A 
ATOM     55  C   UNL A   1      44.290  26.124  37.275  1.00  0.00     0.059 A 
ATOM     56  F   UNL A   1      42.048  26.709  36.883  1.00  0.00    -0.206 F 
ATOM     57  C   UNL A   1      45.644  26.318  37.000  1.00  0.00     0.060 A 
BRANCH  57  58
ATOM     58  S   UNL A   1      46.907  25.287  37.774  1.00  0.00     0.124 S 
ATOM     59  O   UNL A   1      46.137  24.609  38.811  1.00  0.00    -0.237 OA
ATOM     60  O   UNL A   1      47.344  24.450  36.659  1.00  0.00    -0.237 OA
ATOM     61  O   UNL A   1      47.890  26.256  38.249  1.00  0.00    -0.744 OA
ENDBRANCH  57  58
ENDBRANCH  25  50
BRANCH  37  62
ATOM     62  C   UNL A   1      40.383  33.929  37.015  1.00  0.00     0.058 A 
ATOM     63  C   UNL A   1      39.481  33.825  38.084  1.00  0.00     0.135 A 
ATOM     64  C   UNL A   1      41.284  35.004  37.012  1.00  0.00     0.135 A 
ATOM     65  F   UNL A   1      38.597  32.815  38.130  1.00  0.00    -0.206 F 
ATOM     66  C   UNL A   1      39.458  34.766  39.106  1.00  0.00     0.059 A 
ATOM     67  C   UNL A   1      41.296  35.944  38.038  1.00  0.00     0.059 A 
ATOM     68  F   UNL A   1      42.174  35.138  36.016  1.00  0.00    -0.206 F 
ATOM     69  C   UNL A   1      40.367  35.825  39.072  1.00  0.00     0.060 A 
BRANCH  69  70
ATOM     70  S   UNL A   1      40.329  37.031  40.413  1.00  0.00     0.124 S 
ATOM     71  O   UNL A   1      41.496  36.644  41.197  1.00  0.00    -0.237 OA
ATOM     72  O   UNL A   1      40.438  38.296  39.693  1.00  0.00    -0.237 OA
ATOM     73  O   UNL A   1      39.036  36.791  41.048  1.00  0.00    -0.744 OA
ENDBRANCH  69  70
ENDBRANCH  37  62
ENDBRANCH  11  12
ENDBRANCH   4   6
ENDBRANCH   3   4
ENDBRANCH   2   3
ENDBRANCH   1   2
BRANCH   1  74
ATOM     74  O   UNL A   1      38.855  21.887  25.713  1.00  0.00    -0.374 OA
BRANCH  74  75
ATOM     75  C   UNL A   1      38.021  22.916  26.235  1.00  0.00     0.202 C 
BRANCH  75  76
ATOM     76  C   UNL A   1      37.374  23.702  25.100  1.00  0.00     0.261 C 
BRANCH  76  77
ATOM     77  O   UNL A   1      35.996  23.314  25.034  1.00  0.00    -0.459 OA
BRANCH  77  78
ATOM     78  C   UNL A   1      35.566  22.752  23.870  1.00  0.00     0.345 C 
ATOM     79  O   UNL A   1      35.981  22.961  22.757  1.00  0.00    -0.246 OA
BRANCH  78  80
ATOM     80  C   UNL A   1      34.465  21.840  24.239  1.00  0.00     0.138 A 
ATOM     81  C   UNL A   1      34.886  20.589  24.731  1.00  0.00     0.141 A 
ATOM     82  C   UNL A   1      33.094  22.084  24.093  1.00  0.00     0.144 A 
ATOM     83  F   UNL A   1      36.186  20.338  24.954  1.00  0.00    -0.206 F 
ATOM     84  C   UNL A   1      33.990  19.561  25.002  1.00  0.00     0.040 A 
ATOM     85  C   UNL A   1      32.200  21.025  24.378  1.00  0.00     0.048 A 
ATOM     86  C   UNL A   1      32.637  19.773  24.809  1.00  0.00     0.007 A 
BRANCH  82  87
ATOM     87  O   UNL A   1      32.372  23.186  23.708  1.00  0.00    -0.456 OA
BRANCH  87  88
ATOM     88  C   UNL A   1      32.634  24.459  24.120  1.00  0.00     0.128 A 
ATOM     89  C   UNL A   1      32.763  24.698  25.487  1.00  0.00     0.047 A 
ATOM     90  C   UNL A   1      33.063  25.412  23.198  1.00  0.00     0.067 A 
ATOM     91  C   UNL A   1      33.266  25.918  25.935  1.00  0.00     0.005 A 
ATOM     92  C   UNL A   1      33.531  26.644  23.653  1.00  0.00     0.044 A 
ATOM     93  C   UNL A   1      33.631  26.904  25.018  1.00  0.00     0.021 A 
ATOM     94  Cl  UNL A   1      34.029  27.838  22.519  1.00  0.00    -0.084 Cl
ENDBRANCH  87  88
ENDBRANCH  82  87
ENDBRANCH  78  80
ENDBRANCH  77  78
ENDBRANCH  76  77
ENDBRANCH  75  76
ENDBRANCH  74  75
ENDBRANCH   1  74
TORSDOF 19
ENDMDL
