MODEL 1
REMARK VINA RESULT:     -11.4      0.000      0.000
REMARK SMILES CCCc1cc(OC(F)(F)F)cc2c1O[C@H](C(F)(F)F)C(C(=O)OCCOCCOC(=O)c1ccc(-c3c4nc(c(-c5c(F)cc(S(=O)(=O)[O-])cc5F)c5ccc([nH]5)c(-c5c(F)cc(S(=O)(=O)[O-])cc5F)c5nc(c(-c6c(F)cc(S(=O)(=O)[O-])cc6F)c6ccc3[nH]6)C=C5)C=C4)cc1)=C2
REMARK SMILES IDX 28 1 27 2 26 3 25 4 24 5 22 6 23 7 21 8 4 9 5 10 14 11 6 12
REMARK SMILES IDX 13 13 15 14 12 15 99 16 16 17 3 18 2 19 1 20 7 21 8 22 9 23
REMARK SMILES IDX 10 24 11 25 17 26 18 27 19 28 20 29 29 30 30 31 31 32 32 33
REMARK SMILES IDX 33 34 34 35 98 36 35 37 97 38 36 39 37 40 38 41 91 42 39 43
REMARK SMILES IDX 96 44 90 45 92 46 40 47 95 48 89 49 88 50 41 52 75 53 54 54
REMARK SMILES IDX 74 55 55 56 58 57 73 58 93 59 56 60 57 61 72 63 94 64 59 65
REMARK SMILES IDX 42 66 43 67 52 68 44 69 45 70 51 71 53 72 46 73 47 74 48 75
REMARK SMILES IDX 49 76 50 77 76 78 77 79 86 80 78 81 79 82 85 83 87 84 80 85
REMARK SMILES IDX 81 86 82 87 83 88 84 89 60 90 61 91 70 92 62 93 63 94 69 95
REMARK SMILES IDX 71 96 64 97 65 98 66 99 67 100 68 101
REMARK H PARENT 92 51 58 62
REMARK Flexibility Score: inf
ROOT
ATOM      1  C   UNL A   1      36.108  20.795  25.157  1.00  0.00     0.202 C 
ENDROOT
BRANCH   1   2
ATOM      2  O   UNL A   1      34.939  21.442  24.662  1.00  0.00    -0.374 OA
BRANCH   2   3
ATOM      3  C   UNL A   1      33.754  20.653  24.541  1.00  0.00     0.202 C 
BRANCH   3   4
ATOM      4  C   UNL A   1      32.522  21.136  25.313  1.00  0.00     0.261 C 
BRANCH   4   5
ATOM      5  O   UNL A   1      31.828  22.187  24.612  1.00  0.00    -0.460 OA
BRANCH   5   6
ATOM      6  C   UNL A   1      31.048  22.976  25.387  1.00  0.00     0.338 C 
ATOM      7  O   UNL A   1      30.377  22.609  26.341  1.00  0.00    -0.246 OA
BRANCH   6   8
ATOM      8  C   UNL A   1      31.179  24.405  25.041  1.00  0.00     0.087 C 
ATOM      9  C   UNL A   1      31.257  28.568  25.196  1.00  0.00    -0.002 A 
ATOM     10  C   UNL A   1      30.771  29.297  24.103  1.00  0.00     0.054 A 
ATOM     11  C   UNL A   1      31.180  27.171  25.133  1.00  0.00     0.131 A 
ATOM     12  C   UNL A   1      30.148  28.656  23.025  1.00  0.00     0.130 A 
ATOM     13  C   UNL A   1      30.572  26.501  24.057  1.00  0.00     0.021 A 
ATOM     14  O   UNL A   1      31.698  26.482  26.202  1.00  0.00    -0.475 OA
ATOM     15  C   UNL A   1      30.058  27.257  23.003  1.00  0.00     0.058 A 
ATOM     16  C   UNL A   1      30.428  25.041  24.125  1.00  0.00     0.027 C 
ATOM     17  C   UNL A   1      32.186  25.165  25.872  1.00  0.00     0.316 C 
BRANCH   9  18
ATOM     18  C   UNL A   1      31.908  29.218  26.401  1.00  0.00     0.039 C 
BRANCH  18  19
ATOM     19  C   UNL A   1      33.356  29.698  26.266  1.00  0.00     0.001 C 
ATOM     20  C   UNL A   1      34.287  29.095  27.311  1.00  0.00     0.004 C 
ENDBRANCH  18  19
ENDBRANCH   9  18
BRANCH  12  21
ATOM     21  O   UNL A   1      29.592  29.285  21.945  1.00  0.00    -0.406 OA
BRANCH  21  22
ATOM     22  C   UNL A   1      28.317  29.881  22.127  1.00  0.00     0.573 C 
ATOM     23  F   UNL A   1      27.392  28.969  22.504  1.00  0.00    -0.132 F 
ATOM     24  F   UNL A   1      28.371  30.869  23.048  1.00  0.00    -0.132 F 
ATOM     25  F   UNL A   1      27.913  30.425  20.958  1.00  0.00    -0.132 F 
ENDBRANCH  21  22
ENDBRANCH  12  21
BRANCH  17  26
ATOM     26  C   UNL A   1      33.584  25.238  25.229  1.00  0.00     0.430 C 
ATOM     27  F   UNL A   1      34.116  26.480  25.351  1.00  0.00    -0.167 F 
ATOM     28  F   UNL A   1      34.454  24.389  25.823  1.00  0.00    -0.167 F 
ATOM     29  F   UNL A   1      33.580  24.936  23.911  1.00  0.00    -0.167 F 
ENDBRANCH  17  26
ENDBRANCH   6   8
ENDBRANCH   5   6
ENDBRANCH   4   5
ENDBRANCH   3   4
ENDBRANCH   2   3
ENDBRANCH   1   2
BRANCH   1  30
ATOM     30  C   UNL A   1      37.464  21.436  24.846  1.00  0.00     0.261 C 
BRANCH  30  31
ATOM     31  O   UNL A   1      37.854  22.402  25.831  1.00  0.00    -0.460 OA
BRANCH  31  32
ATOM     32  C   UNL A   1      39.124  22.248  26.272  1.00  0.00     0.338 C 
ATOM     33  O   UNL A   1      39.898  21.341  25.988  1.00  0.00    -0.246 OA
BRANCH  32  34
ATOM     34  C   UNL A   1      39.550  23.434  27.033  1.00  0.00     0.060 A 
ATOM     35  C   UNL A   1      38.906  24.641  26.736  1.00  0.00     0.016 A 
ATOM     36  C   UNL A   1      40.596  23.392  27.958  1.00  0.00     0.016 A 
ATOM     37  C   UNL A   1      39.355  25.826  27.308  1.00  0.00     0.010 A 
ATOM     38  C   UNL A   1      41.049  24.588  28.529  1.00  0.00     0.010 A 
ATOM     39  C   UNL A   1      40.459  25.813  28.169  1.00  0.00    -0.014 A 
BRANCH  39  40
ATOM     40  C   UNL A   1      41.083  27.106  28.539  1.00  0.00     0.031 A 
ATOM     41  C   UNL A   1      42.563  27.285  28.328  1.00  0.00     0.074 A 
ATOM     42  C   UNL A   1      40.329  28.130  28.977  1.00  0.00     0.049 A 
ATOM     43  N   UNL A   1      43.304  28.345  28.515  1.00  0.00    -0.248 NA
ATOM     44  C   UNL A   1      43.306  26.111  27.838  1.00  0.00     0.031 C 
ATOM     45  C   UNL A   1      38.884  28.080  29.195  1.00  0.00     0.029 A 
ATOM     46  N   UNL A   1      40.677  29.415  29.308  1.00  0.00    -0.354 N 
ATOM     47  C   UNL A   1      44.597  27.969  28.167  1.00  0.00     0.074 A 
ATOM     48  C   UNL A   1      44.546  26.574  27.792  1.00  0.00     0.031 C 
ATOM     49  C   UNL A   1      38.467  29.284  29.627  1.00  0.00     0.029 A 
ATOM     50  C   UNL A   1      39.617  30.180  29.732  1.00  0.00     0.049 A 
ATOM     51  H   UNL A   1      41.598  29.755  29.248  1.00  0.00     0.167 HD
ATOM     52  C   UNL A   1      45.720  28.724  28.148  1.00  0.00     0.037 A 
ATOM     53  C   UNL A   1      39.584  31.457  30.162  1.00  0.00     0.037 A 
ATOM     54  C   UNL A   1      45.762  30.116  28.511  1.00  0.00     0.049 A 
ATOM     55  C   UNL A   1      40.855  32.265  30.169  1.00  0.00     0.074 A 
ATOM     56  C   UNL A   1      46.845  30.978  28.495  1.00  0.00     0.029 A 
ATOM     57  N   UNL A   1      44.675  30.849  28.965  1.00  0.00    -0.354 N 
ATOM     58  N   UNL A   1      42.062  31.908  29.797  1.00  0.00    -0.248 NA
ATOM     59  C   UNL A   1      40.759  33.652  30.646  1.00  0.00     0.031 C 
ATOM     60  C   UNL A   1      46.423  32.220  28.982  1.00  0.00     0.029 A 
ATOM     61  C   UNL A   1      45.067  32.145  29.256  1.00  0.00     0.049 A 
ATOM     62  H   UNL A   1      43.761  30.499  29.064  1.00  0.00     0.167 HD
ATOM     63  C   UNL A   1      42.864  33.031  29.977  1.00  0.00     0.074 A 
ATOM     64  C   UNL A   1      42.001  34.084  30.473  1.00  0.00     0.031 C 
ATOM     65  C   UNL A   1      44.193  33.180  29.752  1.00  0.00     0.037 A 
BRANCH  52  66
ATOM     66  C   UNL A   1      47.002  28.058  27.734  1.00  0.00     0.058 A 
ATOM     67  C   UNL A   1      47.827  27.402  28.660  1.00  0.00     0.135 A 
ATOM     68  C   UNL A   1      47.392  28.044  26.385  1.00  0.00     0.135 A 
ATOM     69  F   UNL A   1      47.513  27.404  29.966  1.00  0.00    -0.206 F 
ATOM     70  C   UNL A   1      49.002  26.770  28.267  1.00  0.00     0.059 A 
ATOM     71  C   UNL A   1      48.550  27.397  25.965  1.00  0.00     0.059 A 
ATOM     72  F   UNL A   1      46.641  28.660  25.458  1.00  0.00    -0.206 F 
ATOM     73  C   UNL A   1      49.354  26.771  26.916  1.00  0.00     0.060 A 
BRANCH  73  74
ATOM     74  S   UNL A   1      50.874  25.932  26.418  1.00  0.00     0.124 S 
ATOM     75  O   UNL A   1      50.689  25.829  24.973  1.00  0.00    -0.237 OA
ATOM     76  O   UNL A   1      51.905  26.867  26.859  1.00  0.00    -0.237 OA
ATOM     77  O   UNL A   1      50.822  24.671  27.149  1.00  0.00    -0.744 OA
ENDBRANCH  73  74
ENDBRANCH  52  66
BRANCH  53  78
ATOM     78  C   UNL A   1      38.302  32.051  30.629  1.00  0.00     0.058 A 
ATOM     79  C   UNL A   1      37.858  31.883  31.948  1.00  0.00     0.135 A 
ATOM     80  C   UNL A   1      37.492  32.793  29.755  1.00  0.00     0.135 A 
ATOM     81  F   UNL A   1      38.593  31.175  32.818  1.00  0.00    -0.206 F 
ATOM     82  C   UNL A   1      36.647  32.415  32.382  1.00  0.00     0.059 A 
ATOM     83  C   UNL A   1      36.290  33.355  30.171  1.00  0.00     0.059 A 
ATOM     84  F   UNL A   1      37.878  32.992  28.485  1.00  0.00    -0.206 F 
ATOM     85  C   UNL A   1      35.869  33.149  31.484  1.00  0.00     0.060 A 
BRANCH  85  86
ATOM     86  S   UNL A   1      34.320  33.872  32.065  1.00  0.00     0.124 S 
ATOM     87  O   UNL A   1      33.711  34.305  30.815  1.00  0.00    -0.237 OA
ATOM     88  O   UNL A   1      33.682  32.738  32.728  1.00  0.00    -0.237 OA
ATOM     89  O   UNL A   1      34.763  34.939  32.957  1.00  0.00    -0.744 OA
ENDBRANCH  85  86
ENDBRANCH  53  78
BRANCH  65  90
ATOM     90  C   UNL A   1      44.793  34.532  30.025  1.00  0.00     0.058 A 
ATOM     91  C   UNL A   1      45.340  34.854  31.277  1.00  0.00     0.135 A 
ATOM     92  C   UNL A   1      44.859  35.500  29.010  1.00  0.00     0.135 A 
ATOM     93  F   UNL A   1      45.299  33.965  32.281  1.00  0.00    -0.206 F 
ATOM     94  C   UNL A   1      45.904  36.101  31.522  1.00  0.00     0.059 A 
ATOM     95  C   UNL A   1      45.444  36.744  29.226  1.00  0.00     0.059 A 
ATOM     96  F   UNL A   1      44.362  35.238  27.791  1.00  0.00    -0.206 F 
ATOM     97  C   UNL A   1      45.950  37.041  30.490  1.00  0.00     0.060 A 
BRANCH  97  98
ATOM     98  S   UNL A   1      46.703  38.649  30.816  1.00  0.00     0.124 S 
ATOM     99  O   UNL A   1      48.007  38.497  30.181  1.00  0.00    -0.237 OA
ATOM    100  O   UNL A   1      45.779  39.568  30.155  1.00  0.00    -0.237 OA
ATOM    101  O   UNL A   1      46.718  38.728  32.274  1.00  0.00    -0.744 OA
ENDBRANCH  97  98
ENDBRANCH  65  90
ENDBRANCH  39  40
ENDBRANCH  32  34
ENDBRANCH  31  32
ENDBRANCH  30  31
ENDBRANCH   1  30
TORSDOF 22
ENDMDL
MODEL 2
REMARK VINA RESULT:     -11.3      5.016      6.648
REMARK SMILES CCCc1cc(OC(F)(F)F)cc2c1O[C@H](C(F)(F)F)C(C(=O)OCCOCCOC(=O)c1ccc(-c3c4nc(c(-c5c(F)cc(S(=O)(=O)[O-])cc5F)c5ccc([nH]5)c(-c5c(F)cc(S(=O)(=O)[O-])cc5F)c5nc(c(-c6c(F)cc(S(=O)(=O)[O-])cc6F)c6ccc3[nH]6)C=C5)C=C4)cc1)=C2
REMARK SMILES IDX 28 1 27 2 26 3 25 4 24 5 22 6 23 7 21 8 4 9 5 10 14 11 6 12
REMARK SMILES IDX 13 13 15 14 12 15 99 16 16 17 3 18 2 19 1 20 7 21 8 22 9 23
REMARK SMILES IDX 10 24 11 25 17 26 18 27 19 28 20 29 29 30 30 31 31 32 32 33
REMARK SMILES IDX 33 34 34 35 98 36 35 37 97 38 36 39 37 40 38 41 91 42 39 43
REMARK SMILES IDX 96 44 90 45 92 46 40 47 95 48 89 49 88 50 41 52 75 53 54 54
REMARK SMILES IDX 74 55 55 56 58 57 73 58 93 59 56 60 57 61 72 63 94 64 59 65
REMARK SMILES IDX 42 66 43 67 52 68 44 69 45 70 51 71 53 72 46 73 47 74 48 75
REMARK SMILES IDX 49 76 50 77 76 78 77 79 86 80 78 81 79 82 85 83 87 84 80 85
REMARK SMILES IDX 81 86 82 87 83 88 84 89 60 90 61 91 70 92 62 93 63 94 69 95
REMARK SMILES IDX 71 96 64 97 65 98 66 99 67 100 68 101
REMARK H PARENT 92 51 58 62
REMARK Flexibility Score: inf
ROOT
ATOM      1  C   UNL A   1      39.233  21.413  25.832  1.00  0.00     0.202 C 
ENDROOT
BRANCH   1   2
ATOM      2  O   UNL A   1      38.186  22.260  25.369  1.00  0.00    -0.374 OA
BRANCH   2   3
ATOM      3  C   UNL A   1      36.851  21.924  25.753  1.00  0.00     0.202 C 
BRANCH   3   4
ATOM      4  C   UNL A   1      36.000  21.187  24.716  1.00  0.00     0.261 C 
BRANCH   4   5
ATOM      5  O   UNL A   1      34.781  21.896  24.419  1.00  0.00    -0.460 OA
BRANCH   5   6
ATOM      6  C   UNL A   1      34.935  23.017  23.675  1.00  0.00     0.338 C 
ATOM      7  O   UNL A   1      35.684  23.148  22.718  1.00  0.00    -0.246 OA
BRANCH   6   8
ATOM      8  C   UNL A   1      33.985  24.079  24.062  1.00  0.00     0.087 C 
ATOM      9  C   UNL A   1      31.430  27.370  24.021  1.00  0.00    -0.002 A 
ATOM     10  C   UNL A   1      31.415  28.231  25.125  1.00  0.00     0.054 A 
ATOM     11  C   UNL A   1      32.329  26.296  24.045  1.00  0.00     0.131 A 
ATOM     12  C   UNL A   1      32.328  28.077  26.176  1.00  0.00     0.130 A 
ATOM     13  C   UNL A   1      33.246  26.109  25.093  1.00  0.00     0.021 A 
ATOM     14  O   UNL A   1      32.295  25.447  22.966  1.00  0.00    -0.475 OA
ATOM     15  C   UNL A   1      33.237  27.009  26.159  1.00  0.00     0.058 A 
ATOM     16  C   UNL A   1      34.233  25.026  24.983  1.00  0.00     0.027 C 
ATOM     17  C   UNL A   1      32.700  24.096  23.267  1.00  0.00     0.316 C 
BRANCH   9  18
ATOM     18  C   UNL A   1      30.485  27.516  22.844  1.00  0.00     0.039 C 
BRANCH  18  19
ATOM     19  C   UNL A   1      29.647  28.793  22.747  1.00  0.00     0.001 C 
ATOM     20  C   UNL A   1      28.174  28.568  23.067  1.00  0.00     0.004 C 
ENDBRANCH  18  19
ENDBRANCH   9  18
BRANCH  12  21
ATOM     21  O   UNL A   1      32.428  28.900  27.264  1.00  0.00    -0.406 OA
BRANCH  21  22
ATOM     22  C   UNL A   1      33.459  29.876  27.246  1.00  0.00     0.573 C 
ATOM     23  F   UNL A   1      33.127  30.962  27.979  1.00  0.00    -0.132 F 
ATOM     24  F   UNL A   1      34.620  29.363  27.709  1.00  0.00    -0.132 F 
ATOM     25  F   UNL A   1      33.662  30.279  25.972  1.00  0.00    -0.132 F 
ENDBRANCH  21  22
ENDBRANCH  12  21
BRANCH  17  26
ATOM     26  C   UNL A   1      31.555  23.310  23.933  1.00  0.00     0.430 C 
ATOM     27  F   UNL A   1      31.544  23.501  25.276  1.00  0.00    -0.167 F 
ATOM     28  F   UNL A   1      30.344  23.709  23.480  1.00  0.00    -0.167 F 
ATOM     29  F   UNL A   1      31.632  21.976  23.723  1.00  0.00    -0.167 F 
ENDBRANCH  17  26
ENDBRANCH   6   8
ENDBRANCH   5   6
ENDBRANCH   4   5
ENDBRANCH   3   4
ENDBRANCH   2   3
ENDBRANCH   1   2
BRANCH   1  30
ATOM     30  C   UNL A   1      40.396  22.063  26.588  1.00  0.00     0.261 C 
BRANCH  30  31
ATOM     31  O   UNL A   1      40.061  23.359  27.102  1.00  0.00    -0.460 OA
BRANCH  31  32
ATOM     32  C   UNL A   1      41.127  24.177  27.253  1.00  0.00     0.338 C 
ATOM     33  O   UNL A   1      42.230  24.055  26.732  1.00  0.00    -0.246 OA
BRANCH  32  34
ATOM     34  C   UNL A   1      40.748  25.379  28.014  1.00  0.00     0.060 A 
ATOM     35  C   UNL A   1      41.758  26.316  28.264  1.00  0.00     0.016 A 
ATOM     36  C   UNL A   1      39.464  25.559  28.536  1.00  0.00     0.016 A 
ATOM     37  C   UNL A   1      41.510  27.400  29.097  1.00  0.00     0.010 A 
ATOM     38  C   UNL A   1      39.218  26.649  29.379  1.00  0.00     0.010 A 
ATOM     39  C   UNL A   1      40.253  27.545  29.699  1.00  0.00    -0.014 A 
BRANCH  39  40
ATOM     40  C   UNL A   1      40.102  28.539  30.789  1.00  0.00     0.031 A 
ATOM     41  C   UNL A   1      40.994  28.433  31.997  1.00  0.00     0.074 A 
ATOM     42  C   UNL A   1      39.243  29.566  30.666  1.00  0.00     0.049 A 
ATOM     43  N   UNL A   1      41.084  29.225  33.033  1.00  0.00    -0.248 NA
ATOM     44  C   UNL A   1      41.909  27.278  32.042  1.00  0.00     0.031 C 
ATOM     45  C   UNL A   1      38.348  29.785  29.530  1.00  0.00     0.029 A 
ATOM     46  N   UNL A   1      38.990  30.622  31.503  1.00  0.00    -0.354 N 
ATOM     47  C   UNL A   1      42.062  28.669  33.850  1.00  0.00     0.074 A 
ATOM     48  C   UNL A   1      42.511  27.454  33.209  1.00  0.00     0.031 C 
ATOM     49  C   UNL A   1      37.640  30.909  29.744  1.00  0.00     0.029 A 
ATOM     50  C   UNL A   1      38.020  31.476  31.036  1.00  0.00     0.049 A 
ATOM     51  H   UNL A   1      39.459  30.755  32.358  1.00  0.00     0.167 HD
ATOM     52  C   UNL A   1      42.551  29.139  35.022  1.00  0.00     0.037 A 
ATOM     53  C   UNL A   1      37.496  32.585  31.594  1.00  0.00     0.037 A 
ATOM     54  C   UNL A   1      42.108  30.356  35.650  1.00  0.00     0.049 A 
ATOM     55  C   UNL A   1      38.029  33.066  32.919  1.00  0.00     0.074 A 
ATOM     56  C   UNL A   1      42.564  30.935  36.822  1.00  0.00     0.029 A 
ATOM     57  N   UNL A   1      41.103  31.178  35.163  1.00  0.00    -0.354 N 
ATOM     58  N   UNL A   1      38.983  32.553  33.659  1.00  0.00    -0.248 NA
ATOM     59  C   UNL A   1      37.422  34.281  33.479  1.00  0.00     0.031 C 
ATOM     60  C   UNL A   1      41.802  32.083  37.067  1.00  0.00     0.029 A 
ATOM     61  C   UNL A   1      40.906  32.245  36.024  1.00  0.00     0.049 A 
ATOM     62  H   UNL A   1      40.604  31.026  34.328  1.00  0.00     0.167 HD
ATOM     63  C   UNL A   1      39.103  33.393  34.762  1.00  0.00     0.074 A 
ATOM     64  C   UNL A   1      38.136  34.457  34.582  1.00  0.00     0.031 C 
ATOM     65  C   UNL A   1      39.936  33.295  35.829  1.00  0.00     0.037 A 
BRANCH  52  66
ATOM     66  C   UNL A   1      43.611  28.328  35.711  1.00  0.00     0.058 A 
ATOM     67  C   UNL A   1      44.979  28.558  35.492  1.00  0.00     0.135 A 
ATOM     68  C   UNL A   1      43.256  27.330  36.634  1.00  0.00     0.135 A 
ATOM     69  F   UNL A   1      45.374  29.485  34.604  1.00  0.00    -0.206 F 
ATOM     70  C   UNL A   1      45.956  27.817  36.149  1.00  0.00     0.059 A 
ATOM     71  C   UNL A   1      44.215  26.593  37.321  1.00  0.00     0.059 A 
ATOM     72  F   UNL A   1      41.962  27.066  36.878  1.00  0.00    -0.206 F 
ATOM     73  C   UNL A   1      45.564  26.838  37.063  1.00  0.00     0.060 A 
BRANCH  73  74
ATOM     74  S   UNL A   1      46.843  25.895  37.921  1.00  0.00     0.124 S 
ATOM     75  O   UNL A   1      46.448  24.523  37.614  1.00  0.00    -0.237 OA
ATOM     76  O   UNL A   1      48.063  26.361  37.271  1.00  0.00    -0.237 OA
ATOM     77  O   UNL A   1      46.686  26.297  39.314  1.00  0.00    -0.744 OA
ENDBRANCH  73  74
ENDBRANCH  52  66
BRANCH  53  78
ATOM     78  C   UNL A   1      36.398  33.315  30.907  1.00  0.00     0.058 A 
ATOM     79  C   UNL A   1      36.648  34.131  29.794  1.00  0.00     0.135 A 
ATOM     80  C   UNL A   1      35.072  33.214  31.360  1.00  0.00     0.135 A 
ATOM     81  F   UNL A   1      37.898  34.267  29.329  1.00  0.00    -0.206 F 
ATOM     82  C   UNL A   1      35.626  34.837  29.164  1.00  0.00     0.059 A 
ATOM     83  C   UNL A   1      34.031  33.890  30.732  1.00  0.00     0.059 A 
ATOM     84  F   UNL A   1      34.779  32.437  32.413  1.00  0.00    -0.206 F 
ATOM     85  C   UNL A   1      34.320  34.709  29.642  1.00  0.00     0.060 A 
BRANCH  85  86
ATOM     86  S   UNL A   1      32.994  35.594  28.794  1.00  0.00     0.124 S 
ATOM     87  O   UNL A   1      32.202  36.081  29.915  1.00  0.00    -0.237 OA
ATOM     88  O   UNL A   1      33.731  36.606  28.043  1.00  0.00    -0.237 OA
ATOM     89  O   UNL A   1      32.368  34.556  27.980  1.00  0.00    -0.744 OA
ENDBRANCH  85  86
ENDBRANCH  53  78
BRANCH  65  90
ATOM     90  C   UNL A   1      39.851  34.373  36.873  1.00  0.00     0.058 A 
ATOM     91  C   UNL A   1      38.973  34.272  37.964  1.00  0.00     0.135 A 
ATOM     92  C   UNL A   1      40.687  35.499  36.805  1.00  0.00     0.135 A 
ATOM     93  F   UNL A   1      38.150  33.217  38.073  1.00  0.00    -0.206 F 
ATOM     94  C   UNL A   1      38.905  35.265  38.935  1.00  0.00     0.059 A 
ATOM     95  C   UNL A   1      40.655  36.491  37.780  1.00  0.00     0.059 A 
ATOM     96  F   UNL A   1      41.554  35.637  35.790  1.00  0.00    -0.206 F 
ATOM     97  C   UNL A   1      39.750  36.373  38.833  1.00  0.00     0.060 A 
BRANCH  97  98
ATOM     98  S   UNL A   1      39.666  37.646  40.110  1.00  0.00     0.124 S 
ATOM     99  O   UNL A   1      40.881  38.408  39.845  1.00  0.00    -0.237 OA
ATOM    100  O   UNL A   1      38.411  38.324  39.796  1.00  0.00    -0.237 OA
ATOM    101  O   UNL A   1      39.662  36.880  41.354  1.00  0.00    -0.744 OA
ENDBRANCH  97  98
ENDBRANCH  65  90
ENDBRANCH  39  40
ENDBRANCH  32  34
ENDBRANCH  31  32
ENDBRANCH  30  31
ENDBRANCH   1  30
TORSDOF 22
ENDMDL
MODEL 3
REMARK VINA RESULT:     -11.3      3.056      9.506
REMARK SMILES CCCc1cc(OC(F)(F)F)cc2c1O[C@H](C(F)(F)F)C(C(=O)OCCOCCOC(=O)c1ccc(-c3c4nc(c(-c5c(F)cc(S(=O)(=O)[O-])cc5F)c5ccc([nH]5)c(-c5c(F)cc(S(=O)(=O)[O-])cc5F)c5nc(c(-c6c(F)cc(S(=O)(=O)[O-])cc6F)c6ccc3[nH]6)C=C5)C=C4)cc1)=C2
REMARK SMILES IDX 28 1 27 2 26 3 25 4 24 5 22 6 23 7 21 8 4 9 5 10 14 11 6 12
REMARK SMILES IDX 13 13 15 14 12 15 99 16 16 17 3 18 2 19 1 20 7 21 8 22 9 23
REMARK SMILES IDX 10 24 11 25 17 26 18 27 19 28 20 29 29 30 30 31 31 32 32 33
REMARK SMILES IDX 33 34 34 35 98 36 35 37 97 38 36 39 37 40 38 41 91 42 39 43
REMARK SMILES IDX 96 44 90 45 92 46 40 47 95 48 89 49 88 50 41 52 75 53 54 54
REMARK SMILES IDX 74 55 55 56 58 57 73 58 93 59 56 60 57 61 72 63 94 64 59 65
REMARK SMILES IDX 42 66 43 67 52 68 44 69 45 70 51 71 53 72 46 73 47 74 48 75
REMARK SMILES IDX 49 76 50 77 76 78 77 79 86 80 78 81 79 82 85 83 87 84 80 85
REMARK SMILES IDX 81 86 82 87 83 88 84 89 60 90 61 91 70 92 62 93 63 94 69 95
REMARK SMILES IDX 71 96 64 97 65 98 66 99 67 100 68 101
REMARK H PARENT 92 51 58 62
REMARK Flexibility Score: inf
ROOT
ATOM      1  C   UNL A   1      34.685  33.150  29.532  1.00  0.00     0.202 C 
ENDROOT
BRANCH   1   2
ATOM      2  O   UNL A   1      34.687  32.714  28.176  1.00  0.00    -0.374 OA
BRANCH   2   3
ATOM      3  C   UNL A   1      33.509  32.064  27.694  1.00  0.00     0.202 C 
BRANCH   3   4
ATOM      4  C   UNL A   1      33.641  30.584  27.323  1.00  0.00     0.261 C 
BRANCH   4   5
ATOM      5  O   UNL A   1      32.366  29.911  27.340  1.00  0.00    -0.460 OA
BRANCH   5   6
ATOM      6  C   UNL A   1      31.940  29.456  26.138  1.00  0.00     0.338 C 
ATOM      7  O   UNL A   1      31.428  30.128  25.255  1.00  0.00    -0.246 OA
BRANCH   6   8
ATOM      8  C   UNL A   1      32.276  28.033  25.929  1.00  0.00     0.087 C 
ATOM      9  C   UNL A   1      32.804  23.931  26.434  1.00  0.00    -0.002 A 
ATOM     10  C   UNL A   1      33.953  23.326  25.913  1.00  0.00     0.054 A 
ATOM     11  C   UNL A   1      32.673  25.318  26.286  1.00  0.00     0.131 A 
ATOM     12  C   UNL A   1      34.979  24.091  25.342  1.00  0.00     0.130 A 
ATOM     13  C   UNL A   1      33.680  26.108  25.705  1.00  0.00     0.021 A 
ATOM     14  O   UNL A   1      31.518  25.878  26.774  1.00  0.00    -0.475 OA
ATOM     15  C   UNL A   1      34.834  25.481  25.234  1.00  0.00     0.058 A 
ATOM     16  C   UNL A   1      33.515  27.568  25.694  1.00  0.00     0.027 C 
ATOM     17  C   UNL A   1      31.113  27.082  26.088  1.00  0.00     0.316 C 
BRANCH   9  18
ATOM     18  C   UNL A   1      31.682  23.151  27.091  1.00  0.00     0.039 C 
BRANCH  18  19
ATOM     19  C   UNL A   1      30.652  22.469  26.186  1.00  0.00     0.001 C 
ATOM     20  C   UNL A   1      30.787  22.865  24.721  1.00  0.00     0.004 C 
ENDBRANCH  18  19
ENDBRANCH   9  18
BRANCH  12  21
ATOM     21  O   UNL A   1      36.160  23.596  24.861  1.00  0.00    -0.406 OA
BRANCH  21  22
ATOM     22  C   UNL A   1      36.090  22.718  23.748  1.00  0.00     0.573 C 
ATOM     23  F   UNL A   1      37.054  22.989  22.841  1.00  0.00    -0.132 F 
ATOM     24  F   UNL A   1      36.195  21.429  24.140  1.00  0.00    -0.132 F 
ATOM     25  F   UNL A   1      34.892  22.872  23.141  1.00  0.00    -0.132 F 
ENDBRANCH  21  22
ENDBRANCH  12  21
BRANCH  17  26
ATOM     26  C   UNL A   1      30.403  26.751  24.762  1.00  0.00     0.430 C 
ATOM     27  F   UNL A   1      29.391  25.868  24.954  1.00  0.00    -0.167 F 
ATOM     28  F   UNL A   1      29.852  27.851  24.201  1.00  0.00    -0.167 F 
ATOM     29  F   UNL A   1      31.230  26.211  23.837  1.00  0.00    -0.167 F 
ENDBRANCH  17  26
ENDBRANCH   6   8
ENDBRANCH   5   6
ENDBRANCH   4   5
ENDBRANCH   3   4
ENDBRANCH   2   3
ENDBRANCH   1   2
BRANCH   1  30
ATOM     30  C   UNL A   1      35.233  32.189  30.592  1.00  0.00     0.261 C 
BRANCH  30  31
ATOM     31  O   UNL A   1      35.929  31.076  30.016  1.00  0.00    -0.460 OA
BRANCH  31  32
ATOM     32  C   UNL A   1      36.665  30.373  30.908  1.00  0.00     0.338 C 
ATOM     33  O   UNL A   1      36.249  29.742  31.872  1.00  0.00    -0.246 OA
BRANCH  32  34
ATOM     34  C   UNL A   1      38.070  30.310  30.475  1.00  0.00     0.060 A 
ATOM     35  C   UNL A   1      38.308  30.296  29.095  1.00  0.00     0.016 A 
ATOM     36  C   UNL A   1      39.128  30.192  31.382  1.00  0.00     0.016 A 
ATOM     37  C   UNL A   1      39.596  30.090  28.614  1.00  0.00     0.010 A 
ATOM     38  C   UNL A   1      40.423  29.980  30.895  1.00  0.00     0.010 A 
ATOM     39  C   UNL A   1      40.652  29.882  29.511  1.00  0.00    -0.014 A 
BRANCH  39  40
ATOM     40  C   UNL A   1      41.946  29.393  28.977  1.00  0.00     0.031 A 
ATOM     41  C   UNL A   1      43.111  30.343  28.916  1.00  0.00     0.074 A 
ATOM     42  C   UNL A   1      42.101  28.102  28.631  1.00  0.00     0.049 A 
ATOM     43  N   UNL A   1      44.346  30.117  28.552  1.00  0.00    -0.248 NA
ATOM     44  C   UNL A   1      42.849  31.736  29.320  1.00  0.00     0.031 C 
ATOM     45  C   UNL A   1      41.051  27.086  28.674  1.00  0.00     0.029 A 
ATOM     46  N   UNL A   1      43.207  27.426  28.185  1.00  0.00    -0.354 N 
ATOM     47  C   UNL A   1      45.008  31.333  28.684  1.00  0.00     0.074 A 
ATOM     48  C   UNL A   1      44.031  32.302  29.126  1.00  0.00     0.031 C 
ATOM     49  C   UNL A   1      41.565  25.911  28.266  1.00  0.00     0.029 A 
ATOM     50  C   UNL A   1      42.972  26.099  27.919  1.00  0.00     0.049 A 
ATOM     51  H   UNL A   1      44.087  27.852  28.065  1.00  0.00     0.167 HD
ATOM     52  C   UNL A   1      46.316  31.611  28.469  1.00  0.00     0.037 A 
ATOM     53  C   UNL A   1      43.799  25.147  27.443  1.00  0.00     0.037 A 
ATOM     54  C   UNL A   1      47.287  30.640  28.040  1.00  0.00     0.049 A 
ATOM     55  C   UNL A   1      45.241  25.491  27.174  1.00  0.00     0.074 A 
ATOM     56  C   UNL A   1      48.643  30.815  27.825  1.00  0.00     0.029 A 
ATOM     57  N   UNL A   1      47.005  29.313  27.752  1.00  0.00    -0.354 N 
ATOM     58  N   UNL A   1      45.861  26.634  27.345  1.00  0.00    -0.248 NA
ATOM     59  C   UNL A   1      46.097  24.414  26.658  1.00  0.00     0.031 C 
ATOM     60  C   UNL A   1      49.172  29.605  27.363  1.00  0.00     0.029 A 
ATOM     61  C   UNL A   1      48.155  28.663  27.336  1.00  0.00     0.049 A 
ATOM     62  H   UNL A   1      46.117  28.894  27.832  1.00  0.00     0.167 HD
ATOM     63  C   UNL A   1      47.184  26.409  26.975  1.00  0.00     0.074 A 
ATOM     64  C   UNL A   1      47.276  25.016  26.589  1.00  0.00     0.031 C 
ATOM     65  C   UNL A   1      48.228  27.275  26.954  1.00  0.00     0.037 A 
BRANCH  52  66
ATOM     66  C   UNL A   1      46.772  33.027  28.682  1.00  0.00     0.058 A 
ATOM     67  C   UNL A   1      46.769  33.970  27.641  1.00  0.00     0.135 A 
ATOM     68  C   UNL A   1      47.183  33.458  29.953  1.00  0.00     0.135 A 
ATOM     69  F   UNL A   1      46.405  33.605  26.401  1.00  0.00    -0.206 F 
ATOM     70  C   UNL A   1      47.173  35.284  27.849  1.00  0.00     0.059 A 
ATOM     71  C   UNL A   1      47.569  34.774  30.191  1.00  0.00     0.059 A 
ATOM     72  F   UNL A   1      47.210  32.596  30.983  1.00  0.00    -0.206 F 
ATOM     73  C   UNL A   1      47.570  35.677  29.128  1.00  0.00     0.060 A 
BRANCH  73  74
ATOM     74  S   UNL A   1      48.076  37.391  29.388  1.00  0.00     0.124 S 
ATOM     75  O   UNL A   1      46.875  38.115  28.981  1.00  0.00    -0.237 OA
ATOM     76  O   UNL A   1      48.376  37.415  30.816  1.00  0.00    -0.237 OA
ATOM     77  O   UNL A   1      49.229  37.542  28.507  1.00  0.00    -0.744 OA
ENDBRANCH  73  74
ENDBRANCH  52  66
BRANCH  53  78
ATOM     78  C   UNL A   1      43.283  23.776  27.182  1.00  0.00     0.058 A 
ATOM     79  C   UNL A   1      43.097  22.855  28.223  1.00  0.00     0.135 A 
ATOM     80  C   UNL A   1      42.973  23.361  25.877  1.00  0.00     0.135 A 
ATOM     81  F   UNL A   1      43.386  23.202  29.485  1.00  0.00    -0.206 F 
ATOM     82  C   UNL A   1      42.639  21.564  27.979  1.00  0.00     0.059 A 
ATOM     83  C   UNL A   1      42.491  22.083  25.611  1.00  0.00     0.059 A 
ATOM     84  F   UNL A   1      43.123  24.209  24.848  1.00  0.00    -0.206 F 
ATOM     85  C   UNL A   1      42.339  21.187  26.668  1.00  0.00     0.060 A 
BRANCH  85  86
ATOM     86  S   UNL A   1      41.705  19.524  26.364  1.00  0.00     0.124 S 
ATOM     87  O   UNL A   1      42.155  18.816  27.555  1.00  0.00    -0.237 OA
ATOM     88  O   UNL A   1      40.268  19.757  26.263  1.00  0.00    -0.237 OA
ATOM     89  O   UNL A   1      42.358  19.141  25.116  1.00  0.00    -0.744 OA
ENDBRANCH  85  86
ENDBRANCH  53  78
BRANCH  65  90
ATOM     90  C   UNL A   1      49.563  26.737  26.518  1.00  0.00     0.058 A 
ATOM     91  C   UNL A   1      50.013  26.874  25.195  1.00  0.00     0.135 A 
ATOM     92  C   UNL A   1      50.418  26.116  27.442  1.00  0.00     0.135 A 
ATOM     93  F   UNL A   1      49.232  27.457  24.273  1.00  0.00    -0.206 F 
ATOM     94  C   UNL A   1      51.253  26.386  24.798  1.00  0.00     0.059 A 
ATOM     95  C   UNL A   1      51.673  25.645  27.072  1.00  0.00     0.059 A 
ATOM     96  F   UNL A   1      50.040  25.971  28.722  1.00  0.00    -0.206 F 
ATOM     97  C   UNL A   1      52.076  25.771  25.743  1.00  0.00     0.060 A 
BRANCH  97  98
ATOM     98  S   UNL A   1      53.692  25.159  25.219  1.00  0.00     0.124 S 
ATOM     99  O   UNL A   1      54.569  25.745  26.226  1.00  0.00    -0.237 OA
ATOM    100  O   UNL A   1      53.519  23.711  25.294  1.00  0.00    -0.237 OA
ATOM    101  O   UNL A   1      53.837  25.697  23.869  1.00  0.00    -0.744 OA
ENDBRANCH  97  98
ENDBRANCH  65  90
ENDBRANCH  39  40
ENDBRANCH  32  34
ENDBRANCH  31  32
ENDBRANCH  30  31
ENDBRANCH   1  30
TORSDOF 22
ENDMDL
