MODEL 1
REMARK VINA RESULT:     -10.2      0.000      0.000
REMARK SMILES O=C(C[C@@H]1CN(C(=O)c2ccc(Br)s2)CCO1)OCCOCCOC(=O)c1ccc(-c2c3nc(c(-c4c(F)cc(S(=O)(=O)[O-])cc4F)c4ccc([nH]4)c(-c4c(F)cc(S(=O)(=O)[O-])cc4F)c4nc(c(-c5c(F)cc(S(=O)(=O)[O-])cc5F)c5ccc2[nH]5)C=C4)C=C3)cc1
REMARK SMILES IDX 21 1 20 2 19 3 18 4 2 5 1 6 3 7 4 8 5 9 17 10 6 11 16 12
REMARK SMILES IDX 15 13 7 14 8 15 9 16 10 17 14 18 11 19 12 20 13 21 22 22
REMARK SMILES IDX 23 23 24 24 25 25 26 26 27 27 28 28 92 29 29 30 91 31 30 32
REMARK SMILES IDX 31 33 32 34 85 35 33 36 90 37 84 38 86 39 34 40 89 41 83 42
REMARK SMILES IDX 82 43 35 45 69 46 48 47 68 48 49 49 52 50 67 51 87 52 50 53
REMARK SMILES IDX 51 54 66 56 88 57 53 58 36 59 37 60 46 61 38 62 39 63 45 64
REMARK SMILES IDX 47 65 40 66 41 67 42 68 43 69 44 70 70 71 71 72 80 73 72 74
REMARK SMILES IDX 73 75 79 76 81 77 74 78 75 79 76 80 77 81 78 82 54 83 55 84
REMARK SMILES IDX 64 85 56 86 57 87 63 88 65 89 58 90 59 91 60 92 61 93 62 94
REMARK H PARENT 86 44 52 55
REMARK Flexibility Score: inf
ROOT
ATOM      1  O   UNL A   1      41.993  22.736  26.144  1.00  0.00    -0.374 OA
ENDROOT
BRANCH   1   2
ATOM      2  C   UNL A   1      41.442  21.435  26.045  1.00  0.00     0.202 C 
BRANCH   2   3
ATOM      3  C   UNL A   1      40.002  21.199  26.513  1.00  0.00     0.261 C 
BRANCH   3   4
ATOM      4  O   UNL A   1      38.955  21.853  25.786  1.00  0.00    -0.463 OA
BRANCH   4   5
ATOM      5  C   UNL A   1      37.978  21.252  25.076  1.00  0.00     0.308 C 
ATOM      6  O   UNL A   1      38.016  20.037  24.899  1.00  0.00    -0.252 OA
BRANCH   5   7
ATOM      7  C   UNL A   1      36.891  22.072  24.431  1.00  0.00     0.156 C 
BRANCH   7   8
ATOM      8  C   UNL A   1      35.564  22.135  25.165  1.00  0.00     0.148 C 
ATOM      9  C   UNL A   1      34.412  22.691  24.303  1.00  0.00     0.152 C 
ATOM     10  O   UNL A   1      35.745  22.968  26.337  1.00  0.00    -0.374 OA
ATOM     11  N   UNL A   1      33.198  22.719  25.125  1.00  0.00    -0.333 N 
ATOM     12  C   UNL A   1      34.550  23.000  27.143  1.00  0.00     0.182 C 
ATOM     13  C   UNL A   1      33.354  23.520  26.336  1.00  0.00     0.148 C 
BRANCH  11  14
ATOM     14  C   UNL A   1      32.123  21.833  25.014  1.00  0.00     0.264 C 
ATOM     15  O   UNL A   1      31.034  22.097  25.524  1.00  0.00    -0.268 OA
BRANCH  14  16
ATOM     16  C   UNL A   1      32.367  20.560  24.366  1.00  0.00     0.093 A 
ATOM     17  C   UNL A   1      32.105  20.210  23.054  1.00  0.00     0.027 A 
ATOM     18  S   UNL A   1      33.147  19.291  25.216  1.00  0.00    -0.123 S 
ATOM     19  C   UNL A   1      32.432  18.845  22.789  1.00  0.00     0.028 A 
ATOM     20  C   UNL A   1      32.978  18.244  23.895  1.00  0.00     0.071 A 
ATOM     21  Br  UNL A   1      33.496  16.446  23.965  1.00  0.00    -0.039 Br
ENDBRANCH  14  16
ENDBRANCH  11  14
ENDBRANCH   7   8
ENDBRANCH   5   7
ENDBRANCH   4   5
ENDBRANCH   3   4
ENDBRANCH   2   3
ENDBRANCH   1   2
BRANCH   1  22
ATOM     22  C   UNL A   1      43.018  23.126  25.230  1.00  0.00     0.202 C 
BRANCH  22  23
ATOM     23  C   UNL A   1      43.345  24.613  25.096  1.00  0.00     0.261 C 
BRANCH  23  24
ATOM     24  O   UNL A   1      42.226  25.454  25.426  1.00  0.00    -0.460 OA
BRANCH  24  25
ATOM     25  C   UNL A   1      42.494  26.778  25.456  1.00  0.00     0.338 C 
ATOM     26  O   UNL A   1      42.646  27.524  24.493  1.00  0.00    -0.246 OA
BRANCH  25  27
ATOM     27  C   UNL A   1      42.405  27.279  26.833  1.00  0.00     0.060 A 
ATOM     28  C   UNL A   1      41.469  26.687  27.691  1.00  0.00     0.016 A 
ATOM     29  C   UNL A   1      43.160  28.379  27.247  1.00  0.00     0.016 A 
ATOM     30  C   UNL A   1      41.254  27.222  28.959  1.00  0.00     0.010 A 
ATOM     31  C   UNL A   1      42.935  28.920  28.515  1.00  0.00     0.010 A 
ATOM     32  C   UNL A   1      41.959  28.364  29.362  1.00  0.00    -0.014 A 
BRANCH  32  33
ATOM     33  C   UNL A   1      41.587  29.057  30.617  1.00  0.00     0.031 A 
ATOM     34  C   UNL A   1      40.401  29.978  30.619  1.00  0.00     0.074 A 
ATOM     35  C   UNL A   1      42.296  28.857  31.742  1.00  0.00     0.049 A 
ATOM     36  N   UNL A   1      39.951  30.741  31.578  1.00  0.00    -0.248 NA
ATOM     37  C   UNL A   1      39.618  30.049  29.373  1.00  0.00     0.031 C 
ATOM     38  C   UNL A   1      43.438  27.954  31.863  1.00  0.00     0.029 A 
ATOM     39  N   UNL A   1      42.170  29.411  32.991  1.00  0.00    -0.354 N 
ATOM     40  C   UNL A   1      38.838  31.387  31.057  1.00  0.00     0.074 A 
ATOM     41  C   UNL A   1      38.693  30.946  29.686  1.00  0.00     0.031 C 
ATOM     42  C   UNL A   1      43.921  28.028  33.115  1.00  0.00     0.029 A 
ATOM     43  C   UNL A   1      43.159  29.022  33.863  1.00  0.00     0.049 A 
ATOM     44  H   UNL A   1      41.443  30.027  33.238  1.00  0.00     0.167 HD
ATOM     45  C   UNL A   1      38.010  32.265  31.670  1.00  0.00     0.037 A 
ATOM     46  C   UNL A   1      43.445  29.451  35.108  1.00  0.00     0.037 A 
ATOM     47  C   UNL A   1      38.165  32.696  33.036  1.00  0.00     0.049 A 
ATOM     48  C   UNL A   1      42.561  30.494  35.739  1.00  0.00     0.074 A 
ATOM     49  C   UNL A   1      37.362  33.559  33.760  1.00  0.00     0.029 A 
ATOM     50  N   UNL A   1      39.195  32.306  33.879  1.00  0.00    -0.354 N 
ATOM     51  N   UNL A   1      41.496  31.077  35.243  1.00  0.00    -0.248 NA
ATOM     52  C   UNL A   1      42.913  30.933  37.096  1.00  0.00     0.031 C 
ATOM     53  C   UNL A   1      37.935  33.730  35.025  1.00  0.00     0.029 A 
ATOM     54  C   UNL A   1      39.065  32.933  35.107  1.00  0.00     0.049 A 
ATOM     55  H   UNL A   1      39.913  31.676  33.639  1.00  0.00     0.167 HD
ATOM     56  C   UNL A   1      41.034  31.932  36.238  1.00  0.00     0.074 A 
ATOM     57  C   UNL A   1      41.929  31.781  37.366  1.00  0.00     0.031 C 
ATOM     58  C   UNL A   1      39.963  32.765  36.221  1.00  0.00     0.037 A 
BRANCH  45  59
ATOM     59  C   UNL A   1      36.874  32.836  30.870  1.00  0.00     0.058 A 
ATOM     60  C   UNL A   1      37.074  33.866  29.938  1.00  0.00     0.135 A 
ATOM     61  C   UNL A   1      35.581  32.307  30.996  1.00  0.00     0.135 A 
ATOM     62  F   UNL A   1      38.287  34.425  29.795  1.00  0.00    -0.206 F 
ATOM     63  C   UNL A   1      36.029  34.356  29.162  1.00  0.00     0.059 A 
ATOM     64  C   UNL A   1      34.525  32.764  30.213  1.00  0.00     0.059 A 
ATOM     65  F   UNL A   1      35.335  31.327  31.879  1.00  0.00    -0.206 F 
ATOM     66  C   UNL A   1      34.758  33.794  29.303  1.00  0.00     0.060 A 
BRANCH  66  67
ATOM     67  S   UNL A   1      33.421  34.416  28.263  1.00  0.00     0.124 S 
ATOM     68  O   UNL A   1      34.142  35.321  27.372  1.00  0.00    -0.237 OA
ATOM     69  O   UNL A   1      32.911  33.196  27.648  1.00  0.00    -0.237 OA
ATOM     70  O   UNL A   1      32.519  35.060  29.213  1.00  0.00    -0.744 OA
ENDBRANCH  66  67
ENDBRANCH  45  59
BRANCH  46  71
ATOM     71  C   UNL A   1      44.643  28.932  35.821  1.00  0.00     0.058 A 
ATOM     72  C   UNL A   1      45.906  29.514  35.646  1.00  0.00     0.135 A 
ATOM     73  C   UNL A   1      44.547  27.826  36.683  1.00  0.00     0.135 A 
ATOM     74  F   UNL A   1      46.051  30.568  34.828  1.00  0.00    -0.206 F 
ATOM     75  C   UNL A   1      47.036  29.006  36.278  1.00  0.00     0.059 A 
ATOM     76  C   UNL A   1      45.658  27.318  37.348  1.00  0.00     0.059 A 
ATOM     77  F   UNL A   1      43.360  27.240  36.896  1.00  0.00    -0.206 F 
ATOM     78  C   UNL A   1      46.902  27.905  37.126  1.00  0.00     0.060 A 
BRANCH  78  79
ATOM     79  S   UNL A   1      48.374  27.263  37.953  1.00  0.00     0.124 S 
ATOM     80  O   UNL A   1      48.205  25.826  37.777  1.00  0.00    -0.237 OA
ATOM     81  O   UNL A   1      49.451  27.879  37.184  1.00  0.00    -0.237 OA
ATOM     82  O   UNL A   1      48.230  27.753  39.320  1.00  0.00    -0.744 OA
ENDBRANCH  78  79
ENDBRANCH  46  71
BRANCH  58  83
ATOM     83  C   UNL A   1      39.678  33.546  37.473  1.00  0.00     0.058 A 
ATOM     84  C   UNL A   1      38.740  33.107  38.420  1.00  0.00     0.135 A 
ATOM     85  C   UNL A   1      40.384  34.729  37.747  1.00  0.00     0.135 A 
ATOM     86  F   UNL A   1      38.033  31.987  38.202  1.00  0.00    -0.206 F 
ATOM     87  C   UNL A   1      38.494  33.827  39.584  1.00  0.00     0.059 A 
ATOM     88  C   UNL A   1      40.175  35.449  38.918  1.00  0.00     0.059 A 
ATOM     89  F   UNL A   1      41.300  35.186  36.878  1.00  0.00    -0.206 F 
ATOM     90  C   UNL A   1      39.217  34.996  39.825  1.00  0.00     0.060 A 
BRANCH  90  91
ATOM     91  S   UNL A   1      38.909  35.907  41.353  1.00  0.00     0.124 S 
ATOM     92  O   UNL A   1      38.860  37.283  40.870  1.00  0.00    -0.237 OA
ATOM     93  O   UNL A   1      37.637  35.346  41.799  1.00  0.00    -0.237 OA
ATOM     94  O   UNL A   1      40.060  35.573  42.185  1.00  0.00    -0.744 OA
ENDBRANCH  90  91
ENDBRANCH  58  83
ENDBRANCH  32  33
ENDBRANCH  25  27
ENDBRANCH  24  25
ENDBRANCH  23  24
ENDBRANCH  22  23
ENDBRANCH   1  22
TORSDOF 20
ENDMDL
MODEL 2
REMARK VINA RESULT:     -10.0      1.487      8.405
REMARK SMILES O=C(C[C@@H]1CN(C(=O)c2ccc(Br)s2)CCO1)OCCOCCOC(=O)c1ccc(-c2c3nc(c(-c4c(F)cc(S(=O)(=O)[O-])cc4F)c4ccc([nH]4)c(-c4c(F)cc(S(=O)(=O)[O-])cc4F)c4nc(c(-c5c(F)cc(S(=O)(=O)[O-])cc5F)c5ccc2[nH]5)C=C4)C=C3)cc1
REMARK SMILES IDX 21 1 20 2 19 3 18 4 2 5 1 6 3 7 4 8 5 9 17 10 6 11 16 12
REMARK SMILES IDX 15 13 7 14 8 15 9 16 10 17 14 18 11 19 12 20 13 21 22 22
REMARK SMILES IDX 23 23 24 24 25 25 26 26 27 27 28 28 92 29 29 30 91 31 30 32
REMARK SMILES IDX 31 33 32 34 85 35 33 36 90 37 84 38 86 39 34 40 89 41 83 42
REMARK SMILES IDX 82 43 35 45 69 46 48 47 68 48 49 49 52 50 67 51 87 52 50 53
REMARK SMILES IDX 51 54 66 56 88 57 53 58 36 59 37 60 46 61 38 62 39 63 45 64
REMARK SMILES IDX 47 65 40 66 41 67 42 68 43 69 44 70 70 71 71 72 80 73 72 74
REMARK SMILES IDX 73 75 79 76 81 77 74 78 75 79 76 80 77 81 78 82 54 83 55 84
REMARK SMILES IDX 64 85 56 86 57 87 63 88 65 89 58 90 59 91 60 92 61 93 62 94
REMARK H PARENT 86 44 52 55
REMARK Flexibility Score: inf
ROOT
ATOM      1  O   UNL A   1      44.114  21.415  25.999  1.00  0.00    -0.374 OA
ENDROOT
BRANCH   1   2
ATOM      2  C   UNL A   1      42.958  20.606  25.877  1.00  0.00     0.202 C 
BRANCH   2   3
ATOM      3  C   UNL A   1      42.268  20.099  27.148  1.00  0.00     0.261 C 
BRANCH   3   4
ATOM      4  O   UNL A   1      40.922  19.624  27.024  1.00  0.00    -0.463 OA
BRANCH   4   5
ATOM      5  C   UNL A   1      40.000  20.053  26.138  1.00  0.00     0.308 C 
ATOM      6  O   UNL A   1      39.479  19.250  25.367  1.00  0.00    -0.252 OA
BRANCH   5   7
ATOM      7  C   UNL A   1      39.671  21.519  26.032  1.00  0.00     0.156 C 
BRANCH   7   8
ATOM      8  C   UNL A   1      38.201  21.876  25.903  1.00  0.00     0.148 C 
ATOM      9  C   UNL A   1      37.560  21.375  24.592  1.00  0.00     0.152 C 
ATOM     10  O   UNL A   1      38.086  23.319  25.983  1.00  0.00    -0.374 OA
ATOM     11  N   UNL A   1      36.156  21.795  24.579  1.00  0.00    -0.333 N 
ATOM     12  C   UNL A   1      36.706  23.733  25.966  1.00  0.00     0.182 C 
ATOM     13  C   UNL A   1      35.998  23.243  24.696  1.00  0.00     0.148 C 
BRANCH  11  14
ATOM     14  C   UNL A   1      35.056  20.960  24.794  1.00  0.00     0.264 C 
ATOM     15  O   UNL A   1      35.194  19.737  24.840  1.00  0.00    -0.268 OA
BRANCH  14  16
ATOM     16  C   UNL A   1      33.748  21.578  24.860  1.00  0.00     0.093 A 
ATOM     17  C   UNL A   1      32.906  21.900  23.811  1.00  0.00     0.027 A 
ATOM     18  S   UNL A   1      33.026  21.918  26.378  1.00  0.00    -0.123 S 
ATOM     19  C   UNL A   1      31.716  22.550  24.260  1.00  0.00     0.028 A 
ATOM     20  C   UNL A   1      31.687  22.637  25.630  1.00  0.00     0.071 A 
ATOM     21  Br  UNL A   1      30.315  23.461  26.601  1.00  0.00    -0.039 Br
ENDBRANCH  14  16
ENDBRANCH  11  14
ENDBRANCH   7   8
ENDBRANCH   5   7
ENDBRANCH   4   5
ENDBRANCH   3   4
ENDBRANCH   2   3
ENDBRANCH   1   2
BRANCH   1  22
ATOM     22  C   UNL A   1      43.961  22.833  26.091  1.00  0.00     0.202 C 
BRANCH  22  23
ATOM     23  C   UNL A   1      42.774  23.483  25.380  1.00  0.00     0.261 C 
BRANCH  23  24
ATOM     24  O   UNL A   1      41.885  24.151  26.292  1.00  0.00    -0.460 OA
BRANCH  24  25
ATOM     25  C   UNL A   1      41.689  25.464  26.042  1.00  0.00     0.338 C 
ATOM     26  O   UNL A   1      41.368  25.973  24.972  1.00  0.00    -0.246 OA
BRANCH  25  27
ATOM     27  C   UNL A   1      41.735  26.228  27.295  1.00  0.00     0.060 A 
ATOM     28  C   UNL A   1      40.791  25.927  28.286  1.00  0.00     0.016 A 
ATOM     29  C   UNL A   1      42.628  27.290  27.456  1.00  0.00     0.016 A 
ATOM     30  C   UNL A   1      40.709  26.718  29.429  1.00  0.00     0.010 A 
ATOM     31  C   UNL A   1      42.536  28.088  28.599  1.00  0.00     0.010 A 
ATOM     32  C   UNL A   1      41.556  27.825  29.573  1.00  0.00    -0.014 A 
BRANCH  32  33
ATOM     33  C   UNL A   1      41.334  28.786  30.678  1.00  0.00     0.031 A 
ATOM     34  C   UNL A   1      42.171  28.677  31.920  1.00  0.00     0.074 A 
ATOM     35  C   UNL A   1      40.403  29.749  30.566  1.00  0.00     0.049 A 
ATOM     36  N   UNL A   1      42.091  29.359  33.031  1.00  0.00    -0.248 NA
ATOM     37  C   UNL A   1      43.241  27.664  31.909  1.00  0.00     0.031 C 
ATOM     38  C   UNL A   1      39.565  29.972  29.391  1.00  0.00     0.029 A 
ATOM     39  N   UNL A   1      39.995  30.709  31.458  1.00  0.00    -0.354 N 
ATOM     40  C   UNL A   1      43.092  28.859  33.854  1.00  0.00     0.074 A 
ATOM     41  C   UNL A   1      43.752  27.799  33.124  1.00  0.00     0.031 C 
ATOM     42  C   UNL A   1      38.729  30.994  29.639  1.00  0.00     0.029 A 
ATOM     43  C   UNL A   1      38.935  31.458  31.007  1.00  0.00     0.049 A 
ATOM     44  H   UNL A   1      40.421  30.848  32.334  1.00  0.00     0.167 HD
ATOM     45  C   UNL A   1      43.429  29.256  35.103  1.00  0.00     0.037 A 
ATOM     46  C   UNL A   1      38.185  32.382  31.640  1.00  0.00     0.037 A 
ATOM     47  C   UNL A   1      42.763  30.313  35.819  1.00  0.00     0.049 A 
ATOM     48  C   UNL A   1      38.525  32.745  33.061  1.00  0.00     0.074 A 
ATOM     49  C   UNL A   1      43.049  30.811  37.078  1.00  0.00     0.029 A 
ATOM     50  N   UNL A   1      41.673  31.028  35.344  1.00  0.00    -0.354 N 
ATOM     51  N   UNL A   1      39.491  32.282  33.819  1.00  0.00    -0.248 NA
ATOM     52  C   UNL A   1      37.678  33.754  33.712  1.00  0.00     0.031 C 
ATOM     53  C   UNL A   1      42.101  31.792  37.385  1.00  0.00     0.029 A 
ATOM     54  C   UNL A   1      41.256  31.943  36.297  1.00  0.00     0.049 A 
ATOM     55  H   UNL A   1      41.258  30.903  34.461  1.00  0.00     0.167 HD
ATOM     56  C   UNL A   1      39.386  32.965  35.026  1.00  0.00     0.074 A 
ATOM     57  C   UNL A   1      38.270  33.879  34.892  1.00  0.00     0.031 C 
ATOM     58  C   UNL A   1      40.146  32.849  36.143  1.00  0.00     0.037 A 
BRANCH  45  59
ATOM     59  C   UNL A   1      44.554  28.534  35.789  1.00  0.00     0.058 A 
ATOM     60  C   UNL A   1      45.884  28.968  35.682  1.00  0.00     0.135 A 
ATOM     61  C   UNL A   1      44.289  27.427  36.612  1.00  0.00     0.135 A 
ATOM     62  F   UNL A   1      46.195  30.007  34.889  1.00  0.00    -0.206 F 
ATOM     63  C   UNL A   1      46.914  28.327  36.361  1.00  0.00     0.059 A 
ATOM     64  C   UNL A   1      45.300  26.786  37.321  1.00  0.00     0.059 A 
ATOM     65  F   UNL A   1      43.035  26.967  36.742  1.00  0.00    -0.206 F 
ATOM     66  C   UNL A   1      46.612  27.239  37.184  1.00  0.00     0.060 A 
BRANCH  66  67
ATOM     67  S   UNL A   1      47.955  26.442  38.087  1.00  0.00     0.124 S 
ATOM     68  O   UNL A   1      48.833  27.575  38.363  1.00  0.00    -0.237 OA
ATOM     69  O   UNL A   1      47.264  25.881  39.242  1.00  0.00    -0.237 OA
ATOM     70  O   UNL A   1      48.474  25.465  37.135  1.00  0.00    -0.744 OA
ENDBRANCH  66  67
ENDBRANCH  45  59
BRANCH  46  71
ATOM     71  C   UNL A   1      37.015  32.994  30.954  1.00  0.00     0.058 A 
ATOM     72  C   UNL A   1      35.705  32.595  31.252  1.00  0.00     0.135 A 
ATOM     73  C   UNL A   1      37.190  33.982  29.971  1.00  0.00     0.135 A 
ATOM     74  F   UNL A   1      35.485  31.650  32.178  1.00  0.00    -0.206 F 
ATOM     75  C   UNL A   1      34.610  33.134  30.583  1.00  0.00     0.059 A 
ATOM     76  C   UNL A   1      36.110  34.556  29.309  1.00  0.00     0.059 A 
ATOM     77  F   UNL A   1      38.423  34.408  29.657  1.00  0.00    -0.206 F 
ATOM     78  C   UNL A   1      34.823  34.113  29.610  1.00  0.00     0.060 A 
BRANCH  78  79
ATOM     79  S   UNL A   1      33.394  34.816  28.760  1.00  0.00     0.124 S 
ATOM     80  O   UNL A   1      33.951  36.054  28.227  1.00  0.00    -0.237 OA
ATOM     81  O   UNL A   1      33.081  33.782  27.780  1.00  0.00    -0.237 OA
ATOM     82  O   UNL A   1      32.413  34.975  29.829  1.00  0.00    -0.744 OA
ENDBRANCH  78  79
ENDBRANCH  46  71
BRANCH  58  83
ATOM     83  C   UNL A   1      39.822  33.759  37.294  1.00  0.00     0.058 A 
ATOM     84  C   UNL A   1      38.854  33.422  38.252  1.00  0.00     0.135 A 
ATOM     85  C   UNL A   1      40.520  34.966  37.463  1.00  0.00     0.135 A 
ATOM     86  F   UNL A   1      38.152  32.284  38.133  1.00  0.00    -0.206 F 
ATOM     87  C   UNL A   1      38.571  34.262  39.324  1.00  0.00     0.059 A 
ATOM     88  C   UNL A   1      40.275  35.807  38.543  1.00  0.00     0.059 A 
ATOM     89  F   UNL A   1      41.464  35.330  36.580  1.00  0.00    -0.206 F 
ATOM     90  C   UNL A   1      39.288  35.452  39.462  1.00  0.00     0.060 A 
BRANCH  90  91
ATOM     91  S   UNL A   1      38.932  36.520  40.873  1.00  0.00     0.124 S 
ATOM     92  O   UNL A   1      38.019  35.687  41.649  1.00  0.00    -0.237 OA
ATOM     93  O   UNL A   1      40.255  36.723  41.453  1.00  0.00    -0.237 OA
ATOM     94  O   UNL A   1      38.335  37.703  40.260  1.00  0.00    -0.744 OA
ENDBRANCH  90  91
ENDBRANCH  58  83
ENDBRANCH  32  33
ENDBRANCH  25  27
ENDBRANCH  24  25
ENDBRANCH  23  24
ENDBRANCH  22  23
ENDBRANCH   1  22
TORSDOF 20
ENDMDL
MODEL 3
REMARK VINA RESULT:     -10.0      1.947      2.722
REMARK SMILES O=C(C[C@@H]1CN(C(=O)c2ccc(Br)s2)CCO1)OCCOCCOC(=O)c1ccc(-c2c3nc(c(-c4c(F)cc(S(=O)(=O)[O-])cc4F)c4ccc([nH]4)c(-c4c(F)cc(S(=O)(=O)[O-])cc4F)c4nc(c(-c5c(F)cc(S(=O)(=O)[O-])cc5F)c5ccc2[nH]5)C=C4)C=C3)cc1
REMARK SMILES IDX 21 1 20 2 19 3 18 4 2 5 1 6 3 7 4 8 5 9 17 10 6 11 16 12
REMARK SMILES IDX 15 13 7 14 8 15 9 16 10 17 14 18 11 19 12 20 13 21 22 22
REMARK SMILES IDX 23 23 24 24 25 25 26 26 27 27 28 28 92 29 29 30 91 31 30 32
REMARK SMILES IDX 31 33 32 34 85 35 33 36 90 37 84 38 86 39 34 40 89 41 83 42
REMARK SMILES IDX 82 43 35 45 69 46 48 47 68 48 49 49 52 50 67 51 87 52 50 53
REMARK SMILES IDX 51 54 66 56 88 57 53 58 36 59 37 60 46 61 38 62 39 63 45 64
REMARK SMILES IDX 47 65 40 66 41 67 42 68 43 69 44 70 70 71 71 72 80 73 72 74
REMARK SMILES IDX 73 75 79 76 81 77 74 78 75 79 76 80 77 81 78 82 54 83 55 84
REMARK SMILES IDX 64 85 56 86 57 87 63 88 65 89 58 90 59 91 60 92 61 93 62 94
REMARK H PARENT 86 44 52 55
REMARK Flexibility Score: inf
ROOT
ATOM      1  O   UNL A   1      42.336  20.917  25.562  1.00  0.00    -0.374 OA
ENDROOT
BRANCH   1   2
ATOM      2  C   UNL A   1      41.527  20.420  26.613  1.00  0.00     0.202 C 
BRANCH   2   3
ATOM      3  C   UNL A   1      40.697  21.405  27.442  1.00  0.00     0.261 C 
BRANCH   3   4
ATOM      4  O   UNL A   1      39.967  22.415  26.733  1.00  0.00    -0.463 OA
BRANCH   4   5
ATOM      5  C   UNL A   1      38.812  22.242  26.059  1.00  0.00     0.308 C 
ATOM      6  O   UNL A   1      38.648  21.227  25.386  1.00  0.00    -0.252 OA
BRANCH   5   7
ATOM      7  C   UNL A   1      37.762  23.322  26.059  1.00  0.00     0.156 C 
BRANCH   7   8
ATOM      8  C   UNL A   1      36.452  22.993  25.367  1.00  0.00     0.148 C 
ATOM      9  C   UNL A   1      35.498  24.199  25.251  1.00  0.00     0.152 C 
ATOM     10  O   UNL A   1      35.809  21.931  26.117  1.00  0.00    -0.374 OA
ATOM     11  N   UNL A   1      34.270  23.751  24.587  1.00  0.00    -0.333 N 
ATOM     12  C   UNL A   1      34.600  21.493  25.467  1.00  0.00     0.182 C 
ATOM     13  C   UNL A   1      33.613  22.655  25.294  1.00  0.00     0.148 C 
BRANCH  11  14
ATOM     14  C   UNL A   1      33.910  24.037  23.267  1.00  0.00     0.264 C 
ATOM     15  O   UNL A   1      34.323  23.344  22.337  1.00  0.00    -0.268 OA
BRANCH  14  16
ATOM     16  C   UNL A   1      33.120  25.228  23.031  1.00  0.00     0.093 A 
ATOM     17  C   UNL A   1      33.530  26.421  22.464  1.00  0.00     0.027 A 
ATOM     18  S   UNL A   1      31.443  25.240  23.387  1.00  0.00    -0.123 S 
ATOM     19  C   UNL A   1      32.482  27.392  22.444  1.00  0.00     0.028 A 
ATOM     20  C   UNL A   1      31.315  26.870  22.944  1.00  0.00     0.071 A 
ATOM     21  Br  UNL A   1      29.725  27.841  23.128  1.00  0.00    -0.039 Br
ENDBRANCH  14  16
ENDBRANCH  11  14
ENDBRANCH   7   8
ENDBRANCH   5   7
ENDBRANCH   4   5
ENDBRANCH   3   4
ENDBRANCH   2   3
ENDBRANCH   1   2
BRANCH   1  22
ATOM     22  C   UNL A   1      43.329  21.900  25.857  1.00  0.00     0.202 C 
BRANCH  22  23
ATOM     23  C   UNL A   1      43.166  23.299  25.263  1.00  0.00     0.261 C 
BRANCH  23  24
ATOM     24  O   UNL A   1      42.630  24.240  26.209  1.00  0.00    -0.460 OA
BRANCH  24  25
ATOM     25  C   UNL A   1      43.174  25.476  26.158  1.00  0.00     0.338 C 
ATOM     26  O   UNL A   1      43.927  25.917  25.294  1.00  0.00    -0.246 OA
BRANCH  25  27
ATOM     27  C   UNL A   1      42.596  26.325  27.206  1.00  0.00     0.060 A 
ATOM     28  C   UNL A   1      43.099  27.624  27.355  1.00  0.00     0.016 A 
ATOM     29  C   UNL A   1      41.642  25.821  28.094  1.00  0.00     0.016 A 
ATOM     30  C   UNL A   1      42.678  28.413  28.423  1.00  0.00     0.010 A 
ATOM     31  C   UNL A   1      41.231  26.610  29.170  1.00  0.00     0.010 A 
ATOM     32  C   UNL A   1      41.771  27.896  29.357  1.00  0.00    -0.014 A 
BRANCH  32  33
ATOM     33  C   UNL A   1      41.482  28.646  30.601  1.00  0.00     0.031 A 
ATOM     34  C   UNL A   1      40.347  29.628  30.615  1.00  0.00     0.074 A 
ATOM     35  C   UNL A   1      42.221  28.442  31.706  1.00  0.00     0.049 A 
ATOM     36  N   UNL A   1      39.973  30.443  31.565  1.00  0.00    -0.248 NA
ATOM     37  C   UNL A   1      39.524  29.704  29.396  1.00  0.00     0.031 C 
ATOM     38  C   UNL A   1      43.318  27.484  31.816  1.00  0.00     0.029 A 
ATOM     39  N   UNL A   1      42.171  29.040  32.940  1.00  0.00    -0.354 N 
ATOM     40  C   UNL A   1      38.877  31.131  31.062  1.00  0.00     0.074 A 
ATOM     41  C   UNL A   1      38.659  30.657  29.713  1.00  0.00     0.031 C 
ATOM     42  C   UNL A   1      43.850  27.569  33.046  1.00  0.00     0.029 A 
ATOM     43  C   UNL A   1      43.169  28.625  33.789  1.00  0.00     0.049 A 
ATOM     44  H   UNL A   1      41.487  29.701  33.193  1.00  0.00     0.167 HD
ATOM     45  C   UNL A   1      38.119  32.070  31.676  1.00  0.00     0.037 A 
ATOM     46  C   UNL A   1      43.524  29.076  35.008  1.00  0.00     0.037 A 
ATOM     47  C   UNL A   1      38.347  32.534  33.021  1.00  0.00     0.049 A 
ATOM     48  C   UNL A   1      42.719  30.183  35.636  1.00  0.00     0.074 A 
ATOM     49  C   UNL A   1      37.617  33.460  33.745  1.00  0.00     0.029 A 
ATOM     50  N   UNL A   1      39.386  32.115  33.839  1.00  0.00    -0.354 N 
ATOM     51  N   UNL A   1      41.668  30.807  35.160  1.00  0.00    -0.248 NA
ATOM     52  C   UNL A   1      43.143  30.643  36.965  1.00  0.00     0.031 C 
ATOM     53  C   UNL A   1      38.245  33.638  34.982  1.00  0.00     0.029 A 
ATOM     54  C   UNL A   1      39.334  32.785  35.051  1.00  0.00     0.049 A 
ATOM     55  H   UNL A   1      40.060  31.441  33.595  1.00  0.00     0.167 HD
ATOM     56  C   UNL A   1      41.289  31.715  36.143  1.00  0.00     0.074 A 
ATOM     57  C   UNL A   1      42.216  31.550  37.243  1.00  0.00     0.031 C 
ATOM     58  C   UNL A   1      40.263  32.603  36.137  1.00  0.00     0.037 A 
BRANCH  45  59
ATOM     59  C   UNL A   1      36.986  32.677  30.899  1.00  0.00     0.058 A 
ATOM     60  C   UNL A   1      35.665  32.228  31.048  1.00  0.00     0.135 A 
ATOM     61  C   UNL A   1      37.218  33.761  30.037  1.00  0.00     0.135 A 
ATOM     62  F   UNL A   1      35.392  31.180  31.842  1.00  0.00    -0.206 F 
ATOM     63  C   UNL A   1      34.613  32.829  30.365  1.00  0.00     0.059 A 
ATOM     64  C   UNL A   1      36.178  34.393  29.363  1.00  0.00     0.059 A 
ATOM     65  F   UNL A   1      38.465  34.223  29.852  1.00  0.00    -0.206 F 
ATOM     66  C   UNL A   1      34.879  33.915  29.528  1.00  0.00     0.060 A 
BRANCH  66  67
ATOM     67  S   UNL A   1      33.497  34.706  28.678  1.00  0.00     0.124 S 
ATOM     68  O   UNL A   1      33.101  33.665  27.734  1.00  0.00    -0.237 OA
ATOM     69  O   UNL A   1      32.563  34.959  29.770  1.00  0.00    -0.237 OA
ATOM     70  O   UNL A   1      34.098  35.895  28.083  1.00  0.00    -0.744 OA
ENDBRANCH  66  67
ENDBRANCH  45  59
BRANCH  46  71
ATOM     71  C   UNL A   1      44.718  28.515  35.695  1.00  0.00     0.058 A 
ATOM     72  C   UNL A   1      46.002  29.026  35.459  1.00  0.00     0.135 A 
ATOM     73  C   UNL A   1      44.597  27.440  36.592  1.00  0.00     0.135 A 
ATOM     74  F   UNL A   1      46.171  30.048  34.607  1.00  0.00    -0.206 F 
ATOM     75  C   UNL A   1      47.127  28.478  36.067  1.00  0.00     0.059 A 
ATOM     76  C   UNL A   1      45.704  26.893  37.233  1.00  0.00     0.059 A 
ATOM     77  F   UNL A   1      43.390  26.922  36.862  1.00  0.00    -0.206 F 
ATOM     78  C   UNL A   1      46.968  27.409  36.951  1.00  0.00     0.060 A 
BRANCH  78  79
ATOM     79  S   UNL A   1      48.433  26.715  37.746  1.00  0.00     0.124 S 
ATOM     80  O   UNL A   1      49.067  26.018  36.633  1.00  0.00    -0.237 OA
ATOM     81  O   UNL A   1      49.118  27.911  38.224  1.00  0.00    -0.237 OA
ATOM     82  O   UNL A   1      47.876  25.860  38.789  1.00  0.00    -0.744 OA
ENDBRANCH  78  79
ENDBRANCH  46  71
BRANCH  58  83
ATOM     83  C   UNL A   1      40.066  33.435  37.372  1.00  0.00     0.058 A 
ATOM     84  C   UNL A   1      40.779  34.626  37.582  1.00  0.00     0.135 A 
ATOM     85  C   UNL A   1      39.120  33.057  38.339  1.00  0.00     0.135 A 
ATOM     86  F   UNL A   1      41.701  35.027  36.692  1.00  0.00    -0.206 F 
ATOM     87  C   UNL A   1      40.579  35.400  38.720  1.00  0.00     0.059 A 
ATOM     88  C   UNL A   1      38.883  33.831  39.470  1.00  0.00     0.059 A 
ATOM     89  F   UNL A   1      38.404  31.933  38.181  1.00  0.00    -0.206 F 
ATOM     90  C   UNL A   1      39.628  34.995  39.658  1.00  0.00     0.060 A 
BRANCH  90  91
ATOM     91  S   UNL A   1      39.357  36.022  41.117  1.00  0.00     0.124 S 
ATOM     92  O   UNL A   1      39.701  37.347  40.612  1.00  0.00    -0.237 OA
ATOM     93  O   UNL A   1      37.943  35.799  41.399  1.00  0.00    -0.237 OA
ATOM     94  O   UNL A   1      40.281  35.466  42.100  1.00  0.00    -0.744 OA
ENDBRANCH  90  91
ENDBRANCH  58  83
ENDBRANCH  32  33
ENDBRANCH  25  27
ENDBRANCH  24  25
ENDBRANCH  23  24
ENDBRANCH  22  23
ENDBRANCH   1  22
TORSDOF 20
ENDMDL
