MODEL 1
REMARK VINA RESULT:     -11.1      0.000      0.000
REMARK SMILES O=C(OCCOCCOC(=O)[C@H]1[C@@H](C(=O)Nc2ccccc2-c2ccccc2)[C@@H]2C=C[C@H]1O2)c1ccc(-c2c3nc(c(-c4c(F)cc(S(=O)(=O)[O-])cc4F)c4ccc([nH]4)c(-c4c(F)cc(S(=O)(=O)[O-])cc4F)c4nc(c(-c5c(F)cc(S(=O)(=O)[O-])cc5F)c5ccc2[nH]5)C=C4)C=C3)cc1
REMARK SMILES IDX 6 1 5 2 4 3 3 4 2 5 1 6 34 7 35 8 99 9 36 10 98 11 37 12
REMARK SMILES IDX 38 13 39 14 92 15 40 16 97 17 91 18 93 19 41 20 96 21 90 22
REMARK SMILES IDX 89 23 42 25 76 26 55 27 75 28 56 29 59 30 74 31 94 32 57 33
REMARK SMILES IDX 58 34 73 36 95 37 60 38 43 39 44 40 53 41 45 42 46 43 52 44
REMARK SMILES IDX 54 45 47 46 48 47 49 48 50 49 51 50 77 51 78 52 87 53 79 54
REMARK SMILES IDX 80 55 86 56 88 57 81 58 82 59 83 60 84 61 85 62 61 63 62 64
REMARK SMILES IDX 71 65 63 66 64 67 70 68 72 69 65 70 66 71 67 72 68 73 69 74
REMARK SMILES IDX 7 75 8 76 9 77 10 78 11 79 12 80 13 81 32 82 29 83 31 84
REMARK SMILES IDX 33 85 30 86 14 87 15 88 16 89 17 91 18 92 22 93 19 94 21 95
REMARK SMILES IDX 20 96 23 97 24 98 28 99 25 100 27 101 26 102
REMARK H PARENT 93 24 59 35 16 90
REMARK Flexibility Score: inf
ROOT
ATOM      1  O   UNL A   1      34.576  21.455  26.653  1.00  0.00    -0.374 OA
ENDROOT
BRANCH   1   2
ATOM      2  C   UNL A   1      35.644  21.654  25.720  1.00  0.00     0.202 C 
BRANCH   2   3
ATOM      3  C   UNL A   1      36.359  23.012  25.702  1.00  0.00     0.261 C 
BRANCH   3   4
ATOM      4  O   UNL A   1      37.727  22.893  25.281  1.00  0.00    -0.460 OA
BRANCH   4   5
ATOM      5  C   UNL A   1      38.833  23.032  26.046  1.00  0.00     0.338 C 
ATOM      6  O   UNL A   1      39.593  22.073  26.169  1.00  0.00    -0.246 OA
BRANCH   5   7
ATOM      7  C   UNL A   1      39.132  24.275  26.823  1.00  0.00     0.060 A 
ATOM      8  C   UNL A   1      38.852  24.438  28.181  1.00  0.00     0.016 A 
ATOM      9  C   UNL A   1      39.860  25.287  26.181  1.00  0.00     0.016 A 
ATOM     10  C   UNL A   1      39.288  25.527  28.900  1.00  0.00     0.010 A 
ATOM     11  C   UNL A   1      40.314  26.399  26.896  1.00  0.00     0.010 A 
ATOM     12  C   UNL A   1      40.039  26.500  28.262  1.00  0.00    -0.014 A 
BRANCH  12  13
ATOM     13  C   UNL A   1      40.447  27.636  29.089  1.00  0.00     0.031 A 
ATOM     14  C   UNL A   1      41.810  27.603  29.691  1.00  0.00     0.074 A 
ATOM     15  C   UNL A   1      39.658  28.725  29.117  1.00  0.00     0.049 A 
ATOM     16  N   UNL A   1      42.376  28.471  30.478  1.00  0.00    -0.248 NA
ATOM     17  C   UNL A   1      42.661  26.450  29.343  1.00  0.00     0.031 C 
ATOM     18  C   UNL A   1      38.386  28.864  28.396  1.00  0.00     0.029 A 
ATOM     19  N   UNL A   1      39.816  29.928  29.743  1.00  0.00    -0.354 N 
ATOM     20  C   UNL A   1      43.632  27.953  30.755  1.00  0.00     0.074 A 
ATOM     21  C   UNL A   1      43.762  26.709  30.034  1.00  0.00     0.031 C 
ATOM     22  C   UNL A   1      37.880  30.085  28.630  1.00  0.00     0.029 A 
ATOM     23  C   UNL A   1      38.751  30.780  29.568  1.00  0.00     0.049 A 
ATOM     24  H   UNL A   1      40.615  30.162  30.268  1.00  0.00     0.167 HD
ATOM     25  C   UNL A   1      44.571  28.478  31.569  1.00  0.00     0.037 A 
ATOM     26  C   UNL A   1      38.498  31.962  30.159  1.00  0.00     0.037 A 
ATOM     27  C   UNL A   1      44.389  29.724  32.261  1.00  0.00     0.049 A 
ATOM     28  C   UNL A   1      39.519  32.469  31.142  1.00  0.00     0.074 A 
ATOM     29  C   UNL A   1      45.237  30.348  33.153  1.00  0.00     0.029 A 
ATOM     30  N   UNL A   1      43.265  30.533  32.132  1.00  0.00    -0.354 N 
ATOM     31  N   UNL A   1      40.685  31.951  31.456  1.00  0.00    -0.248 NA
ATOM     32  C   UNL A   1      39.189  33.698  31.871  1.00  0.00     0.031 C 
ATOM     33  C   UNL A   1      44.601  31.510  33.605  1.00  0.00     0.029 A 
ATOM     34  C   UNL A   1      43.381  31.635  32.955  1.00  0.00     0.049 A 
ATOM     35  H   UNL A   1      42.499  30.346  31.542  1.00  0.00     0.167 HD
ATOM     36  C   UNL A   1      41.230  32.790  32.417  1.00  0.00     0.074 A 
ATOM     37  C   UNL A   1      40.278  33.869  32.608  1.00  0.00     0.031 C 
ATOM     38  C   UNL A   1      42.400  32.682  33.096  1.00  0.00     0.037 A 
BRANCH  25  39
ATOM     39  C   UNL A   1      45.808  27.670  31.817  1.00  0.00     0.058 A 
ATOM     40  C   UNL A   1      46.958  27.794  31.025  1.00  0.00     0.135 A 
ATOM     41  C   UNL A   1      45.840  26.760  32.887  1.00  0.00     0.135 A 
ATOM     42  F   UNL A   1      46.965  28.618  29.965  1.00  0.00    -0.206 F 
ATOM     43  C   UNL A   1      48.103  27.045  31.288  1.00  0.00     0.059 A 
ATOM     44  C   UNL A   1      46.978  26.016  33.179  1.00  0.00     0.059 A 
ATOM     45  F   UNL A   1      44.755  26.584  33.657  1.00  0.00    -0.206 F 
ATOM     46  C   UNL A   1      48.104  26.164  32.371  1.00  0.00     0.060 A 
BRANCH  46  47
ATOM     47  S   UNL A   1      49.608  25.230  32.724  1.00  0.00     0.124 S 
ATOM     48  O   UNL A   1      50.469  26.265  33.290  1.00  0.00    -0.237 OA
ATOM     49  O   UNL A   1      49.133  24.218  33.661  1.00  0.00    -0.237 OA
ATOM     50  O   UNL A   1      50.013  24.728  31.415  1.00  0.00    -0.744 OA
ENDBRANCH  46  47
ENDBRANCH  25  39
BRANCH  26  51
ATOM     51  C   UNL A   1      37.208  32.672  29.932  1.00  0.00     0.058 A 
ATOM     52  C   UNL A   1      37.109  33.756  29.048  1.00  0.00     0.135 A 
ATOM     53  C   UNL A   1      36.048  32.302  30.635  1.00  0.00     0.135 A 
ATOM     54  F   UNL A   1      38.185  34.155  28.353  1.00  0.00    -0.206 F 
ATOM     55  C   UNL A   1      35.922  34.470  28.897  1.00  0.00     0.059 A 
ATOM     56  C   UNL A   1      34.843  32.979  30.477  1.00  0.00     0.059 A 
ATOM     57  F   UNL A   1      36.076  31.265  31.487  1.00  0.00    -0.206 F 
ATOM     58  C   UNL A   1      34.796  34.077  29.623  1.00  0.00     0.060 A 
BRANCH  58  59
ATOM     59  S   UNL A   1      33.264  35.019  29.442  1.00  0.00     0.124 S 
ATOM     60  O   UNL A   1      32.772  35.041  30.814  1.00  0.00    -0.237 OA
ATOM     61  O   UNL A   1      33.745  36.292  28.915  1.00  0.00    -0.237 OA
ATOM     62  O   UNL A   1      32.487  34.215  28.504  1.00  0.00    -0.744 OA
ENDBRANCH  58  59
ENDBRANCH  26  51
BRANCH  38  63
ATOM     63  C   UNL A   1      42.704  33.765  34.087  1.00  0.00     0.058 A 
ATOM     64  C   UNL A   1      42.425  33.602  35.451  1.00  0.00     0.135 A 
ATOM     65  C   UNL A   1      43.348  34.941  33.674  1.00  0.00     0.135 A 
ATOM     66  F   UNL A   1      41.803  32.496  35.887  1.00  0.00    -0.206 F 
ATOM     67  C   UNL A   1      42.763  34.580  36.377  1.00  0.00     0.059 A 
ATOM     68  C   UNL A   1      43.721  35.919  34.586  1.00  0.00     0.059 A 
ATOM     69  F   UNL A   1      43.644  35.132  32.379  1.00  0.00    -0.206 F 
ATOM     70  C   UNL A   1      43.417  35.733  35.934  1.00  0.00     0.060 A 
BRANCH  70  71
ATOM     71  S   UNL A   1      43.899  36.971  37.153  1.00  0.00     0.124 S 
ATOM     72  O   UNL A   1      42.613  37.312  37.749  1.00  0.00    -0.237 OA
ATOM     73  O   UNL A   1      44.817  36.225  38.009  1.00  0.00    -0.237 OA
ATOM     74  O   UNL A   1      44.517  38.019  36.346  1.00  0.00    -0.744 OA
ENDBRANCH  70  71
ENDBRANCH  38  63
ENDBRANCH  12  13
ENDBRANCH   5   7
ENDBRANCH   4   5
ENDBRANCH   3   4
ENDBRANCH   2   3
ENDBRANCH   1   2
BRANCH   1  75
ATOM     75  C   UNL A   1      34.248  22.535  27.537  1.00  0.00     0.202 C 
BRANCH  75  76
ATOM     76  C   UNL A   1      32.728  22.725  27.580  1.00  0.00     0.261 C 
BRANCH  76  77
ATOM     77  O   UNL A   1      32.222  22.417  26.278  1.00  0.00    -0.463 OA
BRANCH  77  78
ATOM     78  C   UNL A   1      31.327  23.318  25.820  1.00  0.00     0.312 C 
ATOM     79  O   UNL A   1      30.614  24.003  26.531  1.00  0.00    -0.252 OA
BRANCH  78  80
ATOM     80  C   UNL A   1      31.368  23.474  24.321  1.00  0.00     0.147 C 
ATOM     81  C   UNL A   1      31.228  24.865  23.612  1.00  0.00     0.129 C 
ATOM     82  C   UNL A   1      32.783  23.060  23.915  1.00  0.00     0.157 C 
ATOM     83  C   UNL A   1      32.669  25.097  23.164  1.00  0.00     0.155 C 
ATOM     84  C   UNL A   1      32.909  22.958  22.419  1.00  0.00     0.004 C 
ATOM     85  O   UNL A   1      33.443  24.333  24.123  1.00  0.00    -0.365 OA
ATOM     86  C   UNL A   1      32.885  24.216  21.957  1.00  0.00     0.004 C 
BRANCH  81  87
ATOM     87  C   UNL A   1      30.358  25.985  24.184  1.00  0.00     0.231 C 
ATOM     88  O   UNL A   1      29.187  26.082  23.782  1.00  0.00    -0.274 OA
ATOM     89  N   UNL A   1      30.662  26.749  25.255  1.00  0.00    -0.325 N 
ATOM     90  H   UNL A   1      30.056  26.608  26.017  1.00  0.00     0.169 HD
BRANCH  89  91
ATOM     91  C   UNL A   1      31.659  27.702  25.507  1.00  0.00     0.049 A 
ATOM     92  C   UNL A   1      32.531  27.335  26.550  1.00  0.00     0.027 A 
ATOM     93  C   UNL A   1      31.724  28.997  24.947  1.00  0.00     0.005 A 
ATOM     94  C   UNL A   1      33.523  28.199  26.999  1.00  0.00     0.002 A 
ATOM     95  C   UNL A   1      32.752  29.846  25.414  1.00  0.00     0.011 A 
ATOM     96  C   UNL A   1      33.641  29.452  26.420  1.00  0.00     0.001 A 
BRANCH  93  97
ATOM     97  C   UNL A   1      30.729  29.546  24.002  1.00  0.00    -0.016 A 
ATOM     98  C   UNL A   1      29.838  30.557  24.402  1.00  0.00     0.009 A 
ATOM     99  C   UNL A   1      30.665  29.116  22.666  1.00  0.00     0.009 A 
ATOM    100  C   UNL A   1      29.018  31.206  23.475  1.00  0.00     0.001 A 
ATOM    101  C   UNL A   1      29.850  29.764  21.735  1.00  0.00     0.001 A 
ATOM    102  C   UNL A   1      29.042  30.824  22.136  1.00  0.00     0.000 A 
ENDBRANCH  93  97
ENDBRANCH  89  91
ENDBRANCH  81  87
ENDBRANCH  78  80
ENDBRANCH  77  78
ENDBRANCH  76  77
ENDBRANCH  75  76
ENDBRANCH   1  75
TORSDOF 20
ENDMDL
MODEL 2
REMARK VINA RESULT:     -10.8      2.161      2.773
REMARK SMILES O=C(OCCOCCOC(=O)[C@H]1[C@@H](C(=O)Nc2ccccc2-c2ccccc2)[C@@H]2C=C[C@H]1O2)c1ccc(-c2c3nc(c(-c4c(F)cc(S(=O)(=O)[O-])cc4F)c4ccc([nH]4)c(-c4c(F)cc(S(=O)(=O)[O-])cc4F)c4nc(c(-c5c(F)cc(S(=O)(=O)[O-])cc5F)c5ccc2[nH]5)C=C4)C=C3)cc1
REMARK SMILES IDX 6 1 5 2 4 3 3 4 2 5 1 6 34 7 35 8 99 9 36 10 98 11 37 12
REMARK SMILES IDX 38 13 39 14 92 15 40 16 97 17 91 18 93 19 41 20 96 21 90 22
REMARK SMILES IDX 89 23 42 25 76 26 55 27 75 28 56 29 59 30 74 31 94 32 57 33
REMARK SMILES IDX 58 34 73 36 95 37 60 38 43 39 44 40 53 41 45 42 46 43 52 44
REMARK SMILES IDX 54 45 47 46 48 47 49 48 50 49 51 50 77 51 78 52 87 53 79 54
REMARK SMILES IDX 80 55 86 56 88 57 81 58 82 59 83 60 84 61 85 62 61 63 62 64
REMARK SMILES IDX 71 65 63 66 64 67 70 68 72 69 65 70 66 71 67 72 68 73 69 74
REMARK SMILES IDX 7 75 8 76 9 77 10 78 11 79 12 80 13 81 32 82 29 83 31 84
REMARK SMILES IDX 33 85 30 86 14 87 15 88 16 89 17 91 18 92 22 93 19 94 21 95
REMARK SMILES IDX 20 96 23 97 24 98 28 99 25 100 27 101 26 102
REMARK H PARENT 93 24 59 35 16 90
REMARK Flexibility Score: inf
ROOT
ATOM      1  O   UNL A   1      34.009  21.251  26.487  1.00  0.00    -0.374 OA
ENDROOT
BRANCH   1   2
ATOM      2  C   UNL A   1      35.237  21.460  25.781  1.00  0.00     0.202 C 
BRANCH   2   3
ATOM      3  C   UNL A   1      35.996  22.775  26.003  1.00  0.00     0.261 C 
BRANCH   3   4
ATOM      4  O   UNL A   1      37.327  22.724  25.465  1.00  0.00    -0.460 OA
BRANCH   4   5
ATOM      5  C   UNL A   1      38.490  22.801  26.153  1.00  0.00     0.338 C 
ATOM      6  O   UNL A   1      39.096  21.762  26.408  1.00  0.00    -0.246 OA
BRANCH   5   7
ATOM      7  C   UNL A   1      39.030  24.087  26.693  1.00  0.00     0.060 A 
ATOM      8  C   UNL A   1      39.016  24.438  28.044  1.00  0.00     0.016 A 
ATOM      9  C   UNL A   1      39.712  24.932  25.806  1.00  0.00     0.016 A 
ATOM     10  C   UNL A   1      39.667  25.550  28.525  1.00  0.00     0.010 A 
ATOM     11  C   UNL A   1      40.382  26.065  26.277  1.00  0.00     0.010 A 
ATOM     12  C   UNL A   1      40.370  26.355  27.644  1.00  0.00    -0.014 A 
BRANCH  12  13
ATOM     13  C   UNL A   1      41.017  27.529  28.230  1.00  0.00     0.031 A 
ATOM     14  C   UNL A   1      42.503  27.611  28.161  1.00  0.00     0.074 A 
ATOM     15  C   UNL A   1      40.243  28.554  28.632  1.00  0.00     0.049 A 
ATOM     16  N   UNL A   1      43.293  28.529  28.633  1.00  0.00    -0.248 NA
ATOM     17  C   UNL A   1      43.194  26.523  27.443  1.00  0.00     0.031 C 
ATOM     18  C   UNL A   1      38.777  28.584  28.556  1.00  0.00     0.029 A 
ATOM     19  N   UNL A   1      40.573  29.773  29.150  1.00  0.00    -0.354 N 
ATOM     20  C   UNL A   1      44.576  28.114  28.310  1.00  0.00     0.074 A 
ATOM     21  C   UNL A   1      44.465  26.875  27.577  1.00  0.00     0.031 C 
ATOM     22  C   UNL A   1      38.338  29.765  29.019  1.00  0.00     0.029 A 
ATOM     23  C   UNL A   1      39.481  30.537  29.488  1.00  0.00     0.049 A 
ATOM     24  H   UNL A   1      41.502  30.076  29.270  1.00  0.00     0.167 HD
ATOM     25  C   UNL A   1      45.737  28.721  28.633  1.00  0.00     0.037 A 
ATOM     26  C   UNL A   1      39.429  31.703  30.157  1.00  0.00     0.037 A 
ATOM     27  C   UNL A   1      45.789  29.958  29.362  1.00  0.00     0.049 A 
ATOM     28  C   UNL A   1      40.740  32.301  30.594  1.00  0.00     0.074 A 
ATOM     29  C   UNL A   1      46.897  30.657  29.798  1.00  0.00     0.029 A 
ATOM     30  N   UNL A   1      44.669  30.675  29.767  1.00  0.00    -0.354 N 
ATOM     31  N   UNL A   1      41.959  31.879  30.344  1.00  0.00    -0.248 NA
ATOM     32  C   UNL A   1      40.678  33.510  31.422  1.00  0.00     0.031 C 
ATOM     33  C   UNL A   1      46.443  31.771  30.513  1.00  0.00     0.029 A 
ATOM     34  C   UNL A   1      45.056  31.793  30.478  1.00  0.00     0.049 A 
ATOM     35  H   UNL A   1      43.737  30.422  29.575  1.00  0.00     0.167 HD
ATOM     36  C   UNL A   1      42.810  32.771  30.981  1.00  0.00     0.074 A 
ATOM     37  C   UNL A   1      41.965  33.774  31.601  1.00  0.00     0.031 C 
ATOM     38  C   UNL A   1      44.164  32.763  31.066  1.00  0.00     0.037 A 
BRANCH  25  39
ATOM     39  C   UNL A   1      47.012  28.016  28.285  1.00  0.00     0.058 A 
ATOM     40  C   UNL A   1      47.641  27.122  29.163  1.00  0.00     0.135 A 
ATOM     41  C   UNL A   1      47.608  28.238  27.033  1.00  0.00     0.135 A 
ATOM     42  F   UNL A   1      47.135  26.908  30.388  1.00  0.00    -0.206 F 
ATOM     43  C   UNL A   1      48.816  26.464  28.808  1.00  0.00     0.059 A 
ATOM     44  C   UNL A   1      48.772  27.578  26.650  1.00  0.00     0.059 A 
ATOM     45  F   UNL A   1      47.062  29.106  26.168  1.00  0.00    -0.206 F 
ATOM     46  C   UNL A   1      49.369  26.694  27.547  1.00  0.00     0.060 A 
BRANCH  46  47
ATOM     47  S   UNL A   1      50.871  25.805  27.086  1.00  0.00     0.124 S 
ATOM     48  O   UNL A   1      50.518  24.433  27.440  1.00  0.00    -0.237 OA
ATOM     49  O   UNL A   1      50.972  26.085  25.657  1.00  0.00    -0.237 OA
ATOM     50  O   UNL A   1      51.901  26.420  27.917  1.00  0.00    -0.744 OA
ENDBRANCH  46  47
ENDBRANCH  25  39
BRANCH  26  51
ATOM     51  C   UNL A   1      38.124  32.308  30.545  1.00  0.00     0.058 A 
ATOM     52  C   UNL A   1      37.448  33.204  29.704  1.00  0.00     0.135 A 
ATOM     53  C   UNL A   1      37.544  32.029  31.795  1.00  0.00     0.135 A 
ATOM     54  F   UNL A   1      37.957  33.510  28.502  1.00  0.00    -0.206 F 
ATOM     55  C   UNL A   1      36.268  33.831  30.102  1.00  0.00     0.059 A 
ATOM     56  C   UNL A   1      36.350  32.618  32.201  1.00  0.00     0.059 A 
ATOM     57  F   UNL A   1      38.137  31.170  32.639  1.00  0.00    -0.206 F 
ATOM     58  C   UNL A   1      35.732  33.536  31.357  1.00  0.00     0.060 A 
BRANCH  58  59
ATOM     59  S   UNL A   1      34.215  34.367  31.878  1.00  0.00     0.124 S 
ATOM     60  O   UNL A   1      33.611  33.357  32.740  1.00  0.00    -0.237 OA
ATOM     61  O   UNL A   1      34.729  35.556  32.551  1.00  0.00    -0.237 OA
ATOM     62  O   UNL A   1      33.522  34.619  30.619  1.00  0.00    -0.744 OA
ENDBRANCH  58  59
ENDBRANCH  26  51
BRANCH  38  63
ATOM     63  C   UNL A   1      44.796  33.878  31.842  1.00  0.00     0.058 A 
ATOM     64  C   UNL A   1      45.093  33.739  33.205  1.00  0.00     0.135 A 
ATOM     65  C   UNL A   1      45.173  35.065  31.195  1.00  0.00     0.135 A 
ATOM     66  F   UNL A   1      44.742  32.623  33.863  1.00  0.00    -0.206 F 
ATOM     67  C   UNL A   1      45.733  34.749  33.910  1.00  0.00     0.059 A 
ATOM     68  C   UNL A   1      45.841  36.077  31.873  1.00  0.00     0.059 A 
ATOM     69  F   UNL A   1      44.919  35.235  29.889  1.00  0.00    -0.206 F 
ATOM     70  C   UNL A   1      46.108  35.912  33.232  1.00  0.00     0.060 A 
BRANCH  70  71
ATOM     71  S   UNL A   1      46.988  37.194  34.146  1.00  0.00     0.124 S 
ATOM     72  O   UNL A   1      47.952  36.405  34.904  1.00  0.00    -0.237 OA
ATOM     73  O   UNL A   1      47.543  38.016  33.074  1.00  0.00    -0.237 OA
ATOM     74  O   UNL A   1      45.936  37.830  34.934  1.00  0.00    -0.744 OA
ENDBRANCH  70  71
ENDBRANCH  38  63
ENDBRANCH  12  13
ENDBRANCH   5   7
ENDBRANCH   4   5
ENDBRANCH   3   4
ENDBRANCH   2   3
ENDBRANCH   1   2
BRANCH   1  75
ATOM     75  C   UNL A   1      33.791  22.000  27.690  1.00  0.00     0.202 C 
BRANCH  75  76
ATOM     76  C   UNL A   1      32.525  22.853  27.548  1.00  0.00     0.261 C 
BRANCH  76  77
ATOM     77  O   UNL A   1      31.916  22.507  26.300  1.00  0.00    -0.463 OA
BRANCH  77  78
ATOM     78  C   UNL A   1      31.079  23.454  25.828  1.00  0.00     0.312 C 
ATOM     79  O   UNL A   1      30.395  24.180  26.529  1.00  0.00    -0.252 OA
BRANCH  78  80
ATOM     80  C   UNL A   1      31.147  23.603  24.329  1.00  0.00     0.147 C 
ATOM     81  C   UNL A   1      31.052  24.995  23.614  1.00  0.00     0.129 C 
ATOM     82  C   UNL A   1      32.558  23.153  23.948  1.00  0.00     0.157 C 
ATOM     83  C   UNL A   1      32.506  25.190  23.188  1.00  0.00     0.155 C 
ATOM     84  C   UNL A   1      32.705  23.042  22.455  1.00  0.00     0.004 C 
ATOM     85  O   UNL A   1      33.246  24.411  24.162  1.00  0.00    -0.365 OA
ATOM     86  C   UNL A   1      32.719  24.299  21.987  1.00  0.00     0.004 C 
BRANCH  81  87
ATOM     87  C   UNL A   1      30.202  26.138  24.168  1.00  0.00     0.231 C 
ATOM     88  O   UNL A   1      29.053  26.284  23.719  1.00  0.00    -0.274 OA
ATOM     89  N   UNL A   1      30.488  26.874  25.262  1.00  0.00    -0.325 N 
ATOM     90  H   UNL A   1      29.847  26.745  25.997  1.00  0.00     0.169 HD
BRANCH  89  91
ATOM     91  C   UNL A   1      31.509  27.786  25.570  1.00  0.00     0.049 A 
ATOM     92  C   UNL A   1      32.298  27.390  26.667  1.00  0.00     0.027 A 
ATOM     93  C   UNL A   1      31.665  29.072  25.008  1.00  0.00     0.005 A 
ATOM     94  C   UNL A   1      33.297  28.214  27.172  1.00  0.00     0.002 A 
ATOM     95  C   UNL A   1      32.697  29.879  25.532  1.00  0.00     0.011 A 
ATOM     96  C   UNL A   1      33.505  29.456  26.593  1.00  0.00     0.001 A 
BRANCH  93  97
ATOM     97  C   UNL A   1      30.754  29.655  24.000  1.00  0.00    -0.016 A 
ATOM     98  C   UNL A   1      30.769  29.203  22.669  1.00  0.00     0.009 A 
ATOM     99  C   UNL A   1      29.814  30.643  24.339  1.00  0.00     0.009 A 
ATOM    100  C   UNL A   1      29.797  29.616  21.754  1.00  0.00     0.001 A 
ATOM    101  C   UNL A   1      28.839  31.056  23.429  1.00  0.00     0.001 A 
ATOM    102  C   UNL A   1      28.818  30.526  22.142  1.00  0.00     0.000 A 
ENDBRANCH  93  97
ENDBRANCH  89  91
ENDBRANCH  81  87
ENDBRANCH  78  80
ENDBRANCH  77  78
ENDBRANCH  76  77
ENDBRANCH  75  76
ENDBRANCH   1  75
TORSDOF 20
ENDMDL
MODEL 3
REMARK VINA RESULT:     -10.7      2.797      8.219
REMARK SMILES O=C(OCCOCCOC(=O)[C@H]1[C@@H](C(=O)Nc2ccccc2-c2ccccc2)[C@@H]2C=C[C@H]1O2)c1ccc(-c2c3nc(c(-c4c(F)cc(S(=O)(=O)[O-])cc4F)c4ccc([nH]4)c(-c4c(F)cc(S(=O)(=O)[O-])cc4F)c4nc(c(-c5c(F)cc(S(=O)(=O)[O-])cc5F)c5ccc2[nH]5)C=C4)C=C3)cc1
REMARK SMILES IDX 6 1 5 2 4 3 3 4 2 5 1 6 34 7 35 8 99 9 36 10 98 11 37 12
REMARK SMILES IDX 38 13 39 14 92 15 40 16 97 17 91 18 93 19 41 20 96 21 90 22
REMARK SMILES IDX 89 23 42 25 76 26 55 27 75 28 56 29 59 30 74 31 94 32 57 33
REMARK SMILES IDX 58 34 73 36 95 37 60 38 43 39 44 40 53 41 45 42 46 43 52 44
REMARK SMILES IDX 54 45 47 46 48 47 49 48 50 49 51 50 77 51 78 52 87 53 79 54
REMARK SMILES IDX 80 55 86 56 88 57 81 58 82 59 83 60 84 61 85 62 61 63 62 64
REMARK SMILES IDX 71 65 63 66 64 67 70 68 72 69 65 70 66 71 67 72 68 73 69 74
REMARK SMILES IDX 7 75 8 76 9 77 10 78 11 79 12 80 13 81 32 82 29 83 31 84
REMARK SMILES IDX 33 85 30 86 14 87 15 88 16 89 17 91 18 92 22 93 19 94 21 95
REMARK SMILES IDX 20 96 23 97 24 98 28 99 25 100 27 101 26 102
REMARK H PARENT 93 24 59 35 16 90
REMARK Flexibility Score: inf
ROOT
ATOM      1  O   UNL A   1      34.159  21.443  26.548  1.00  0.00    -0.374 OA
ENDROOT
BRANCH   1   2
ATOM      2  C   UNL A   1      35.396  21.830  25.939  1.00  0.00     0.202 C 
BRANCH   2   3
ATOM      3  C   UNL A   1      35.904  23.262  26.155  1.00  0.00     0.261 C 
BRANCH   3   4
ATOM      4  O   UNL A   1      37.202  23.465  25.575  1.00  0.00    -0.460 OA
BRANCH   4   5
ATOM      5  C   UNL A   1      38.402  23.232  26.155  1.00  0.00     0.338 C 
ATOM      6  O   UNL A   1      38.758  22.069  26.332  1.00  0.00    -0.246 OA
BRANCH   5   7
ATOM      7  C   UNL A   1      39.281  24.328  26.670  1.00  0.00     0.060 A 
ATOM      8  C   UNL A   1      40.011  25.196  25.857  1.00  0.00     0.016 A 
ATOM      9  C   UNL A   1      39.263  24.584  28.048  1.00  0.00     0.016 A 
ATOM     10  C   UNL A   1      40.676  26.291  26.355  1.00  0.00     0.010 A 
ATOM     11  C   UNL A   1      39.931  25.695  28.573  1.00  0.00     0.010 A 
ATOM     12  C   UNL A   1      40.619  26.556  27.713  1.00  0.00    -0.014 A 
BRANCH  12  13
ATOM     13  C   UNL A   1      41.368  27.727  28.168  1.00  0.00     0.031 A 
ATOM     14  C   UNL A   1      40.607  28.829  28.821  1.00  0.00     0.074 A 
ATOM     15  C   UNL A   1      42.713  27.676  28.145  1.00  0.00     0.049 A 
ATOM     16  N   UNL A   1      41.044  29.968  29.272  1.00  0.00    -0.248 NA
ATOM     17  C   UNL A   1      39.161  28.612  29.013  1.00  0.00     0.031 C 
ATOM     18  C   UNL A   1      43.506  26.536  27.670  1.00  0.00     0.029 A 
ATOM     19  N   UNL A   1      43.648  28.582  28.556  1.00  0.00    -0.354 N 
ATOM     20  C   UNL A   1      39.926  30.623  29.763  1.00  0.00     0.074 A 
ATOM     21  C   UNL A   1      38.791  29.750  29.583  1.00  0.00     0.031 C 
ATOM     22  C   UNL A   1      44.810  26.818  27.813  1.00  0.00     0.029 A 
ATOM     23  C   UNL A   1      44.941  28.178  28.319  1.00  0.00     0.049 A 
ATOM     24  H   UNL A   1      43.420  29.439  28.982  1.00  0.00     0.167 HD
ATOM     25  C   UNL A   1      39.872  31.864  30.292  1.00  0.00     0.037 A 
ATOM     26  C   UNL A   1      46.088  28.870  28.445  1.00  0.00     0.037 A 
ATOM     27  C   UNL A   1      41.037  32.690  30.452  1.00  0.00     0.049 A 
ATOM     28  C   UNL A   1      45.982  30.289  28.940  1.00  0.00     0.074 A 
ATOM     29  C   UNL A   1      41.120  33.983  30.928  1.00  0.00     0.029 A 
ATOM     30  N   UNL A   1      42.329  32.291  30.128  1.00  0.00    -0.354 N 
ATOM     31  N   UNL A   1      44.915  30.937  29.349  1.00  0.00    -0.248 NA
ATOM     32  C   UNL A   1      47.216  31.079  28.968  1.00  0.00     0.031 C 
ATOM     33  C   UNL A   1      42.457  34.384  30.842  1.00  0.00     0.029 A 
ATOM     34  C   UNL A   1      43.214  33.325  30.361  1.00  0.00     0.049 A 
ATOM     35  H   UNL A   1      42.576  31.403  29.782  1.00  0.00     0.167 HD
ATOM     36  C   UNL A   1      45.349  32.212  29.686  1.00  0.00     0.074 A 
ATOM     37  C   UNL A   1      46.782  32.230  29.462  1.00  0.00     0.031 C 
ATOM     38  C   UNL A   1      44.636  33.279  30.125  1.00  0.00     0.037 A 
BRANCH  25  39
ATOM     39  C   UNL A   1      38.524  32.416  30.639  1.00  0.00     0.058 A 
ATOM     40  C   UNL A   1      37.758  33.157  29.728  1.00  0.00     0.135 A 
ATOM     41  C   UNL A   1      37.985  32.182  31.915  1.00  0.00     0.135 A 
ATOM     42  F   UNL A   1      38.245  33.445  28.511  1.00  0.00    -0.206 F 
ATOM     43  C   UNL A   1      36.498  33.644  30.069  1.00  0.00     0.059 A 
ATOM     44  C   UNL A   1      36.721  32.642  32.270  1.00  0.00     0.059 A 
ATOM     45  F   UNL A   1      38.691  31.502  32.832  1.00  0.00    -0.206 F 
ATOM     46  C   UNL A   1      35.987  33.375  31.340  1.00  0.00     0.060 A 
BRANCH  46  47
ATOM     47  S   UNL A   1      34.336  33.978  31.753  1.00  0.00     0.124 S 
ATOM     48  O   UNL A   1      33.746  34.145  30.428  1.00  0.00    -0.237 OA
ATOM     49  O   UNL A   1      33.797  32.883  32.554  1.00  0.00    -0.237 OA
ATOM     50  O   UNL A   1      34.597  35.215  32.482  1.00  0.00    -0.744 OA
ENDBRANCH  46  47
ENDBRANCH  25  39
BRANCH  26  51
ATOM     51  C   UNL A   1      47.386  28.290  28.002  1.00  0.00     0.058 A 
ATOM     52  C   UNL A   1      47.812  28.368  26.668  1.00  0.00     0.135 A 
ATOM     53  C   UNL A   1      48.215  27.602  28.906  1.00  0.00     0.135 A 
ATOM     54  F   UNL A   1      47.059  29.010  25.761  1.00  0.00    -0.206 F 
ATOM     55  C   UNL A   1      48.988  27.755  26.238  1.00  0.00     0.059 A 
ATOM     56  C   UNL A   1      49.409  27.009  28.508  1.00  0.00     0.059 A 
ATOM     57  F   UNL A   1      47.868  27.503  30.199  1.00  0.00    -0.206 F 
ATOM     58  C   UNL A   1      49.775  27.071  27.166  1.00  0.00     0.060 A 
BRANCH  58  59
ATOM     59  S   UNL A   1      51.288  26.260  26.602  1.00  0.00     0.124 S 
ATOM     60  O   UNL A   1      51.061  24.887  27.038  1.00  0.00    -0.237 OA
ATOM     61  O   UNL A   1      51.242  26.489  25.161  1.00  0.00    -0.237 OA
ATOM     62  O   UNL A   1      52.339  26.982  27.310  1.00  0.00    -0.744 OA
ENDBRANCH  58  59
ENDBRANCH  26  51
BRANCH  38  63
ATOM     63  C   UNL A   1      45.407  34.536  30.399  1.00  0.00     0.058 A 
ATOM     64  C   UNL A   1      45.999  34.768  31.648  1.00  0.00     0.135 A 
ATOM     65  C   UNL A   1      45.614  35.475  29.378  1.00  0.00     0.135 A 
ATOM     66  F   UNL A   1      45.818  33.898  32.655  1.00  0.00    -0.206 F 
ATOM     67  C   UNL A   1      46.763  35.903  31.883  1.00  0.00     0.059 A 
ATOM     68  C   UNL A   1      46.399  36.602  29.581  1.00  0.00     0.059 A 
ATOM     69  F   UNL A   1      45.074  35.286  28.163  1.00  0.00    -0.206 F 
ATOM     70  C   UNL A   1      46.962  36.811  30.840  1.00  0.00     0.060 A 
BRANCH  70  71
ATOM     71  S   UNL A   1      48.002  38.253  31.142  1.00  0.00     0.124 S 
ATOM     72  O   UNL A   1      47.026  39.335  31.088  1.00  0.00    -0.237 OA
ATOM     73  O   UNL A   1      48.559  37.965  32.460  1.00  0.00    -0.237 OA
ATOM     74  O   UNL A   1      48.961  38.215  30.041  1.00  0.00    -0.744 OA
ENDBRANCH  70  71
ENDBRANCH  38  63
ENDBRANCH  12  13
ENDBRANCH   5   7
ENDBRANCH   4   5
ENDBRANCH   3   4
ENDBRANCH   2   3
ENDBRANCH   1   2
BRANCH   1  75
ATOM     75  C   UNL A   1      33.727  22.167  27.707  1.00  0.00     0.202 C 
BRANCH  75  76
ATOM     76  C   UNL A   1      32.267  22.601  27.532  1.00  0.00     0.261 C 
BRANCH  76  77
ATOM     77  O   UNL A   1      31.939  22.447  26.148  1.00  0.00    -0.463 OA
BRANCH  77  78
ATOM     78  C   UNL A   1      31.065  23.370  25.696  1.00  0.00     0.312 C 
ATOM     79  O   UNL A   1      30.307  24.008  26.406  1.00  0.00    -0.252 OA
BRANCH  78  80
ATOM     80  C   UNL A   1      31.188  23.617  24.213  1.00  0.00     0.147 C 
ATOM     81  C   UNL A   1      31.074  25.048  23.584  1.00  0.00     0.129 C 
ATOM     82  C   UNL A   1      32.627  23.236  23.864  1.00  0.00     0.157 C 
ATOM     83  C   UNL A   1      32.536  25.315  23.233  1.00  0.00     0.155 C 
ATOM     84  C   UNL A   1      32.838  23.227  22.375  1.00  0.00     0.004 C 
ATOM     85  O   UNL A   1      33.263  24.499  24.186  1.00  0.00    -0.365 OA
ATOM     86  C   UNL A   1      32.828  24.510  21.988  1.00  0.00     0.004 C 
BRANCH  81  87
ATOM     87  C   UNL A   1      30.164  26.126  24.172  1.00  0.00     0.231 C 
ATOM     88  O   UNL A   1      29.004  26.216  23.736  1.00  0.00    -0.274 OA
ATOM     89  N   UNL A   1      30.417  26.851  25.282  1.00  0.00    -0.325 N 
ATOM     90  H   UNL A   1      29.791  26.666  26.018  1.00  0.00     0.169 HD
BRANCH  89  91
ATOM     91  C   UNL A   1      31.386  27.812  25.605  1.00  0.00     0.049 A 
ATOM     92  C   UNL A   1      32.158  27.470  26.731  1.00  0.00     0.027 A 
ATOM     93  C   UNL A   1      31.500  29.095  25.027  1.00  0.00     0.005 A 
ATOM     94  C   UNL A   1      33.103  28.346  27.251  1.00  0.00     0.002 A 
ATOM     95  C   UNL A   1      32.479  29.957  25.567  1.00  0.00     0.011 A 
ATOM     96  C   UNL A   1      33.273  29.587  26.659  1.00  0.00     0.001 A 
BRANCH  93  97
ATOM     97  C   UNL A   1      30.595  29.621  23.982  1.00  0.00    -0.016 A 
ATOM     98  C   UNL A   1      29.655  30.623  24.282  1.00  0.00     0.009 A 
ATOM     99  C   UNL A   1      30.670  29.179  22.651  1.00  0.00     0.009 A 
ATOM    100  C   UNL A   1      28.922  31.251  23.272  1.00  0.00     0.001 A 
ATOM    101  C   UNL A   1      29.942  29.807  21.638  1.00  0.00     0.001 A 
ATOM    102  C   UNL A   1      29.084  30.858  21.947  1.00  0.00     0.000 A 
ENDBRANCH  93  97
ENDBRANCH  89  91
ENDBRANCH  81  87
ENDBRANCH  78  80
ENDBRANCH  77  78
ENDBRANCH  76  77
ENDBRANCH  75  76
ENDBRANCH   1  75
TORSDOF 20
ENDMDL
