MODEL 1
REMARK VINA RESULT:     -10.4      0.000      0.000
REMARK SMILES Cc1ccc(OCCC[N@H+]2CCCC[C@@H]2C(=O)OCCOCCOC(=O)c2ccc(-c3c4nc(c(-c5c(F)cc(S(=O)(=O)[O-])cc5F)c5ccc([nH]5)c(-c5c(F)cc(S(=O)(=O)[O-])cc5F)c5nc(c(-c6c(F)cc(S(=O)(=O)[O-])cc6F)c6ccc3[nH]6)C=C5)C=C4)cc2)cc1C
REMARK SMILES IDX 20 1 19 2 18 3 16 4 17 5 15 6 10 7 11 8 12 10 14 11 13 12
REMARK SMILES IDX 9 13 8 14 7 15 6 16 5 17 1 18 2 19 3 20 94 21 4 22 93 23
REMARK SMILES IDX 95 24 21 25 22 26 23 27 24 28 25 29 26 30 27 31 28 32 92 33
REMARK SMILES IDX 29 34 91 35 30 36 31 37 32 38 85 39 33 40 90 41 84 42 86 43
REMARK SMILES IDX 34 44 89 45 83 46 82 47 35 49 69 50 48 51 68 52 49 53 52 54
REMARK SMILES IDX 67 55 87 56 50 57 51 58 66 60 88 61 53 62 36 63 37 64 46 65
REMARK SMILES IDX 38 66 39 67 45 68 47 69 40 70 41 71 42 72 43 73 44 74 70 75
REMARK SMILES IDX 71 76 80 77 72 78 73 79 79 80 81 81 74 82 75 83 76 84 77 85
REMARK SMILES IDX 78 86 54 87 55 88 64 89 56 90 57 91 63 92 65 93 58 94 59 95
REMARK SMILES IDX 60 96 61 97 62 98
REMARK H PARENT 10 9 86 48 52 59
REMARK Flexibility Score: inf
ROOT
ATOM      1  C   UNL A   1      34.865  22.285  23.735  1.00  0.00     0.202 C 
ENDROOT
BRANCH   1   2
ATOM      2  C   UNL A   1      33.882  23.331  23.205  1.00  0.00     0.261 C 
BRANCH   2   3
ATOM      3  O   UNL A   1      34.358  24.616  22.811  1.00  0.00    -0.459 OA
BRANCH   3   4
ATOM      4  C   UNL A   1      33.519  25.350  22.029  1.00  0.00     0.364 C 
ATOM      5  O   UNL A   1      33.260  25.122  20.856  1.00  0.00    -0.245 OA
BRANCH   4   6
ATOM      6  C   UNL A   1      32.856  26.496  22.778  1.00  0.00     0.295 C 
ATOM      7  N   UNL A   1      31.371  26.553  22.567  1.00  0.00    -0.323 N 
ATOM      8  C   UNL A   1      30.844  27.721  23.318  1.00  0.00     0.262 C 
ATOM      9  H   UNL A   1      31.186  26.632  21.568  1.00  0.00     0.348 HD
ATOM     10  C   UNL A   1      31.524  29.046  22.960  1.00  0.00     0.062 C 
ATOM     11  C   UNL A   1      33.578  27.792  22.383  1.00  0.00     0.078 C 
ATOM     12  C   UNL A   1      33.031  28.974  23.156  1.00  0.00     0.013 C 
BRANCH   7  13
ATOM     13  C   UNL A   1      30.696  25.322  23.068  1.00  0.00     0.266 C 
BRANCH  13  14
ATOM     14  C   UNL A   1      30.987  24.928  24.536  1.00  0.00     0.103 C 
BRANCH  14  15
ATOM     15  C   UNL A   1      30.379  25.812  25.634  1.00  0.00     0.235 C 
BRANCH  15  16
ATOM     16  O   UNL A   1      31.253  26.024  26.774  1.00  0.00    -0.493 OA
BRANCH  16  17
ATOM     17  C   UNL A   1      32.032  27.145  26.671  1.00  0.00     0.119 A 
ATOM     18  C   UNL A   1      34.640  30.522  27.143  1.00  0.00     0.044 C 
ATOM     19  C   UNL A   1      33.675  29.415  26.814  1.00  0.00    -0.048 A 
ATOM     20  C   UNL A   1      34.213  28.147  26.552  1.00  0.00     0.007 A 
ATOM     21  C   UNL A   1      32.276  29.574  26.797  1.00  0.00    -0.045 A 
ATOM     22  C   UNL A   1      33.394  27.025  26.459  1.00  0.00     0.047 A 
ATOM     23  C   UNL A   1      31.459  28.421  26.724  1.00  0.00     0.050 A 
ATOM     24  C   UNL A   1      31.635  30.936  26.834  1.00  0.00     0.045 C 
ENDBRANCH  16  17
ENDBRANCH  15  16
ENDBRANCH  14  15
ENDBRANCH  13  14
ENDBRANCH   7  13
ENDBRANCH   4   6
ENDBRANCH   3   4
ENDBRANCH   2   3
ENDBRANCH   1   2
BRANCH   1  25
ATOM     25  O   UNL A   1      36.266  22.475  23.646  1.00  0.00    -0.374 OA
BRANCH  25  26
ATOM     26  C   UNL A   1      37.077  21.938  24.685  1.00  0.00     0.202 C 
BRANCH  26  27
ATOM     27  C   UNL A   1      38.013  22.907  25.411  1.00  0.00     0.261 C 
BRANCH  27  28
ATOM     28  O   UNL A   1      38.894  22.208  26.302  1.00  0.00    -0.460 OA
BRANCH  28  29
ATOM     29  C   UNL A   1      40.165  22.682  26.346  1.00  0.00     0.338 C 
ATOM     30  O   UNL A   1      41.150  22.203  25.821  1.00  0.00    -0.246 OA
BRANCH  29  31
ATOM     31  C   UNL A   1      40.129  24.041  26.931  1.00  0.00     0.060 A 
ATOM     32  C   UNL A   1      40.961  25.024  26.368  1.00  0.00     0.016 A 
ATOM     33  C   UNL A   1      39.282  24.347  27.997  1.00  0.00     0.016 A 
ATOM     34  C   UNL A   1      41.001  26.302  26.916  1.00  0.00     0.010 A 
ATOM     35  C   UNL A   1      39.336  25.618  28.558  1.00  0.00     0.010 A 
ATOM     36  C   UNL A   1      40.235  26.576  28.053  1.00  0.00    -0.014 A 
BRANCH  36  37
ATOM     37  C   UNL A   1      40.564  27.732  28.909  1.00  0.00     0.031 A 
ATOM     38  C   UNL A   1      41.776  27.597  29.787  1.00  0.00     0.074 A 
ATOM     39  C   UNL A   1      39.777  28.818  28.953  1.00  0.00     0.049 A 
ATOM     40  N   UNL A   1      42.165  28.339  30.786  1.00  0.00    -0.248 NA
ATOM     41  C   UNL A   1      42.656  26.445  29.513  1.00  0.00     0.031 C 
ATOM     42  C   UNL A   1      38.611  29.054  28.104  1.00  0.00     0.029 A 
ATOM     43  N   UNL A   1      39.823  29.911  29.778  1.00  0.00    -0.354 N 
ATOM     44  C   UNL A   1      43.314  27.728  31.279  1.00  0.00     0.074 A 
ATOM     45  C   UNL A   1      43.551  26.547  30.482  1.00  0.00     0.031 C 
ATOM     46  C   UNL A   1      38.025  30.204  28.480  1.00  0.00     0.029 A 
ATOM     47  C   UNL A   1      38.748  30.755  29.625  1.00  0.00     0.049 A 
ATOM     48  H   UNL A   1      40.553  30.075  30.417  1.00  0.00     0.167 HD
ATOM     49  C   UNL A   1      44.094  28.122  32.310  1.00  0.00     0.037 A 
ATOM     50  C   UNL A   1      38.377  31.819  30.364  1.00  0.00     0.037 A 
ATOM     51  C   UNL A   1      43.831  29.305  33.082  1.00  0.00     0.049 A 
ATOM     52  C   UNL A   1      39.231  32.211  31.545  1.00  0.00     0.074 A 
ATOM     53  C   UNL A   1      44.557  29.822  34.137  1.00  0.00     0.029 A 
ATOM     54  N   UNL A   1      42.748  30.150  32.882  1.00  0.00    -0.354 N 
ATOM     55  N   UNL A   1      40.323  31.641  31.998  1.00  0.00    -0.248 NA
ATOM     56  C   UNL A   1      38.807  33.388  32.315  1.00  0.00     0.031 C 
ATOM     57  C   UNL A   1      43.884  30.953  34.610  1.00  0.00     0.029 A 
ATOM     58  C   UNL A   1      42.774  31.176  33.807  1.00  0.00     0.049 A 
ATOM     59  H   UNL A   1      42.063  30.035  32.185  1.00  0.00     0.167 HD
ATOM     60  C   UNL A   1      40.736  32.409  33.081  1.00  0.00     0.074 A 
ATOM     61  C   UNL A   1      39.775  33.485  33.216  1.00  0.00     0.031 C 
ATOM     62  C   UNL A   1      41.813  32.248  33.891  1.00  0.00     0.037 A 
BRANCH  49  63
ATOM     63  C   UNL A   1      45.267  27.259  32.676  1.00  0.00     0.058 A 
ATOM     64  C   UNL A   1      46.558  27.512  32.186  1.00  0.00     0.135 A 
ATOM     65  C   UNL A   1      45.103  26.175  33.554  1.00  0.00     0.135 A 
ATOM     66  F   UNL A   1      46.769  28.517  31.321  1.00  0.00    -0.206 F 
ATOM     67  C   UNL A   1      47.641  26.714  32.540  1.00  0.00     0.059 A 
ATOM     68  C   UNL A   1      46.177  25.381  33.947  1.00  0.00     0.059 A 
ATOM     69  F   UNL A   1      43.888  25.878  34.042  1.00  0.00    -0.206 F 
ATOM     70  C   UNL A   1      47.441  25.653  33.426  1.00  0.00     0.060 A 
BRANCH  70  71
ATOM     71  S   UNL A   1      48.861  24.645  33.897  1.00  0.00     0.124 S 
ATOM     72  O   UNL A   1      48.213  23.413  34.335  1.00  0.00    -0.237 OA
ATOM     73  O   UNL A   1      49.608  24.558  32.647  1.00  0.00    -0.237 OA
ATOM     74  O   UNL A   1      49.500  25.426  34.952  1.00  0.00    -0.744 OA
ENDBRANCH  70  71
ENDBRANCH  49  63
BRANCH  50  75
ATOM     75  C   UNL A   1      37.134  32.565  30.029  1.00  0.00     0.058 A 
ATOM     76  C   UNL A   1      35.896  32.189  30.568  1.00  0.00     0.135 A 
ATOM     77  C   UNL A   1      37.157  33.673  29.165  1.00  0.00     0.135 A 
ATOM     78  F   UNL A   1      35.818  31.131  31.392  1.00  0.00    -0.206 F 
ATOM     79  C   UNL A   1      34.724  32.869  30.254  1.00  0.00     0.059 A 
ATOM     80  C   UNL A   1      36.004  34.387  28.857  1.00  0.00     0.059 A 
ATOM     81  F   UNL A   1      38.317  34.085  28.629  1.00  0.00    -0.206 F 
ATOM     82  C   UNL A   1      34.788  33.970  29.398  1.00  0.00     0.060 A 
BRANCH  82  83
ATOM     83  S   UNL A   1      33.265  34.868  29.027  1.00  0.00     0.124 S 
ATOM     84  O   UNL A   1      33.785  36.146  28.556  1.00  0.00    -0.237 OA
ATOM     85  O   UNL A   1      32.649  34.016  28.015  1.00  0.00    -0.237 OA
ATOM     86  O   UNL A   1      32.574  34.903  30.313  1.00  0.00    -0.744 OA
ENDBRANCH  82  83
ENDBRANCH  50  75
BRANCH  62  87
ATOM     87  C   UNL A   1      42.054  33.285  34.951  1.00  0.00     0.058 A 
ATOM     88  C   UNL A   1      41.546  33.146  36.252  1.00  0.00     0.135 A 
ATOM     89  C   UNL A   1      42.900  34.374  34.685  1.00  0.00     0.135 A 
ATOM     90  F   UNL A   1      40.728  32.126  36.554  1.00  0.00    -0.206 F 
ATOM     91  C   UNL A   1      41.869  34.056  37.253  1.00  0.00     0.059 A 
ATOM     92  C   UNL A   1      43.259  35.277  35.678  1.00  0.00     0.059 A 
ATOM     93  F   UNL A   1      43.421  34.542  33.459  1.00  0.00    -0.206 F 
ATOM     94  C   UNL A   1      42.736  35.112  36.960  1.00  0.00     0.060 A 
BRANCH  94  95
ATOM     95  S   UNL A   1      43.206  36.237  38.288  1.00  0.00     0.124 S 
ATOM     96  O   UNL A   1      42.116  37.206  38.253  1.00  0.00    -0.237 OA
ATOM     97  O   UNL A   1      43.232  35.354  39.449  1.00  0.00    -0.237 OA
ATOM     98  O   UNL A   1      44.508  36.742  37.863  1.00  0.00    -0.744 OA
ENDBRANCH  94  95
ENDBRANCH  62  87
ENDBRANCH  36  37
ENDBRANCH  29  31
ENDBRANCH  28  29
ENDBRANCH  27  28
ENDBRANCH  26  27
ENDBRANCH  25  26
ENDBRANCH   1  25
TORSDOF 22
ENDMDL
MODEL 2
REMARK VINA RESULT:     -10.0      4.798     11.986
REMARK SMILES Cc1ccc(OCCC[N@H+]2CCCC[C@@H]2C(=O)OCCOCCOC(=O)c2ccc(-c3c4nc(c(-c5c(F)cc(S(=O)(=O)[O-])cc5F)c5ccc([nH]5)c(-c5c(F)cc(S(=O)(=O)[O-])cc5F)c5nc(c(-c6c(F)cc(S(=O)(=O)[O-])cc6F)c6ccc3[nH]6)C=C5)C=C4)cc2)cc1C
REMARK SMILES IDX 20 1 19 2 18 3 16 4 17 5 15 6 10 7 11 8 12 10 14 11 13 12
REMARK SMILES IDX 9 13 8 14 7 15 6 16 5 17 1 18 2 19 3 20 94 21 4 22 93 23
REMARK SMILES IDX 95 24 21 25 22 26 23 27 24 28 25 29 26 30 27 31 28 32 92 33
REMARK SMILES IDX 29 34 91 35 30 36 31 37 32 38 85 39 33 40 90 41 84 42 86 43
REMARK SMILES IDX 34 44 89 45 83 46 82 47 35 49 69 50 48 51 68 52 49 53 52 54
REMARK SMILES IDX 67 55 87 56 50 57 51 58 66 60 88 61 53 62 36 63 37 64 46 65
REMARK SMILES IDX 38 66 39 67 45 68 47 69 40 70 41 71 42 72 43 73 44 74 70 75
REMARK SMILES IDX 71 76 80 77 72 78 73 79 79 80 81 81 74 82 75 83 76 84 77 85
REMARK SMILES IDX 78 86 54 87 55 88 64 89 56 90 57 91 63 92 65 93 58 94 59 95
REMARK SMILES IDX 60 96 61 97 62 98
REMARK H PARENT 10 9 86 48 52 59
REMARK Flexibility Score: inf
ROOT
ATOM      1  C   UNL A   1      34.139  33.628  33.600  1.00  0.00     0.202 C 
ENDROOT
BRANCH   1   2
ATOM      2  C   UNL A   1      35.197  34.568  34.182  1.00  0.00     0.261 C 
BRANCH   2   3
ATOM      3  O   UNL A   1      36.581  34.277  34.001  1.00  0.00    -0.459 OA
BRANCH   3   4
ATOM      4  C   UNL A   1      37.092  33.292  34.789  1.00  0.00     0.364 C 
ATOM      5  O   UNL A   1      37.032  32.093  34.557  1.00  0.00    -0.245 OA
BRANCH   4   6
ATOM      6  C   UNL A   1      37.827  33.826  36.009  1.00  0.00     0.295 C 
ATOM      7  N   UNL A   1      39.311  33.922  35.805  1.00  0.00    -0.323 N 
ATOM      8  C   UNL A   1      39.917  34.423  37.065  1.00  0.00     0.262 C 
ATOM      9  H   UNL A   1      39.667  32.999  35.556  1.00  0.00     0.348 HD
ATOM     10  C   UNL A   1      39.562  33.588  38.299  1.00  0.00     0.062 C 
ATOM     11  C   UNL A   1      37.432  32.955  37.210  1.00  0.00     0.078 C 
ATOM     12  C   UNL A   1      38.057  33.477  38.487  1.00  0.00     0.013 C 
BRANCH   7  13
ATOM     13  C   UNL A   1      39.655  34.865  34.703  1.00  0.00     0.266 C 
BRANCH  13  14
ATOM     14  C   UNL A   1      40.246  34.234  33.419  1.00  0.00     0.103 C 
BRANCH  14  15
ATOM     15  C   UNL A   1      41.142  32.999  33.591  1.00  0.00     0.235 C 
BRANCH  15  16
ATOM     16  O   UNL A   1      40.411  31.757  33.766  1.00  0.00    -0.493 OA
BRANCH  16  17
ATOM     17  C   UNL A   1      41.095  30.650  33.342  1.00  0.00     0.119 A 
ATOM     18  C   UNL A   1      43.202  26.949  32.804  1.00  0.00     0.044 C 
ATOM     19  C   UNL A   1      42.523  28.291  32.820  1.00  0.00    -0.048 A 
ATOM     20  C   UNL A   1      41.121  28.303  32.824  1.00  0.00     0.007 A 
ATOM     21  C   UNL A   1      43.211  29.518  32.873  1.00  0.00    -0.045 A 
ATOM     22  C   UNL A   1      40.413  29.479  33.061  1.00  0.00     0.047 A 
ATOM     23  C   UNL A   1      42.479  30.700  33.137  1.00  0.00     0.050 A 
ATOM     24  C   UNL A   1      44.695  29.602  32.637  1.00  0.00     0.045 C 
ENDBRANCH  16  17
ENDBRANCH  15  16
ENDBRANCH  14  15
ENDBRANCH  13  14
ENDBRANCH   7  13
ENDBRANCH   4   6
ENDBRANCH   3   4
ENDBRANCH   2   3
ENDBRANCH   1   2
BRANCH   1  25
ATOM     25  O   UNL A   1      34.269  33.084  32.298  1.00  0.00    -0.374 OA
BRANCH  25  26
ATOM     26  C   UNL A   1      34.436  33.990  31.213  1.00  0.00     0.202 C 
BRANCH  26  27
ATOM     27  C   UNL A   1      34.660  33.383  29.826  1.00  0.00     0.261 C 
BRANCH  27  28
ATOM     28  O   UNL A   1      34.750  31.953  29.893  1.00  0.00    -0.460 OA
BRANCH  28  29
ATOM     29  C   UNL A   1      34.919  31.329  28.699  1.00  0.00     0.338 C 
ATOM     30  O   UNL A   1      34.299  31.520  27.672  1.00  0.00    -0.246 OA
BRANCH  29  31
ATOM     31  C   UNL A   1      36.170  30.541  28.766  1.00  0.00     0.060 A 
ATOM     32  C   UNL A   1      36.656  30.182  30.035  1.00  0.00     0.016 A 
ATOM     33  C   UNL A   1      36.840  30.148  27.607  1.00  0.00     0.016 A 
ATOM     34  C   UNL A   1      37.855  29.486  30.152  1.00  0.00     0.010 A 
ATOM     35  C   UNL A   1      38.049  29.470  27.724  1.00  0.00     0.010 A 
ATOM     36  C   UNL A   1      38.581  29.189  28.996  1.00  0.00    -0.014 A 
BRANCH  36  37
ATOM     37  C   UNL A   1      40.017  28.863  29.085  1.00  0.00     0.031 A 
ATOM     38  C   UNL A   1      40.950  30.000  29.394  1.00  0.00     0.074 A 
ATOM     39  C   UNL A   1      40.472  27.626  28.831  1.00  0.00     0.049 A 
ATOM     40  N   UNL A   1      42.250  30.056  29.309  1.00  0.00    -0.248 NA
ATOM     41  C   UNL A   1      40.320  31.259  29.835  1.00  0.00     0.031 C 
ATOM     42  C   UNL A   1      39.638  26.454  28.571  1.00  0.00     0.029 A 
ATOM     43  N   UNL A   1      41.756  27.162  28.712  1.00  0.00    -0.354 N 
ATOM     44  C   UNL A   1      42.590  31.361  29.653  1.00  0.00     0.074 A 
ATOM     45  C   UNL A   1      41.362  32.068  29.932  1.00  0.00     0.031 C 
ATOM     46  C   UNL A   1      40.435  25.410  28.282  1.00  0.00     0.029 A 
ATOM     47  C   UNL A   1      41.827  25.856  28.291  1.00  0.00     0.049 A 
ATOM     48  H   UNL A   1      42.549  27.711  28.910  1.00  0.00     0.167 HD
ATOM     49  C   UNL A   1      43.821  31.912  29.723  1.00  0.00     0.037 A 
ATOM     50  C   UNL A   1      42.897  25.130  27.911  1.00  0.00     0.037 A 
ATOM     51  C   UNL A   1      45.024  31.179  29.440  1.00  0.00     0.049 A 
ATOM     52  C   UNL A   1      44.259  25.781  27.944  1.00  0.00     0.074 A 
ATOM     53  C   UNL A   1      46.333  31.619  29.495  1.00  0.00     0.029 A 
ATOM     54  N   UNL A   1      45.060  29.850  29.040  1.00  0.00    -0.354 N 
ATOM     55  N   UNL A   1      44.578  27.008  28.283  1.00  0.00    -0.248 NA
ATOM     56  C   UNL A   1      45.405  24.953  27.542  1.00  0.00     0.031 C 
ATOM     57  C   UNL A   1      47.157  30.570  29.078  1.00  0.00     0.029 A 
ATOM     58  C   UNL A   1      46.367  29.457  28.825  1.00  0.00     0.049 A 
ATOM     59  H   UNL A   1      44.271  29.273  28.927  1.00  0.00     0.167 HD
ATOM     60  C   UNL A   1      45.962  27.089  28.173  1.00  0.00     0.074 A 
ATOM     61  C   UNL A   1      46.419  25.786  27.733  1.00  0.00     0.031 C 
ATOM     62  C   UNL A   1      46.786  28.139  28.416  1.00  0.00     0.037 A 
BRANCH  49  63
ATOM     63  C   UNL A   1      43.922  33.367  30.082  1.00  0.00     0.058 A 
ATOM     64  C   UNL A   1      44.220  33.793  31.386  1.00  0.00     0.135 A 
ATOM     65  C   UNL A   1      43.745  34.354  29.097  1.00  0.00     0.135 A 
ATOM     66  F   UNL A   1      44.370  32.895  32.372  1.00  0.00    -0.206 F 
ATOM     67  C   UNL A   1      44.323  35.143  31.705  1.00  0.00     0.059 A 
ATOM     68  C   UNL A   1      43.874  35.709  29.387  1.00  0.00     0.059 A 
ATOM     69  F   UNL A   1      43.445  34.005  27.836  1.00  0.00    -0.206 F 
ATOM     70  C   UNL A   1      44.153  36.093  30.698  1.00  0.00     0.060 A 
BRANCH  70  71
ATOM     71  S   UNL A   1      44.318  37.840  31.123  1.00  0.00     0.124 S 
ATOM     72  O   UNL A   1      45.769  37.996  31.159  1.00  0.00    -0.237 OA
ATOM     73  O   UNL A   1      43.638  38.495  30.012  1.00  0.00    -0.237 OA
ATOM     74  O   UNL A   1      43.644  37.941  32.414  1.00  0.00    -0.744 OA
ENDBRANCH  70  71
ENDBRANCH  49  63
BRANCH  50  75
ATOM     75  C   UNL A   1      42.723  23.728  27.446  1.00  0.00     0.058 A 
ATOM     76  C   UNL A   1      42.774  22.655  28.346  1.00  0.00     0.135 A 
ATOM     77  C   UNL A   1      42.497  23.430  26.092  1.00  0.00     0.135 A 
ATOM     78  F   UNL A   1      42.997  22.885  29.650  1.00  0.00    -0.206 F 
ATOM     79  C   UNL A   1      42.625  21.338  27.924  1.00  0.00     0.059 A 
ATOM     80  C   UNL A   1      42.317  22.123  25.648  1.00  0.00     0.059 A 
ATOM     81  F   UNL A   1      42.426  24.419  25.186  1.00  0.00    -0.206 F 
ATOM     82  C   UNL A   1      42.394  21.081  26.571  1.00  0.00     0.060 A 
BRANCH  82  83
ATOM     83  S   UNL A   1      42.166  19.370  26.041  1.00  0.00     0.124 S 
ATOM     84  O   UNL A   1      42.512  18.637  27.253  1.00  0.00    -0.237 OA
ATOM     85  O   UNL A   1      40.756  19.354  25.665  1.00  0.00    -0.237 OA
ATOM     86  O   UNL A   1      43.106  19.234  24.931  1.00  0.00    -0.744 OA
ENDBRANCH  82  83
ENDBRANCH  50  75
BRANCH  62  87
ATOM     87  C   UNL A   1      48.265  27.917  28.280  1.00  0.00     0.058 A 
ATOM     88  C   UNL A   1      49.038  27.415  29.337  1.00  0.00     0.135 A 
ATOM     89  C   UNL A   1      48.890  28.103  27.035  1.00  0.00     0.135 A 
ATOM     90  F   UNL A   1      48.490  27.226  30.547  1.00  0.00    -0.206 F 
ATOM     91  C   UNL A   1      50.384  27.109  29.165  1.00  0.00     0.059 A 
ATOM     92  C   UNL A   1      50.224  27.775  26.833  1.00  0.00     0.059 A 
ATOM     93  F   UNL A   1      48.187  28.568  25.989  1.00  0.00    -0.206 F 
ATOM     94  C   UNL A   1      50.965  27.281  27.906  1.00  0.00     0.060 A 
BRANCH  94  95
ATOM     95  S   UNL A   1      52.690  26.806  27.679  1.00  0.00     0.124 S 
ATOM     96  O   UNL A   1      53.233  27.021  29.016  1.00  0.00    -0.237 OA
ATOM     97  O   UNL A   1      52.576  25.414  27.257  1.00  0.00    -0.237 OA
ATOM     98  O   UNL A   1      53.167  27.728  26.652  1.00  0.00    -0.744 OA
ENDBRANCH  94  95
ENDBRANCH  62  87
ENDBRANCH  36  37
ENDBRANCH  29  31
ENDBRANCH  28  29
ENDBRANCH  27  28
ENDBRANCH  26  27
ENDBRANCH  25  26
ENDBRANCH   1  25
TORSDOF 22
ENDMDL
MODEL 3
REMARK VINA RESULT:      -9.8      5.152     10.558
REMARK SMILES Cc1ccc(OCCC[N@H+]2CCCC[C@@H]2C(=O)OCCOCCOC(=O)c2ccc(-c3c4nc(c(-c5c(F)cc(S(=O)(=O)[O-])cc5F)c5ccc([nH]5)c(-c5c(F)cc(S(=O)(=O)[O-])cc5F)c5nc(c(-c6c(F)cc(S(=O)(=O)[O-])cc6F)c6ccc3[nH]6)C=C5)C=C4)cc2)cc1C
REMARK SMILES IDX 20 1 19 2 18 3 16 4 17 5 15 6 10 7 11 8 12 10 14 11 13 12
REMARK SMILES IDX 9 13 8 14 7 15 6 16 5 17 1 18 2 19 3 20 94 21 4 22 93 23
REMARK SMILES IDX 95 24 21 25 22 26 23 27 24 28 25 29 26 30 27 31 28 32 92 33
REMARK SMILES IDX 29 34 91 35 30 36 31 37 32 38 85 39 33 40 90 41 84 42 86 43
REMARK SMILES IDX 34 44 89 45 83 46 82 47 35 49 69 50 48 51 68 52 49 53 52 54
REMARK SMILES IDX 67 55 87 56 50 57 51 58 66 60 88 61 53 62 36 63 37 64 46 65
REMARK SMILES IDX 38 66 39 67 45 68 47 69 40 70 41 71 42 72 43 73 44 74 70 75
REMARK SMILES IDX 71 76 80 77 72 78 73 79 79 80 81 81 74 82 75 83 76 84 77 85
REMARK SMILES IDX 78 86 54 87 55 88 64 89 56 90 57 91 63 92 65 93 58 94 59 95
REMARK SMILES IDX 60 96 61 97 62 98
REMARK H PARENT 10 9 86 48 52 59
REMARK Flexibility Score: inf
ROOT
ATOM      1  C   UNL A   1      33.899  30.243  26.977  1.00  0.00     0.202 C 
ENDROOT
BRANCH   1   2
ATOM      2  C   UNL A   1      34.019  28.821  27.529  1.00  0.00     0.261 C 
BRANCH   2   3
ATOM      3  O   UNL A   1      33.454  27.729  26.805  1.00  0.00    -0.459 OA
BRANCH   3   4
ATOM      4  C   UNL A   1      32.099  27.616  26.856  1.00  0.00     0.364 C 
ATOM      5  O   UNL A   1      31.390  27.976  27.785  1.00  0.00    -0.245 OA
BRANCH   4   6
ATOM      6  C   UNL A   1      31.501  27.032  25.586  1.00  0.00     0.295 C 
ATOM      7  N   UNL A   1      30.782  28.052  24.752  1.00  0.00    -0.323 N 
ATOM      8  C   UNL A   1      30.220  27.361  23.563  1.00  0.00     0.262 C 
ATOM      9  H   UNL A   1      30.051  28.480  25.319  1.00  0.00     0.348 HD
ATOM     10  C   UNL A   1      29.324  26.167  23.905  1.00  0.00     0.062 C 
ATOM     11  C   UNL A   1      30.619  25.842  25.989  1.00  0.00     0.078 C 
ATOM     12  C   UNL A   1      30.053  25.148  24.768  1.00  0.00     0.013 C 
BRANCH   7  13
ATOM     13  C   UNL A   1      31.700  29.129  24.287  1.00  0.00     0.266 C 
BRANCH  13  14
ATOM     14  C   UNL A   1      32.141  29.064  22.805  1.00  0.00     0.103 C 
BRANCH  14  15
ATOM     15  C   UNL A   1      33.495  28.407  22.503  1.00  0.00     0.235 C 
BRANCH  15  16
ATOM     16  O   UNL A   1      33.976  27.530  23.555  1.00  0.00    -0.493 OA
BRANCH  16  17
ATOM     17  C   UNL A   1      33.782  26.200  23.297  1.00  0.00     0.119 A 
ATOM     18  C   UNL A   1      32.400  22.175  22.732  1.00  0.00     0.044 C 
ATOM     19  C   UNL A   1      33.058  23.516  22.911  1.00  0.00    -0.048 A 
ATOM     20  C   UNL A   1      32.853  24.473  21.907  1.00  0.00     0.007 A 
ATOM     21  C   UNL A   1      33.823  23.871  24.039  1.00  0.00    -0.045 A 
ATOM     22  C   UNL A   1      33.233  25.800  22.091  1.00  0.00     0.047 A 
ATOM     23  C   UNL A   1      34.182  25.228  24.221  1.00  0.00     0.050 A 
ATOM     24  C   UNL A   1      34.282  22.841  25.037  1.00  0.00     0.045 C 
ENDBRANCH  16  17
ENDBRANCH  15  16
ENDBRANCH  14  15
ENDBRANCH  13  14
ENDBRANCH   7  13
ENDBRANCH   4   6
ENDBRANCH   3   4
ENDBRANCH   2   3
ENDBRANCH   1   2
BRANCH   1  25
ATOM     25  O   UNL A   1      33.578  31.338  27.817  1.00  0.00    -0.374 OA
BRANCH  25  26
ATOM     26  C   UNL A   1      34.640  32.194  28.227  1.00  0.00     0.202 C 
BRANCH  26  27
ATOM     27  C   UNL A   1      35.317  31.874  29.561  1.00  0.00     0.261 C 
BRANCH  27  28
ATOM     28  O   UNL A   1      36.102  30.677  29.471  1.00  0.00    -0.460 OA
BRANCH  28  29
ATOM     29  C   UNL A   1      36.760  30.332  30.608  1.00  0.00     0.338 C 
ATOM     30  O   UNL A   1      36.275  29.958  31.657  1.00  0.00    -0.246 OA
BRANCH  29  31
ATOM     31  C   UNL A   1      38.203  30.235  30.292  1.00  0.00     0.060 A 
ATOM     32  C   UNL A   1      38.586  30.278  28.940  1.00  0.00     0.016 A 
ATOM     33  C   UNL A   1      39.158  30.123  31.302  1.00  0.00     0.016 A 
ATOM     34  C   UNL A   1      39.925  30.138  28.590  1.00  0.00     0.010 A 
ATOM     35  C   UNL A   1      40.495  29.964  30.952  1.00  0.00     0.010 A 
ATOM     36  C   UNL A   1      40.869  29.916  29.596  1.00  0.00    -0.014 A 
BRANCH  36  37
ATOM     37  C   UNL A   1      42.185  29.337  29.265  1.00  0.00     0.031 A 
ATOM     38  C   UNL A   1      43.345  30.291  29.203  1.00  0.00     0.074 A 
ATOM     39  C   UNL A   1      42.323  28.037  28.964  1.00  0.00     0.049 A 
ATOM     40  N   UNL A   1      44.544  30.110  28.724  1.00  0.00    -0.248 NA
ATOM     41  C   UNL A   1      43.105  31.646  29.734  1.00  0.00     0.031 C 
ATOM     42  C   UNL A   1      41.264  27.032  29.044  1.00  0.00     0.029 A 
ATOM     43  N   UNL A   1      43.409  27.348  28.490  1.00  0.00    -0.354 N 
ATOM     44  C   UNL A   1      45.189  31.335  28.864  1.00  0.00     0.074 A 
ATOM     45  C   UNL A   1      44.247  32.255  29.458  1.00  0.00     0.031 C 
ATOM     46  C   UNL A   1      41.744  25.859  28.594  1.00  0.00     0.029 A 
ATOM     47  C   UNL A   1      43.124  26.047  28.151  1.00  0.00     0.049 A 
ATOM     48  H   UNL A   1      44.305  27.747  28.402  1.00  0.00     0.167 HD
ATOM     49  C   UNL A   1      46.456  31.657  28.521  1.00  0.00     0.037 A 
ATOM     50  C   UNL A   1      43.886  25.137  27.511  1.00  0.00     0.037 A 
ATOM     51  C   UNL A   1      47.370  30.716  27.933  1.00  0.00     0.049 A 
ATOM     52  C   UNL A   1      45.279  25.532  27.087  1.00  0.00     0.074 A 
ATOM     53  C   UNL A   1      48.686  30.914  27.561  1.00  0.00     0.029 A 
ATOM     54  N   UNL A   1      47.055  29.400  27.628  1.00  0.00    -0.354 N 
ATOM     55  N   UNL A   1      45.890  26.685  27.235  1.00  0.00    -0.248 NA
ATOM     56  C   UNL A   1      46.087  24.509  26.410  1.00  0.00     0.031 C 
ATOM     57  C   UNL A   1      49.151  29.730  26.980  1.00  0.00     0.029 A 
ATOM     58  C   UNL A   1      48.145  28.776  27.051  1.00  0.00     0.049 A 
ATOM     59  H   UNL A   1      46.184  28.973  27.796  1.00  0.00     0.167 HD
ATOM     60  C   UNL A   1      47.164  26.514  26.704  1.00  0.00     0.074 A 
ATOM     61  C   UNL A   1      47.236  25.147  26.231  1.00  0.00     0.031 C 
ATOM     62  C   UNL A   1      48.188  27.401  26.618  1.00  0.00     0.037 A 
BRANCH  49  63
ATOM     63  C   UNL A   1      46.908  33.073  28.739  1.00  0.00     0.058 A 
ATOM     64  C   UNL A   1      46.754  34.063  27.755  1.00  0.00     0.135 A 
ATOM     65  C   UNL A   1      47.479  33.453  29.965  1.00  0.00     0.135 A 
ATOM     66  F   UNL A   1      46.241  33.749  26.555  1.00  0.00    -0.206 F 
ATOM     67  C   UNL A   1      47.165  35.374  27.972  1.00  0.00     0.059 A 
ATOM     68  C   UNL A   1      47.869  34.766  30.215  1.00  0.00     0.059 A 
ATOM     69  F   UNL A   1      47.663  32.545  30.937  1.00  0.00    -0.206 F 
ATOM     70  C   UNL A   1      47.716  35.717  29.207  1.00  0.00     0.060 A 
BRANCH  70  71
ATOM     71  S   UNL A   1      48.217  37.429  29.481  1.00  0.00     0.124 S 
ATOM     72  O   UNL A   1      46.940  38.127  29.382  1.00  0.00    -0.237 OA
ATOM     73  O   UNL A   1      48.805  37.370  30.815  1.00  0.00    -0.237 OA
ATOM     74  O   UNL A   1      49.159  37.687  28.396  1.00  0.00    -0.744 OA
ENDBRANCH  70  71
ENDBRANCH  49  63
BRANCH  50  75
ATOM     75  C   UNL A   1      43.342  23.785  27.211  1.00  0.00     0.058 A 
ATOM     76  C   UNL A   1      43.388  22.758  28.164  1.00  0.00     0.135 A 
ATOM     77  C   UNL A   1      42.759  23.492  25.967  1.00  0.00     0.135 A 
ATOM     78  F   UNL A   1      43.944  22.984  29.365  1.00  0.00    -0.206 F 
ATOM     79  C   UNL A   1      42.895  21.486  27.893  1.00  0.00     0.059 A 
ATOM     80  C   UNL A   1      42.233  22.236  25.681  1.00  0.00     0.059 A 
ATOM     81  F   UNL A   1      42.675  24.441  25.021  1.00  0.00    -0.206 F 
ATOM     82  C   UNL A   1      42.316  21.234  26.648  1.00  0.00     0.060 A 
BRANCH  82  83
ATOM     83  S   UNL A   1      41.646  19.589  26.322  1.00  0.00     0.124 S 
ATOM     84  O   UNL A   1      42.005  18.878  27.543  1.00  0.00    -0.237 OA
ATOM     85  O   UNL A   1      40.225  19.870  26.140  1.00  0.00    -0.237 OA
ATOM     86  O   UNL A   1      42.355  19.171  25.115  1.00  0.00    -0.744 OA
ENDBRANCH  82  83
ENDBRANCH  50  75
BRANCH  62  87
ATOM     87  C   UNL A   1      49.492  26.914  26.053  1.00  0.00     0.058 A 
ATOM     88  C   UNL A   1      49.829  27.099  24.704  1.00  0.00     0.135 A 
ATOM     89  C   UNL A   1      50.459  26.357  26.906  1.00  0.00     0.135 A 
ATOM     90  F   UNL A   1      48.937  27.622  23.849  1.00  0.00    -0.206 F 
ATOM     91  C   UNL A   1      51.083  26.744  24.219  1.00  0.00     0.059 A 
ATOM     92  C   UNL A   1      51.728  26.023  26.448  1.00  0.00     0.059 A 
ATOM     93  F   UNL A   1      50.187  26.172  28.208  1.00  0.00    -0.206 F 
ATOM     94  C   UNL A   1      52.030  26.218  25.101  1.00  0.00     0.060 A 
BRANCH  94  95
ATOM     95  S   UNL A   1      53.677  25.835  24.473  1.00  0.00     0.124 S 
ATOM     96  O   UNL A   1      53.774  24.407  24.752  1.00  0.00    -0.237 OA
ATOM     97  O   UNL A   1      53.565  26.201  23.065  1.00  0.00    -0.237 OA
ATOM     98  O   UNL A   1      54.553  26.691  25.268  1.00  0.00    -0.744 OA
ENDBRANCH  94  95
ENDBRANCH  62  87
ENDBRANCH  36  37
ENDBRANCH  29  31
ENDBRANCH  28  29
ENDBRANCH  27  28
ENDBRANCH  26  27
ENDBRANCH  25  26
ENDBRANCH   1  25
TORSDOF 22
ENDMDL
