MODEL 1
REMARK VINA RESULT:     -10.4      0.000      0.000
REMARK SMILES Nn1c(Cc2ccc(F)c(F)c2)nnc1SCC(=O)OCCOCCOC(=O)c1ccc(-c2c3nc(c(-c4c(F)cc(S(=O)(=O)[O-])cc4F)c4ccc([nH]4)c(-c4c(F)cc(S(=O)(=O)[O-])cc4F)c4nc(c(-c5c(F)cc(S(=O)(=O)[O-])cc5F)c5ccc2[nH]5)C=C4)C=C3)cc1
REMARK SMILES IDX 22 1 21 2 20 3 18 4 19 5 17 6 16 7 15 8 2 9 3 10 13 11 14 12
REMARK SMILES IDX 1 13 4 16 5 17 6 18 12 19 7 20 10 21 8 22 11 23 9 24 23 25
REMARK SMILES IDX 24 26 25 27 26 28 27 29 28 30 29 31 30 32 94 33 31 34 93 35
REMARK SMILES IDX 32 36 33 37 34 38 87 39 35 40 92 41 86 42 88 43 36 44 91 45
REMARK SMILES IDX 85 46 84 47 37 49 71 50 50 51 70 52 51 53 54 54 69 55 89 56
REMARK SMILES IDX 52 57 53 58 68 60 90 61 55 62 38 63 39 64 48 65 40 66 41 67
REMARK SMILES IDX 47 68 49 69 42 70 43 71 44 72 45 73 46 74 72 75 73 76 82 77
REMARK SMILES IDX 74 78 75 79 81 80 83 81 76 82 77 83 78 84 79 85 80 86 56 87
REMARK SMILES IDX 57 88 66 89 58 90 59 91 65 92 67 93 60 94 61 95 62 96 63 97
REMARK SMILES IDX 64 98
REMARK H PARENT 1 14 1 15 88 48 54 59
REMARK Flexibility Score: inf
ROOT
ATOM      1  C   UNL A   1      43.336  21.149  25.986  1.00  0.00     0.202 C 
ENDROOT
BRANCH   1   2
ATOM      2  C   UNL A   1      42.300  20.019  25.882  1.00  0.00     0.261 C 
BRANCH   2   3
ATOM      3  O   UNL A   1      41.262  20.041  26.889  1.00  0.00    -0.463 OA
BRANCH   3   4
ATOM      4  C   UNL A   1      40.585  21.212  27.040  1.00  0.00     0.316 C 
ATOM      5  O   UNL A   1      40.743  21.982  27.984  1.00  0.00    -0.251 OA
BRANCH   4   6
ATOM      6  C   UNL A   1      39.580  21.517  25.953  1.00  0.00     0.200 C 
BRANCH   6   7
ATOM      7  S   UNL A   1      38.554  22.954  26.207  1.00  0.00    -0.073 SA
BRANCH   7   8
ATOM      8  C   UNL A   1      36.889  22.625  25.861  1.00  0.00     0.210 A 
ATOM      9  N   UNL A   1      36.225  21.431  25.647  1.00  0.00    -0.221 N 
ATOM     10  C   UNL A   1      34.887  21.718  25.904  1.00  0.00     0.157 A 
ATOM     11  N   UNL A   1      34.749  23.028  25.947  1.00  0.00    -0.132 NA
ATOM     12  N   UNL A   1      35.995  23.589  25.944  1.00  0.00    -0.121 NA
BRANCH   9  13
ATOM     13  N   UNL A   1      36.750  20.171  25.210  1.00  0.00    -0.336 N 
ATOM     14  H   UNL A   1      37.574  19.815  25.614  1.00  0.00     0.178 HD
ATOM     15  H   UNL A   1      36.287  19.663  24.506  1.00  0.00     0.178 HD
ENDBRANCH   9  13
BRANCH  10  16
ATOM     16  C   UNL A   1      33.789  20.725  26.155  1.00  0.00     0.115 C 
BRANCH  16  17
ATOM     17  C   UNL A   1      33.288  19.989  24.910  1.00  0.00    -0.037 A 
ATOM     18  C   UNL A   1      32.578  20.655  23.892  1.00  0.00     0.007 A 
ATOM     19  C   UNL A   1      33.572  18.623  24.724  1.00  0.00     0.046 A 
ATOM     20  C   UNL A   1      32.146  19.979  22.743  1.00  0.00     0.043 A 
ATOM     21  C   UNL A   1      33.137  17.955  23.574  1.00  0.00     0.159 A 
ATOM     22  C   UNL A   1      32.430  18.629  22.590  1.00  0.00     0.158 A 
ATOM     23  F   UNL A   1      33.425  16.653  23.426  1.00  0.00    -0.204 F 
ATOM     24  F   UNL A   1      32.038  17.992  21.477  1.00  0.00    -0.204 F 
ENDBRANCH  16  17
ENDBRANCH  10  16
ENDBRANCH   7   8
ENDBRANCH   6   7
ENDBRANCH   4   6
ENDBRANCH   3   4
ENDBRANCH   2   3
ENDBRANCH   1   2
BRANCH   1  25
ATOM     25  O   UNL A   1      43.651  21.881  24.802  1.00  0.00    -0.374 OA
BRANCH  25  26
ATOM     26  C   UNL A   1      43.195  23.221  24.722  1.00  0.00     0.202 C 
BRANCH  26  27
ATOM     27  C   UNL A   1      43.135  24.049  26.002  1.00  0.00     0.261 C 
BRANCH  27  28
ATOM     28  O   UNL A   1      41.887  24.674  26.243  1.00  0.00    -0.460 OA
BRANCH  28  29
ATOM     29  C   UNL A   1      41.935  26.014  26.101  1.00  0.00     0.338 C 
ATOM     30  O   UNL A   1      41.895  26.672  25.068  1.00  0.00    -0.246 OA
BRANCH  29  31
ATOM     31  C   UNL A   1      41.891  26.601  27.430  1.00  0.00     0.060 A 
ATOM     32  C   UNL A   1      40.878  26.170  28.289  1.00  0.00     0.016 A 
ATOM     33  C   UNL A   1      42.808  27.589  27.793  1.00  0.00     0.016 A 
ATOM     34  C   UNL A   1      40.741  26.779  29.525  1.00  0.00     0.010 A 
ATOM     35  C   UNL A   1      42.665  28.200  29.030  1.00  0.00     0.010 A 
ATOM     36  C   UNL A   1      41.608  27.821  29.876  1.00  0.00    -0.014 A 
BRANCH  36  37
ATOM     37  C   UNL A   1      41.298  28.651  31.051  1.00  0.00     0.031 A 
ATOM     38  C   UNL A   1      40.171  29.633  30.940  1.00  0.00     0.074 A 
ATOM     39  C   UNL A   1      42.016  28.512  32.176  1.00  0.00     0.049 A 
ATOM     40  N   UNL A   1      39.774  30.533  31.797  1.00  0.00    -0.248 NA
ATOM     41  C   UNL A   1      39.390  29.601  29.690  1.00  0.00     0.031 C 
ATOM     42  C   UNL A   1      43.098  27.547  32.372  1.00  0.00     0.029 A 
ATOM     43  N   UNL A   1      41.951  29.195  33.360  1.00  0.00    -0.354 N 
ATOM     44  C   UNL A   1      38.708  31.184  31.188  1.00  0.00     0.074 A 
ATOM     45  C   UNL A   1      38.536  30.597  29.878  1.00  0.00     0.031 C 
ATOM     46  C   UNL A   1      43.609  27.713  33.605  1.00  0.00     0.029 A 
ATOM     47  C   UNL A   1      42.916  28.818  34.260  1.00  0.00     0.049 A 
ATOM     48  H   UNL A   1      41.277  29.887  33.547  1.00  0.00     0.167 HD
ATOM     49  C   UNL A   1      37.941  32.178  31.688  1.00  0.00     0.037 A 
ATOM     50  C   UNL A   1      43.217  29.337  35.465  1.00  0.00     0.037 A 
ATOM     51  C   UNL A   1      38.141  32.744  32.994  1.00  0.00     0.049 A 
ATOM     52  C   UNL A   1      42.390  30.490  35.974  1.00  0.00     0.074 A 
ATOM     53  C   UNL A   1      37.433  33.754  33.614  1.00  0.00     0.029 A 
ATOM     54  N   UNL A   1      39.133  32.342  33.881  1.00  0.00    -0.354 N 
ATOM     55  N   UNL A   1      41.379  31.096  35.397  1.00  0.00    -0.248 NA
ATOM     56  C   UNL A   1      42.743  31.031  37.294  1.00  0.00     0.031 C 
ATOM     57  C   UNL A   1      38.024  33.997  34.858  1.00  0.00     0.029 A 
ATOM     58  C   UNL A   1      39.065  33.096  35.037  1.00  0.00     0.049 A 
ATOM     59  H   UNL A   1      39.787  31.626  33.711  1.00  0.00     0.167 HD
ATOM     60  C   UNL A   1      40.948  32.063  36.298  1.00  0.00     0.074 A 
ATOM     61  C   UNL A   1      41.814  31.963  37.457  1.00  0.00     0.031 C 
ATOM     62  C   UNL A   1      39.928  32.948  36.184  1.00  0.00     0.037 A 
BRANCH  49  63
ATOM     63  C   UNL A   1      36.849  32.726  30.813  1.00  0.00     0.058 A 
ATOM     64  C   UNL A   1      37.106  33.687  29.822  1.00  0.00     0.135 A 
ATOM     65  C   UNL A   1      35.528  32.270  30.954  1.00  0.00     0.135 A 
ATOM     66  F   UNL A   1      38.348  34.175  29.660  1.00  0.00    -0.206 F 
ATOM     67  C   UNL A   1      36.091  34.193  29.019  1.00  0.00     0.059 A 
ATOM     68  C   UNL A   1      34.501  32.742  30.142  1.00  0.00     0.059 A 
ATOM     69  F   UNL A   1      35.224  31.358  31.891  1.00  0.00    -0.206 F 
ATOM     70  C   UNL A   1      34.791  33.714  29.185  1.00  0.00     0.060 A 
BRANCH  70  71
ATOM     71  S   UNL A   1      33.486  34.373  28.126  1.00  0.00     0.124 S 
ATOM     72  O   UNL A   1      32.732  35.194  29.067  1.00  0.00    -0.237 OA
ATOM     73  O   UNL A   1      34.245  35.102  27.114  1.00  0.00    -0.237 OA
ATOM     74  O   UNL A   1      32.799  33.176  27.647  1.00  0.00    -0.744 OA
ENDBRANCH  70  71
ENDBRANCH  49  63
BRANCH  50  75
ATOM     75  C   UNL A   1      44.344  28.779  36.256  1.00  0.00     0.058 A 
ATOM     76  C   UNL A   1      45.623  29.347  36.190  1.00  0.00     0.135 A 
ATOM     77  C   UNL A   1      44.159  27.680  37.110  1.00  0.00     0.135 A 
ATOM     78  F   UNL A   1      45.852  30.398  35.388  1.00  0.00    -0.206 F 
ATOM     79  C   UNL A   1      46.686  28.835  36.929  1.00  0.00     0.059 A 
ATOM     80  C   UNL A   1      45.199  27.166  37.878  1.00  0.00     0.059 A 
ATOM     81  F   UNL A   1      42.949  27.111  37.223  1.00  0.00    -0.206 F 
ATOM     82  C   UNL A   1      46.463  27.745  37.772  1.00  0.00     0.060 A 
BRANCH  82  83
ATOM     83  S   UNL A   1      47.839  27.117  38.757  1.00  0.00     0.124 S 
ATOM     84  O   UNL A   1      48.093  25.829  38.120  1.00  0.00    -0.237 OA
ATOM     85  O   UNL A   1      48.856  28.143  38.552  1.00  0.00    -0.237 OA
ATOM     86  O   UNL A   1      47.286  27.055  40.106  1.00  0.00    -0.744 OA
ENDBRANCH  82  83
ENDBRANCH  50  75
BRANCH  62  87
ATOM     87  C   UNL A   1      39.644  33.838  37.361  1.00  0.00     0.058 A 
ATOM     88  C   UNL A   1      38.801  33.434  38.406  1.00  0.00     0.135 A 
ATOM     89  C   UNL A   1      40.316  35.064  37.488  1.00  0.00     0.135 A 
ATOM     90  F   UNL A   1      38.130  32.275  38.325  1.00  0.00    -0.206 F 
ATOM     91  C   UNL A   1      38.632  34.220  39.540  1.00  0.00     0.059 A 
ATOM     92  C   UNL A   1      40.183  35.852  38.625  1.00  0.00     0.059 A 
ATOM     93  F   UNL A   1      41.141  35.487  36.518  1.00  0.00    -0.206 F 
ATOM     94  C   UNL A   1      39.336  35.422  39.645  1.00  0.00     0.060 A 
BRANCH  94  95
ATOM     95  S   UNL A   1      39.169  36.392  41.158  1.00  0.00     0.124 S 
ATOM     96  O   UNL A   1      40.475  36.200  41.777  1.00  0.00    -0.237 OA
ATOM     97  O   UNL A   1      38.903  37.731  40.640  1.00  0.00    -0.237 OA
ATOM     98  O   UNL A   1      38.048  35.759  41.846  1.00  0.00    -0.744 OA
ENDBRANCH  94  95
ENDBRANCH  62  87
ENDBRANCH  36  37
ENDBRANCH  29  31
ENDBRANCH  28  29
ENDBRANCH  27  28
ENDBRANCH  26  27
ENDBRANCH  25  26
ENDBRANCH   1  25
TORSDOF 22
ENDMDL
MODEL 2
REMARK VINA RESULT:     -10.3      6.687     14.509
REMARK SMILES Nn1c(Cc2ccc(F)c(F)c2)nnc1SCC(=O)OCCOCCOC(=O)c1ccc(-c2c3nc(c(-c4c(F)cc(S(=O)(=O)[O-])cc4F)c4ccc([nH]4)c(-c4c(F)cc(S(=O)(=O)[O-])cc4F)c4nc(c(-c5c(F)cc(S(=O)(=O)[O-])cc5F)c5ccc2[nH]5)C=C4)C=C3)cc1
REMARK SMILES IDX 22 1 21 2 20 3 18 4 19 5 17 6 16 7 15 8 2 9 3 10 13 11 14 12
REMARK SMILES IDX 1 13 4 16 5 17 6 18 12 19 7 20 10 21 8 22 11 23 9 24 23 25
REMARK SMILES IDX 24 26 25 27 26 28 27 29 28 30 29 31 30 32 94 33 31 34 93 35
REMARK SMILES IDX 32 36 33 37 34 38 87 39 35 40 92 41 86 42 88 43 36 44 91 45
REMARK SMILES IDX 85 46 84 47 37 49 71 50 50 51 70 52 51 53 54 54 69 55 89 56
REMARK SMILES IDX 52 57 53 58 68 60 90 61 55 62 38 63 39 64 48 65 40 66 41 67
REMARK SMILES IDX 47 68 49 69 42 70 43 71 44 72 45 73 46 74 72 75 73 76 82 77
REMARK SMILES IDX 74 78 75 79 81 80 83 81 76 82 77 83 78 84 79 85 80 86 56 87
REMARK SMILES IDX 57 88 66 89 58 90 59 91 65 92 67 93 60 94 61 95 62 96 63 97
REMARK SMILES IDX 64 98
REMARK H PARENT 1 14 1 15 88 48 54 59
REMARK Flexibility Score: inf
ROOT
ATOM      1  C   UNL A   1      33.429  35.510  29.545  1.00  0.00     0.202 C 
ENDROOT
BRANCH   1   2
ATOM      2  C   UNL A   1      33.007  36.334  30.771  1.00  0.00     0.261 C 
BRANCH   2   3
ATOM      3  O   UNL A   1      32.841  35.579  31.992  1.00  0.00    -0.463 OA
BRANCH   3   4
ATOM      4  C   UNL A   1      33.888  35.590  32.862  1.00  0.00     0.316 C 
ATOM      5  O   UNL A   1      34.401  36.612  33.310  1.00  0.00    -0.251 OA
BRANCH   4   6
ATOM      6  C   UNL A   1      34.415  34.227  33.249  1.00  0.00     0.200 C 
BRANCH   6   7
ATOM      7  S   UNL A   1      35.999  34.196  34.069  1.00  0.00    -0.073 SA
BRANCH   7   8
ATOM      8  C   UNL A   1      37.307  34.380  32.948  1.00  0.00     0.210 A 
ATOM      9  N   UNL A   1      38.669  34.190  33.103  1.00  0.00    -0.221 N 
ATOM     10  C   UNL A   1      39.150  34.003  31.810  1.00  0.00     0.157 A 
ATOM     11  N   UNL A   1      38.209  34.372  30.964  1.00  0.00    -0.132 NA
ATOM     12  N   UNL A   1      37.058  34.582  31.671  1.00  0.00    -0.121 NA
BRANCH   9  13
ATOM     13  N   UNL A   1      39.454  34.222  34.301  1.00  0.00    -0.336 N 
ATOM     14  H   UNL A   1      40.422  34.399  34.251  1.00  0.00     0.178 HD
ATOM     15  H   UNL A   1      39.027  34.067  35.174  1.00  0.00     0.178 HD
ENDBRANCH   9  13
BRANCH  10  16
ATOM     16  C   UNL A   1      40.481  33.426  31.423  1.00  0.00     0.115 C 
BRANCH  16  17
ATOM     17  C   UNL A   1      41.408  34.386  30.674  1.00  0.00    -0.037 A 
ATOM     18  C   UNL A   1      42.663  34.759  31.194  1.00  0.00     0.007 A 
ATOM     19  C   UNL A   1      41.049  34.888  29.409  1.00  0.00     0.046 A 
ATOM     20  C   UNL A   1      43.517  35.619  30.490  1.00  0.00     0.043 A 
ATOM     21  C   UNL A   1      41.906  35.746  28.713  1.00  0.00     0.159 A 
ATOM     22  C   UNL A   1      43.133  36.108  29.249  1.00  0.00     0.158 A 
ATOM     23  F   UNL A   1      41.534  36.205  27.509  1.00  0.00    -0.204 F 
ATOM     24  F   UNL A   1      43.964  36.909  28.567  1.00  0.00    -0.204 F 
ENDBRANCH  16  17
ENDBRANCH  10  16
ENDBRANCH   7   8
ENDBRANCH   6   7
ENDBRANCH   4   6
ENDBRANCH   3   4
ENDBRANCH   2   3
ENDBRANCH   1   2
BRANCH   1  25
ATOM     25  O   UNL A   1      33.429  34.087  29.661  1.00  0.00    -0.374 OA
BRANCH  25  26
ATOM     26  C   UNL A   1      34.598  33.398  29.249  1.00  0.00     0.202 C 
BRANCH  26  27
ATOM     27  C   UNL A   1      35.085  32.220  30.087  1.00  0.00     0.261 C 
BRANCH  27  28
ATOM     28  O   UNL A   1      36.375  31.747  29.746  1.00  0.00    -0.460 OA
BRANCH  28  29
ATOM     29  C   UNL A   1      36.933  30.998  30.719  1.00  0.00     0.338 C 
ATOM     30  O   UNL A   1      36.495  30.754  31.837  1.00  0.00    -0.246 OA
BRANCH  29  31
ATOM     31  C   UNL A   1      38.122  30.371  30.166  1.00  0.00     0.060 A 
ATOM     32  C   UNL A   1      39.132  30.007  31.060  1.00  0.00     0.016 A 
ATOM     33  C   UNL A   1      38.246  30.194  28.787  1.00  0.00     0.016 A 
ATOM     34  C   UNL A   1      40.320  29.501  30.562  1.00  0.00     0.010 A 
ATOM     35  C   UNL A   1      39.440  29.691  28.291  1.00  0.00     0.010 A 
ATOM     36  C   UNL A   1      40.488  29.384  29.176  1.00  0.00    -0.014 A 
BRANCH  36  37
ATOM     37  C   UNL A   1      41.829  29.117  28.633  1.00  0.00     0.031 A 
ATOM     38  C   UNL A   1      42.150  27.714  28.212  1.00  0.00     0.074 A 
ATOM     39  C   UNL A   1      42.719  30.116  28.524  1.00  0.00     0.049 A 
ATOM     40  N   UNL A   1      43.283  27.216  27.799  1.00  0.00    -0.248 NA
ATOM     41  C   UNL A   1      41.046  26.739  28.274  1.00  0.00     0.031 C 
ATOM     42  C   UNL A   1      42.463  31.514  28.872  1.00  0.00     0.029 A 
ATOM     43  N   UNL A   1      44.021  30.102  28.106  1.00  0.00    -0.354 N 
ATOM     44  C   UNL A   1      43.034  25.869  27.564  1.00  0.00     0.074 A 
ATOM     45  C   UNL A   1      41.652  25.620  27.907  1.00  0.00     0.031 C 
ATOM     46  C   UNL A   1      43.585  32.225  28.666  1.00  0.00     0.029 A 
ATOM     47  C   UNL A   1      44.641  31.323  28.214  1.00  0.00     0.049 A 
ATOM     48  H   UNL A   1      44.468  29.297  27.760  1.00  0.00     0.167 HD
ATOM     49  C   UNL A   1      43.888  24.932  27.096  1.00  0.00     0.037 A 
ATOM     50  C   UNL A   1      45.927  31.654  27.998  1.00  0.00     0.037 A 
ATOM     51  C   UNL A   1      45.259  25.211  26.769  1.00  0.00     0.049 A 
ATOM     52  C   UNL A   1      46.878  30.578  27.541  1.00  0.00     0.074 A 
ATOM     53  C   UNL A   1      46.225  24.348  26.288  1.00  0.00     0.029 A 
ATOM     54  N   UNL A   1      45.858  26.458  26.895  1.00  0.00    -0.354 N 
ATOM     55  N   UNL A   1      46.635  29.308  27.314  1.00  0.00    -0.248 NA
ATOM     56  C   UNL A   1      48.274  30.975  27.312  1.00  0.00     0.031 C 
ATOM     57  C   UNL A   1      47.421  25.062  26.167  1.00  0.00     0.029 A 
ATOM     58  C   UNL A   1      47.185  26.385  26.516  1.00  0.00     0.049 A 
ATOM     59  H   UNL A   1      45.405  27.275  27.208  1.00  0.00     0.167 HD
ATOM     60  C   UNL A   1      47.837  28.762  26.877  1.00  0.00     0.074 A 
ATOM     61  C   UNL A   1      48.806  29.841  26.877  1.00  0.00     0.031 C 
ATOM     62  C   UNL A   1      48.114  27.489  26.502  1.00  0.00     0.037 A 
BRANCH  49  63
ATOM     63  C   UNL A   1      43.371  23.529  26.945  1.00  0.00     0.058 A 
ATOM     64  C   UNL A   1      43.137  22.701  28.054  1.00  0.00     0.135 A 
ATOM     65  C   UNL A   1      43.088  23.009  25.671  1.00  0.00     0.135 A 
ATOM     66  F   UNL A   1      43.412  23.140  29.295  1.00  0.00    -0.206 F 
ATOM     67  C   UNL A   1      42.663  21.403  27.907  1.00  0.00     0.059 A 
ATOM     68  C   UNL A   1      42.587  21.722  25.501  1.00  0.00     0.059 A 
ATOM     69  F   UNL A   1      43.302  23.753  24.574  1.00  0.00    -0.206 F 
ATOM     70  C   UNL A   1      42.389  20.921  26.626  1.00  0.00     0.060 A 
BRANCH  70  71
ATOM     71  S   UNL A   1      41.762  19.237  26.452  1.00  0.00     0.124 S 
ATOM     72  O   UNL A   1      42.012  18.694  27.782  1.00  0.00    -0.237 OA
ATOM     73  O   UNL A   1      40.361  19.461  26.110  1.00  0.00    -0.237 OA
ATOM     74  O   UNL A   1      42.583  18.678  25.381  1.00  0.00    -0.744 OA
ENDBRANCH  70  71
ENDBRANCH  49  63
BRANCH  50  75
ATOM     75  C   UNL A   1      46.382  33.052  28.219  1.00  0.00     0.058 A 
ATOM     76  C   UNL A   1      46.905  33.455  29.454  1.00  0.00     0.135 A 
ATOM     77  C   UNL A   1      46.324  34.006  27.190  1.00  0.00     0.135 A 
ATOM     78  F   UNL A   1      46.981  32.581  30.469  1.00  0.00    -0.206 F 
ATOM     79  C   UNL A   1      47.337  34.760  29.671  1.00  0.00     0.059 A 
ATOM     80  C   UNL A   1      46.773  35.310  27.374  1.00  0.00     0.059 A 
ATOM     81  F   UNL A   1      45.848  33.666  25.981  1.00  0.00    -0.206 F 
ATOM     82  C   UNL A   1      47.269  35.680  28.623  1.00  0.00     0.060 A 
BRANCH  82  83
ATOM     83  S   UNL A   1      47.872  37.358  28.904  1.00  0.00     0.124 S 
ATOM     84  O   UNL A   1      46.936  38.144  28.109  1.00  0.00    -0.237 OA
ATOM     85  O   UNL A   1      47.749  37.490  30.352  1.00  0.00    -0.237 OA
ATOM     86  O   UNL A   1      49.242  37.311  28.401  1.00  0.00    -0.744 OA
ENDBRANCH  82  83
ENDBRANCH  50  75
BRANCH  62  87
ATOM     87  C   UNL A   1      49.500  27.198  26.001  1.00  0.00     0.058 A 
ATOM     88  C   UNL A   1      50.531  26.804  26.865  1.00  0.00     0.135 A 
ATOM     89  C   UNL A   1      49.761  27.209  24.621  1.00  0.00     0.135 A 
ATOM     90  F   UNL A   1      50.332  26.786  28.192  1.00  0.00    -0.206 F 
ATOM     91  C   UNL A   1      51.778  26.432  26.377  1.00  0.00     0.059 A 
ATOM     92  C   UNL A   1      50.992  26.815  24.110  1.00  0.00     0.059 A 
ATOM     93  F   UNL A   1      48.802  27.570  23.754  1.00  0.00    -0.206 F 
ATOM     94  C   UNL A   1      51.995  26.430  24.997  1.00  0.00     0.060 A 
BRANCH  94  95
ATOM     95  S   UNL A   1      53.593  25.868  24.374  1.00  0.00     0.124 S 
ATOM     96  O   UNL A   1      53.527  24.435  24.642  1.00  0.00    -0.237 OA
ATOM     97  O   UNL A   1      53.532  26.254  22.968  1.00  0.00    -0.237 OA
ATOM     98  O   UNL A   1      54.555  26.614  25.180  1.00  0.00    -0.744 OA
ENDBRANCH  94  95
ENDBRANCH  62  87
ENDBRANCH  36  37
ENDBRANCH  29  31
ENDBRANCH  28  29
ENDBRANCH  27  28
ENDBRANCH  26  27
ENDBRANCH  25  26
ENDBRANCH   1  25
TORSDOF 22
ENDMDL
MODEL 3
REMARK VINA RESULT:     -10.2      5.455     11.943
REMARK SMILES Nn1c(Cc2ccc(F)c(F)c2)nnc1SCC(=O)OCCOCCOC(=O)c1ccc(-c2c3nc(c(-c4c(F)cc(S(=O)(=O)[O-])cc4F)c4ccc([nH]4)c(-c4c(F)cc(S(=O)(=O)[O-])cc4F)c4nc(c(-c5c(F)cc(S(=O)(=O)[O-])cc5F)c5ccc2[nH]5)C=C4)C=C3)cc1
REMARK SMILES IDX 22 1 21 2 20 3 18 4 19 5 17 6 16 7 15 8 2 9 3 10 13 11 14 12
REMARK SMILES IDX 1 13 4 16 5 17 6 18 12 19 7 20 10 21 8 22 11 23 9 24 23 25
REMARK SMILES IDX 24 26 25 27 26 28 27 29 28 30 29 31 30 32 94 33 31 34 93 35
REMARK SMILES IDX 32 36 33 37 34 38 87 39 35 40 92 41 86 42 88 43 36 44 91 45
REMARK SMILES IDX 85 46 84 47 37 49 71 50 50 51 70 52 51 53 54 54 69 55 89 56
REMARK SMILES IDX 52 57 53 58 68 60 90 61 55 62 38 63 39 64 48 65 40 66 41 67
REMARK SMILES IDX 47 68 49 69 42 70 43 71 44 72 45 73 46 74 72 75 73 76 82 77
REMARK SMILES IDX 74 78 75 79 81 80 83 81 76 82 77 83 78 84 79 85 80 86 56 87
REMARK SMILES IDX 57 88 66 89 58 90 59 91 65 92 67 93 60 94 61 95 62 96 63 97
REMARK SMILES IDX 64 98
REMARK H PARENT 1 14 1 15 88 48 54 59
REMARK Flexibility Score: inf
ROOT
ATOM      1  C   UNL A   1      37.939  34.261  30.532  1.00  0.00     0.202 C 
ENDROOT
BRANCH   1   2
ATOM      2  C   UNL A   1      38.270  34.220  32.032  1.00  0.00     0.261 C 
BRANCH   2   3
ATOM      3  O   UNL A   1      37.130  34.312  32.917  1.00  0.00    -0.463 OA
BRANCH   3   4
ATOM      4  C   UNL A   1      36.962  33.292  33.802  1.00  0.00     0.316 C 
ATOM      5  O   UNL A   1      35.953  33.131  34.484  1.00  0.00    -0.251 OA
BRANCH   4   6
ATOM      6  C   UNL A   1      38.133  32.343  33.916  1.00  0.00     0.200 C 
BRANCH   6   7
ATOM      7  S   UNL A   1      37.786  30.621  33.604  1.00  0.00    -0.073 SA
BRANCH   7   8
ATOM      8  C   UNL A   1      39.236  29.677  33.526  1.00  0.00     0.210 A 
ATOM      9  N   UNL A   1      40.447  29.815  34.182  1.00  0.00    -0.221 N 
ATOM     10  C   UNL A   1      41.031  28.553  34.118  1.00  0.00     0.157 A 
ATOM     11  N   UNL A   1      40.369  27.838  33.230  1.00  0.00    -0.132 NA
ATOM     12  N   UNL A   1      39.242  28.528  32.881  1.00  0.00    -0.121 NA
BRANCH   9  13
ATOM     13  N   UNL A   1      41.028  30.987  34.766  1.00  0.00    -0.336 N 
ATOM     14  H   UNL A   1      42.004  31.049  34.878  1.00  0.00     0.178 HD
ATOM     15  H   UNL A   1      40.451  31.730  35.056  1.00  0.00     0.178 HD
ENDBRANCH   9  13
BRANCH  10  16
ATOM     16  C   UNL A   1      42.175  28.051  34.951  1.00  0.00     0.115 C 
BRANCH  16  17
ATOM     17  C   UNL A   1      42.853  26.786  34.419  1.00  0.00    -0.037 A 
ATOM     18  C   UNL A   1      43.762  26.830  33.344  1.00  0.00     0.007 A 
ATOM     19  C   UNL A   1      42.622  25.539  35.030  1.00  0.00     0.046 A 
ATOM     20  C   UNL A   1      44.398  25.670  32.880  1.00  0.00     0.043 A 
ATOM     21  C   UNL A   1      43.260  24.386  34.560  1.00  0.00     0.159 A 
ATOM     22  C   UNL A   1      44.144  24.451  33.493  1.00  0.00     0.158 A 
ATOM     23  F   UNL A   1      43.019  23.213  35.165  1.00  0.00    -0.204 F 
ATOM     24  F   UNL A   1      44.775  23.349  33.063  1.00  0.00    -0.204 F 
ENDBRANCH  16  17
ENDBRANCH  10  16
ENDBRANCH   7   8
ENDBRANCH   6   7
ENDBRANCH   4   6
ENDBRANCH   3   4
ENDBRANCH   2   3
ENDBRANCH   1   2
BRANCH   1  25
ATOM     25  O   UNL A   1      36.873  33.438  30.058  1.00  0.00    -0.374 OA
BRANCH  25  26
ATOM     26  C   UNL A   1      35.904  34.045  29.221  1.00  0.00     0.202 C 
BRANCH  26  27
ATOM     27  C   UNL A   1      34.592  33.307  28.969  1.00  0.00     0.261 C 
BRANCH  27  28
ATOM     28  O   UNL A   1      34.568  31.970  29.435  1.00  0.00    -0.460 OA
BRANCH  28  29
ATOM     29  C   UNL A   1      34.650  31.066  28.439  1.00  0.00     0.338 C 
ATOM     30  O   UNL A   1      33.881  30.897  27.499  1.00  0.00    -0.246 OA
BRANCH  29  31
ATOM     31  C   UNL A   1      35.926  30.382  28.567  1.00  0.00     0.060 A 
ATOM     32  C   UNL A   1      36.249  29.854  29.819  1.00  0.00     0.016 A 
ATOM     33  C   UNL A   1      36.798  30.311  27.480  1.00  0.00     0.016 A 
ATOM     34  C   UNL A   1      37.498  29.286  30.007  1.00  0.00     0.010 A 
ATOM     35  C   UNL A   1      38.050  29.746  27.673  1.00  0.00     0.010 A 
ATOM     36  C   UNL A   1      38.411  29.272  28.946  1.00  0.00    -0.014 A 
BRANCH  36  37
ATOM     37  C   UNL A   1      39.818  28.931  29.211  1.00  0.00     0.031 A 
ATOM     38  C   UNL A   1      40.700  29.993  29.794  1.00  0.00     0.074 A 
ATOM     39  C   UNL A   1      40.272  27.699  28.932  1.00  0.00     0.049 A 
ATOM     40  N   UNL A   1      41.984  29.965  30.024  1.00  0.00    -0.248 NA
ATOM     41  C   UNL A   1      40.047  31.264  30.162  1.00  0.00     0.031 C 
ATOM     42  C   UNL A   1      39.462  26.601  28.404  1.00  0.00     0.029 A 
ATOM     43  N   UNL A   1      41.530  27.172  29.041  1.00  0.00    -0.354 N 
ATOM     44  C   UNL A   1      42.296  31.213  30.549  1.00  0.00     0.074 A 
ATOM     45  C   UNL A   1      41.076  31.986  30.579  1.00  0.00     0.031 C 
ATOM     46  C   UNL A   1      40.252  25.530  28.218  1.00  0.00     0.029 A 
ATOM     47  C   UNL A   1      41.623  25.884  28.576  1.00  0.00     0.049 A 
ATOM     48  H   UNL A   1      42.292  27.669  29.416  1.00  0.00     0.167 HD
ATOM     49  C   UNL A   1      43.499  31.662  30.974  1.00  0.00     0.037 A 
ATOM     50  C   UNL A   1      42.707  25.099  28.431  1.00  0.00     0.037 A 
ATOM     51  C   UNL A   1      44.696  30.869  30.926  1.00  0.00     0.049 A 
ATOM     52  C   UNL A   1      44.048  25.646  28.849  1.00  0.00     0.074 A 
ATOM     53  C   UNL A   1      45.973  31.211  31.325  1.00  0.00     0.029 A 
ATOM     54  N   UNL A   1      44.757  29.567  30.445  1.00  0.00    -0.354 N 
ATOM     55  N   UNL A   1      44.336  26.824  29.352  1.00  0.00    -0.248 NA
ATOM     56  C   UNL A   1      45.209  24.762  28.681  1.00  0.00     0.031 C 
ATOM     57  C   UNL A   1      46.817  30.132  31.041  1.00  0.00     0.029 A 
ATOM     58  C   UNL A   1      46.054  29.097  30.521  1.00  0.00     0.049 A 
ATOM     59  H   UNL A   1      43.990  29.055  30.100  1.00  0.00     0.167 HD
ATOM     60  C   UNL A   1      45.704  26.810  29.597  1.00  0.00     0.074 A 
ATOM     61  C   UNL A   1      46.186  25.506  29.182  1.00  0.00     0.031 C 
ATOM     62  C   UNL A   1      46.491  27.780  30.124  1.00  0.00     0.037 A 
BRANCH  49  63
ATOM     63  C   UNL A   1      43.575  33.072  31.490  1.00  0.00     0.058 A 
ATOM     64  C   UNL A   1      43.528  33.361  32.863  1.00  0.00     0.135 A 
ATOM     65  C   UNL A   1      43.715  34.149  30.600  1.00  0.00     0.135 A 
ATOM     66  F   UNL A   1      43.372  32.371  33.758  1.00  0.00    -0.206 F 
ATOM     67  C   UNL A   1      43.595  34.668  33.334  1.00  0.00     0.059 A 
ATOM     68  C   UNL A   1      43.812  35.462  31.050  1.00  0.00     0.059 A 
ATOM     69  F   UNL A   1      43.757  33.930  29.276  1.00  0.00    -0.206 F 
ATOM     70  C   UNL A   1      43.738  35.712  32.420  1.00  0.00     0.060 A 
BRANCH  70  71
ATOM     71  S   UNL A   1      43.835  37.402  33.048  1.00  0.00     0.124 S 
ATOM     72  O   UNL A   1      43.607  38.179  31.835  1.00  0.00    -0.237 OA
ATOM     73  O   UNL A   1      42.757  37.430  34.031  1.00  0.00    -0.237 OA
ATOM     74  O   UNL A   1      45.184  37.483  33.600  1.00  0.00    -0.744 OA
ENDBRANCH  70  71
ENDBRANCH  49  63
BRANCH  50  75
ATOM     75  C   UNL A   1      42.566  23.733  27.864  1.00  0.00     0.058 A 
ATOM     76  C   UNL A   1      42.448  23.532  26.483  1.00  0.00     0.135 A 
ATOM     77  C   UNL A   1      42.569  22.599  28.692  1.00  0.00     0.135 A 
ATOM     78  F   UNL A   1      42.438  24.584  25.650  1.00  0.00    -0.206 F 
ATOM     79  C   UNL A   1      42.319  22.258  25.941  1.00  0.00     0.059 A 
ATOM     80  C   UNL A   1      42.467  21.312  28.173  1.00  0.00     0.059 A 
ATOM     81  F   UNL A   1      42.698  22.735  30.022  1.00  0.00    -0.206 F 
ATOM     82  C   UNL A   1      42.332  21.153  26.795  1.00  0.00     0.060 A 
BRANCH  82  83
ATOM     83  S   UNL A   1      42.207  19.502  26.075  1.00  0.00     0.124 S 
ATOM     84  O   UNL A   1      42.556  18.658  27.212  1.00  0.00    -0.237 OA
ATOM     85  O   UNL A   1      40.811  19.457  25.650  1.00  0.00    -0.237 OA
ATOM     86  O   UNL A   1      43.183  19.533  24.990  1.00  0.00    -0.744 OA
ENDBRANCH  82  83
ENDBRANCH  50  75
BRANCH  62  87
ATOM     87  C   UNL A   1      47.942  27.456  30.343  1.00  0.00     0.058 A 
ATOM     88  C   UNL A   1      48.902  27.652  29.341  1.00  0.00     0.135 A 
ATOM     89  C   UNL A   1      48.383  27.050  31.613  1.00  0.00     0.135 A 
ATOM     90  F   UNL A   1      48.528  28.031  28.109  1.00  0.00    -0.206 F 
ATOM     91  C   UNL A   1      50.255  27.453  29.591  1.00  0.00     0.059 A 
ATOM     92  C   UNL A   1      49.733  26.872  31.891  1.00  0.00     0.059 A 
ATOM     93  F   UNL A   1      47.501  26.860  32.607  1.00  0.00    -0.206 F 
ATOM     94  C   UNL A   1      50.661  27.074  30.872  1.00  0.00     0.060 A 
BRANCH  94  95
ATOM     95  S   UNL A   1      52.427  26.897  31.202  1.00  0.00     0.124 S 
ATOM     96  O   UNL A   1      53.012  27.578  30.051  1.00  0.00    -0.237 OA
ATOM     97  O   UNL A   1      52.573  27.580  32.484  1.00  0.00    -0.237 OA
ATOM     98  O   UNL A   1      52.623  25.452  31.243  1.00  0.00    -0.744 OA
ENDBRANCH  94  95
ENDBRANCH  62  87
ENDBRANCH  36  37
ENDBRANCH  29  31
ENDBRANCH  28  29
ENDBRANCH  27  28
ENDBRANCH  26  27
ENDBRANCH  25  26
ENDBRANCH   1  25
TORSDOF 22
ENDMDL
