MODEL 1
REMARK VINA RESULT:     -11.4      0.000      0.000
REMARK SMILES Nc1c(Nc2ccc(I)cc2)ncnc1Nc1ccc(C(=O)OCCOCCOC(=O)c2ccc(-c3c4nc(c(-c5c(F)cc(S(=O)(=O)[O-])cc5F)c5ccc([nH]5)c(-c5c(F)cc(S(=O)(=O)[O-])cc5F)c5nc(c(-c6c(F)cc(S(=O)(=O)[O-])cc6F)c6ccc3[nH]6)C=C5)C=C4)cc2)cc1
REMARK SMILES IDX 25 1 24 2 23 3 21 4 22 5 20 6 17 7 18 8 99 9 19 10 98 11
REMARK SMILES IDX 16 12 15 14 2 15 3 16 12 17 14 18 13 19 1 20 4 23 5 25 6 26
REMARK SMILES IDX 11 27 7 28 10 29 8 30 9 31 26 32 27 33 28 34 29 35 30 36
REMARK SMILES IDX 31 37 32 38 33 39 97 40 34 41 96 42 35 43 36 44 37 45 90 46
REMARK SMILES IDX 38 47 95 48 89 49 91 50 39 51 94 52 88 53 87 54 40 56 74 57
REMARK SMILES IDX 53 58 73 59 54 60 57 61 72 62 92 63 55 64 56 65 71 67 93 68
REMARK SMILES IDX 58 69 41 70 42 71 51 72 43 73 44 74 50 75 52 76 45 77 46 78
REMARK SMILES IDX 47 79 48 80 49 81 75 82 76 83 85 84 77 85 78 86 84 87 86 88
REMARK SMILES IDX 79 89 80 90 81 91 82 92 83 93 59 94 60 95 69 96 61 97 62 98
REMARK SMILES IDX 68 99 70 100 63 101 64 102 65 103 66 104 67 105
REMARK H PARENT 16 13 1 21 1 22 4 24 91 55 57 66
REMARK Flexibility Score: inf
ROOT
ATOM      1  C   UNL A   1      42.897  20.133  25.819  1.00  0.00     0.202 C 
ENDROOT
BRANCH   1   2
ATOM      2  C   UNL A   1      41.418  19.995  26.192  1.00  0.00     0.261 C 
BRANCH   2   3
ATOM      3  O   UNL A   1      40.629  21.021  25.573  1.00  0.00    -0.460 OA
BRANCH   3   4
ATOM      4  C   UNL A   1      39.848  21.723  26.427  1.00  0.00     0.338 C 
ATOM      5  O   UNL A   1      40.181  22.209  27.499  1.00  0.00    -0.246 OA
BRANCH   4   6
ATOM      6  C   UNL A   1      38.530  21.991  25.813  1.00  0.00     0.060 A 
ATOM      7  C   UNL A   1      35.934  22.547  24.923  1.00  0.00     0.040 A 
ATOM      8  C   UNL A   1      36.645  23.503  25.655  1.00  0.00     0.027 A 
ATOM      9  C   UNL A   1      36.574  21.351  24.561  1.00  0.00     0.027 A 
ATOM     10  C   UNL A   1      37.933  23.223  26.106  1.00  0.00     0.018 A 
ATOM     11  C   UNL A   1      37.874  21.070  24.994  1.00  0.00     0.018 A 
BRANCH   7  12
ATOM     12  N   UNL A   1      34.537  22.699  24.782  1.00  0.00    -0.338 N 
ATOM     13  H   UNL A   1      33.949  21.982  25.112  1.00  0.00     0.168 HD
BRANCH  12  14
ATOM     14  C   UNL A   1      33.947  23.844  24.182  1.00  0.00     0.159 A 
ATOM     15  C   UNL A   1      32.977  24.567  24.885  1.00  0.00     0.118 A 
ATOM     16  C   UNL A   1      32.441  25.664  24.194  1.00  0.00     0.159 A 
ATOM     17  N   UNL A   1      32.785  25.971  22.929  1.00  0.00    -0.217 NA
ATOM     18  N   UNL A   1      34.330  24.179  22.934  1.00  0.00    -0.217 NA
ATOM     19  C   UNL A   1      33.727  25.220  22.366  1.00  0.00     0.226 A 
BRANCH  15  20
ATOM     20  N   UNL A   1      32.585  24.248  26.191  1.00  0.00    -0.393 N 
ATOM     21  H   UNL A   1      31.667  23.938  26.368  1.00  0.00     0.156 HD
ATOM     22  H   UNL A   1      33.227  24.335  26.933  1.00  0.00     0.156 HD
ENDBRANCH  15  20
BRANCH  16  23
ATOM     23  N   UNL A   1      31.511  26.499  24.867  1.00  0.00    -0.338 N 
ATOM     24  H   UNL A   1      31.320  26.288  25.810  1.00  0.00     0.168 HD
BRANCH  23  25
ATOM     25  C   UNL A   1      30.839  27.600  24.307  1.00  0.00     0.040 A 
ATOM     26  C   UNL A   1      29.679  27.391  23.551  1.00  0.00     0.027 A 
ATOM     27  C   UNL A   1      31.228  28.917  24.584  1.00  0.00     0.027 A 
ATOM     28  C   UNL A   1      28.915  28.471  23.101  1.00  0.00     0.017 A 
ATOM     29  C   UNL A   1      30.476  30.003  24.128  1.00  0.00     0.017 A 
ATOM     30  C   UNL A   1      29.315  29.774  23.394  1.00  0.00     0.013 A 
ATOM     31  I   UNL A   1      28.157  31.380  22.764  1.00  0.00    -0.044 I 
ENDBRANCH  23  25
ENDBRANCH  16  23
ENDBRANCH  12  14
ENDBRANCH   7  12
ENDBRANCH   4   6
ENDBRANCH   3   4
ENDBRANCH   2   3
ENDBRANCH   1   2
BRANCH   1  32
ATOM     32  O   UNL A   1      43.249  21.260  25.016  1.00  0.00    -0.374 OA
BRANCH  32  33
ATOM     33  C   UNL A   1      43.820  22.386  25.688  1.00  0.00     0.202 C 
BRANCH  33  34
ATOM     34  C   UNL A   1      43.289  23.769  25.293  1.00  0.00     0.261 C 
BRANCH  34  35
ATOM     35  O   UNL A   1      42.178  24.170  26.113  1.00  0.00    -0.460 OA
BRANCH  35  36
ATOM     36  C   UNL A   1      41.819  25.467  25.982  1.00  0.00     0.338 C 
ATOM     37  O   UNL A   1      41.391  26.017  24.977  1.00  0.00    -0.246 OA
BRANCH  36  38
ATOM     38  C   UNL A   1      41.830  26.128  27.299  1.00  0.00     0.060 A 
ATOM     39  C   UNL A   1      40.693  25.977  28.105  1.00  0.00     0.016 A 
ATOM     40  C   UNL A   1      42.887  26.944  27.706  1.00  0.00     0.016 A 
ATOM     41  C   UNL A   1      40.580  26.693  29.293  1.00  0.00     0.010 A 
ATOM     42  C   UNL A   1      42.765  27.676  28.892  1.00  0.00     0.010 A 
ATOM     43  C   UNL A   1      41.593  27.586  29.664  1.00  0.00    -0.014 A 
BRANCH  43  44
ATOM     44  C   UNL A   1      41.335  28.569  30.743  1.00  0.00     0.031 A 
ATOM     45  C   UNL A   1      42.215  28.537  31.964  1.00  0.00     0.074 A 
ATOM     46  C   UNL A   1      40.371  29.498  30.622  1.00  0.00     0.049 A 
ATOM     47  N   UNL A   1      42.143  29.249  33.057  1.00  0.00    -0.248 NA
ATOM     48  C   UNL A   1      43.329  27.573  31.944  1.00  0.00     0.031 C 
ATOM     49  C   UNL A   1      39.506  29.672  29.456  1.00  0.00     0.029 A 
ATOM     50  N   UNL A   1      39.962  30.473  31.496  1.00  0.00    -0.354 N 
ATOM     51  C   UNL A   1      43.197  28.821  33.856  1.00  0.00     0.074 A 
ATOM     52  C   UNL A   1      43.878  27.768  33.134  1.00  0.00     0.031 C 
ATOM     53  C   UNL A   1      38.660  30.691  29.693  1.00  0.00     0.029 A 
ATOM     54  C   UNL A   1      38.901  31.214  31.037  1.00  0.00     0.049 A 
ATOM     55  H   UNL A   1      40.389  30.627  32.370  1.00  0.00     0.167 HD
ATOM     56  C   UNL A   1      43.569  29.273  35.077  1.00  0.00     0.037 A 
ATOM     57  C   UNL A   1      38.192  32.186  31.644  1.00  0.00     0.037 A 
ATOM     58  C   UNL A   1      42.885  30.316  35.793  1.00  0.00     0.049 A 
ATOM     59  C   UNL A   1      38.562  32.601  33.044  1.00  0.00     0.074 A 
ATOM     60  C   UNL A   1      43.174  30.837  37.041  1.00  0.00     0.029 A 
ATOM     61  N   UNL A   1      41.771  30.997  35.323  1.00  0.00    -0.354 N 
ATOM     62  N   UNL A   1      39.544  32.172  33.801  1.00  0.00    -0.248 NA
ATOM     63  C   UNL A   1      37.720  33.627  33.677  1.00  0.00     0.031 C 
ATOM     64  C   UNL A   1      42.208  31.804  37.344  1.00  0.00     0.029 A 
ATOM     65  C   UNL A   1      41.346  31.917  36.266  1.00  0.00     0.049 A 
ATOM     66  H   UNL A   1      41.345  30.847  34.448  1.00  0.00     0.167 HD
ATOM     67  C   UNL A   1      39.446  32.882  34.994  1.00  0.00     0.074 A 
ATOM     68  C   UNL A   1      38.321  33.784  34.848  1.00  0.00     0.031 C 
ATOM     69  C   UNL A   1      40.214  32.796  36.109  1.00  0.00     0.037 A 
BRANCH  56  70
ATOM     70  C   UNL A   1      44.760  28.621  35.723  1.00  0.00     0.058 A 
ATOM     71  C   UNL A   1      46.061  29.117  35.539  1.00  0.00     0.135 A 
ATOM     72  C   UNL A   1      44.596  27.507  36.560  1.00  0.00     0.135 A 
ATOM     73  F   UNL A   1      46.276  30.167  34.730  1.00  0.00    -0.206 F 
ATOM     74  C   UNL A   1      47.158  28.521  36.149  1.00  0.00     0.059 A 
ATOM     75  C   UNL A   1      45.677  26.907  37.200  1.00  0.00     0.059 A 
ATOM     76  F   UNL A   1      43.374  26.987  36.762  1.00  0.00    -0.206 F 
ATOM     77  C   UNL A   1      46.957  27.416  36.980  1.00  0.00     0.060 A 
BRANCH  77  78
ATOM     78  S   UNL A   1      48.391  26.663  37.774  1.00  0.00     0.124 S 
ATOM     79  O   UNL A   1      48.918  25.830  36.697  1.00  0.00    -0.237 OA
ATOM     80  O   UNL A   1      49.198  27.826  38.129  1.00  0.00    -0.237 OA
ATOM     81  O   UNL A   1      47.815  25.936  38.902  1.00  0.00    -0.744 OA
ENDBRANCH  77  78
ENDBRANCH  56  70
BRANCH  57  82
ATOM     82  C   UNL A   1      37.048  32.823  30.939  1.00  0.00     0.058 A 
ATOM     83  C   UNL A   1      35.725  32.516  31.287  1.00  0.00     0.135 A 
ATOM     84  C   UNL A   1      37.255  33.750  29.906  1.00  0.00     0.135 A 
ATOM     85  F   UNL A   1      35.476  31.623  32.256  1.00  0.00    -0.206 F 
ATOM     86  C   UNL A   1      34.645  33.105  30.636  1.00  0.00     0.059 A 
ATOM     87  C   UNL A   1      36.192  34.371  29.256  1.00  0.00     0.059 A 
ATOM     88  F   UNL A   1      38.503  34.080  29.538  1.00  0.00    -0.206 F 
ATOM     89  C   UNL A   1      34.890  34.037  29.626  1.00  0.00     0.060 A 
BRANCH  89  90
ATOM     90  S   UNL A   1      33.481  34.840  28.831  1.00  0.00     0.124 S 
ATOM     91  O   UNL A   1      32.540  34.949  29.939  1.00  0.00    -0.237 OA
ATOM     92  O   UNL A   1      34.068  36.093  28.366  1.00  0.00    -0.237 OA
ATOM     93  O   UNL A   1      33.109  33.902  27.777  1.00  0.00    -0.744 OA
ENDBRANCH  89  90
ENDBRANCH  57  82
BRANCH  69  94
ATOM     94  C   UNL A   1      39.864  33.702  37.258  1.00  0.00     0.058 A 
ATOM     95  C   UNL A   1      38.987  33.291  38.274  1.00  0.00     0.135 A 
ATOM     96  C   UNL A   1      40.441  34.978  37.365  1.00  0.00     0.135 A 
ATOM     97  F   UNL A   1      38.407  32.083  38.217  1.00  0.00    -0.206 F 
ATOM     98  C   UNL A   1      38.671  34.125  39.342  1.00  0.00     0.059 A 
ATOM     99  C   UNL A   1      40.160  35.818  38.438  1.00  0.00     0.059 A 
ATOM    100  F   UNL A   1      41.297  35.415  36.428  1.00  0.00    -0.206 F 
ATOM    101  C   UNL A   1      39.262  35.389  39.413  1.00  0.00     0.060 A 
BRANCH 101 102
ATOM    102  S   UNL A   1      38.849  36.456  40.811  1.00  0.00     0.124 S 
ATOM    103  O   UNL A   1      37.799  35.686  41.469  1.00  0.00    -0.237 OA
ATOM    104  O   UNL A   1      40.119  36.538  41.526  1.00  0.00    -0.237 OA
ATOM    105  O   UNL A   1      38.414  37.696  40.174  1.00  0.00    -0.744 OA
ENDBRANCH 101 102
ENDBRANCH  69  94
ENDBRANCH  43  44
ENDBRANCH  36  38
ENDBRANCH  35  36
ENDBRANCH  34  35
ENDBRANCH  33  34
ENDBRANCH  32  33
ENDBRANCH   1  32
TORSDOF 22
ENDMDL
MODEL 2
REMARK VINA RESULT:     -10.9      6.596     13.875
REMARK SMILES Nc1c(Nc2ccc(I)cc2)ncnc1Nc1ccc(C(=O)OCCOCCOC(=O)c2ccc(-c3c4nc(c(-c5c(F)cc(S(=O)(=O)[O-])cc5F)c5ccc([nH]5)c(-c5c(F)cc(S(=O)(=O)[O-])cc5F)c5nc(c(-c6c(F)cc(S(=O)(=O)[O-])cc6F)c6ccc3[nH]6)C=C5)C=C4)cc2)cc1
REMARK SMILES IDX 25 1 24 2 23 3 21 4 22 5 20 6 17 7 18 8 99 9 19 10 98 11
REMARK SMILES IDX 16 12 15 14 2 15 3 16 12 17 14 18 13 19 1 20 4 23 5 25 6 26
REMARK SMILES IDX 11 27 7 28 10 29 8 30 9 31 26 32 27 33 28 34 29 35 30 36
REMARK SMILES IDX 31 37 32 38 33 39 97 40 34 41 96 42 35 43 36 44 37 45 90 46
REMARK SMILES IDX 38 47 95 48 89 49 91 50 39 51 94 52 88 53 87 54 40 56 74 57
REMARK SMILES IDX 53 58 73 59 54 60 57 61 72 62 92 63 55 64 56 65 71 67 93 68
REMARK SMILES IDX 58 69 41 70 42 71 51 72 43 73 44 74 50 75 52 76 45 77 46 78
REMARK SMILES IDX 47 79 48 80 49 81 75 82 76 83 85 84 77 85 78 86 84 87 86 88
REMARK SMILES IDX 79 89 80 90 81 91 82 92 83 93 59 94 60 95 69 96 61 97 62 98
REMARK SMILES IDX 68 99 70 100 63 101 64 102 65 103 66 104 67 105
REMARK H PARENT 16 13 1 21 1 22 4 24 91 55 57 66
REMARK Flexibility Score: inf
ROOT
ATOM      1  C   UNL A   1      33.870  35.456  28.802  1.00  0.00     0.202 C 
ENDROOT
BRANCH   1   2
ATOM      2  C   UNL A   1      33.011  36.129  29.878  1.00  0.00     0.261 C 
BRANCH   2   3
ATOM      3  O   UNL A   1      32.667  35.205  30.920  1.00  0.00    -0.460 OA
BRANCH   3   4
ATOM      4  C   UNL A   1      33.045  35.589  32.160  1.00  0.00     0.338 C 
ATOM      5  O   UNL A   1      32.483  36.400  32.884  1.00  0.00    -0.246 OA
BRANCH   4   6
ATOM      6  C   UNL A   1      34.173  34.758  32.633  1.00  0.00     0.060 A 
ATOM      7  C   UNL A   1      36.108  32.988  33.614  1.00  0.00     0.040 A 
ATOM      8  C   UNL A   1      35.217  32.573  32.620  1.00  0.00     0.027 A 
ATOM      9  C   UNL A   1      36.080  34.326  34.040  1.00  0.00     0.027 A 
ATOM     10  C   UNL A   1      34.248  33.450  32.138  1.00  0.00     0.018 A 
ATOM     11  C   UNL A   1      35.122  35.218  33.548  1.00  0.00     0.018 A 
BRANCH   7  12
ATOM     12  N   UNL A   1      36.833  32.010  34.330  1.00  0.00    -0.338 N 
ATOM     13  H   UNL A   1      36.406  31.580  35.105  1.00  0.00     0.168 HD
BRANCH  12  14
ATOM     14  C   UNL A   1      38.154  31.622  33.976  1.00  0.00     0.159 A 
ATOM     15  C   UNL A   1      38.421  30.282  33.676  1.00  0.00     0.118 A 
ATOM     16  C   UNL A   1      39.760  30.002  33.364  1.00  0.00     0.159 A 
ATOM     17  N   UNL A   1      40.731  30.934  33.404  1.00  0.00    -0.217 NA
ATOM     18  N   UNL A   1      39.114  32.567  33.969  1.00  0.00    -0.217 NA
ATOM     19  C   UNL A   1      40.356  32.178  33.691  1.00  0.00     0.226 A 
BRANCH  15  20
ATOM     20  N   UNL A   1      37.430  29.293  33.654  1.00  0.00    -0.393 N 
ATOM     21  H   UNL A   1      36.729  29.314  32.962  1.00  0.00     0.156 HD
ATOM     22  H   UNL A   1      37.434  28.576  34.329  1.00  0.00     0.156 HD
ENDBRANCH  15  20
BRANCH  16  23
ATOM     23  N   UNL A   1      40.100  28.683  32.967  1.00  0.00    -0.338 N 
ATOM     24  H   UNL A   1      39.370  28.113  32.632  1.00  0.00     0.168 HD
BRANCH  23  25
ATOM     25  C   UNL A   1      41.387  28.118  33.008  1.00  0.00     0.040 A 
ATOM     26  C   UNL A   1      41.844  27.522  34.190  1.00  0.00     0.027 A 
ATOM     27  C   UNL A   1      42.186  28.024  31.861  1.00  0.00     0.027 A 
ATOM     28  C   UNL A   1      43.059  26.832  34.221  1.00  0.00     0.017 A 
ATOM     29  C   UNL A   1      43.408  27.346  31.885  1.00  0.00     0.017 A 
ATOM     30  C   UNL A   1      43.835  26.743  33.066  1.00  0.00     0.013 A 
ATOM     31  I   UNL A   1      45.620  25.681  33.098  1.00  0.00    -0.044 I 
ENDBRANCH  23  25
ENDBRANCH  16  23
ENDBRANCH  12  14
ENDBRANCH   7  12
ENDBRANCH   4   6
ENDBRANCH   3   4
ENDBRANCH   2   3
ENDBRANCH   1   2
BRANCH   1  32
ATOM     32  O   UNL A   1      33.747  34.037  28.685  1.00  0.00    -0.374 OA
BRANCH  32  33
ATOM     33  C   UNL A   1      34.878  33.324  28.179  1.00  0.00     0.202 C 
BRANCH  33  34
ATOM     34  C   UNL A   1      34.988  31.843  28.555  1.00  0.00     0.261 C 
BRANCH  34  35
ATOM     35  O   UNL A   1      36.161  31.576  29.344  1.00  0.00    -0.460 OA
BRANCH  35  36
ATOM     36  C   UNL A   1      36.564  30.285  29.337  1.00  0.00     0.338 C 
ATOM     37  O   UNL A   1      35.856  29.291  29.420  1.00  0.00    -0.246 OA
BRANCH  36  38
ATOM     38  C   UNL A   1      38.000  30.207  29.019  1.00  0.00     0.060 A 
ATOM     39  C   UNL A   1      38.353  29.754  27.741  1.00  0.00     0.016 A 
ATOM     40  C   UNL A   1      38.982  30.490  29.971  1.00  0.00     0.016 A 
ATOM     41  C   UNL A   1      39.689  29.518  27.429  1.00  0.00     0.010 A 
ATOM     42  C   UNL A   1      40.323  30.237  29.661  1.00  0.00     0.010 A 
ATOM     43  C   UNL A   1      40.675  29.709  28.406  1.00  0.00    -0.014 A 
BRANCH  43  44
ATOM     44  C   UNL A   1      42.034  29.164  28.182  1.00  0.00     0.031 A 
ATOM     45  C   UNL A   1      43.204  30.108  28.262  1.00  0.00     0.074 A 
ATOM     46  C   UNL A   1      42.231  27.854  27.958  1.00  0.00     0.049 A 
ATOM     47  N   UNL A   1      44.472  29.879  28.041  1.00  0.00    -0.248 NA
ATOM     48  C   UNL A   1      42.900  31.498  28.646  1.00  0.00     0.031 C 
ATOM     49  C   UNL A   1      41.184  26.834  27.932  1.00  0.00     0.029 A 
ATOM     50  N   UNL A   1      43.387  27.158  27.712  1.00  0.00    -0.354 N 
ATOM     51  C   UNL A   1      45.117  31.091  28.257  1.00  0.00     0.074 A 
ATOM     52  C   UNL A   1      44.099  32.060  28.600  1.00  0.00     0.031 C 
ATOM     53  C   UNL A   1      41.747  25.640  27.675  1.00  0.00     0.029 A 
ATOM     54  C   UNL A   1      43.186  25.819  27.482  1.00  0.00     0.049 A 
ATOM     55  H   UNL A   1      44.278  27.578  27.700  1.00  0.00     0.167 HD
ATOM     56  C   UNL A   1      46.440  31.368  28.187  1.00  0.00     0.037 A 
ATOM     57  C   UNL A   1      44.061  24.855  27.134  1.00  0.00     0.037 A 
ATOM     58  C   UNL A   1      47.448  30.402  27.840  1.00  0.00     0.049 A 
ATOM     59  C   UNL A   1      45.515  25.209  26.961  1.00  0.00     0.074 A 
ATOM     60  C   UNL A   1      48.814  30.584  27.728  1.00  0.00     0.029 A 
ATOM     61  N   UNL A   1      47.197  29.069  27.547  1.00  0.00    -0.354 N 
ATOM     62  N   UNL A   1      46.112  26.364  27.142  1.00  0.00    -0.248 NA
ATOM     63  C   UNL A   1      46.414  24.131  26.526  1.00  0.00     0.031 C 
ATOM     64  C   UNL A   1      49.385  29.371  27.324  1.00  0.00     0.029 A 
ATOM     65  C   UNL A   1      48.379  28.422  27.231  1.00  0.00     0.049 A 
ATOM     66  H   UNL A   1      46.308  28.645  27.561  1.00  0.00     0.167 HD
ATOM     67  C   UNL A   1      47.456  26.149  26.856  1.00  0.00     0.074 A 
ATOM     68  C   UNL A   1      47.587  24.748  26.510  1.00  0.00     0.031 C 
ATOM     69  C   UNL A   1      48.488  27.029  26.874  1.00  0.00     0.037 A 
BRANCH  56  70
ATOM     70  C   UNL A   1      46.869  32.781  28.470  1.00  0.00     0.058 A 
ATOM     71  C   UNL A   1      47.235  33.194  29.761  1.00  0.00     0.135 A 
ATOM     72  C   UNL A   1      46.943  33.724  27.433  1.00  0.00     0.135 A 
ATOM     73  F   UNL A   1      47.159  32.338  30.792  1.00  0.00    -0.206 F 
ATOM     74  C   UNL A   1      47.644  34.499  30.017  1.00  0.00     0.059 A 
ATOM     75  C   UNL A   1      47.373  35.029  27.662  1.00  0.00     0.059 A 
ATOM     76  F   UNL A   1      46.596  33.382  26.182  1.00  0.00    -0.206 F 
ATOM     77  C   UNL A   1      47.711  35.409  28.960  1.00  0.00     0.060 A 
BRANCH  77  78
ATOM     78  S   UNL A   1      48.257  37.094  29.308  1.00  0.00     0.124 S 
ATOM     79  O   UNL A   1      47.944  37.214  30.729  1.00  0.00    -0.237 OA
ATOM     80  O   UNL A   1      49.676  37.036  28.974  1.00  0.00    -0.237 OA
ATOM     81  O   UNL A   1      47.438  37.909  28.415  1.00  0.00    -0.744 OA
ENDBRANCH  77  78
ENDBRANCH  56  70
BRANCH  57  82
ATOM     82  C   UNL A   1      43.584  23.465  26.905  1.00  0.00     0.058 A 
ATOM     83  C   UNL A   1      43.395  22.971  25.607  1.00  0.00     0.135 A 
ATOM     84  C   UNL A   1      43.311  22.604  27.979  1.00  0.00     0.135 A 
ATOM     85  F   UNL A   1      43.626  23.761  24.548  1.00  0.00    -0.206 F 
ATOM     86  C   UNL A   1      42.950  21.672  25.380  1.00  0.00     0.059 A 
ATOM     87  C   UNL A   1      42.889  21.293  27.778  1.00  0.00     0.059 A 
ATOM     88  F   UNL A   1      43.480  23.029  29.242  1.00  0.00    -0.206 F 
ATOM     89  C   UNL A   1      42.706  20.839  26.473  1.00  0.00     0.060 A 
BRANCH  89  90
ATOM     90  S   UNL A   1      42.189  19.136  26.164  1.00  0.00     0.124 S 
ATOM     91  O   UNL A   1      43.108  18.737  25.103  1.00  0.00    -0.237 OA
ATOM     92  O   UNL A   1      42.406  18.511  27.465  1.00  0.00    -0.237 OA
ATOM     93  O   UNL A   1      40.791  19.275  25.768  1.00  0.00    -0.744 OA
ENDBRANCH  89  90
ENDBRANCH  57  82
BRANCH  69  94
ATOM     94  C   UNL A   1      49.850  26.502  26.513  1.00  0.00     0.058 A 
ATOM     95  C   UNL A   1      50.740  26.038  27.495  1.00  0.00     0.135 A 
ATOM     96  C   UNL A   1      50.255  26.423  25.170  1.00  0.00     0.135 A 
ATOM     97  F   UNL A   1      50.403  26.095  28.792  1.00  0.00    -0.206 F 
ATOM     98  C   UNL A   1      51.996  25.542  27.160  1.00  0.00     0.059 A 
ATOM     99  C   UNL A   1      51.496  25.905  24.811  1.00  0.00     0.059 A 
ATOM    100  F   UNL A   1      49.436  26.840  24.191  1.00  0.00    -0.206 F 
ATOM    101  C   UNL A   1      52.365  25.482  25.814  1.00  0.00     0.060 A 
BRANCH 101 102
ATOM    102  S   UNL A   1      53.994  24.825  25.395  1.00  0.00     0.124 S 
ATOM    103  O   UNL A   1      54.646  24.799  26.701  1.00  0.00    -0.237 OA
ATOM    104  O   UNL A   1      53.668  23.522  24.823  1.00  0.00    -0.237 OA
ATOM    105  O   UNL A   1      54.522  25.804  24.450  1.00  0.00    -0.744 OA
ENDBRANCH 101 102
ENDBRANCH  69  94
ENDBRANCH  43  44
ENDBRANCH  36  38
ENDBRANCH  35  36
ENDBRANCH  34  35
ENDBRANCH  33  34
ENDBRANCH  32  33
ENDBRANCH   1  32
TORSDOF 22
ENDMDL
MODEL 3
REMARK VINA RESULT:     -10.9      6.108     12.084
REMARK SMILES Nc1c(Nc2ccc(I)cc2)ncnc1Nc1ccc(C(=O)OCCOCCOC(=O)c2ccc(-c3c4nc(c(-c5c(F)cc(S(=O)(=O)[O-])cc5F)c5ccc([nH]5)c(-c5c(F)cc(S(=O)(=O)[O-])cc5F)c5nc(c(-c6c(F)cc(S(=O)(=O)[O-])cc6F)c6ccc3[nH]6)C=C5)C=C4)cc2)cc1
REMARK SMILES IDX 25 1 24 2 23 3 21 4 22 5 20 6 17 7 18 8 99 9 19 10 98 11
REMARK SMILES IDX 16 12 15 14 2 15 3 16 12 17 14 18 13 19 1 20 4 23 5 25 6 26
REMARK SMILES IDX 11 27 7 28 10 29 8 30 9 31 26 32 27 33 28 34 29 35 30 36
REMARK SMILES IDX 31 37 32 38 33 39 97 40 34 41 96 42 35 43 36 44 37 45 90 46
REMARK SMILES IDX 38 47 95 48 89 49 91 50 39 51 94 52 88 53 87 54 40 56 74 57
REMARK SMILES IDX 53 58 73 59 54 60 57 61 72 62 92 63 55 64 56 65 71 67 93 68
REMARK SMILES IDX 58 69 41 70 42 71 51 72 43 73 44 74 50 75 52 76 45 77 46 78
REMARK SMILES IDX 47 79 48 80 49 81 75 82 76 83 85 84 77 85 78 86 84 87 86 88
REMARK SMILES IDX 79 89 80 90 81 91 82 92 83 93 59 94 60 95 69 96 61 97 62 98
REMARK SMILES IDX 68 99 70 100 63 101 64 102 65 103 66 104 67 105
REMARK H PARENT 16 13 1 21 1 22 4 24 91 55 57 66
REMARK Flexibility Score: inf
ROOT
ATOM      1  C   UNL A   1      36.190  33.233  29.489  1.00  0.00     0.202 C 
ENDROOT
BRANCH   1   2
ATOM      2  C   UNL A   1      35.949  32.891  28.016  1.00  0.00     0.261 C 
BRANCH   2   3
ATOM      3  O   UNL A   1      35.261  31.639  27.880  1.00  0.00    -0.460 OA
BRANCH   3   4
ATOM      4  C   UNL A   1      33.928  31.748  27.678  1.00  0.00     0.338 C 
ATOM      5  O   UNL A   1      33.278  32.781  27.589  1.00  0.00    -0.246 OA
BRANCH   4   6
ATOM      6  C   UNL A   1      33.342  30.419  27.396  1.00  0.00     0.060 A 
ATOM      7  C   UNL A   1      32.394  27.902  26.618  1.00  0.00     0.040 A 
ATOM      8  C   UNL A   1      33.764  28.107  26.814  1.00  0.00     0.027 A 
ATOM      9  C   UNL A   1      31.500  28.945  26.910  1.00  0.00     0.027 A 
ATOM     10  C   UNL A   1      34.236  29.362  27.191  1.00  0.00     0.018 A 
ATOM     11  C   UNL A   1      31.966  30.202  27.307  1.00  0.00     0.018 A 
BRANCH   7  12
ATOM     12  N   UNL A   1      31.973  26.756  25.908  1.00  0.00    -0.338 N 
ATOM     13  H   UNL A   1      31.142  26.308  26.185  1.00  0.00     0.168 HD
BRANCH  12  14
ATOM     14  C   UNL A   1      32.703  26.223  24.810  1.00  0.00     0.159 A 
ATOM     15  C   UNL A   1      33.538  25.119  25.010  1.00  0.00     0.118 A 
ATOM     16  C   UNL A   1      34.230  24.687  23.869  1.00  0.00     0.159 A 
ATOM     17  N   UNL A   1      34.148  25.316  22.682  1.00  0.00    -0.217 NA
ATOM     18  N   UNL A   1      32.579  26.825  23.611  1.00  0.00    -0.217 NA
ATOM     19  C   UNL A   1      33.312  26.348  22.607  1.00  0.00     0.226 A 
BRANCH  15  20
ATOM     20  N   UNL A   1      33.658  24.466  26.244  1.00  0.00    -0.393 N 
ATOM     21  H   UNL A   1      34.479  24.571  26.778  1.00  0.00     0.156 HD
ATOM     22  H   UNL A   1      32.922  23.903  26.577  1.00  0.00     0.156 HD
ENDBRANCH  15  20
BRANCH  16  23
ATOM     23  N   UNL A   1      35.035  23.523  23.967  1.00  0.00    -0.338 N 
ATOM     24  H   UNL A   1      36.012  23.650  23.955  1.00  0.00     0.168 HD
BRANCH  23  25
ATOM     25  C   UNL A   1      34.562  22.203  24.080  1.00  0.00     0.040 A 
ATOM     26  C   UNL A   1      35.351  21.238  24.718  1.00  0.00     0.027 A 
ATOM     27  C   UNL A   1      33.267  21.849  23.679  1.00  0.00     0.027 A 
ATOM     28  C   UNL A   1      34.851  19.956  24.967  1.00  0.00     0.017 A 
ATOM     29  C   UNL A   1      32.763  20.567  23.914  1.00  0.00     0.017 A 
ATOM     30  C   UNL A   1      33.557  19.627  24.567  1.00  0.00     0.013 A 
ATOM     31  I   UNL A   1      32.796  17.737  24.977  1.00  0.00    -0.044 I 
ENDBRANCH  23  25
ENDBRANCH  16  23
ENDBRANCH  12  14
ENDBRANCH   7  12
ENDBRANCH   4   6
ENDBRANCH   3   4
ENDBRANCH   2   3
ENDBRANCH   1   2
BRANCH   1  32
ATOM     32  O   UNL A   1      35.032  33.312  30.322  1.00  0.00    -0.374 OA
BRANCH  32  33
ATOM     33  C   UNL A   1      35.015  32.495  31.495  1.00  0.00     0.202 C 
BRANCH  33  34
ATOM     34  C   UNL A   1      36.374  32.058  32.054  1.00  0.00     0.261 C 
BRANCH  34  35
ATOM     35  O   UNL A   1      36.443  30.634  32.238  1.00  0.00    -0.460 OA
BRANCH  35  36
ATOM     36  C   UNL A   1      36.610  29.925  31.098  1.00  0.00     0.338 C 
ATOM     37  O   UNL A   1      35.734  29.452  30.388  1.00  0.00    -0.246 OA
BRANCH  36  38
ATOM     38  C   UNL A   1      38.027  29.948  30.694  1.00  0.00     0.060 A 
ATOM     39  C   UNL A   1      38.304  30.077  29.326  1.00  0.00     0.016 A 
ATOM     40  C   UNL A   1      39.059  29.764  31.616  1.00  0.00     0.016 A 
ATOM     41  C   UNL A   1      39.613  29.958  28.866  1.00  0.00     0.010 A 
ATOM     42  C   UNL A   1      40.371  29.627  31.150  1.00  0.00     0.010 A 
ATOM     43  C   UNL A   1      40.645  29.680  29.771  1.00  0.00    -0.014 A 
BRANCH  43  44
ATOM     44  C   UNL A   1      41.964  29.242  29.256  1.00  0.00     0.031 A 
ATOM     45  C   UNL A   1      43.091  30.240  29.242  1.00  0.00     0.074 A 
ATOM     46  C   UNL A   1      42.169  27.977  28.854  1.00  0.00     0.049 A 
ATOM     47  N   UNL A   1      44.307  30.111  28.782  1.00  0.00    -0.248 NA
ATOM     48  C   UNL A   1      42.805  31.561  29.829  1.00  0.00     0.031 C 
ATOM     49  C   UNL A   1      41.175  26.906  28.891  1.00  0.00     0.029 A 
ATOM     50  N   UNL A   1      43.290  27.380  28.335  1.00  0.00    -0.354 N 
ATOM     51  C   UNL A   1      44.932  31.329  29.022  1.00  0.00     0.074 A 
ATOM     52  C   UNL A   1      43.954  32.195  29.643  1.00  0.00     0.031 C 
ATOM     53  C   UNL A   1      41.731  25.781  28.405  1.00  0.00     0.029 A 
ATOM     54  C   UNL A   1      43.104  26.064  27.991  1.00  0.00     0.049 A 
ATOM     55  H   UNL A   1      44.147  27.852  28.219  1.00  0.00     0.167 HD
ATOM     56  C   UNL A   1      46.211  31.689  28.758  1.00  0.00     0.037 A 
ATOM     57  C   UNL A   1      43.941  25.196  27.389  1.00  0.00     0.037 A 
ATOM     58  C   UNL A   1      47.178  30.826  28.135  1.00  0.00     0.049 A 
ATOM     59  C   UNL A   1      45.327  25.651  27.011  1.00  0.00     0.074 A 
ATOM     60  C   UNL A   1      48.495  31.099  27.811  1.00  0.00     0.029 A 
ATOM     61  N   UNL A   1      46.932  29.520  27.739  1.00  0.00    -0.354 N 
ATOM     62  N   UNL A   1      45.900  26.814  27.219  1.00  0.00    -0.248 NA
ATOM     63  C   UNL A   1      46.177  24.680  26.308  1.00  0.00     0.031 C 
ATOM     64  C   UNL A   1      49.032  29.972  27.180  1.00  0.00     0.029 A 
ATOM     65  C   UNL A   1      48.064  28.980  27.152  1.00  0.00     0.049 A 
ATOM     66  H   UNL A   1      46.078  29.045  27.857  1.00  0.00     0.167 HD
ATOM     67  C   UNL A   1      47.179  26.710  26.683  1.00  0.00     0.074 A 
ATOM     68  C   UNL A   1      47.303  25.363  26.162  1.00  0.00     0.031 C 
ATOM     69  C   UNL A   1      48.164  27.642  26.625  1.00  0.00     0.037 A 
BRANCH  56  70
ATOM     70  C   UNL A   1      46.626  33.087  29.124  1.00  0.00     0.058 A 
ATOM     71  C   UNL A   1      46.472  34.158  28.229  1.00  0.00     0.135 A 
ATOM     72  C   UNL A   1      47.157  33.364  30.393  1.00  0.00     0.135 A 
ATOM     73  F   UNL A   1      45.991  33.944  26.994  1.00  0.00    -0.206 F 
ATOM     74  C   UNL A   1      46.845  35.452  28.575  1.00  0.00     0.059 A 
ATOM     75  C   UNL A   1      47.515  34.655  30.770  1.00  0.00     0.059 A 
ATOM     76  F   UNL A   1      47.333  32.374  31.283  1.00  0.00    -0.206 F 
ATOM     77  C   UNL A   1      47.364  35.692  29.849  1.00  0.00     0.060 A 
BRANCH  77  78
ATOM     78  S   UNL A   1      47.830  37.380  30.286  1.00  0.00     0.124 S 
ATOM     79  O   UNL A   1      47.809  37.321  31.744  1.00  0.00    -0.237 OA
ATOM     80  O   UNL A   1      49.150  37.506  29.675  1.00  0.00    -0.237 OA
ATOM     81  O   UNL A   1      46.781  38.192  29.677  1.00  0.00    -0.744 OA
ENDBRANCH  77  78
ENDBRANCH  56  70
BRANCH  57  82
ATOM     82  C   UNL A   1      43.487  23.812  27.088  1.00  0.00     0.058 A 
ATOM     83  C   UNL A   1      43.374  22.853  28.104  1.00  0.00     0.135 A 
ATOM     84  C   UNL A   1      43.154  23.423  25.781  1.00  0.00     0.135 A 
ATOM     85  F   UNL A   1      43.696  23.171  29.366  1.00  0.00    -0.206 F 
ATOM     86  C   UNL A   1      42.949  21.555  27.836  1.00  0.00     0.059 A 
ATOM     87  C   UNL A   1      42.704  22.139  25.492  1.00  0.00     0.059 A 
ATOM     88  F   UNL A   1      43.243  24.306  24.773  1.00  0.00    -0.206 F 
ATOM     89  C   UNL A   1      42.610  21.210  26.527  1.00  0.00     0.060 A 
BRANCH  89  90
ATOM     90  S   UNL A   1      42.001  19.541  26.203  1.00  0.00     0.124 S 
ATOM     91  O   UNL A   1      42.424  18.834  27.406  1.00  0.00    -0.237 OA
ATOM     92  O   UNL A   1      40.566  19.763  26.063  1.00  0.00    -0.237 OA
ATOM     93  O   UNL A   1      42.692  19.163  24.974  1.00  0.00    -0.744 OA
ENDBRANCH  89  90
ENDBRANCH  57  82
BRANCH  69  94
ATOM     94  C   UNL A   1      49.459  27.237  25.977  1.00  0.00     0.058 A 
ATOM     95  C   UNL A   1      50.512  26.688  26.726  1.00  0.00     0.135 A 
ATOM     96  C   UNL A   1      49.637  27.363  24.590  1.00  0.00     0.135 A 
ATOM     97  F   UNL A   1      50.395  26.550  28.056  1.00  0.00    -0.206 F 
ATOM     98  C   UNL A   1      51.707  26.305  26.127  1.00  0.00     0.059 A 
ATOM     99  C   UNL A   1      50.814  26.961  23.965  1.00  0.00     0.059 A 
ATOM    100  F   UNL A   1      48.657  27.869  23.825  1.00  0.00    -0.206 F 
ATOM    101  C   UNL A   1      51.849  26.448  24.744  1.00  0.00     0.060 A 
BRANCH 101 102
ATOM    102  S   UNL A   1      53.403  25.936  23.979  1.00  0.00     0.124 S 
ATOM    103  O   UNL A   1      53.688  24.696  24.693  1.00  0.00    -0.237 OA
ATOM    104  O   UNL A   1      53.026  25.788  22.576  1.00  0.00    -0.237 OA
ATOM    105  O   UNL A   1      54.304  27.048  24.265  1.00  0.00    -0.744 OA
ENDBRANCH 101 102
ENDBRANCH  69  94
ENDBRANCH  43  44
ENDBRANCH  36  38
ENDBRANCH  35  36
ENDBRANCH  34  35
ENDBRANCH  33  34
ENDBRANCH  32  33
ENDBRANCH   1  32
TORSDOF 22
ENDMDL
