MODEL 1
REMARK VINA RESULT:     -10.9      0.000      0.000
REMARK SMILES Cc1cc(Br)cc2c1O[C@H](C(F)(F)F)C(C(=O)OCCOCCOC(=O)c1ccc(-c3c4nc(c(-c5c(F)cc(S(=O)(=O)[O-])cc5F)c5ccc([nH]5)c(-c5c(F)cc(S(=O)(=O)[O-])cc5F)c5nc(c(-c6c(F)cc(S(=O)(=O)[O-])cc6F)c6ccc3[nH]6)C=C5)C=C4)cc1)=C2
REMARK SMILES IDX 22 1 21 2 20 3 19 4 18 5 16 6 17 7 15 8 1 9 2 10 3 11 8 12
REMARK SMILES IDX 4 13 7 14 9 15 5 16 6 17 93 18 10 19 11 20 12 21 13 22 14 23
REMARK SMILES IDX 23 24 24 25 25 26 26 27 27 28 28 29 92 30 29 31 91 32 30 33
REMARK SMILES IDX 31 34 32 35 85 36 33 37 90 38 84 39 86 40 34 41 89 42 83 43
REMARK SMILES IDX 82 44 35 46 69 47 48 48 68 49 49 50 52 51 67 52 87 53 50 54
REMARK SMILES IDX 51 55 66 57 88 58 53 59 36 60 37 61 46 62 38 63 39 64 45 65
REMARK SMILES IDX 47 66 40 67 41 68 42 69 43 70 44 71 70 72 71 73 80 74 72 75
REMARK SMILES IDX 73 76 79 77 81 78 74 79 75 80 76 81 77 82 78 83 54 84 55 85
REMARK SMILES IDX 64 86 56 87 57 88 63 89 65 90 58 91 59 92 60 93 61 94 62 95
REMARK H PARENT 86 45 52 56
REMARK Flexibility Score: inf
ROOT
ATOM      1  C   UNL A   1      31.717  27.394  26.452  1.00  0.00     0.202 C 
ENDROOT
BRANCH   1   2
ATOM      2  O   UNL A   1      30.576  26.612  26.805  1.00  0.00    -0.374 OA
BRANCH   2   3
ATOM      3  C   UNL A   1      30.182  25.571  25.912  1.00  0.00     0.202 C 
BRANCH   3   4
ATOM      4  C   UNL A   1      30.278  25.876  24.415  1.00  0.00     0.261 C 
BRANCH   4   5
ATOM      5  O   UNL A   1      30.612  24.704  23.654  1.00  0.00    -0.460 OA
BRANCH   5   6
ATOM      6  C   UNL A   1      31.751  24.804  22.933  1.00  0.00     0.338 C 
ATOM      7  O   UNL A   1      32.052  25.698  22.154  1.00  0.00    -0.246 OA
BRANCH   6   8
ATOM      8  C   UNL A   1      32.684  23.726  23.314  1.00  0.00     0.087 C 
ATOM      9  C   UNL A   1      36.519  20.845  25.200  1.00  0.00     0.048 C 
ATOM     10  C   UNL A   1      35.103  20.630  24.741  1.00  0.00    -0.007 A 
ATOM     11  C   UNL A   1      34.534  19.356  24.913  1.00  0.00     0.023 A 
ATOM     12  C   UNL A   1      34.325  21.657  24.183  1.00  0.00     0.130 A 
ATOM     13  C   UNL A   1      33.218  19.114  24.527  1.00  0.00     0.019 A 
ATOM     14  C   UNL A   1      32.993  21.413  23.830  1.00  0.00     0.019 A 
ATOM     15  O   UNL A   1      34.925  22.871  23.992  1.00  0.00    -0.475 OA
ATOM     16  Br  UNL A   1      32.465  17.396  24.766  1.00  0.00    -0.051 Br
ATOM     17  C   UNL A   1      32.444  20.135  23.986  1.00  0.00     0.027 A 
ATOM     18  C   UNL A   1      32.157  22.497  23.352  1.00  0.00     0.027 C 
ATOM     19  C   UNL A   1      34.116  24.032  23.653  1.00  0.00     0.316 C 
BRANCH  19  20
ATOM     20  C   UNL A   1      34.248  25.060  24.786  1.00  0.00     0.430 C 
ATOM     21  F   UNL A   1      33.313  24.853  25.744  1.00  0.00    -0.167 F 
ATOM     22  F   UNL A   1      35.454  24.987  25.393  1.00  0.00    -0.167 F 
ATOM     23  F   UNL A   1      34.095  26.326  24.336  1.00  0.00    -0.167 F 
ENDBRANCH  19  20
ENDBRANCH   6   8
ENDBRANCH   5   6
ENDBRANCH   4   5
ENDBRANCH   3   4
ENDBRANCH   2   3
ENDBRANCH   1   2
BRANCH   1  24
ATOM     24  C   UNL A   1      32.402  28.190  27.570  1.00  0.00     0.261 C 
BRANCH  24  25
ATOM     25  O   UNL A   1      33.762  28.531  27.246  1.00  0.00    -0.460 OA
BRANCH  25  26
ATOM     26  C   UNL A   1      34.131  29.785  27.603  1.00  0.00     0.338 C 
ATOM     27  O   UNL A   1      33.407  30.767  27.699  1.00  0.00    -0.246 OA
BRANCH  26  28
ATOM     28  C   UNL A   1      35.531  29.789  28.057  1.00  0.00     0.060 A 
ATOM     29  C   UNL A   1      36.521  30.079  27.109  1.00  0.00     0.016 A 
ATOM     30  C   UNL A   1      35.878  29.431  29.361  1.00  0.00     0.016 A 
ATOM     31  C   UNL A   1      37.866  29.966  27.450  1.00  0.00     0.010 A 
ATOM     32  C   UNL A   1      37.231  29.305  29.698  1.00  0.00     0.010 A 
ATOM     33  C   UNL A   1      38.228  29.539  28.735  1.00  0.00    -0.014 A 
BRANCH  33  34
ATOM     34  C   UNL A   1      39.642  29.188  29.011  1.00  0.00     0.031 A 
ATOM     35  C   UNL A   1      40.528  30.209  29.672  1.00  0.00     0.074 A 
ATOM     36  C   UNL A   1      40.115  27.963  28.722  1.00  0.00     0.049 A 
ATOM     37  N   UNL A   1      41.791  30.122  29.997  1.00  0.00    -0.248 NA
ATOM     38  C   UNL A   1      39.904  31.497  30.020  1.00  0.00     0.031 C 
ATOM     39  C   UNL A   1      39.337  26.876  28.129  1.00  0.00     0.029 A 
ATOM     40  N   UNL A   1      41.366  27.426  28.896  1.00  0.00    -0.354 N 
ATOM     41  C   UNL A   1      42.113  31.337  30.590  1.00  0.00     0.074 A 
ATOM     42  C   UNL A   1      40.923  32.158  30.550  1.00  0.00     0.031 C 
ATOM     43  C   UNL A   1      40.130  25.800  27.988  1.00  0.00     0.029 A 
ATOM     44  C   UNL A   1      41.477  26.130  28.451  1.00  0.00     0.049 A 
ATOM     45  H   UNL A   1      42.113  27.922  29.300  1.00  0.00     0.167 HD
ATOM     46  C   UNL A   1      43.290  31.727  31.133  1.00  0.00     0.037 A 
ATOM     47  C   UNL A   1      42.546  25.311  28.410  1.00  0.00     0.037 A 
ATOM     48  C   UNL A   1      44.473  30.907  31.168  1.00  0.00     0.049 A 
ATOM     49  C   UNL A   1      43.871  25.801  28.937  1.00  0.00     0.074 A 
ATOM     50  C   UNL A   1      45.716  31.213  31.695  1.00  0.00     0.029 A 
ATOM     51  N   UNL A   1      44.562  29.622  30.653  1.00  0.00    -0.354 N 
ATOM     52  N   UNL A   1      44.161  26.951  29.497  1.00  0.00    -0.248 NA
ATOM     53  C   UNL A   1      45.013  24.882  28.825  1.00  0.00     0.031 C 
ATOM     54  C   UNL A   1      46.569  30.130  31.458  1.00  0.00     0.029 A 
ATOM     55  C   UNL A   1      45.844  29.130  30.828  1.00  0.00     0.049 A 
ATOM     56  H   UNL A   1      43.822  29.132  30.227  1.00  0.00     0.167 HD
ATOM     57  C   UNL A   1      45.512  26.888  29.822  1.00  0.00     0.074 A 
ATOM     58  C   UNL A   1      45.980  25.580  29.407  1.00  0.00     0.031 C 
ATOM     59  C   UNL A   1      46.294  27.825  30.410  1.00  0.00     0.037 A 
BRANCH  46  60
ATOM     60  C   UNL A   1      43.365  33.106  31.724  1.00  0.00     0.058 A 
ATOM     61  C   UNL A   1      43.166  33.327  33.097  1.00  0.00     0.135 A 
ATOM     62  C   UNL A   1      43.687  34.212  30.922  1.00  0.00     0.135 A 
ATOM     63  F   UNL A   1      42.837  32.309  33.906  1.00  0.00    -0.206 F 
ATOM     64  C   UNL A   1      43.273  34.600  33.650  1.00  0.00     0.059 A 
ATOM     65  C   UNL A   1      43.821  35.490  31.458  1.00  0.00     0.059 A 
ATOM     66  F   UNL A   1      43.881  34.055  29.603  1.00  0.00    -0.206 F 
ATOM     67  C   UNL A   1      43.604  35.674  32.822  1.00  0.00     0.060 A 
BRANCH  67  68
ATOM     68  S   UNL A   1      43.755  37.314  33.562  1.00  0.00     0.124 S 
ATOM     69  O   UNL A   1      43.801  38.166  32.378  1.00  0.00    -0.237 OA
ATOM     70  O   UNL A   1      42.539  37.407  34.363  1.00  0.00    -0.237 OA
ATOM     71  O   UNL A   1      45.000  37.231  34.322  1.00  0.00    -0.744 OA
ENDBRANCH  67  68
ENDBRANCH  46  60
BRANCH  47  72
ATOM     72  C   UNL A   1      42.411  23.943  27.845  1.00  0.00     0.058 A 
ATOM     73  C   UNL A   1      42.347  23.735  26.460  1.00  0.00     0.135 A 
ATOM     74  C   UNL A   1      42.352  22.814  28.678  1.00  0.00     0.135 A 
ATOM     75  F   UNL A   1      42.384  24.784  25.623  1.00  0.00    -0.206 F 
ATOM     76  C   UNL A   1      42.225  22.459  25.919  1.00  0.00     0.059 A 
ATOM     77  C   UNL A   1      42.254  21.526  28.161  1.00  0.00     0.059 A 
ATOM     78  F   UNL A   1      42.416  22.958  30.011  1.00  0.00    -0.206 F 
ATOM     79  C   UNL A   1      42.186  21.360  26.778  1.00  0.00     0.060 A 
BRANCH  79  80
ATOM     80  S   UNL A   1      42.085  19.705  26.061  1.00  0.00     0.124 S 
ATOM     81  O   UNL A   1      42.498  18.872  27.184  1.00  0.00    -0.237 OA
ATOM     82  O   UNL A   1      40.677  19.621  25.686  1.00  0.00    -0.237 OA
ATOM     83  O   UNL A   1      43.021  19.767  24.943  1.00  0.00    -0.744 OA
ENDBRANCH  79  80
ENDBRANCH  47  72
BRANCH  59  84
ATOM     84  C   UNL A   1      47.736  27.478  30.660  1.00  0.00     0.058 A 
ATOM     85  C   UNL A   1      48.127  26.738  31.785  1.00  0.00     0.135 A 
ATOM     86  C   UNL A   1      48.725  27.819  29.723  1.00  0.00     0.135 A 
ATOM     87  F   UNL A   1      47.223  26.391  32.715  1.00  0.00    -0.206 F 
ATOM     88  C   UNL A   1      49.452  26.358  31.980  1.00  0.00     0.059 A 
ATOM     89  C   UNL A   1      50.049  27.428  29.883  1.00  0.00     0.059 A 
ATOM     90  F   UNL A   1      48.401  28.518  28.623  1.00  0.00    -0.206 F 
ATOM     91  C   UNL A   1      50.405  26.703  31.019  1.00  0.00     0.060 A 
BRANCH  91  92
ATOM     92  S   UNL A   1      52.110  26.158  31.262  1.00  0.00     0.124 S 
ATOM     93  O   UNL A   1      52.633  27.204  32.133  1.00  0.00    -0.237 OA
ATOM     94  O   UNL A   1      51.933  24.848  31.880  1.00  0.00    -0.237 OA
ATOM     95  O   UNL A   1      52.656  26.136  29.908  1.00  0.00    -0.744 OA
ENDBRANCH  91  92
ENDBRANCH  59  84
ENDBRANCH  33  34
ENDBRANCH  26  28
ENDBRANCH  25  26
ENDBRANCH  24  25
ENDBRANCH   1  24
TORSDOF 18
ENDMDL
MODEL 2
REMARK VINA RESULT:     -10.8      3.871      5.358
REMARK SMILES Cc1cc(Br)cc2c1O[C@H](C(F)(F)F)C(C(=O)OCCOCCOC(=O)c1ccc(-c3c4nc(c(-c5c(F)cc(S(=O)(=O)[O-])cc5F)c5ccc([nH]5)c(-c5c(F)cc(S(=O)(=O)[O-])cc5F)c5nc(c(-c6c(F)cc(S(=O)(=O)[O-])cc6F)c6ccc3[nH]6)C=C5)C=C4)cc1)=C2
REMARK SMILES IDX 22 1 21 2 20 3 19 4 18 5 16 6 17 7 15 8 1 9 2 10 3 11 8 12
REMARK SMILES IDX 4 13 7 14 9 15 5 16 6 17 93 18 10 19 11 20 12 21 13 22 14 23
REMARK SMILES IDX 23 24 24 25 25 26 26 27 27 28 28 29 92 30 29 31 91 32 30 33
REMARK SMILES IDX 31 34 32 35 85 36 33 37 90 38 84 39 86 40 34 41 89 42 83 43
REMARK SMILES IDX 82 44 35 46 69 47 48 48 68 49 49 50 52 51 67 52 87 53 50 54
REMARK SMILES IDX 51 55 66 57 88 58 53 59 36 60 37 61 46 62 38 63 39 64 45 65
REMARK SMILES IDX 47 66 40 67 41 68 42 69 43 70 44 71 70 72 71 73 80 74 72 75
REMARK SMILES IDX 73 76 79 77 81 78 74 79 75 80 76 81 77 82 78 83 54 84 55 85
REMARK SMILES IDX 64 86 56 87 57 88 63 89 65 90 58 91 59 92 60 93 61 94 62 95
REMARK H PARENT 86 45 52 56
REMARK Flexibility Score: inf
ROOT
ATOM      1  C   UNL A   1      34.149  31.969  27.995  1.00  0.00     0.202 C 
ENDROOT
BRANCH   1   2
ATOM      2  O   UNL A   1      34.584  30.836  27.242  1.00  0.00    -0.374 OA
BRANCH   2   3
ATOM      3  C   UNL A   1      33.614  29.841  26.917  1.00  0.00     0.202 C 
BRANCH   3   4
ATOM      4  C   UNL A   1      34.123  28.596  26.187  1.00  0.00     0.261 C 
BRANCH   4   5
ATOM      5  O   UNL A   1      33.861  28.664  24.776  1.00  0.00    -0.460 OA
BRANCH   5   6
ATOM      6  C   UNL A   1      33.392  27.518  24.234  1.00  0.00     0.338 C 
ATOM      7  O   UNL A   1      33.986  26.453  24.137  1.00  0.00    -0.246 OA
BRANCH   6   8
ATOM      8  C   UNL A   1      31.969  27.677  23.876  1.00  0.00     0.087 C 
ATOM      9  C   UNL A   1      26.819  27.662  23.656  1.00  0.00     0.048 C 
ATOM     10  C   UNL A   1      27.943  28.480  23.083  1.00  0.00    -0.007 A 
ATOM     11  C   UNL A   1      27.620  29.633  22.346  1.00  0.00     0.023 A 
ATOM     12  C   UNL A   1      29.295  28.153  23.284  1.00  0.00     0.130 A 
ATOM     13  C   UNL A   1      28.627  30.436  21.816  1.00  0.00     0.019 A 
ATOM     14  C   UNL A   1      30.299  28.986  22.775  1.00  0.00     0.019 A 
ATOM     15  O   UNL A   1      29.571  27.002  23.968  1.00  0.00    -0.475 OA
ATOM     16  Br  UNL A   1      28.176  31.985  20.830  1.00  0.00    -0.051 Br
ATOM     17  C   UNL A   1      29.964  30.119  22.026  1.00  0.00     0.027 A 
ATOM     18  C   UNL A   1      31.691  28.708  23.070  1.00  0.00     0.027 C 
ATOM     19  C   UNL A   1      30.929  26.738  24.419  1.00  0.00     0.316 C 
BRANCH  19  20
ATOM     20  C   UNL A   1      30.926  26.685  25.953  1.00  0.00     0.430 C 
ATOM     21  F   UNL A   1      31.980  25.974  26.420  1.00  0.00    -0.167 F 
ATOM     22  F   UNL A   1      31.013  27.920  26.499  1.00  0.00    -0.167 F 
ATOM     23  F   UNL A   1      29.801  26.107  26.433  1.00  0.00    -0.167 F 
ENDBRANCH  19  20
ENDBRANCH   6   8
ENDBRANCH   5   6
ENDBRANCH   4   5
ENDBRANCH   3   4
ENDBRANCH   2   3
ENDBRANCH   1   2
BRANCH   1  24
ATOM     24  C   UNL A   1      34.890  32.274  29.303  1.00  0.00     0.261 C 
BRANCH  24  25
ATOM     25  O   UNL A   1      35.631  31.141  29.790  1.00  0.00    -0.460 OA
BRANCH  25  26
ATOM     26  C   UNL A   1      36.735  31.455  30.510  1.00  0.00     0.338 C 
ATOM     27  O   UNL A   1      36.788  32.161  31.508  1.00  0.00    -0.246 OA
BRANCH  26  28
ATOM     28  C   UNL A   1      37.886  30.667  30.040  1.00  0.00     0.060 A 
ATOM     29  C   UNL A   1      38.854  30.302  30.985  1.00  0.00     0.016 A 
ATOM     30  C   UNL A   1      38.063  30.367  28.687  1.00  0.00     0.016 A 
ATOM     31  C   UNL A   1      40.027  29.675  30.574  1.00  0.00     0.010 A 
ATOM     32  C   UNL A   1      39.249  29.749  28.275  1.00  0.00     0.010 A 
ATOM     33  C   UNL A   1      40.249  29.432  29.212  1.00  0.00    -0.014 A 
BRANCH  33  34
ATOM     34  C   UNL A   1      41.593  28.992  28.763  1.00  0.00     0.031 A 
ATOM     35  C   UNL A   1      42.713  29.997  28.731  1.00  0.00     0.074 A 
ATOM     36  C   UNL A   1      41.822  27.708  28.439  1.00  0.00     0.049 A 
ATOM     37  N   UNL A   1      43.958  29.837  28.366  1.00  0.00    -0.248 NA
ATOM     38  C   UNL A   1      42.386  31.363  29.175  1.00  0.00     0.031 C 
ATOM     39  C   UNL A   1      40.828  26.636  28.483  1.00  0.00     0.029 A 
ATOM     40  N   UNL A   1      42.970  27.087  28.013  1.00  0.00    -0.354 N 
ATOM     41  C   UNL A   1      44.565  31.075  28.541  1.00  0.00     0.074 A 
ATOM     42  C   UNL A   1      43.544  31.986  29.011  1.00  0.00     0.031 C 
ATOM     43  C   UNL A   1      41.411  25.487  28.097  1.00  0.00     0.029 A 
ATOM     44  C   UNL A   1      42.807  25.747  27.752  1.00  0.00     0.049 A 
ATOM     45  H   UNL A   1      43.827  27.557  27.904  1.00  0.00     0.167 HD
ATOM     46  C   UNL A   1      45.859  31.417  28.341  1.00  0.00     0.037 A 
ATOM     47  C   UNL A   1      43.682  24.840  27.275  1.00  0.00     0.037 A 
ATOM     48  C   UNL A   1      46.871  30.507  27.870  1.00  0.00     0.049 A 
ATOM     49  C   UNL A   1      45.096  25.267  26.973  1.00  0.00     0.074 A 
ATOM     50  C   UNL A   1      48.211  30.758  27.635  1.00  0.00     0.029 A 
ATOM     51  N   UNL A   1      46.654  29.172  27.560  1.00  0.00    -0.354 N 
ATOM     52  N   UNL A   1      45.657  26.440  27.144  1.00  0.00    -0.248 NA
ATOM     53  C   UNL A   1      45.994  24.247  26.412  1.00  0.00     0.031 C 
ATOM     54  C   UNL A   1      48.794  29.588  27.140  1.00  0.00     0.029 A 
ATOM     55  C   UNL A   1      47.829  28.594  27.113  1.00  0.00     0.049 A 
ATOM     56  H   UNL A   1      45.790  28.706  27.646  1.00  0.00     0.167 HD
ATOM     57  C   UNL A   1      46.977  26.295  26.731  1.00  0.00     0.074 A 
ATOM     58  C   UNL A   1      47.135  24.917  26.313  1.00  0.00     0.031 C 
ATOM     59  C   UNL A   1      47.970  27.219  26.701  1.00  0.00     0.037 A 
BRANCH  46  60
ATOM     60  C   UNL A   1      46.257  32.838  28.620  1.00  0.00     0.058 A 
ATOM     61  C   UNL A   1      46.188  33.828  27.627  1.00  0.00     0.135 A 
ATOM     62  C   UNL A   1      46.665  33.227  29.906  1.00  0.00     0.135 A 
ATOM     63  F   UNL A   1      45.825  33.507  26.376  1.00  0.00    -0.206 F 
ATOM     64  C   UNL A   1      46.522  35.152  27.896  1.00  0.00     0.059 A 
ATOM     65  C   UNL A   1      46.980  34.550  30.204  1.00  0.00     0.059 A 
ATOM     66  F   UNL A   1      46.753  32.319  30.890  1.00  0.00    -0.206 F 
ATOM     67  C   UNL A   1      46.913  35.503  29.190  1.00  0.00     0.060 A 
BRANCH  67  68
ATOM     68  S   UNL A   1      47.324  37.230  29.523  1.00  0.00     0.124 S 
ATOM     69  O   UNL A   1      46.177  37.920  28.941  1.00  0.00    -0.237 OA
ATOM     70  O   UNL A   1      47.405  37.253  30.980  1.00  0.00    -0.237 OA
ATOM     71  O   UNL A   1      48.591  37.420  28.823  1.00  0.00    -0.744 OA
ENDBRANCH  67  68
ENDBRANCH  46  60
BRANCH  47  72
ATOM     72  C   UNL A   1      43.246  23.437  27.049  1.00  0.00     0.058 A 
ATOM     73  C   UNL A   1      42.924  22.978  25.764  1.00  0.00     0.135 A 
ATOM     74  C   UNL A   1      43.151  22.524  28.111  1.00  0.00     0.135 A 
ATOM     75  F   UNL A   1      42.984  23.817  24.718  1.00  0.00    -0.206 F 
ATOM     76  C   UNL A   1      42.519  21.666  25.538  1.00  0.00     0.059 A 
ATOM     77  C   UNL A   1      42.772  21.200  27.908  1.00  0.00     0.059 A 
ATOM     78  F   UNL A   1      43.456  22.911  29.360  1.00  0.00    -0.206 F 
ATOM     79  C   UNL A   1      42.452  20.783  26.617  1.00  0.00     0.060 A 
BRANCH  79  80
ATOM     80  S   UNL A   1      41.981  19.068  26.302  1.00  0.00     0.124 S 
ATOM     81  O   UNL A   1      40.580  19.212  25.926  1.00  0.00    -0.237 OA
ATOM     82  O   UNL A   1      42.896  18.693  25.229  1.00  0.00    -0.237 OA
ATOM     83  O   UNL A   1      42.226  18.412  27.583  1.00  0.00    -0.744 OA
ENDBRANCH  79  80
ENDBRANCH  47  72
BRANCH  59  84
ATOM     84  C   UNL A   1      49.323  26.777  26.216  1.00  0.00     0.058 A 
ATOM     85  C   UNL A   1      49.725  26.973  24.887  1.00  0.00     0.135 A 
ATOM     86  C   UNL A   1      50.256  26.226  27.110  1.00  0.00     0.135 A 
ATOM     87  F   UNL A   1      48.870  27.491  23.991  1.00  0.00    -0.206 F 
ATOM     88  C   UNL A   1      51.003  26.628  24.456  1.00  0.00     0.059 A 
ATOM     89  C   UNL A   1      51.546  25.897  26.708  1.00  0.00     0.059 A 
ATOM     90  F   UNL A   1      49.925  26.027  28.396  1.00  0.00    -0.206 F 
ATOM     91  C   UNL A   1      51.909  26.095  25.377  1.00  0.00     0.060 A 
BRANCH  91  92
ATOM     92  S   UNL A   1      53.578  25.700  24.812  1.00  0.00     0.124 S 
ATOM     93  O   UNL A   1      53.432  25.805  23.365  1.00  0.00    -0.237 OA
ATOM     94  O   UNL A   1      54.377  26.743  25.447  1.00  0.00    -0.237 OA
ATOM     95  O   UNL A   1      53.799  24.351  25.324  1.00  0.00    -0.744 OA
ENDBRANCH  91  92
ENDBRANCH  59  84
ENDBRANCH  33  34
ENDBRANCH  26  28
ENDBRANCH  25  26
ENDBRANCH  24  25
ENDBRANCH   1  24
TORSDOF 18
ENDMDL
MODEL 3
REMARK VINA RESULT:     -10.8      3.155      4.204
REMARK SMILES Cc1cc(Br)cc2c1O[C@H](C(F)(F)F)C(C(=O)OCCOCCOC(=O)c1ccc(-c3c4nc(c(-c5c(F)cc(S(=O)(=O)[O-])cc5F)c5ccc([nH]5)c(-c5c(F)cc(S(=O)(=O)[O-])cc5F)c5nc(c(-c6c(F)cc(S(=O)(=O)[O-])cc6F)c6ccc3[nH]6)C=C5)C=C4)cc1)=C2
REMARK SMILES IDX 22 1 21 2 20 3 19 4 18 5 16 6 17 7 15 8 1 9 2 10 3 11 8 12
REMARK SMILES IDX 4 13 7 14 9 15 5 16 6 17 93 18 10 19 11 20 12 21 13 22 14 23
REMARK SMILES IDX 23 24 24 25 25 26 26 27 27 28 28 29 92 30 29 31 91 32 30 33
REMARK SMILES IDX 31 34 32 35 85 36 33 37 90 38 84 39 86 40 34 41 89 42 83 43
REMARK SMILES IDX 82 44 35 46 69 47 48 48 68 49 49 50 52 51 67 52 87 53 50 54
REMARK SMILES IDX 51 55 66 57 88 58 53 59 36 60 37 61 46 62 38 63 39 64 45 65
REMARK SMILES IDX 47 66 40 67 41 68 42 69 43 70 44 71 70 72 71 73 80 74 72 75
REMARK SMILES IDX 73 76 79 77 81 78 74 79 75 80 76 81 77 82 78 83 54 84 55 85
REMARK SMILES IDX 64 86 56 87 57 88 63 89 65 90 58 91 59 92 60 93 61 94 62 95
REMARK H PARENT 86 45 52 56
REMARK Flexibility Score: inf
ROOT
ATOM      1  C   UNL A   1      33.981  30.958  27.221  1.00  0.00     0.202 C 
ENDROOT
BRANCH   1   2
ATOM      2  O   UNL A   1      32.697  30.334  27.252  1.00  0.00    -0.374 OA
BRANCH   2   3
ATOM      3  C   UNL A   1      31.783  30.643  26.200  1.00  0.00     0.202 C 
BRANCH   3   4
ATOM      4  C   UNL A   1      31.514  29.536  25.176  1.00  0.00     0.261 C 
BRANCH   4   5
ATOM      5  O   UNL A   1      32.698  28.772  24.897  1.00  0.00    -0.460 OA
BRANCH   5   6
ATOM      6  C   UNL A   1      32.487  27.645  24.180  1.00  0.00     0.338 C 
ATOM      7  O   UNL A   1      32.139  27.573  23.010  1.00  0.00    -0.246 OA
BRANCH   6   8
ATOM      8  C   UNL A   1      32.871  26.464  24.977  1.00  0.00     0.087 C 
ATOM      9  C   UNL A   1      33.033  22.208  27.879  1.00  0.00     0.048 C 
ATOM     10  C   UNL A   1      33.925  22.896  26.884  1.00  0.00    -0.007 A 
ATOM     11  C   UNL A   1      35.110  22.249  26.492  1.00  0.00     0.023 A 
ATOM     12  C   UNL A   1      33.603  24.138  26.311  1.00  0.00     0.130 A 
ATOM     13  C   UNL A   1      35.957  22.835  25.554  1.00  0.00     0.019 A 
ATOM     14  C   UNL A   1      34.444  24.702  25.346  1.00  0.00     0.019 A 
ATOM     15  O   UNL A   1      32.465  24.758  26.748  1.00  0.00    -0.475 OA
ATOM     16  Br  UNL A   1      37.545  21.950  25.035  1.00  0.00    -0.051 Br
ATOM     17  C   UNL A   1      35.631  24.058  24.979  1.00  0.00     0.027 A 
ATOM     18  C   UNL A   1      34.061  25.931  24.677  1.00  0.00     0.027 C 
ATOM     19  C   UNL A   1      31.950  25.913  26.028  1.00  0.00     0.316 C 
BRANCH  19  20
ATOM     20  C   UNL A   1      30.565  25.554  25.470  1.00  0.00     0.430 C 
ATOM     21  F   UNL A   1      29.892  24.740  26.318  1.00  0.00    -0.167 F 
ATOM     22  F   UNL A   1      29.797  26.653  25.289  1.00  0.00    -0.167 F 
ATOM     23  F   UNL A   1      30.653  24.919  24.279  1.00  0.00    -0.167 F 
ENDBRANCH  19  20
ENDBRANCH   6   8
ENDBRANCH   5   6
ENDBRANCH   4   5
ENDBRANCH   3   4
ENDBRANCH   2   3
ENDBRANCH   1   2
BRANCH   1  24
ATOM     24  C   UNL A   1      34.778  30.998  28.531  1.00  0.00     0.261 C 
BRANCH  24  25
ATOM     25  O   UNL A   1      35.633  29.851  28.686  1.00  0.00    -0.460 OA
BRANCH  25  26
ATOM     26  C   UNL A   1      36.360  29.839  29.830  1.00  0.00     0.338 C 
ATOM     27  O   UNL A   1      35.936  29.728  30.972  1.00  0.00    -0.246 OA
BRANCH  26  28
ATOM     28  C   UNL A   1      37.798  29.789  29.514  1.00  0.00     0.060 A 
ATOM     29  C   UNL A   1      38.163  29.693  28.165  1.00  0.00     0.016 A 
ATOM     30  C   UNL A   1      38.766  29.747  30.519  1.00  0.00     0.016 A 
ATOM     31  C   UNL A   1      39.499  29.508  27.817  1.00  0.00     0.010 A 
ATOM     32  C   UNL A   1      40.106  29.547  30.167  1.00  0.00     0.010 A 
ATOM     33  C   UNL A   1      40.473  29.392  28.818  1.00  0.00    -0.014 A 
BRANCH  33  34
ATOM     34  C   UNL A   1      41.841  28.954  28.452  1.00  0.00     0.031 A 
ATOM     35  C   UNL A   1      42.958  29.962  28.479  1.00  0.00     0.074 A 
ATOM     36  C   UNL A   1      42.093  27.668  28.150  1.00  0.00     0.049 A 
ATOM     37  N   UNL A   1      44.223  29.803  28.189  1.00  0.00    -0.248 NA
ATOM     38  C   UNL A   1      42.602  31.329  28.894  1.00  0.00     0.031 C 
ATOM     39  C   UNL A   1      41.101  26.594  28.143  1.00  0.00     0.029 A 
ATOM     40  N   UNL A   1      43.265  27.048  27.797  1.00  0.00    -0.354 N 
ATOM     41  C   UNL A   1      44.815  31.045  28.390  1.00  0.00     0.074 A 
ATOM     42  C   UNL A   1      43.766  31.955  28.794  1.00  0.00     0.031 C 
ATOM     43  C   UNL A   1      41.708  25.444  27.801  1.00  0.00     0.029 A 
ATOM     44  C   UNL A   1      43.121  25.706  27.536  1.00  0.00     0.049 A 
ATOM     45  H   UNL A   1      44.126  27.520  27.735  1.00  0.00     0.167 HD
ATOM     46  C   UNL A   1      46.118  31.390  28.265  1.00  0.00     0.037 A 
ATOM     47  C   UNL A   1      44.026  24.799  27.117  1.00  0.00     0.037 A 
ATOM     48  C   UNL A   1      47.158  30.480  27.860  1.00  0.00     0.049 A 
ATOM     49  C   UNL A   1      45.454  25.228  26.896  1.00  0.00     0.074 A 
ATOM     50  C   UNL A   1      48.509  30.734  27.702  1.00  0.00     0.029 A 
ATOM     51  N   UNL A   1      46.963  29.142  27.547  1.00  0.00    -0.354 N 
ATOM     52  N   UNL A   1      46.000  26.404  27.092  1.00  0.00    -0.248 NA
ATOM     53  C   UNL A   1      46.386  24.208  26.395  1.00  0.00     0.031 C 
ATOM     54  C   UNL A   1      49.124  29.562  27.249  1.00  0.00     0.029 A 
ATOM     55  C   UNL A   1      48.164  28.565  27.173  1.00  0.00     0.049 A 
ATOM     56  H   UNL A   1      46.098  28.674  27.585  1.00  0.00     0.167 HD
ATOM     57  C   UNL A   1      47.343  26.261  26.757  1.00  0.00     0.074 A 
ATOM     58  C   UNL A   1      47.529  24.880  26.359  1.00  0.00     0.031 C 
ATOM     59  C   UNL A   1      48.333  27.187  26.780  1.00  0.00     0.037 A 
BRANCH  46  60
ATOM     60  C   UNL A   1      46.495  32.814  28.557  1.00  0.00     0.058 A 
ATOM     61  C   UNL A   1      46.485  33.796  27.554  1.00  0.00     0.135 A 
ATOM     62  C   UNL A   1      46.823  33.213  29.862  1.00  0.00     0.135 A 
ATOM     63  F   UNL A   1      46.198  33.465  26.286  1.00  0.00    -0.206 F 
ATOM     64  C   UNL A   1      46.798  35.123  27.833  1.00  0.00     0.059 A 
ATOM     65  C   UNL A   1      47.116  34.539  30.169  1.00  0.00     0.059 A 
ATOM     66  F   UNL A   1      46.853  32.312  30.857  1.00  0.00    -0.206 F 
ATOM     67  C   UNL A   1      47.109  35.485  29.145  1.00  0.00     0.060 A 
BRANCH  67  68
ATOM     68  S   UNL A   1      47.494  37.215  29.491  1.00  0.00     0.124 S 
ATOM     69  O   UNL A   1      48.059  37.648  28.217  1.00  0.00    -0.237 OA
ATOM     70  O   UNL A   1      46.184  37.764  29.824  1.00  0.00    -0.237 OA
ATOM     71  O   UNL A   1      48.440  37.138  30.601  1.00  0.00    -0.744 OA
ENDBRANCH  67  68
ENDBRANCH  46  60
BRANCH  47  72
ATOM     72  C   UNL A   1      43.607  23.393  26.875  1.00  0.00     0.058 A 
ATOM     73  C   UNL A   1      43.367  22.516  27.943  1.00  0.00     0.135 A 
ATOM     74  C   UNL A   1      43.431  22.899  25.573  1.00  0.00     0.135 A 
ATOM     75  F   UNL A   1      43.536  22.937  29.206  1.00  0.00    -0.206 F 
ATOM     76  C   UNL A   1      42.970  21.200  27.731  1.00  0.00     0.059 A 
ATOM     77  C   UNL A   1      43.012  21.594  25.334  1.00  0.00     0.059 A 
ATOM     78  F   UNL A   1      43.641  23.700  24.516  1.00  0.00    -0.206 F 
ATOM     79  C   UNL A   1      42.790  20.750  26.421  1.00  0.00     0.060 A 
BRANCH  79  80
ATOM     80  S   UNL A   1      42.219  19.056  26.161  1.00  0.00     0.124 S 
ATOM     81  O   UNL A   1      43.106  18.608  25.093  1.00  0.00    -0.237 OA
ATOM     82  O   UNL A   1      42.443  18.455  27.472  1.00  0.00    -0.237 OA
ATOM     83  O   UNL A   1      40.818  19.227  25.788  1.00  0.00    -0.744 OA
ENDBRANCH  79  80
ENDBRANCH  47  72
BRANCH  59  84
ATOM     84  C   UNL A   1      49.713  26.747  26.378  1.00  0.00     0.058 A 
ATOM     85  C   UNL A   1      50.588  26.147  27.295  1.00  0.00     0.135 A 
ATOM     86  C   UNL A   1      50.135  26.853  25.042  1.00  0.00     0.135 A 
ATOM     87  F   UNL A   1      50.235  26.026  28.585  1.00  0.00    -0.206 F 
ATOM     88  C   UNL A   1      51.838  25.676  26.906  1.00  0.00     0.059 A 
ATOM     89  C   UNL A   1      51.370  26.367  24.625  1.00  0.00     0.059 A 
ATOM     90  F   UNL A   1      49.332  27.410  24.121  1.00  0.00    -0.206 F 
ATOM     91  C   UNL A   1      52.218  25.786  25.566  1.00  0.00     0.060 A 
BRANCH  91  92
ATOM     92  S   UNL A   1      53.823  25.125  25.068  1.00  0.00     0.124 S 
ATOM     93  O   UNL A   1      54.105  25.907  23.870  1.00  0.00    -0.237 OA
ATOM     94  O   UNL A   1      54.656  25.422  26.230  1.00  0.00    -0.237 OA
ATOM     95  O   UNL A   1      53.553  23.709  24.844  1.00  0.00    -0.744 OA
ENDBRANCH  91  92
ENDBRANCH  59  84
ENDBRANCH  33  34
ENDBRANCH  26  28
ENDBRANCH  25  26
ENDBRANCH  24  25
ENDBRANCH   1  24
TORSDOF 18
ENDMDL
