MODEL 1
REMARK VINA RESULT:     -11.6      0.000      0.000
REMARK SMILES CCOC(=O)[C@@]1(C)C/C(=N/c2cccc(C(=O)OCCOCCOC(=O)c3ccc(-c4c5nc(c(-c6c(F)cc(S(=O)(=O)[O-])cc6F)c6ccc([nH]6)c(-c6c(F)cc(S(=O)(=O)[O-])cc6F)c6nc(c(-c7c(F)cc(S(=O)(=O)[O-])cc7F)c7ccc4[nH]7)C=C6)C=C5)cc3)c2)C(=O)N1c1ccccc1
REMARK SMILES IDX 20 1 19 2 18 3 16 4 17 5 15 6 11 7 12 8 93 9 13 10 14 11
REMARK SMILES IDX 10 12 6 13 7 14 8 15 96 16 9 17 94 18 95 19 4 20 5 21 3 22
REMARK SMILES IDX 2 23 1 24 97 25 98 26 102 27 99 28 101 29 100 30 21 31 22 32
REMARK SMILES IDX 23 33 24 34 25 35 26 36 27 37 28 38 92 39 29 40 91 41 30 42
REMARK SMILES IDX 31 43 32 44 85 45 33 46 90 47 84 48 86 49 34 50 89 51 83 52
REMARK SMILES IDX 82 53 35 55 69 56 48 57 68 58 49 59 52 60 67 61 87 62 50 63
REMARK SMILES IDX 51 64 66 66 88 67 53 68 36 69 37 70 46 71 38 72 39 73 45 74
REMARK SMILES IDX 47 75 40 76 41 77 42 78 43 79 44 80 70 81 71 82 80 83 72 84
REMARK SMILES IDX 73 85 79 86 81 87 74 88 75 89 76 90 77 91 78 92 54 93 55 94
REMARK SMILES IDX 64 95 56 96 57 97 63 98 65 99 58 100 59 101 60 102 61 103
REMARK SMILES IDX 62 104
REMARK H PARENT 86 54 52 65
REMARK Flexibility Score: inf
ROOT
ATOM      1  C   UNL A   1      34.646  30.869  27.685  1.00  0.00     0.202 C 
ENDROOT
BRANCH   1   2
ATOM      2  C   UNL A   1      33.198  31.200  27.323  1.00  0.00     0.261 C 
BRANCH   2   3
ATOM      3  O   UNL A   1      32.760  30.332  26.262  1.00  0.00    -0.460 OA
BRANCH   3   4
ATOM      4  C   UNL A   1      31.930  29.318  26.604  1.00  0.00     0.338 C 
ATOM      5  O   UNL A   1      31.408  29.138  27.692  1.00  0.00    -0.246 OA
BRANCH   4   6
ATOM      6  C   UNL A   1      31.684  28.441  25.428  1.00  0.00     0.062 A 
ATOM      7  C   UNL A   1      31.079  26.310  24.428  1.00  0.00     0.064 A 
ATOM      8  C   UNL A   1      31.266  26.867  23.160  1.00  0.00     0.028 A 
ATOM      9  C   UNL A   1      31.319  27.094  25.560  1.00  0.00     0.044 A 
ATOM     10  C   UNL A   1      31.649  28.202  23.017  1.00  0.00     0.003 A 
ATOM     11  C   UNL A   1      31.851  28.989  24.150  1.00  0.00     0.016 A 
BRANCH   7  12
ATOM     12  N   UNL A   1      30.751  24.952  24.531  1.00  0.00    -0.248 NA
ATOM     13  C   UNL A   1      32.720  22.009  24.611  1.00  0.00     0.148 C 
ATOM     14  C   UNL A   1      32.806  21.707  23.102  1.00  0.00     0.048 C 
ATOM     15  C   UNL A   1      31.332  22.628  24.896  1.00  0.00     0.103 C 
ATOM     16  N   UNL A   1      33.715  23.037  25.006  1.00  0.00    -0.290 N 
ATOM     17  C   UNL A   1      31.648  24.079  24.871  1.00  0.00     0.109 C 
ATOM     18  C   UNL A   1      33.102  24.270  25.228  1.00  0.00     0.273 C 
ATOM     19  O   UNL A   1      33.535  25.333  25.621  1.00  0.00    -0.267 OA
BRANCH  13  20
ATOM     20  C   UNL A   1      32.773  20.773  25.536  1.00  0.00     0.332 C 
ATOM     21  O   UNL A   1      33.206  20.793  26.682  1.00  0.00    -0.249 OA
BRANCH  20  22
ATOM     22  O   UNL A   1      32.191  19.691  24.949  1.00  0.00    -0.464 OA
BRANCH  22  23
ATOM     23  C   UNL A   1      33.038  18.553  24.722  1.00  0.00     0.229 C 
ATOM     24  C   UNL A   1      32.626  17.419  25.640  1.00  0.00     0.049 C 
ENDBRANCH  22  23
ENDBRANCH  20  22
ENDBRANCH  13  20
BRANCH  16  25
ATOM     25  C   UNL A   1      35.128  22.800  25.091  1.00  0.00     0.045 A 
ATOM     26  C   UNL A   1      35.983  23.698  25.750  1.00  0.00     0.026 A 
ATOM     27  C   UNL A   1      35.734  21.676  24.501  1.00  0.00     0.026 A 
ATOM     28  C   UNL A   1      37.369  23.496  25.806  1.00  0.00     0.002 A 
ATOM     29  C   UNL A   1      37.120  21.473  24.550  1.00  0.00     0.002 A 
ATOM     30  C   UNL A   1      37.938  22.384  25.201  1.00  0.00     0.000 A 
ENDBRANCH  16  25
ENDBRANCH   7  12
ENDBRANCH   4   6
ENDBRANCH   3   4
ENDBRANCH   2   3
ENDBRANCH   1   2
BRANCH   1  31
ATOM     31  O   UNL A   1      35.293  31.988  28.297  1.00  0.00    -0.374 OA
BRANCH  31  32
ATOM     32  C   UNL A   1      34.497  32.684  29.258  1.00  0.00     0.202 C 
BRANCH  32  33
ATOM     33  C   UNL A   1      35.067  32.535  30.669  1.00  0.00     0.261 C 
BRANCH  33  34
ATOM     34  O   UNL A   1      36.472  32.231  30.599  1.00  0.00    -0.460 OA
BRANCH  34  35
ATOM     35  C   UNL A   1      36.879  31.121  31.260  1.00  0.00     0.338 C 
ATOM     36  O   UNL A   1      36.311  30.584  32.196  1.00  0.00    -0.246 OA
BRANCH  35  37
ATOM     37  C   UNL A   1      38.112  30.579  30.633  1.00  0.00     0.060 A 
ATOM     38  C   UNL A   1      39.131  30.124  31.480  1.00  0.00     0.016 A 
ATOM     39  C   UNL A   1      38.283  30.510  29.243  1.00  0.00     0.016 A 
ATOM     40  C   UNL A   1      40.318  29.619  30.944  1.00  0.00     0.010 A 
ATOM     41  C   UNL A   1      39.472  30.008  28.707  1.00  0.00     0.010 A 
ATOM     42  C   UNL A   1      40.499  29.572  29.555  1.00  0.00    -0.014 A 
BRANCH  42  43
ATOM     43  C   UNL A   1      41.798  29.128  29.005  1.00  0.00     0.031 A 
ATOM     44  C   UNL A   1      42.938  30.097  28.925  1.00  0.00     0.074 A 
ATOM     45  C   UNL A   1      41.962  27.858  28.596  1.00  0.00     0.049 A 
ATOM     46  N   UNL A   1      44.182  29.881  28.586  1.00  0.00    -0.248 NA
ATOM     47  C   UNL A   1      42.638  31.494  29.275  1.00  0.00     0.031 C 
ATOM     48  C   UNL A   1      40.926  26.826  28.601  1.00  0.00     0.029 A 
ATOM     49  N   UNL A   1      43.069  27.224  28.096  1.00  0.00    -0.354 N 
ATOM     50  C   UNL A   1      44.823  31.105  28.711  1.00  0.00     0.074 A 
ATOM     51  C   UNL A   1      43.822  32.068  29.126  1.00  0.00     0.031 C 
ATOM     52  C   UNL A   1      41.446  25.685  28.118  1.00  0.00     0.029 A 
ATOM     53  C   UNL A   1      42.854  25.906  27.787  1.00  0.00     0.049 A 
ATOM     54  H   UNL A   1      43.937  27.672  27.972  1.00  0.00     0.167 HD
ATOM     55  C   UNL A   1      46.130  31.399  28.518  1.00  0.00     0.037 A 
ATOM     56  C   UNL A   1      43.699  24.978  27.301  1.00  0.00     0.037 A 
ATOM     57  C   UNL A   1      47.127  30.455  28.096  1.00  0.00     0.049 A 
ATOM     58  C   UNL A   1      45.137  25.330  27.058  1.00  0.00     0.074 A 
ATOM     59  C   UNL A   1      48.486  30.647  27.921  1.00  0.00     0.029 A 
ATOM     60  N   UNL A   1      46.864  29.134  27.764  1.00  0.00    -0.354 N 
ATOM     61  N   UNL A   1      45.747  26.474  27.254  1.00  0.00    -0.248 NA
ATOM     62  C   UNL A   1      46.004  24.264  26.536  1.00  0.00     0.031 C 
ATOM     63  C   UNL A   1      49.043  29.443  27.468  1.00  0.00     0.029 A 
ATOM     64  C   UNL A   1      48.029  28.503  27.365  1.00  0.00     0.049 A 
ATOM     65  H   UNL A   1      45.978  28.708  27.807  1.00  0.00     0.167 HD
ATOM     66  C   UNL A   1      47.071  26.264  26.894  1.00  0.00     0.074 A 
ATOM     67  C   UNL A   1      47.175  24.884  26.459  1.00  0.00     0.031 C 
ATOM     68  C   UNL A   1      48.110  27.133  26.929  1.00  0.00     0.037 A 
BRANCH  55  69
ATOM     69  C   UNL A   1      46.536  32.814  28.790  1.00  0.00     0.058 A 
ATOM     70  C   UNL A   1      46.903  33.216  30.083  1.00  0.00     0.135 A 
ATOM     71  C   UNL A   1      46.500  33.783  27.778  1.00  0.00     0.135 A 
ATOM     72  F   UNL A   1      46.933  32.324  31.085  1.00  0.00    -0.206 F 
ATOM     73  C   UNL A   1      47.191  34.545  30.373  1.00  0.00     0.059 A 
ATOM     74  C   UNL A   1      46.787  35.118  28.045  1.00  0.00     0.059 A 
ATOM     75  F   UNL A   1      46.136  33.445  26.531  1.00  0.00    -0.206 F 
ATOM     76  C   UNL A   1      47.111  35.491  29.351  1.00  0.00     0.060 A 
BRANCH  76  77
ATOM     77  S   UNL A   1      47.418  37.230  29.728  1.00  0.00     0.124 S 
ATOM     78  O   UNL A   1      46.377  37.882  28.941  1.00  0.00    -0.237 OA
ATOM     79  O   UNL A   1      47.244  37.286  31.177  1.00  0.00    -0.237 OA
ATOM     80  O   UNL A   1      48.785  37.432  29.259  1.00  0.00    -0.744 OA
ENDBRANCH  76  77
ENDBRANCH  55  69
BRANCH  56  81
ATOM     81  C   UNL A   1      43.189  23.616  27.021  1.00  0.00     0.058 A 
ATOM     82  C   UNL A   1      42.912  23.204  25.711  1.00  0.00     0.135 A 
ATOM     83  C   UNL A   1      43.037  22.687  28.058  1.00  0.00     0.135 A 
ATOM     84  F   UNL A   1      43.046  24.067  24.693  1.00  0.00    -0.206 F 
ATOM     85  C   UNL A   1      42.514  21.900  25.431  1.00  0.00     0.059 A 
ATOM     86  C   UNL A   1      42.643  21.379  27.803  1.00  0.00     0.059 A 
ATOM     87  F   UNL A   1      43.300  23.042  29.325  1.00  0.00    -0.206 F 
ATOM     88  C   UNL A   1      42.390  20.993  26.485  1.00  0.00     0.060 A 
BRANCH  88  89
ATOM     89  S   UNL A   1      41.986  19.264  26.160  1.00  0.00     0.124 S 
ATOM     90  O   UNL A   1      42.799  18.990  24.982  1.00  0.00    -0.237 OA
ATOM     91  O   UNL A   1      42.394  18.590  27.388  1.00  0.00    -0.237 OA
ATOM     92  O   UNL A   1      40.542  19.324  25.937  1.00  0.00    -0.744 OA
ENDBRANCH  88  89
ENDBRANCH  56  81
BRANCH  68  93
ATOM     93  C   UNL A   1      49.444  26.618  26.483  1.00  0.00     0.058 A 
ATOM     94  C   UNL A   1      49.896  26.829  25.173  1.00  0.00     0.135 A 
ATOM     95  C   UNL A   1      50.287  25.939  27.376  1.00  0.00     0.135 A 
ATOM     96  F   UNL A   1      49.119  27.469  24.284  1.00  0.00    -0.206 F 
ATOM     97  C   UNL A   1      51.144  26.377  24.757  1.00  0.00     0.059 A 
ATOM     98  C   UNL A   1      51.540  25.483  26.981  1.00  0.00     0.059 A 
ATOM     99  F   UNL A   1      49.892  25.714  28.639  1.00  0.00    -0.206 F 
ATOM    100  C   UNL A   1      51.957  25.699  25.667  1.00  0.00     0.060 A 
BRANCH 100 101
ATOM    101  S   UNL A   1      53.592  25.131  25.152  1.00  0.00     0.124 S 
ATOM    102  O   UNL A   1      53.455  23.685  25.288  1.00  0.00    -0.237 OA
ATOM    103  O   UNL A   1      53.698  25.629  23.783  1.00  0.00    -0.237 OA
ATOM    104  O   UNL A   1      54.480  25.776  26.115  1.00  0.00    -0.744 OA
ENDBRANCH 100 101
ENDBRANCH  68  93
ENDBRANCH  42  43
ENDBRANCH  35  37
ENDBRANCH  34  35
ENDBRANCH  33  34
ENDBRANCH  32  33
ENDBRANCH  31  32
ENDBRANCH   1  31
TORSDOF 22
ENDMDL
MODEL 2
REMARK VINA RESULT:     -11.2      1.422      2.304
REMARK SMILES CCOC(=O)[C@@]1(C)C/C(=N/c2cccc(C(=O)OCCOCCOC(=O)c3ccc(-c4c5nc(c(-c6c(F)cc(S(=O)(=O)[O-])cc6F)c6ccc([nH]6)c(-c6c(F)cc(S(=O)(=O)[O-])cc6F)c6nc(c(-c7c(F)cc(S(=O)(=O)[O-])cc7F)c7ccc4[nH]7)C=C6)C=C5)cc3)c2)C(=O)N1c1ccccc1
REMARK SMILES IDX 20 1 19 2 18 3 16 4 17 5 15 6 11 7 12 8 93 9 13 10 14 11
REMARK SMILES IDX 10 12 6 13 7 14 8 15 96 16 9 17 94 18 95 19 4 20 5 21 3 22
REMARK SMILES IDX 2 23 1 24 97 25 98 26 102 27 99 28 101 29 100 30 21 31 22 32
REMARK SMILES IDX 23 33 24 34 25 35 26 36 27 37 28 38 92 39 29 40 91 41 30 42
REMARK SMILES IDX 31 43 32 44 85 45 33 46 90 47 84 48 86 49 34 50 89 51 83 52
REMARK SMILES IDX 82 53 35 55 69 56 48 57 68 58 49 59 52 60 67 61 87 62 50 63
REMARK SMILES IDX 51 64 66 66 88 67 53 68 36 69 37 70 46 71 38 72 39 73 45 74
REMARK SMILES IDX 47 75 40 76 41 77 42 78 43 79 44 80 70 81 71 82 80 83 72 84
REMARK SMILES IDX 73 85 79 86 81 87 74 88 75 89 76 90 77 91 78 92 54 93 55 94
REMARK SMILES IDX 64 95 56 96 57 97 63 98 65 99 58 100 59 101 60 102 61 103
REMARK SMILES IDX 62 104
REMARK H PARENT 86 54 52 65
REMARK Flexibility Score: inf
ROOT
ATOM      1  C   UNL A   1      36.364  33.545  29.041  1.00  0.00     0.202 C 
ENDROOT
BRANCH   1   2
ATOM      2  C   UNL A   1      35.452  32.969  27.958  1.00  0.00     0.261 C 
BRANCH   2   3
ATOM      3  O   UNL A   1      34.826  31.770  28.447  1.00  0.00    -0.460 OA
BRANCH   3   4
ATOM      4  C   UNL A   1      34.847  30.690  27.630  1.00  0.00     0.338 C 
ATOM      5  O   UNL A   1      35.742  29.867  27.532  1.00  0.00    -0.246 OA
BRANCH   4   6
ATOM      6  C   UNL A   1      33.572  30.600  26.869  1.00  0.00     0.062 A 
ATOM      7  C   UNL A   1      32.168  29.632  25.137  1.00  0.00     0.064 A 
ATOM      8  C   UNL A   1      31.148  30.520  25.485  1.00  0.00     0.028 A 
ATOM      9  C   UNL A   1      33.391  29.697  25.813  1.00  0.00     0.044 A 
ATOM     10  C   UNL A   1      31.324  31.438  26.523  1.00  0.00     0.003 A 
ATOM     11  C   UNL A   1      32.532  31.472  27.218  1.00  0.00     0.016 A 
BRANCH   7  12
ATOM     12  N   UNL A   1      31.974  28.767  24.053  1.00  0.00    -0.248 NA
ATOM     13  C   UNL A   1      32.618  25.315  23.594  1.00  0.00     0.148 C 
ATOM     14  C   UNL A   1      34.066  25.383  23.069  1.00  0.00     0.048 C 
ATOM     15  C   UNL A   1      31.860  26.556  23.068  1.00  0.00     0.103 C 
ATOM     16  N   UNL A   1      32.582  25.411  25.074  1.00  0.00    -0.290 N 
ATOM     17  C   UNL A   1      31.977  27.481  24.224  1.00  0.00     0.109 C 
ATOM     18  C   UNL A   1      32.147  26.670  25.485  1.00  0.00     0.273 C 
ATOM     19  O   UNL A   1      31.917  27.131  26.583  1.00  0.00    -0.267 OA
BRANCH  13  20
ATOM     20  C   UNL A   1      31.785  24.122  23.075  1.00  0.00     0.332 C 
ATOM     21  O   UNL A   1      30.562  24.064  23.135  1.00  0.00    -0.249 OA
BRANCH  20  22
ATOM     22  O   UNL A   1      32.573  23.198  22.460  1.00  0.00    -0.464 OA
BRANCH  22  23
ATOM     23  C   UNL A   1      32.695  21.925  23.114  1.00  0.00     0.229 C 
ATOM     24  C   UNL A   1      31.901  20.882  22.352  1.00  0.00     0.049 C 
ENDBRANCH  22  23
ENDBRANCH  20  22
ENDBRANCH  13  20
BRANCH  16  25
ATOM     25  C   UNL A   1      32.998  24.360  25.960  1.00  0.00     0.045 A 
ATOM     26  C   UNL A   1      34.345  23.976  26.060  1.00  0.00     0.026 A 
ATOM     27  C   UNL A   1      32.082  23.646  26.752  1.00  0.00     0.026 A 
ATOM     28  C   UNL A   1      34.757  22.927  26.893  1.00  0.00     0.002 A 
ATOM     29  C   UNL A   1      32.489  22.592  27.583  1.00  0.00     0.002 A 
ATOM     30  C   UNL A   1      33.826  22.231  27.652  1.00  0.00     0.000 A 
ENDBRANCH  16  25
ENDBRANCH   7  12
ENDBRANCH   4   6
ENDBRANCH   3   4
ENDBRANCH   2   3
ENDBRANCH   1   2
BRANCH   1  31
ATOM     31  O   UNL A   1      35.612  33.951  30.187  1.00  0.00    -0.374 OA
BRANCH  31  32
ATOM     32  C   UNL A   1      36.386  34.131  31.374  1.00  0.00     0.202 C 
BRANCH  32  33
ATOM     33  C   UNL A   1      37.140  32.854  31.748  1.00  0.00     0.261 C 
BRANCH  33  34
ATOM     34  O   UNL A   1      36.520  31.718  31.120  1.00  0.00    -0.460 OA
BRANCH  34  35
ATOM     35  C   UNL A   1      36.909  30.500  31.565  1.00  0.00     0.338 C 
ATOM     36  O   UNL A   1      36.258  29.736  32.257  1.00  0.00    -0.246 OA
BRANCH  35  37
ATOM     37  C   UNL A   1      38.254  30.167  31.025  1.00  0.00     0.060 A 
ATOM     38  C   UNL A   1      38.429  30.207  29.636  1.00  0.00     0.016 A 
ATOM     39  C   UNL A   1      39.332  29.820  31.850  1.00  0.00     0.016 A 
ATOM     40  C   UNL A   1      39.666  29.888  29.074  1.00  0.00     0.010 A 
ATOM     41  C   UNL A   1      40.570  29.497  31.287  1.00  0.00     0.010 A 
ATOM     42  C   UNL A   1      40.738  29.518  29.896  1.00  0.00    -0.014 A 
BRANCH  42  43
ATOM     43  C   UNL A   1      42.013  29.088  29.281  1.00  0.00     0.031 A 
ATOM     44  C   UNL A   1      43.153  30.057  29.187  1.00  0.00     0.074 A 
ATOM     45  C   UNL A   1      42.156  27.832  28.826  1.00  0.00     0.049 A 
ATOM     46  N   UNL A   1      44.381  29.849  28.791  1.00  0.00    -0.248 NA
ATOM     47  C   UNL A   1      42.871  31.443  29.592  1.00  0.00     0.031 C 
ATOM     48  C   UNL A   1      41.117  26.803  28.839  1.00  0.00     0.029 A 
ATOM     49  N   UNL A   1      43.240  27.211  28.263  1.00  0.00    -0.354 N 
ATOM     50  C   UNL A   1      45.031  31.067  28.930  1.00  0.00     0.074 A 
ATOM     51  C   UNL A   1      44.051  32.018  29.415  1.00  0.00     0.031 C 
ATOM     52  C   UNL A   1      41.614  25.676  28.300  1.00  0.00     0.029 A 
ATOM     53  C   UNL A   1      43.008  25.904  27.920  1.00  0.00     0.049 A 
ATOM     54  H   UNL A   1      44.104  27.661  28.118  1.00  0.00     0.167 HD
ATOM     55  C   UNL A   1      46.331  31.364  28.694  1.00  0.00     0.037 A 
ATOM     56  C   UNL A   1      43.830  24.990  27.372  1.00  0.00     0.037 A 
ATOM     57  C   UNL A   1      47.306  30.431  28.203  1.00  0.00     0.049 A 
ATOM     58  C   UNL A   1      45.258  25.346  27.083  1.00  0.00     0.074 A 
ATOM     59  C   UNL A   1      48.658  30.626  27.981  1.00  0.00     0.029 A 
ATOM     60  N   UNL A   1      47.026  29.123  27.841  1.00  0.00    -0.354 N 
ATOM     61  N   UNL A   1      45.880  26.482  27.292  1.00  0.00    -0.248 NA
ATOM     62  C   UNL A   1      46.100  24.295  26.494  1.00  0.00     0.031 C 
ATOM     63  C   UNL A   1      49.192  29.435  27.468  1.00  0.00     0.029 A 
ATOM     64  C   UNL A   1      48.172  28.501  27.376  1.00  0.00     0.049 A 
ATOM     65  H   UNL A   1      46.141  28.697  27.905  1.00  0.00     0.167 HD
ATOM     66  C   UNL A   1      47.188  26.280  26.873  1.00  0.00     0.074 A 
ATOM     67  C   UNL A   1      47.269  24.915  26.390  1.00  0.00     0.031 C 
ATOM     68  C   UNL A   1      48.231  27.146  26.893  1.00  0.00     0.037 A 
BRANCH  55  69
ATOM     69  C   UNL A   1      46.753  32.768  28.995  1.00  0.00     0.058 A 
ATOM     70  C   UNL A   1      47.175  33.127  30.283  1.00  0.00     0.135 A 
ATOM     71  C   UNL A   1      46.675  33.770  28.017  1.00  0.00     0.135 A 
ATOM     72  F   UNL A   1      47.245  32.203  31.254  1.00  0.00    -0.206 F 
ATOM     73  C   UNL A   1      47.480  34.446  30.604  1.00  0.00     0.059 A 
ATOM     74  C   UNL A   1      46.978  35.095  28.315  1.00  0.00     0.059 A 
ATOM     75  F   UNL A   1      46.258  33.473  26.777  1.00  0.00    -0.206 F 
ATOM     76  C   UNL A   1      47.358  35.425  29.617  1.00  0.00     0.060 A 
BRANCH  76  77
ATOM     77  S   UNL A   1      47.687  37.150  30.038  1.00  0.00     0.124 S 
ATOM     78  O   UNL A   1      47.878  37.061  31.482  1.00  0.00    -0.237 OA
ATOM     79  O   UNL A   1      48.883  37.455  29.259  1.00  0.00    -0.237 OA
ATOM     80  O   UNL A   1      46.472  37.832  29.602  1.00  0.00    -0.744 OA
ENDBRANCH  76  77
ENDBRANCH  55  69
BRANCH  56  81
ATOM     81  C   UNL A   1      43.304  23.640  27.070  1.00  0.00     0.058 A 
ATOM     82  C   UNL A   1      42.981  23.267  25.758  1.00  0.00     0.135 A 
ATOM     83  C   UNL A   1      43.183  22.680  28.083  1.00  0.00     0.135 A 
ATOM     84  F   UNL A   1      43.084  24.159  24.763  1.00  0.00    -0.206 F 
ATOM     85  C   UNL A   1      42.568  21.974  25.454  1.00  0.00     0.059 A 
ATOM     86  C   UNL A   1      42.776  21.382  27.803  1.00  0.00     0.059 A 
ATOM     87  F   UNL A   1      43.491  22.996  29.350  1.00  0.00    -0.206 F 
ATOM     88  C   UNL A   1      42.476  21.037  26.484  1.00  0.00     0.060 A 
BRANCH  88  89
ATOM     89  S   UNL A   1      42.052  19.319  26.122  1.00  0.00     0.124 S 
ATOM     90  O   UNL A   1      42.898  19.047  24.966  1.00  0.00    -0.237 OA
ATOM     91  O   UNL A   1      42.409  18.621  27.352  1.00  0.00    -0.237 OA
ATOM     92  O   UNL A   1      40.618  19.407  25.855  1.00  0.00    -0.744 OA
ENDBRANCH  88  89
ENDBRANCH  56  81
BRANCH  68  93
ATOM     93  C   UNL A   1      49.544  26.642  26.379  1.00  0.00     0.058 A 
ATOM     94  C   UNL A   1      49.944  26.893  25.059  1.00  0.00     0.135 A 
ATOM     95  C   UNL A   1      50.420  25.934  27.216  1.00  0.00     0.135 A 
ATOM     96  F   UNL A   1      49.134  27.561  24.222  1.00  0.00    -0.206 F 
ATOM     97  C   UNL A   1      51.173  26.451  24.579  1.00  0.00     0.059 A 
ATOM     98  C   UNL A   1      51.654  25.488  26.758  1.00  0.00     0.059 A 
ATOM     99  F   UNL A   1      50.075  25.671  28.486  1.00  0.00    -0.206 F 
ATOM    100  C   UNL A   1      52.019  25.744  25.435  1.00  0.00     0.060 A 
BRANCH 100 101
ATOM    101  S   UNL A   1      53.630  25.188  24.837  1.00  0.00     0.124 S 
ATOM    102  O   UNL A   1      54.515  25.671  25.892  1.00  0.00    -0.237 OA
ATOM    103  O   UNL A   1      53.472  23.739  24.760  1.00  0.00    -0.237 OA
ATOM    104  O   UNL A   1      53.752  25.867  23.550  1.00  0.00    -0.744 OA
ENDBRANCH 100 101
ENDBRANCH  68  93
ENDBRANCH  42  43
ENDBRANCH  35  37
ENDBRANCH  34  35
ENDBRANCH  33  34
ENDBRANCH  32  33
ENDBRANCH  31  32
ENDBRANCH   1  31
TORSDOF 22
ENDMDL
MODEL 3
REMARK VINA RESULT:     -10.7      5.532      7.699
REMARK SMILES CCOC(=O)[C@@]1(C)C/C(=N/c2cccc(C(=O)OCCOCCOC(=O)c3ccc(-c4c5nc(c(-c6c(F)cc(S(=O)(=O)[O-])cc6F)c6ccc([nH]6)c(-c6c(F)cc(S(=O)(=O)[O-])cc6F)c6nc(c(-c7c(F)cc(S(=O)(=O)[O-])cc7F)c7ccc4[nH]7)C=C6)C=C5)cc3)c2)C(=O)N1c1ccccc1
REMARK SMILES IDX 20 1 19 2 18 3 16 4 17 5 15 6 11 7 12 8 93 9 13 10 14 11
REMARK SMILES IDX 10 12 6 13 7 14 8 15 96 16 9 17 94 18 95 19 4 20 5 21 3 22
REMARK SMILES IDX 2 23 1 24 97 25 98 26 102 27 99 28 101 29 100 30 21 31 22 32
REMARK SMILES IDX 23 33 24 34 25 35 26 36 27 37 28 38 92 39 29 40 91 41 30 42
REMARK SMILES IDX 31 43 32 44 85 45 33 46 90 47 84 48 86 49 34 50 89 51 83 52
REMARK SMILES IDX 82 53 35 55 69 56 48 57 68 58 49 59 52 60 67 61 87 62 50 63
REMARK SMILES IDX 51 64 66 66 88 67 53 68 36 69 37 70 46 71 38 72 39 73 45 74
REMARK SMILES IDX 47 75 40 76 41 77 42 78 43 79 44 80 70 81 71 82 80 83 72 84
REMARK SMILES IDX 73 85 79 86 81 87 74 88 75 89 76 90 77 91 78 92 54 93 55 94
REMARK SMILES IDX 64 95 56 96 57 97 63 98 65 99 58 100 59 101 60 102 61 103
REMARK SMILES IDX 62 104
REMARK H PARENT 86 54 52 65
REMARK Flexibility Score: inf
ROOT
ATOM      1  C   UNL A   1      34.015  30.187  27.129  1.00  0.00     0.202 C 
ENDROOT
BRANCH   1   2
ATOM      2  C   UNL A   1      33.153  28.927  27.202  1.00  0.00     0.261 C 
BRANCH   2   3
ATOM      3  O   UNL A   1      31.774  29.276  26.989  1.00  0.00    -0.460 OA
BRANCH   3   4
ATOM      4  C   UNL A   1      31.467  29.865  25.808  1.00  0.00     0.338 C 
ATOM      5  O   UNL A   1      31.138  31.027  25.636  1.00  0.00    -0.246 OA
BRANCH   4   6
ATOM      6  C   UNL A   1      31.634  28.893  24.695  1.00  0.00     0.062 A 
ATOM      7  C   UNL A   1      31.250  26.728  23.659  1.00  0.00     0.064 A 
ATOM      8  C   UNL A   1      32.019  27.130  22.564  1.00  0.00     0.028 A 
ATOM      9  C   UNL A   1      31.086  27.603  24.737  1.00  0.00     0.044 A 
ATOM     10  C   UNL A   1      32.586  28.405  22.521  1.00  0.00     0.003 A 
ATOM     11  C   UNL A   1      32.388  29.287  23.582  1.00  0.00     0.016 A 
BRANCH   7  12
ATOM     12  N   UNL A   1      30.747  25.421  23.692  1.00  0.00    -0.248 NA
ATOM     13  C   UNL A   1      32.317  22.247  23.767  1.00  0.00     0.148 C 
ATOM     14  C   UNL A   1      32.454  21.983  22.255  1.00  0.00     0.048 C 
ATOM     15  C   UNL A   1      31.005  23.031  23.999  1.00  0.00     0.103 C 
ATOM     16  N   UNL A   1      33.409  23.125  24.255  1.00  0.00    -0.290 N 
ATOM     17  C   UNL A   1      31.504  24.429  24.047  1.00  0.00     0.109 C 
ATOM     18  C   UNL A   1      32.946  24.419  24.490  1.00  0.00     0.273 C 
ATOM     19  O   UNL A   1      33.487  25.404  24.948  1.00  0.00    -0.267 OA
BRANCH  13  20
ATOM     20  C   UNL A   1      32.158  20.986  24.645  1.00  0.00     0.332 C 
ATOM     21  O   UNL A   1      31.397  20.910  25.603  1.00  0.00    -0.249 OA
BRANCH  20  22
ATOM     22  O   UNL A   1      32.894  19.949  24.159  1.00  0.00    -0.464 OA
BRANCH  22  23
ATOM     23  C   UNL A   1      32.206  18.699  23.992  1.00  0.00     0.229 C 
ATOM     24  C   UNL A   1      32.577  18.088  22.655  1.00  0.00     0.049 C 
ENDBRANCH  22  23
ENDBRANCH  20  22
ENDBRANCH  13  20
BRANCH  16  25
ATOM     25  C   UNL A   1      34.774  22.705  24.409  1.00  0.00     0.045 A 
ATOM     26  C   UNL A   1      35.232  22.127  25.604  1.00  0.00     0.026 A 
ATOM     27  C   UNL A   1      35.726  22.871  23.387  1.00  0.00     0.026 A 
ATOM     28  C   UNL A   1      36.570  21.748  25.778  1.00  0.00     0.002 A 
ATOM     29  C   UNL A   1      37.066  22.498  23.560  1.00  0.00     0.002 A 
ATOM     30  C   UNL A   1      37.489  21.938  24.756  1.00  0.00     0.000 A 
ENDBRANCH  16  25
ENDBRANCH   7  12
ENDBRANCH   4   6
ENDBRANCH   3   4
ENDBRANCH   2   3
ENDBRANCH   1   2
BRANCH   1  31
ATOM     31  O   UNL A   1      33.501  31.214  27.981  1.00  0.00    -0.374 OA
BRANCH  31  32
ATOM     32  C   UNL A   1      33.878  32.541  27.608  1.00  0.00     0.202 C 
BRANCH  32  33
ATOM     33  C   UNL A   1      32.683  33.493  27.651  1.00  0.00     0.261 C 
BRANCH  33  34
ATOM     34  O   UNL A   1      32.644  34.172  28.919  1.00  0.00    -0.460 OA
BRANCH  34  35
ATOM     35  C   UNL A   1      33.619  35.086  29.141  1.00  0.00     0.338 C 
ATOM     36  O   UNL A   1      33.538  36.290  28.972  1.00  0.00    -0.246 OA
BRANCH  35  37
ATOM     37  C   UNL A   1      34.822  34.419  29.705  1.00  0.00     0.060 A 
ATOM     38  C   UNL A   1      34.649  33.599  30.827  1.00  0.00     0.016 A 
ATOM     39  C   UNL A   1      36.101  34.584  29.156  1.00  0.00     0.016 A 
ATOM     40  C   UNL A   1      35.748  32.961  31.407  1.00  0.00     0.010 A 
ATOM     41  C   UNL A   1      37.201  33.948  29.738  1.00  0.00     0.010 A 
ATOM     42  C   UNL A   1      37.030  33.144  30.873  1.00  0.00    -0.014 A 
BRANCH  42  43
ATOM     43  C   UNL A   1      38.196  32.542  31.557  1.00  0.00     0.031 A 
ATOM     44  C   UNL A   1      38.648  33.095  32.874  1.00  0.00     0.074 A 
ATOM     45  C   UNL A   1      38.836  31.494  31.009  1.00  0.00     0.049 A 
ATOM     46  N   UNL A   1      39.568  32.643  33.686  1.00  0.00    -0.248 NA
ATOM     47  C   UNL A   1      37.974  34.317  33.339  1.00  0.00     0.031 C 
ATOM     48  C   UNL A   1      38.508  30.880  29.724  1.00  0.00     0.029 A 
ATOM     49  N   UNL A   1      39.898  30.763  31.474  1.00  0.00    -0.354 N 
ATOM     50  C   UNL A   1      39.563  33.505  34.774  1.00  0.00     0.074 A 
ATOM     51  C   UNL A   1      38.571  34.526  34.503  1.00  0.00     0.031 C 
ATOM     52  C   UNL A   1      39.360  29.865  29.498  1.00  0.00     0.029 A 
ATOM     53  C   UNL A   1      40.279  29.752  30.630  1.00  0.00     0.049 A 
ATOM     54  H   UNL A   1      40.344  30.947  32.332  1.00  0.00     0.167 HD
ATOM     55  C   UNL A   1      40.303  33.442  35.906  1.00  0.00     0.037 A 
ATOM     56  C   UNL A   1      41.253  28.832  30.760  1.00  0.00     0.037 A 
ATOM     57  C   UNL A   1      41.296  32.440  36.179  1.00  0.00     0.049 A 
ATOM     58  C   UNL A   1      42.088  28.799  32.006  1.00  0.00     0.074 A 
ATOM     59  C   UNL A   1      42.061  32.265  37.318  1.00  0.00     0.029 A 
ATOM     60  N   UNL A   1      41.674  31.449  35.286  1.00  0.00    -0.354 N 
ATOM     61  N   UNL A   1      42.020  29.574  33.062  1.00  0.00    -0.248 NA
ATOM     62  C   UNL A   1      43.125  27.760  32.083  1.00  0.00     0.031 C 
ATOM     63  C   UNL A   1      42.915  31.173  37.107  1.00  0.00     0.029 A 
ATOM     64  C   UNL A   1      42.676  30.670  35.838  1.00  0.00     0.049 A 
ATOM     65  H   UNL A   1      41.286  31.318  34.391  1.00  0.00     0.167 HD
ATOM     66  C   UNL A   1      42.995  29.110  33.935  1.00  0.00     0.074 A 
ATOM     67  C   UNL A   1      43.646  27.991  33.282  1.00  0.00     0.031 C 
ATOM     68  C   UNL A   1      43.316  29.566  35.170  1.00  0.00     0.037 A 
BRANCH  55  69
ATOM     69  C   UNL A   1      40.029  34.495  36.934  1.00  0.00     0.058 A 
ATOM     70  C   UNL A   1      40.782  35.678  36.964  1.00  0.00     0.135 A 
ATOM     71  C   UNL A   1      39.060  34.298  37.928  1.00  0.00     0.135 A 
ATOM     72  F   UNL A   1      41.733  35.897  36.043  1.00  0.00    -0.206 F 
ATOM     73  C   UNL A   1      40.605  36.623  37.968  1.00  0.00     0.059 A 
ATOM     74  C   UNL A   1      38.864  35.232  38.941  1.00  0.00     0.059 A 
ATOM     75  F   UNL A   1      38.330  33.172  37.948  1.00  0.00    -0.206 F 
ATOM     76  C   UNL A   1      39.658  36.381  38.963  1.00  0.00     0.060 A 
BRANCH  76  77
ATOM     77  S   UNL A   1      39.465  37.569  40.310  1.00  0.00     0.124 S 
ATOM     78  O   UNL A   1      40.616  38.437  40.092  1.00  0.00    -0.237 OA
ATOM     79  O   UNL A   1      38.161  38.166  40.035  1.00  0.00    -0.237 OA
ATOM     80  O   UNL A   1      39.523  36.728  41.501  1.00  0.00    -0.744 OA
ENDBRANCH  76  77
ENDBRANCH  55  69
BRANCH  56  81
ATOM     81  C   UNL A   1      41.475  27.861  29.666  1.00  0.00     0.058 A 
ATOM     82  C   UNL A   1      40.541  26.853  29.393  1.00  0.00     0.135 A 
ATOM     83  C   UNL A   1      42.597  27.971  28.834  1.00  0.00     0.135 A 
ATOM     84  F   UNL A   1      39.455  26.717  30.168  1.00  0.00    -0.206 F 
ATOM     85  C   UNL A   1      40.701  25.990  28.314  1.00  0.00     0.059 A 
ATOM     86  C   UNL A   1      42.777  27.123  27.749  1.00  0.00     0.059 A 
ATOM     87  F   UNL A   1      43.510  28.928  29.058  1.00  0.00    -0.206 F 
ATOM     88  C   UNL A   1      41.820  26.139  27.493  1.00  0.00     0.060 A 
BRANCH  88  89
ATOM     89  S   UNL A   1      42.014  25.116  26.017  1.00  0.00     0.124 S 
ATOM     90  O   UNL A   1      43.464  25.069  25.882  1.00  0.00    -0.237 OA
ATOM     91  O   UNL A   1      41.367  23.864  26.394  1.00  0.00    -0.237 OA
ATOM     92  O   UNL A   1      41.304  25.899  25.007  1.00  0.00    -0.744 OA
ENDBRANCH  88  89
ENDBRANCH  56  81
BRANCH  68  93
ATOM     93  C   UNL A   1      44.420  28.855  35.892  1.00  0.00     0.058 A 
ATOM     94  C   UNL A   1      44.162  27.702  36.646  1.00  0.00     0.135 A 
ATOM     95  C   UNL A   1      45.745  29.308  35.802  1.00  0.00     0.135 A 
ATOM     96  F   UNL A   1      42.908  27.238  36.763  1.00  0.00    -0.206 F 
ATOM     97  C   UNL A   1      45.184  27.020  37.297  1.00  0.00     0.059 A 
ATOM     98  C   UNL A   1      46.782  28.638  36.442  1.00  0.00     0.059 A 
ATOM     99  F   UNL A   1      46.036  30.409  35.091  1.00  0.00    -0.206 F 
ATOM    100  C   UNL A   1      46.491  27.500  37.195  1.00  0.00     0.060 A 
BRANCH 100 101
ATOM    101  S   UNL A   1      47.834  26.610  38.010  1.00  0.00     0.124 S 
ATOM    102  O   UNL A   1      48.515  26.003  36.872  1.00  0.00    -0.237 OA
ATOM    103  O   UNL A   1      48.567  27.672  38.692  1.00  0.00    -0.237 OA
ATOM    104  O   UNL A   1      47.125  25.685  38.890  1.00  0.00    -0.744 OA
ENDBRANCH 100 101
ENDBRANCH  68  93
ENDBRANCH  42  43
ENDBRANCH  35  37
ENDBRANCH  34  35
ENDBRANCH  33  34
ENDBRANCH  32  33
ENDBRANCH  31  32
ENDBRANCH   1  31
TORSDOF 22
ENDMDL
