MODEL 1
REMARK VINA RESULT:     -11.2      0.000      0.000
REMARK SMILES Cc1ccc(Cl)c(Nc2ccccc2C(=O)OCCOCCOC(=O)c2ccc(-c3c4nc(c(-c5c(F)cc(S(=O)(=O)[O-])cc5F)c5ccc([nH]5)c(-c5c(F)cc(S(=O)(=O)[O-])cc5F)c5nc(c(-c6c(F)cc(S(=O)(=O)[O-])cc6F)c6ccc3[nH]6)C=C5)C=C4)cc2)c1Cl
REMARK SMILES IDX 21 1 20 2 19 3 18 4 17 5 15 6 16 7 14 8 9 9 10 10 11 11
REMARK SMILES IDX 13 12 12 13 8 14 7 16 1 17 2 18 3 19 92 20 4 21 93 22 5 23
REMARK SMILES IDX 6 24 22 25 23 26 24 27 25 28 26 29 27 30 91 31 28 32 90 33
REMARK SMILES IDX 29 34 30 35 31 36 84 37 32 38 89 39 83 40 85 41 33 42 88 43
REMARK SMILES IDX 82 44 81 45 34 47 68 48 47 49 67 50 48 51 51 52 66 53 86 54
REMARK SMILES IDX 49 55 50 56 65 58 87 59 52 60 35 61 36 62 45 63 37 64 38 65
REMARK SMILES IDX 44 66 46 67 39 68 40 69 41 70 42 71 43 72 69 73 70 74 79 75
REMARK SMILES IDX 71 76 72 77 78 78 80 79 73 80 74 81 75 82 76 83 77 84 53 85
REMARK SMILES IDX 54 86 63 87 55 88 56 89 62 90 64 91 57 92 58 93 59 94 60 95
REMARK SMILES IDX 61 96
REMARK H PARENT 8 15 85 46 51 57
REMARK Flexibility Score: inf
ROOT
ATOM      1  C   UNL A   1      38.703  21.818  25.752  1.00  0.00     0.202 C 
ENDROOT
BRANCH   1   2
ATOM      2  O   UNL A   1      37.372  22.329  25.719  1.00  0.00    -0.374 OA
BRANCH   2   3
ATOM      3  C   UNL A   1      36.469  21.760  24.771  1.00  0.00     0.202 C 
BRANCH   3   4
ATOM      4  C   UNL A   1      35.896  22.701  23.710  1.00  0.00     0.261 C 
BRANCH   4   5
ATOM      5  O   UNL A   1      35.319  23.881  24.294  1.00  0.00    -0.460 OA
BRANCH   5   6
ATOM      6  C   UNL A   1      34.287  24.421  23.600  1.00  0.00     0.340 C 
ATOM      7  O   UNL A   1      34.071  24.282  22.404  1.00  0.00    -0.246 OA
BRANCH   6   8
ATOM      8  C   UNL A   1      33.304  25.069  24.506  1.00  0.00     0.083 A 
ATOM      9  C   UNL A   1      32.095  24.504  24.958  1.00  0.00     0.053 A 
ATOM     10  C   UNL A   1      31.281  25.303  25.793  1.00  0.00     0.027 A 
ATOM     11  C   UNL A   1      31.653  26.595  26.179  1.00  0.00     0.002 A 
ATOM     12  C   UNL A   1      33.673  26.372  24.906  1.00  0.00     0.018 A 
ATOM     13  C   UNL A   1      32.854  27.128  25.738  1.00  0.00     0.001 A 
BRANCH   9  14
ATOM     14  N   UNL A   1      31.645  23.184  24.756  1.00  0.00    -0.352 N 
ATOM     15  H   UNL A   1      30.689  23.127  24.530  1.00  0.00     0.167 HD
BRANCH  14  16
ATOM     16  C   UNL A   1      32.286  21.922  24.811  1.00  0.00     0.077 A 
ATOM     17  C   UNL A   1      32.470  18.580  22.932  1.00  0.00     0.046 C 
ATOM     18  C   UNL A   1      32.686  19.648  23.969  1.00  0.00    -0.030 A 
ATOM     19  C   UNL A   1      33.246  19.293  25.202  1.00  0.00     0.006 A 
ATOM     20  C   UNL A   1      32.279  20.982  23.757  1.00  0.00     0.069 A 
ATOM     21  C   UNL A   1      33.382  20.241  26.210  1.00  0.00     0.023 A 
ATOM     22  Cl  UNL A   1      31.882  21.480  22.134  1.00  0.00    -0.082 Cl
ATOM     23  C   UNL A   1      32.880  21.528  26.028  1.00  0.00     0.066 A 
ATOM     24  Cl  UNL A   1      32.991  22.634  27.358  1.00  0.00    -0.082 Cl
ENDBRANCH  14  16
ENDBRANCH   9  14
ENDBRANCH   6   8
ENDBRANCH   5   6
ENDBRANCH   4   5
ENDBRANCH   3   4
ENDBRANCH   2   3
ENDBRANCH   1   2
BRANCH   1  25
ATOM     25  C   UNL A   1      39.791  22.711  26.362  1.00  0.00     0.261 C 
BRANCH  25  26
ATOM     26  O   UNL A   1      39.396  24.084  26.524  1.00  0.00    -0.460 OA
BRANCH  26  27
ATOM     27  C   UNL A   1      40.404  24.979  26.391  1.00  0.00     0.338 C 
ATOM     28  O   UNL A   1      41.057  25.209  25.380  1.00  0.00    -0.246 OA
BRANCH  27  29
ATOM     29  C   UNL A   1      40.547  25.792  27.611  1.00  0.00     0.060 A 
ATOM     30  C   UNL A   1      39.505  25.756  28.547  1.00  0.00     0.016 A 
ATOM     31  C   UNL A   1      41.621  26.667  27.781  1.00  0.00     0.016 A 
ATOM     32  C   UNL A   1      39.511  26.628  29.634  1.00  0.00     0.010 A 
ATOM     33  C   UNL A   1      41.622  27.546  28.870  1.00  0.00     0.010 A 
ATOM     34  C   UNL A   1      40.551  27.555  29.782  1.00  0.00    -0.014 A 
BRANCH  34  35
ATOM     35  C   UNL A   1      40.458  28.607  30.824  1.00  0.00     0.031 A 
ATOM     36  C   UNL A   1      41.341  28.525  32.038  1.00  0.00     0.074 A 
ATOM     37  C   UNL A   1      39.601  29.634  30.687  1.00  0.00     0.049 A 
ATOM     38  N   UNL A   1      41.399  29.322  33.072  1.00  0.00    -0.248 NA
ATOM     39  C   UNL A   1      42.282  27.395  32.090  1.00  0.00     0.031 C 
ATOM     40  C   UNL A   1      38.720  29.835  29.542  1.00  0.00     0.029 A 
ATOM     41  N   UNL A   1      39.320  30.688  31.517  1.00  0.00    -0.354 N 
ATOM     42  C   UNL A   1      42.377  28.791  33.903  1.00  0.00     0.074 A 
ATOM     43  C   UNL A   1      42.866  27.587  33.264  1.00  0.00     0.031 C 
ATOM     44  C   UNL A   1      37.969  30.929  29.751  1.00  0.00     0.029 A 
ATOM     45  C   UNL A   1      38.307  31.495  31.056  1.00  0.00     0.049 A 
ATOM     46  H   UNL A   1      39.796  30.851  32.363  1.00  0.00     0.167 HD
ATOM     47  C   UNL A   1      42.832  29.269  35.086  1.00  0.00     0.037 A 
ATOM     48  C   UNL A   1      37.709  32.558  31.628  1.00  0.00     0.037 A 
ATOM     49  C   UNL A   1      42.341  30.466  35.717  1.00  0.00     0.049 A 
ATOM     50  C   UNL A   1      38.192  33.043  32.967  1.00  0.00     0.074 A 
ATOM     51  C   UNL A   1      42.766  31.055  36.895  1.00  0.00     0.029 A 
ATOM     52  N   UNL A   1      41.304  31.249  35.231  1.00  0.00    -0.354 N 
ATOM     53  N   UNL A   1      39.151  32.558  33.720  1.00  0.00    -0.248 NA
ATOM     54  C   UNL A   1      37.521  34.222  33.532  1.00  0.00     0.031 C 
ATOM     55  C   UNL A   1      41.955  32.168  37.145  1.00  0.00     0.029 A 
ATOM     56  C   UNL A   1      41.054  32.299  36.100  1.00  0.00     0.049 A 
ATOM     57  H   UNL A   1      40.816  31.083  34.392  1.00  0.00     0.167 HD
ATOM     58  C   UNL A   1      39.213  33.383  34.838  1.00  0.00     0.074 A 
ATOM     59  C   UNL A   1      38.200  34.404  34.658  1.00  0.00     0.031 C 
ATOM     60  C   UNL A   1      40.036  33.305  35.912  1.00  0.00     0.037 A 
BRANCH  47  61
ATOM     61  C   UNL A   1      43.897  28.472  35.785  1.00  0.00     0.058 A 
ATOM     62  C   UNL A   1      43.580  27.431  36.673  1.00  0.00     0.135 A 
ATOM     63  C   UNL A   1      45.255  28.751  35.563  1.00  0.00     0.135 A 
ATOM     64  F   UNL A   1      42.296  27.133  36.933  1.00  0.00    -0.206 F 
ATOM     65  C   UNL A   1      44.570  26.720  37.344  1.00  0.00     0.059 A 
ATOM     66  C   UNL A   1      46.263  28.037  36.204  1.00  0.00     0.059 A 
ATOM     67  F   UNL A   1      45.613  29.737  34.725  1.00  0.00    -0.206 F 
ATOM     68  C   UNL A   1      45.909  27.037  37.107  1.00  0.00     0.060 A 
BRANCH  68  69
ATOM     69  S   UNL A   1      47.185  26.123  38.000  1.00  0.00     0.124 S 
ATOM     70  O   UNL A   1      46.664  26.156  39.364  1.00  0.00    -0.237 OA
ATOM     71  O   UNL A   1      47.156  24.819  37.344  1.00  0.00    -0.237 OA
ATOM     72  O   UNL A   1      48.391  26.911  37.771  1.00  0.00    -0.744 OA
ENDBRANCH  68  69
ENDBRANCH  47  61
BRANCH  48  73
ATOM     73  C   UNL A   1      36.583  33.228  30.929  1.00  0.00     0.058 A 
ATOM     74  C   UNL A   1      35.263  33.091  31.378  1.00  0.00     0.135 A 
ATOM     75  C   UNL A   1      36.814  34.055  29.817  1.00  0.00     0.135 A 
ATOM     76  F   UNL A   1      34.991  32.303  32.430  1.00  0.00    -0.206 F 
ATOM     77  C   UNL A   1      34.209  33.753  30.756  1.00  0.00     0.059 A 
ATOM     78  C   UNL A   1      35.781  34.744  29.191  1.00  0.00     0.059 A 
ATOM     79  F   UNL A   1      38.063  34.228  29.357  1.00  0.00    -0.206 F 
ATOM     80  C   UNL A   1      34.480  34.586  29.668  1.00  0.00     0.060 A 
BRANCH  80  81
ATOM     81  S   UNL A   1      33.120  35.513  28.926  1.00  0.00     0.124 S 
ATOM     82  O   UNL A   1      33.836  36.504  28.133  1.00  0.00    -0.237 OA
ATOM     83  O   UNL A   1      32.419  34.475  28.174  1.00  0.00    -0.237 OA
ATOM     84  O   UNL A   1      32.397  36.030  30.085  1.00  0.00    -0.744 OA
ENDBRANCH  80  81
ENDBRANCH  48  73
BRANCH  60  85
ATOM     85  C   UNL A   1      39.890  34.358  36.974  1.00  0.00     0.058 A 
ATOM     86  C   UNL A   1      40.472  35.628  36.837  1.00  0.00     0.135 A 
ATOM     87  C   UNL A   1      39.116  34.113  38.120  1.00  0.00     0.135 A 
ATOM     88  F   UNL A   1      41.228  35.911  35.763  1.00  0.00    -0.206 F 
ATOM     89  C   UNL A   1      40.308  36.612  37.806  1.00  0.00     0.059 A 
ATOM     90  C   UNL A   1      38.918  35.090  39.091  1.00  0.00     0.059 A 
ATOM     91  F   UNL A   1      38.529  32.918  38.297  1.00  0.00    -0.206 F 
ATOM     92  C   UNL A   1      39.528  36.334  38.930  1.00  0.00     0.060 A 
BRANCH  92  93
ATOM     93  S   UNL A   1      39.292  37.629  40.166  1.00  0.00     0.124 S 
ATOM     94  O   UNL A   1      40.595  38.286  40.153  1.00  0.00    -0.237 OA
ATOM     95  O   UNL A   1      38.188  38.401  39.605  1.00  0.00    -0.237 OA
ATOM     96  O   UNL A   1      38.974  36.886  41.380  1.00  0.00    -0.744 OA
ENDBRANCH  92  93
ENDBRANCH  60  85
ENDBRANCH  34  35
ENDBRANCH  27  29
ENDBRANCH  26  27
ENDBRANCH  25  26
ENDBRANCH   1  25
TORSDOF 19
ENDMDL
MODEL 2
REMARK VINA RESULT:     -11.1      6.764     11.938
REMARK SMILES Cc1ccc(Cl)c(Nc2ccccc2C(=O)OCCOCCOC(=O)c2ccc(-c3c4nc(c(-c5c(F)cc(S(=O)(=O)[O-])cc5F)c5ccc([nH]5)c(-c5c(F)cc(S(=O)(=O)[O-])cc5F)c5nc(c(-c6c(F)cc(S(=O)(=O)[O-])cc6F)c6ccc3[nH]6)C=C5)C=C4)cc2)c1Cl
REMARK SMILES IDX 21 1 20 2 19 3 18 4 17 5 15 6 16 7 14 8 9 9 10 10 11 11
REMARK SMILES IDX 13 12 12 13 8 14 7 16 1 17 2 18 3 19 92 20 4 21 93 22 5 23
REMARK SMILES IDX 6 24 22 25 23 26 24 27 25 28 26 29 27 30 91 31 28 32 90 33
REMARK SMILES IDX 29 34 30 35 31 36 84 37 32 38 89 39 83 40 85 41 33 42 88 43
REMARK SMILES IDX 82 44 81 45 34 47 68 48 47 49 67 50 48 51 51 52 66 53 86 54
REMARK SMILES IDX 49 55 50 56 65 58 87 59 52 60 35 61 36 62 45 63 37 64 38 65
REMARK SMILES IDX 44 66 46 67 39 68 40 69 41 70 42 71 43 72 69 73 70 74 79 75
REMARK SMILES IDX 71 76 72 77 78 78 80 79 73 80 74 81 75 82 76 83 77 84 53 85
REMARK SMILES IDX 54 86 63 87 55 88 56 89 62 90 64 91 57 92 58 93 59 94 60 95
REMARK SMILES IDX 61 96
REMARK H PARENT 8 15 85 46 51 57
REMARK Flexibility Score: inf
ROOT
ATOM      1  C   UNL A   1      34.739  31.962  27.957  1.00  0.00     0.202 C 
ENDROOT
BRANCH   1   2
ATOM      2  O   UNL A   1      33.566  31.362  27.409  1.00  0.00    -0.374 OA
BRANCH   2   3
ATOM      3  C   UNL A   1      33.675  30.028  26.915  1.00  0.00     0.202 C 
BRANCH   3   4
ATOM      4  C   UNL A   1      32.544  29.062  27.275  1.00  0.00     0.261 C 
BRANCH   4   5
ATOM      5  O   UNL A   1      32.955  27.689  27.165  1.00  0.00    -0.460 OA
BRANCH   5   6
ATOM      6  C   UNL A   1      32.090  26.880  26.505  1.00  0.00     0.340 C 
ATOM      7  O   UNL A   1      30.942  26.626  26.842  1.00  0.00    -0.246 OA
BRANCH   6   8
ATOM      8  C   UNL A   1      32.632  26.465  25.186  1.00  0.00     0.083 A 
ATOM      9  C   UNL A   1      33.417  25.323  24.933  1.00  0.00     0.053 A 
ATOM     10  C   UNL A   1      33.862  25.126  23.607  1.00  0.00     0.027 A 
ATOM     11  C   UNL A   1      33.531  26.006  22.572  1.00  0.00     0.002 A 
ATOM     12  C   UNL A   1      32.299  27.345  24.134  1.00  0.00     0.018 A 
ATOM     13  C   UNL A   1      32.744  27.117  22.836  1.00  0.00     0.001 A 
BRANCH   9  14
ATOM     14  N   UNL A   1      33.730  24.289  25.838  1.00  0.00    -0.352 N 
ATOM     15  H   UNL A   1      33.549  24.522  26.777  1.00  0.00     0.167 HD
BRANCH  14  16
ATOM     16  C   UNL A   1      34.250  22.981  25.675  1.00  0.00     0.077 A 
ATOM     17  C   UNL A   1      37.474  21.152  24.680  1.00  0.00     0.046 C 
ATOM     18  C   UNL A   1      36.048  21.416  25.079  1.00  0.00    -0.030 A 
ATOM     19  C   UNL A   1      35.106  20.387  24.952  1.00  0.00     0.006 A 
ATOM     20  C   UNL A   1      35.622  22.688  25.515  1.00  0.00     0.069 A 
ATOM     21  C   UNL A   1      33.766  20.624  25.233  1.00  0.00     0.023 A 
ATOM     22  Cl  UNL A   1      36.833  23.857  25.968  1.00  0.00    -0.082 Cl
ATOM     23  C   UNL A   1      33.340  21.910  25.560  1.00  0.00     0.066 A 
ATOM     24  Cl  UNL A   1      31.641  22.161  25.803  1.00  0.00    -0.082 Cl
ENDBRANCH  14  16
ENDBRANCH   9  14
ENDBRANCH   6   8
ENDBRANCH   5   6
ENDBRANCH   4   5
ENDBRANCH   3   4
ENDBRANCH   2   3
ENDBRANCH   1   2
BRANCH   1  25
ATOM     25  C   UNL A   1      35.113  31.601  29.401  1.00  0.00     0.261 C 
BRANCH  25  26
ATOM     26  O   UNL A   1      35.741  30.316  29.536  1.00  0.00    -0.460 OA
BRANCH  26  27
ATOM     27  C   UNL A   1      36.543  30.192  30.622  1.00  0.00     0.338 C 
ATOM     28  O   UNL A   1      36.188  30.047  31.786  1.00  0.00    -0.246 OA
BRANCH  27  29
ATOM     29  C   UNL A   1      37.957  30.103  30.222  1.00  0.00     0.060 A 
ATOM     30  C   UNL A   1      38.247  30.035  28.853  1.00  0.00     0.016 A 
ATOM     31  C   UNL A   1      38.974  29.965  31.169  1.00  0.00     0.016 A 
ATOM     32  C   UNL A   1      39.549  29.783  28.426  1.00  0.00     0.010 A 
ATOM     33  C   UNL A   1      40.280  29.706  30.738  1.00  0.00     0.010 A 
ATOM     34  C   UNL A   1      40.568  29.579  29.367  1.00  0.00    -0.014 A 
BRANCH  34  35
ATOM     35  C   UNL A   1      41.906  29.122  28.917  1.00  0.00     0.031 A 
ATOM     36  C   UNL A   1      43.036  30.109  28.838  1.00  0.00     0.074 A 
ATOM     37  C   UNL A   1      42.116  27.834  28.592  1.00  0.00     0.049 A 
ATOM     38  N   UNL A   1      44.269  29.922  28.448  1.00  0.00    -0.248 NA
ATOM     39  C   UNL A   1      42.734  31.487  29.254  1.00  0.00     0.031 C 
ATOM     40  C   UNL A   1      41.107  26.783  28.660  1.00  0.00     0.029 A 
ATOM     41  N   UNL A   1      43.236  27.195  28.128  1.00  0.00    -0.354 N 
ATOM     42  C   UNL A   1      44.893  31.158  28.565  1.00  0.00     0.074 A 
ATOM     43  C   UNL A   1      43.893  32.093  29.036  1.00  0.00     0.031 C 
ATOM     44  C   UNL A   1      41.641  25.631  28.222  1.00  0.00     0.029 A 
ATOM     45  C   UNL A   1      43.027  25.870  27.827  1.00  0.00     0.049 A 
ATOM     46  H   UNL A   1      44.107  27.642  28.019  1.00  0.00     0.167 HD
ATOM     47  C   UNL A   1      46.184  31.480  28.311  1.00  0.00     0.037 A 
ATOM     48  C   UNL A   1      43.855  24.958  27.279  1.00  0.00     0.037 A 
ATOM     49  C   UNL A   1      47.175  30.546  27.841  1.00  0.00     0.049 A 
ATOM     50  C   UNL A   1      45.271  25.349  26.955  1.00  0.00     0.074 A 
ATOM     51  C   UNL A   1      48.518  30.767  27.594  1.00  0.00     0.029 A 
ATOM     52  N   UNL A   1      46.924  29.217  27.531  1.00  0.00    -0.354 N 
ATOM     53  N   UNL A   1      45.861  26.510  27.115  1.00  0.00    -0.248 NA
ATOM     54  C   UNL A   1      46.136  24.308  26.383  1.00  0.00     0.031 C 
ATOM     55  C   UNL A   1      49.070  29.583  27.091  1.00  0.00     0.029 A 
ATOM     56  C   UNL A   1      48.081  28.612  27.066  1.00  0.00     0.049 A 
ATOM     57  H   UNL A   1      46.053  28.769  27.627  1.00  0.00     0.167 HD
ATOM     58  C   UNL A   1      47.171  26.335  26.684  1.00  0.00     0.074 A 
ATOM     59  C   UNL A   1      47.290  24.953  26.264  1.00  0.00     0.031 C 
ATOM     60  C   UNL A   1      48.184  27.236  26.644  1.00  0.00     0.037 A 
BRANCH  47  61
ATOM     61  C   UNL A   1      46.586  32.914  28.510  1.00  0.00     0.058 A 
ATOM     62  C   UNL A   1      46.509  33.856  27.471  1.00  0.00     0.135 A 
ATOM     63  C   UNL A   1      47.053  33.354  29.759  1.00  0.00     0.135 A 
ATOM     64  F   UNL A   1      46.084  33.484  26.253  1.00  0.00    -0.206 F 
ATOM     65  C   UNL A   1      46.916  35.174  27.653  1.00  0.00     0.059 A 
ATOM     66  C   UNL A   1      47.442  34.674  29.970  1.00  0.00     0.059 A 
ATOM     67  F   UNL A   1      47.148  32.495  30.786  1.00  0.00    -0.206 F 
ATOM     68  C   UNL A   1      47.388  35.571  28.905  1.00  0.00     0.060 A 
BRANCH  68  69
ATOM     69  S   UNL A   1      47.933  37.278  29.122  1.00  0.00     0.124 S 
ATOM     70  O   UNL A   1      47.965  37.390  30.578  1.00  0.00    -0.237 OA
ATOM     71  O   UNL A   1      49.233  37.280  28.459  1.00  0.00    -0.237 OA
ATOM     72  O   UNL A   1      46.892  38.055  28.457  1.00  0.00    -0.744 OA
ENDBRANCH  68  69
ENDBRANCH  47  61
BRANCH  48  73
ATOM     73  C   UNL A   1      43.353  23.588  27.003  1.00  0.00     0.058 A 
ATOM     74  C   UNL A   1      43.054  23.172  25.699  1.00  0.00     0.135 A 
ATOM     75  C   UNL A   1      43.204  22.653  28.040  1.00  0.00     0.135 A 
ATOM     76  F   UNL A   1      43.171  24.033  24.677  1.00  0.00    -0.206 F 
ATOM     77  C   UNL A   1      42.629  21.875  25.428  1.00  0.00     0.059 A 
ATOM     78  C   UNL A   1      42.801  21.345  27.793  1.00  0.00     0.059 A 
ATOM     79  F   UNL A   1      43.490  23.000  29.305  1.00  0.00    -0.206 F 
ATOM     80  C   UNL A   1      42.514  20.965  26.482  1.00  0.00     0.060 A 
BRANCH  80  81
ATOM     81  S   UNL A   1      42.051  19.261  26.108  1.00  0.00     0.124 S 
ATOM     82  O   UNL A   1      40.623  19.393  25.849  1.00  0.00    -0.237 OA
ATOM     83  O   UNL A   1      42.888  18.966  24.948  1.00  0.00    -0.237 OA
ATOM     84  O   UNL A   1      42.410  18.542  27.328  1.00  0.00    -0.744 OA
ENDBRANCH  80  81
ENDBRANCH  48  73
BRANCH  60  85
ATOM     85  C   UNL A   1      49.517  26.756  26.143  1.00  0.00     0.058 A 
ATOM     86  C   UNL A   1      49.946  27.011  24.831  1.00  0.00     0.135 A 
ATOM     87  C   UNL A   1      50.399  26.077  27.000  1.00  0.00     0.135 A 
ATOM     88  F   UNL A   1      49.138  27.650  23.969  1.00  0.00    -0.206 F 
ATOM     89  C   UNL A   1      51.194  26.594  24.380  1.00  0.00     0.059 A 
ATOM     90  C   UNL A   1      51.660  25.672  26.578  1.00  0.00     0.059 A 
ATOM     91  F   UNL A   1      50.041  25.815  28.268  1.00  0.00    -0.206 F 
ATOM     92  C   UNL A   1      52.046  25.926  25.262  1.00  0.00     0.060 A 
BRANCH  92  93
ATOM     93  S   UNL A   1      53.677  25.419  24.677  1.00  0.00     0.124 S 
ATOM     94  O   UNL A   1      53.603  23.969  24.824  1.00  0.00    -0.237 OA
ATOM     95  O   UNL A   1      53.688  25.917  23.305  1.00  0.00    -0.237 OA
ATOM     96  O   UNL A   1      54.591  26.098  25.590  1.00  0.00    -0.744 OA
ENDBRANCH  92  93
ENDBRANCH  60  85
ENDBRANCH  34  35
ENDBRANCH  27  29
ENDBRANCH  26  27
ENDBRANCH  25  26
ENDBRANCH   1  25
TORSDOF 19
ENDMDL
MODEL 3
REMARK VINA RESULT:     -11.0      0.554      8.225
REMARK SMILES Cc1ccc(Cl)c(Nc2ccccc2C(=O)OCCOCCOC(=O)c2ccc(-c3c4nc(c(-c5c(F)cc(S(=O)(=O)[O-])cc5F)c5ccc([nH]5)c(-c5c(F)cc(S(=O)(=O)[O-])cc5F)c5nc(c(-c6c(F)cc(S(=O)(=O)[O-])cc6F)c6ccc3[nH]6)C=C5)C=C4)cc2)c1Cl
REMARK SMILES IDX 21 1 20 2 19 3 18 4 17 5 15 6 16 7 14 8 9 9 10 10 11 11
REMARK SMILES IDX 13 12 12 13 8 14 7 16 1 17 2 18 3 19 92 20 4 21 93 22 5 23
REMARK SMILES IDX 6 24 22 25 23 26 24 27 25 28 26 29 27 30 91 31 28 32 90 33
REMARK SMILES IDX 29 34 30 35 31 36 84 37 32 38 89 39 83 40 85 41 33 42 88 43
REMARK SMILES IDX 82 44 81 45 34 47 68 48 47 49 67 50 48 51 51 52 66 53 86 54
REMARK SMILES IDX 49 55 50 56 65 58 87 59 52 60 35 61 36 62 45 63 37 64 38 65
REMARK SMILES IDX 44 66 46 67 39 68 40 69 41 70 42 71 43 72 69 73 70 74 79 75
REMARK SMILES IDX 71 76 72 77 78 78 80 79 73 80 74 81 75 82 76 83 77 84 53 85
REMARK SMILES IDX 54 86 63 87 55 88 56 89 62 90 64 91 57 92 58 93 59 94 60 95
REMARK SMILES IDX 61 96
REMARK H PARENT 8 15 85 46 51 57
REMARK Flexibility Score: inf
ROOT
ATOM      1  C   UNL A   1      38.795  22.229  26.175  1.00  0.00     0.202 C 
ENDROOT
BRANCH   1   2
ATOM      2  O   UNL A   1      37.494  22.732  25.875  1.00  0.00    -0.374 OA
BRANCH   2   3
ATOM      3  C   UNL A   1      36.573  21.846  25.239  1.00  0.00     0.202 C 
BRANCH   3   4
ATOM      4  C   UNL A   1      36.010  22.288  23.887  1.00  0.00     0.261 C 
BRANCH   4   5
ATOM      5  O   UNL A   1      35.700  23.691  23.867  1.00  0.00    -0.460 OA
BRANCH   5   6
ATOM      6  C   UNL A   1      34.482  24.005  23.360  1.00  0.00     0.340 C 
ATOM      7  O   UNL A   1      34.061  23.695  22.253  1.00  0.00    -0.246 OA
BRANCH   6   8
ATOM      8  C   UNL A   1      33.608  24.623  24.388  1.00  0.00     0.083 A 
ATOM      9  C   UNL A   1      32.402  24.088  24.884  1.00  0.00     0.053 A 
ATOM     10  C   UNL A   1      31.701  24.854  25.842  1.00  0.00     0.027 A 
ATOM     11  C   UNL A   1      32.177  26.086  26.303  1.00  0.00     0.002 A 
ATOM     12  C   UNL A   1      34.082  25.865  24.864  1.00  0.00     0.018 A 
ATOM     13  C   UNL A   1      33.373  26.590  25.816  1.00  0.00     0.001 A 
BRANCH   9  14
ATOM     14  N   UNL A   1      31.861  22.817  24.609  1.00  0.00    -0.352 N 
ATOM     15  H   UNL A   1      30.906  22.841  24.371  1.00  0.00     0.167 HD
BRANCH  14  16
ATOM     16  C   UNL A   1      32.407  21.509  24.604  1.00  0.00     0.077 A 
ATOM     17  C   UNL A   1      32.313  18.239  22.598  1.00  0.00     0.046 C 
ATOM     18  C   UNL A   1      32.624  19.247  23.670  1.00  0.00    -0.030 A 
ATOM     19  C   UNL A   1      33.177  18.804  24.878  1.00  0.00     0.006 A 
ATOM     20  C   UNL A   1      32.314  20.614  23.516  1.00  0.00     0.069 A 
ATOM     21  C   UNL A   1      33.399  19.699  25.918  1.00  0.00     0.023 A 
ATOM     22  Cl  UNL A   1      31.928  21.202  21.920  1.00  0.00    -0.082 Cl
ATOM     23  C   UNL A   1      32.991  21.026  25.794  1.00  0.00     0.066 A 
ATOM     24  Cl  UNL A   1      33.205  22.068  27.163  1.00  0.00    -0.082 Cl
ENDBRANCH  14  16
ENDBRANCH   9  14
ENDBRANCH   6   8
ENDBRANCH   5   6
ENDBRANCH   4   5
ENDBRANCH   3   4
ENDBRANCH   2   3
ENDBRANCH   1   2
BRANCH   1  25
ATOM     25  C   UNL A   1      39.892  23.250  26.507  1.00  0.00     0.261 C 
BRANCH  25  26
ATOM     26  O   UNL A   1      39.447  24.616  26.471  1.00  0.00    -0.460 OA
BRANCH  26  27
ATOM     27  C   UNL A   1      40.444  25.531  26.404  1.00  0.00     0.338 C 
ATOM     28  O   UNL A   1      41.076  25.860  25.407  1.00  0.00    -0.246 OA
BRANCH  27  29
ATOM     29  C   UNL A   1      40.601  26.230  27.691  1.00  0.00     0.060 A 
ATOM     30  C   UNL A   1      39.617  26.031  28.668  1.00  0.00     0.016 A 
ATOM     31  C   UNL A   1      41.625  27.156  27.895  1.00  0.00     0.016 A 
ATOM     32  C   UNL A   1      39.628  26.792  29.835  1.00  0.00     0.010 A 
ATOM     33  C   UNL A   1      41.630  27.924  29.066  1.00  0.00     0.010 A 
ATOM     34  C   UNL A   1      40.613  27.770  30.025  1.00  0.00    -0.014 A 
BRANCH  34  35
ATOM     35  C   UNL A   1      40.511  28.707  31.171  1.00  0.00     0.031 A 
ATOM     36  C   UNL A   1      39.502  29.819  31.130  1.00  0.00     0.074 A 
ATOM     37  C   UNL A   1      41.305  28.560  32.247  1.00  0.00     0.049 A 
ATOM     38  N   UNL A   1      39.271  30.757  32.011  1.00  0.00    -0.248 NA
ATOM     39  C   UNL A   1      38.643  29.882  29.938  1.00  0.00     0.031 C 
ATOM     40  C   UNL A   1      42.296  27.502  32.413  1.00  0.00     0.029 A 
ATOM     41  N   UNL A   1      41.416  29.307  33.391  1.00  0.00    -0.354 N 
ATOM     42  C   UNL A   1      38.243  31.526  31.482  1.00  0.00     0.074 A 
ATOM     43  C   UNL A   1      37.915  30.961  30.189  1.00  0.00     0.031 C 
ATOM     44  C   UNL A   1      42.941  27.682  33.577  1.00  0.00     0.029 A 
ATOM     45  C   UNL A   1      42.416  28.879  34.231  1.00  0.00     0.049 A 
ATOM     46  H   UNL A   1      40.835  30.076  33.593  1.00  0.00     0.167 HD
ATOM     47  C   UNL A   1      37.623  32.600  32.028  1.00  0.00     0.037 A 
ATOM     48  C   UNL A   1      42.870  29.404  35.387  1.00  0.00     0.037 A 
ATOM     49  C   UNL A   1      37.954  33.158  33.313  1.00  0.00     0.049 A 
ATOM     50  C   UNL A   1      42.203  30.628  35.952  1.00  0.00     0.074 A 
ATOM     51  C   UNL A   1      37.356  34.218  33.971  1.00  0.00     0.029 A 
ATOM     52  N   UNL A   1      38.983  32.711  34.129  1.00  0.00    -0.354 N 
ATOM     53  N   UNL A   1      41.200  31.318  35.463  1.00  0.00    -0.248 NA
ATOM     54  C   UNL A   1      42.721  31.142  37.228  1.00  0.00     0.031 C 
ATOM     55  C   UNL A   1      38.054  34.442  35.164  1.00  0.00     0.029 A 
ATOM     56  C   UNL A   1      39.058  33.493  35.271  1.00  0.00     0.049 A 
ATOM     57  H   UNL A   1      39.575  31.950  33.927  1.00  0.00     0.167 HD
ATOM     58  C   UNL A   1      40.953  32.334  36.379  1.00  0.00     0.074 A 
ATOM     59  C   UNL A   1      41.907  32.164  37.456  1.00  0.00     0.031 C 
ATOM     60  C   UNL A   1      40.019  33.316  36.333  1.00  0.00     0.037 A 
BRANCH  47  61
ATOM     61  C   UNL A   1      36.543  33.256  31.215  1.00  0.00     0.058 A 
ATOM     62  C   UNL A   1      36.836  34.029  30.080  1.00  0.00     0.135 A 
ATOM     63  C   UNL A   1      35.194  33.109  31.576  1.00  0.00     0.135 A 
ATOM     64  F   UNL A   1      38.111  34.214  29.700  1.00  0.00    -0.206 F 
ATOM     65  C   UNL A   1      35.833  34.662  29.352  1.00  0.00     0.059 A 
ATOM     66  C   UNL A   1      34.172  33.714  30.849  1.00  0.00     0.059 A 
ATOM     67  F   UNL A   1      34.858  32.382  32.654  1.00  0.00    -0.206 F 
ATOM     68  C   UNL A   1      34.505  34.504  29.751  1.00  0.00     0.060 A 
BRANCH  68  69
ATOM     69  S   UNL A   1      33.214  35.349  28.813  1.00  0.00     0.124 S 
ATOM     70  O   UNL A   1      32.611  34.238  28.083  1.00  0.00    -0.237 OA
ATOM     71  O   UNL A   1      32.392  35.936  29.866  1.00  0.00    -0.237 OA
ATOM     72  O   UNL A   1      33.958  36.304  27.996  1.00  0.00    -0.744 OA
ENDBRANCH  68  69
ENDBRANCH  47  61
BRANCH  48  73
ATOM     73  C   UNL A   1      44.020  28.767  36.078  1.00  0.00     0.058 A 
ATOM     74  C   UNL A   1      45.322  29.261  35.928  1.00  0.00     0.135 A 
ATOM     75  C   UNL A   1      43.828  27.672  36.937  1.00  0.00     0.135 A 
ATOM     76  F   UNL A   1      45.556  30.298  35.110  1.00  0.00    -0.206 F 
ATOM     77  C   UNL A   1      46.397  28.698  36.610  1.00  0.00     0.059 A 
ATOM     78  C   UNL A   1      44.882  27.105  37.645  1.00  0.00     0.059 A 
ATOM     79  F   UNL A   1      42.596  27.171  37.123  1.00  0.00    -0.206 F 
ATOM     80  C   UNL A   1      46.165  27.625  37.474  1.00  0.00     0.060 A 
BRANCH  80  81
ATOM     81  S   UNL A   1      47.550  26.962  38.423  1.00  0.00     0.124 S 
ATOM     82  O   UNL A   1      48.600  27.928  38.127  1.00  0.00    -0.237 OA
ATOM     83  O   UNL A   1      47.024  26.985  39.786  1.00  0.00    -0.237 OA
ATOM     84  O   UNL A   1      47.736  25.629  37.856  1.00  0.00    -0.744 OA
ENDBRANCH  80  81
ENDBRANCH  48  73
BRANCH  60  85
ATOM     85  C   UNL A   1      39.968  34.277  37.488  1.00  0.00     0.058 A 
ATOM     86  C   UNL A   1      40.595  35.531  37.430  1.00  0.00     0.135 A 
ATOM     87  C   UNL A   1      39.241  33.961  38.647  1.00  0.00     0.135 A 
ATOM     88  F   UNL A   1      41.310  35.880  36.347  1.00  0.00    -0.206 F 
ATOM     89  C   UNL A   1      40.520  36.432  38.487  1.00  0.00     0.059 A 
ATOM     90  C   UNL A   1      39.131  34.856  39.706  1.00  0.00     0.059 A 
ATOM     91  F   UNL A   1      38.614  32.779  38.750  1.00  0.00    -0.206 F 
ATOM     92  C   UNL A   1      39.783  36.086  39.622  1.00  0.00     0.060 A 
BRANCH  92  93
ATOM     93  S   UNL A   1      39.662  37.276  40.975  1.00  0.00     0.124 S 
ATOM     94  O   UNL A   1      38.754  38.269  40.410  1.00  0.00    -0.237 OA
ATOM     95  O   UNL A   1      39.118  36.464  42.059  1.00  0.00    -0.237 OA
ATOM     96  O   UNL A   1      41.040  37.718  41.162  1.00  0.00    -0.744 OA
ENDBRANCH  92  93
ENDBRANCH  60  85
ENDBRANCH  34  35
ENDBRANCH  27  29
ENDBRANCH  26  27
ENDBRANCH  25  26
ENDBRANCH   1  25
TORSDOF 19
ENDMDL
