MODEL 1
REMARK VINA RESULT:     -12.8      0.000      0.000
REMARK SMILES Cc1c(CC(=O)OCCOCCOC(=O)c2ccc(-c3c4nc(c(-c5c(F)cc(S(=O)(=O)[O-])cc5F)c5ccc([nH]5)c(-c5c(F)cc(S(=O)(=O)[O-])cc5F)c5nc(c(-c6c(F)cc(S(=O)(=O)[O-])cc6F)c6ccc3[nH]6)C=C5)C=C4)cc2)cc(-c2ccc(S(C)(=O)=O)cc2)n1-c1ccccc1
REMARK SMILES IDX 10 1 9 2 8 3 7 4 5 5 6 6 4 7 3 8 1 9 2 10 94 11 82 12 83 13
REMARK SMILES IDX 95 14 96 15 100 16 97 17 99 18 98 19 84 20 85 21 93 22 86 23
REMARK SMILES IDX 92 24 87 25 88 26 89 27 90 28 91 29 11 30 12 31 13 32 14 33
REMARK SMILES IDX 15 34 16 35 17 36 81 37 18 38 80 39 19 40 20 41 21 42 74 43
REMARK SMILES IDX 22 44 79 45 73 46 75 47 23 48 78 49 72 50 71 51 24 53 58 54
REMARK SMILES IDX 37 55 57 56 38 57 41 58 56 59 76 60 39 61 40 62 55 64 77 65
REMARK SMILES IDX 42 66 25 67 26 68 35 69 27 70 28 71 34 72 36 73 29 74 30 75
REMARK SMILES IDX 31 76 32 77 33 78 59 79 60 80 69 81 61 82 62 83 68 84 70 85
REMARK SMILES IDX 63 86 64 87 65 88 66 89 67 90 43 91 44 92 53 93 45 94 46 95
REMARK SMILES IDX 52 96 54 97 47 98 48 99 49 100 50 101 51 102
REMARK H PARENT 75 52 41 63
REMARK Flexibility Score: inf
ROOT
ATOM      1  O   UNL A   1      37.828  22.048  25.901  1.00  0.00    -0.374 OA
ENDROOT
BRANCH   1   2
ATOM      2  C   UNL A   1      37.249  21.089  25.036  1.00  0.00     0.202 C 
BRANCH   2   3
ATOM      3  C   UNL A   1      35.769  20.779  25.310  1.00  0.00     0.261 C 
BRANCH   3   4
ATOM      4  O   UNL A   1      34.869  21.364  24.340  1.00  0.00    -0.463 OA
BRANCH   4   5
ATOM      5  C   UNL A   1      33.553  21.047  24.478  1.00  0.00     0.310 C 
ATOM      6  O   UNL A   1      33.145  20.094  25.141  1.00  0.00    -0.252 OA
BRANCH   5   7
ATOM      7  C   UNL A   1      32.578  21.912  23.696  1.00  0.00     0.160 C 
BRANCH   7   8
ATOM      8  C   UNL A   1      32.423  23.384  24.013  1.00  0.00    -0.015 A 
ATOM      9  C   UNL A   1      33.192  23.571  26.506  1.00  0.00     0.065 C 
ATOM     10  C   UNL A   1      32.699  24.088  25.193  1.00  0.00     0.024 A 
ATOM     11  N   UNL A   1      32.304  25.423  25.029  1.00  0.00    -0.314 N 
ATOM     12  C   UNL A   1      31.721  24.295  23.181  1.00  0.00     0.033 A 
ATOM     13  C   UNL A   1      31.567  25.494  23.852  1.00  0.00     0.053 A 
BRANCH  11  14
ATOM     14  C   UNL A   1      32.546  26.521  25.924  1.00  0.00     0.046 A 
ATOM     15  C   UNL A   1      31.570  26.981  26.803  1.00  0.00     0.026 A 
ATOM     16  C   UNL A   1      33.706  27.283  25.786  1.00  0.00     0.026 A 
ATOM     17  C   UNL A   1      31.792  28.158  27.540  1.00  0.00     0.002 A 
ATOM     18  C   UNL A   1      33.945  28.442  26.521  1.00  0.00     0.002 A 
ATOM     19  C   UNL A   1      32.978  28.884  27.404  1.00  0.00     0.000 A 
ENDBRANCH  11  14
BRANCH  13  20
ATOM     20  C   UNL A   1      30.832  26.670  23.402  1.00  0.00    -0.001 A 
ATOM     21  C   UNL A   1      31.466  27.645  22.630  1.00  0.00     0.011 A 
ATOM     22  C   UNL A   1      29.492  26.835  23.765  1.00  0.00     0.011 A 
ATOM     23  C   UNL A   1      30.787  28.795  22.238  1.00  0.00     0.021 A 
ATOM     24  C   UNL A   1      28.803  27.987  23.385  1.00  0.00     0.021 A 
ATOM     25  C   UNL A   1      29.459  28.964  22.632  1.00  0.00     0.067 A 
BRANCH  25  26
ATOM     26  S   UNL A   1      28.596  30.429  22.123  1.00  0.00     0.175 S 
ATOM     27  C   UNL A   1      27.275  30.592  23.296  1.00  0.00     0.163 C 
ATOM     28  O   UNL A   1      29.507  31.530  22.276  1.00  0.00    -0.224 OA
ATOM     29  O   UNL A   1      27.986  30.135  20.825  1.00  0.00    -0.224 OA
ENDBRANCH  25  26
ENDBRANCH  13  20
ENDBRANCH   7   8
ENDBRANCH   5   7
ENDBRANCH   4   5
ENDBRANCH   3   4
ENDBRANCH   2   3
ENDBRANCH   1   2
BRANCH   1  30
ATOM     30  C   UNL A   1      39.229  21.887  26.114  1.00  0.00     0.202 C 
BRANCH  30  31
ATOM     31  C   UNL A   1      39.860  20.465  25.941  1.00  0.00     0.261 C 
BRANCH  31  32
ATOM     32  O   UNL A   1      41.152  19.994  26.572  1.00  0.00    -0.460 OA
BRANCH  32  33
ATOM     33  C   UNL A   1      42.308  20.741  26.241  1.00  0.00     0.338 C 
ATOM     34  O   UNL A   1      43.121  20.276  25.446  1.00  0.00    -0.246 OA
BRANCH  33  35
ATOM     35  C   UNL A   1      42.651  22.163  26.885  1.00  0.00     0.060 A 
ATOM     36  C   UNL A   1      42.444  22.467  28.235  1.00  0.00     0.016 A 
ATOM     37  C   UNL A   1      42.786  23.356  26.117  1.00  0.00     0.016 A 
ATOM     38  C   UNL A   1      42.470  23.856  28.776  1.00  0.00     0.010 A 
ATOM     39  C   UNL A   1      42.782  24.767  26.664  1.00  0.00     0.010 A 
ATOM     40  C   UNL A   1      42.647  25.093  28.035  1.00  0.00    -0.014 A 
BRANCH  40  41
ATOM     41  C   UNL A   1      42.038  26.546  28.713  1.00  0.00     0.031 A 
ATOM     42  C   UNL A   1      43.318  27.304  28.823  1.00  0.00     0.074 A 
ATOM     43  C   UNL A   1      40.918  27.248  29.266  1.00  0.00     0.049 A 
ATOM     44  N   UNL A   1      44.321  26.776  29.472  1.00  0.00    -0.248 NA
ATOM     45  C   UNL A   1      43.680  28.400  27.926  1.00  0.00     0.031 C 
ATOM     46  C   UNL A   1      39.550  26.741  29.532  1.00  0.00     0.029 A 
ATOM     47  N   UNL A   1      40.703  28.622  29.753  1.00  0.00    -0.354 N 
ATOM     48  C   UNL A   1      45.361  27.658  29.347  1.00  0.00     0.074 A 
ATOM     49  C   UNL A   1      44.989  28.477  28.197  1.00  0.00     0.031 C 
ATOM     50  C   UNL A   1      38.672  27.720  29.931  1.00  0.00     0.029 A 
ATOM     51  C   UNL A   1      39.313  29.033  30.064  1.00  0.00     0.049 A 
ATOM     52  H   UNL A   1      41.456  29.246  29.866  1.00  0.00     0.167 HD
ATOM     53  C   UNL A   1      45.892  28.078  30.532  1.00  0.00     0.037 A 
ATOM     54  C   UNL A   1      38.729  30.266  30.471  1.00  0.00     0.037 A 
ATOM     55  C   UNL A   1      45.370  29.358  30.930  1.00  0.00     0.049 A 
ATOM     56  C   UNL A   1      39.804  30.996  31.150  1.00  0.00     0.074 A 
ATOM     57  C   UNL A   1      45.164  30.533  30.238  1.00  0.00     0.029 A 
ATOM     58  N   UNL A   1      44.550  29.395  32.042  1.00  0.00    -0.354 N 
ATOM     59  N   UNL A   1      40.180  30.703  32.355  1.00  0.00    -0.248 NA
ATOM     60  C   UNL A   1      40.454  32.157  30.551  1.00  0.00     0.031 C 
ATOM     61  C   UNL A   1      43.884  30.953  30.643  1.00  0.00     0.029 A 
ATOM     62  C   UNL A   1      43.565  30.338  31.847  1.00  0.00     0.049 A 
ATOM     63  H   UNL A   1      44.654  28.838  32.847  1.00  0.00     0.167 HD
ATOM     64  C   UNL A   1      41.431  31.228  32.412  1.00  0.00     0.074 A 
ATOM     65  C   UNL A   1      41.437  32.309  31.441  1.00  0.00     0.031 C 
ATOM     66  C   UNL A   1      42.418  30.352  32.721  1.00  0.00     0.037 A 
BRANCH  53  67
ATOM     67  C   UNL A   1      46.216  26.973  31.496  1.00  0.00     0.058 A 
ATOM     68  C   UNL A   1      45.168  26.345  32.173  1.00  0.00     0.135 A 
ATOM     69  C   UNL A   1      47.532  26.576  31.818  1.00  0.00     0.135 A 
ATOM     70  F   UNL A   1      43.895  26.665  31.890  1.00  0.00    -0.206 F 
ATOM     71  C   UNL A   1      45.409  25.382  33.150  1.00  0.00     0.059 A 
ATOM     72  C   UNL A   1      47.798  25.649  32.819  1.00  0.00     0.059 A 
ATOM     73  F   UNL A   1      48.581  27.073  31.143  1.00  0.00    -0.206 F 
ATOM     74  C   UNL A   1      46.728  25.053  33.477  1.00  0.00     0.060 A 
BRANCH  74  75
ATOM     75  S   UNL A   1      47.011  23.832  34.774  1.00  0.00     0.124 S 
ATOM     76  O   UNL A   1      47.362  24.670  35.917  1.00  0.00    -0.237 OA
ATOM     77  O   UNL A   1      45.709  23.179  34.854  1.00  0.00    -0.237 OA
ATOM     78  O   UNL A   1      48.104  23.018  34.252  1.00  0.00    -0.744 OA
ENDBRANCH  74  75
ENDBRANCH  53  67
BRANCH  54  79
ATOM     79  C   UNL A   1      37.383  31.147  30.675  1.00  0.00     0.058 A 
ATOM     80  C   UNL A   1      36.579  31.056  31.883  1.00  0.00     0.135 A 
ATOM     81  C   UNL A   1      37.096  32.323  29.961  1.00  0.00     0.135 A 
ATOM     82  F   UNL A   1      36.634  29.977  32.677  1.00  0.00    -0.206 F 
ATOM     83  C   UNL A   1      35.736  32.076  32.396  1.00  0.00     0.059 A 
ATOM     84  C   UNL A   1      36.222  33.356  30.447  1.00  0.00     0.059 A 
ATOM     85  F   UNL A   1      37.713  32.553  28.794  1.00  0.00    -0.206 F 
ATOM     86  C   UNL A   1      35.596  33.255  31.693  1.00  0.00     0.060 A 
BRANCH  86  87
ATOM     87  S   UNL A   1      34.753  34.674  32.492  1.00  0.00     0.124 S 
ATOM     88  O   UNL A   1      33.984  35.260  31.399  1.00  0.00    -0.237 OA
ATOM     89  O   UNL A   1      33.964  34.025  33.536  1.00  0.00    -0.237 OA
ATOM     90  O   UNL A   1      35.860  35.491  32.984  1.00  0.00    -0.744 OA
ENDBRANCH  86  87
ENDBRANCH  54  79
BRANCH  66  91
ATOM     91  C   UNL A   1      42.155  29.403  33.882  1.00  0.00     0.058 A 
ATOM     92  C   UNL A   1      42.417  29.636  35.254  1.00  0.00     0.135 A 
ATOM     93  C   UNL A   1      41.703  28.112  33.558  1.00  0.00     0.135 A 
ATOM     94  F   UNL A   1      42.731  30.853  35.724  1.00  0.00    -0.206 F 
ATOM     95  C   UNL A   1      42.349  28.618  36.211  1.00  0.00     0.059 A 
ATOM     96  C   UNL A   1      41.568  27.100  34.506  1.00  0.00     0.059 A 
ATOM     97  F   UNL A   1      41.393  27.815  32.286  1.00  0.00    -0.206 F 
ATOM     98  C   UNL A   1      41.939  27.347  35.824  1.00  0.00     0.060 A 
BRANCH  98  99
ATOM     99  S   UNL A   1      41.900  26.025  37.053  1.00  0.00     0.124 S 
ATOM    100  O   UNL A   1      42.760  26.564  38.104  1.00  0.00    -0.237 OA
ATOM    101  O   UNL A   1      40.483  25.938  37.384  1.00  0.00    -0.237 OA
ATOM    102  O   UNL A   1      42.451  24.878  36.336  1.00  0.00    -0.744 OA
ENDBRANCH  98  99
ENDBRANCH  66  91
ENDBRANCH  40  41
ENDBRANCH  33  35
ENDBRANCH  32  33
ENDBRANCH  31  32
ENDBRANCH  30  31
ENDBRANCH   1  30
TORSDOF 21
ENDMDL
MODEL 2
REMARK VINA RESULT:     -12.7      1.680      2.221
REMARK SMILES Cc1c(CC(=O)OCCOCCOC(=O)c2ccc(-c3c4nc(c(-c5c(F)cc(S(=O)(=O)[O-])cc5F)c5ccc([nH]5)c(-c5c(F)cc(S(=O)(=O)[O-])cc5F)c5nc(c(-c6c(F)cc(S(=O)(=O)[O-])cc6F)c6ccc3[nH]6)C=C5)C=C4)cc2)cc(-c2ccc(S(C)(=O)=O)cc2)n1-c1ccccc1
REMARK SMILES IDX 10 1 9 2 8 3 7 4 5 5 6 6 4 7 3 8 1 9 2 10 94 11 82 12 83 13
REMARK SMILES IDX 95 14 96 15 100 16 97 17 99 18 98 19 84 20 85 21 93 22 86 23
REMARK SMILES IDX 92 24 87 25 88 26 89 27 90 28 91 29 11 30 12 31 13 32 14 33
REMARK SMILES IDX 15 34 16 35 17 36 81 37 18 38 80 39 19 40 20 41 21 42 74 43
REMARK SMILES IDX 22 44 79 45 73 46 75 47 23 48 78 49 72 50 71 51 24 53 58 54
REMARK SMILES IDX 37 55 57 56 38 57 41 58 56 59 76 60 39 61 40 62 55 64 77 65
REMARK SMILES IDX 42 66 25 67 26 68 35 69 27 70 28 71 34 72 36 73 29 74 30 75
REMARK SMILES IDX 31 76 32 77 33 78 59 79 60 80 69 81 61 82 62 83 68 84 70 85
REMARK SMILES IDX 63 86 64 87 65 88 66 89 67 90 43 91 44 92 53 93 45 94 46 95
REMARK SMILES IDX 52 96 54 97 47 98 48 99 49 100 50 101 51 102
REMARK H PARENT 75 52 41 63
REMARK Flexibility Score: inf
ROOT
ATOM      1  O   UNL A   1      37.630  22.465  25.965  1.00  0.00    -0.374 OA
ENDROOT
BRANCH   1   2
ATOM      2  C   UNL A   1      37.430  21.640  24.831  1.00  0.00     0.202 C 
BRANCH   2   3
ATOM      3  C   UNL A   1      36.241  22.037  23.942  1.00  0.00     0.261 C 
BRANCH   3   4
ATOM      4  O   UNL A   1      34.993  21.426  24.343  1.00  0.00    -0.463 OA
BRANCH   4   5
ATOM      5  C   UNL A   1      33.875  21.884  23.718  1.00  0.00     0.310 C 
ATOM      6  O   UNL A   1      32.786  21.314  23.761  1.00  0.00    -0.252 OA
BRANCH   5   7
ATOM      7  C   UNL A   1      34.051  23.140  22.881  1.00  0.00     0.160 C 
BRANCH   7   8
ATOM      8  C   UNL A   1      33.544  24.477  23.374  1.00  0.00    -0.015 A 
ATOM      9  C   UNL A   1      34.306  24.551  25.874  1.00  0.00     0.065 C 
ATOM     10  C   UNL A   1      33.667  25.082  24.633  1.00  0.00     0.024 A 
ATOM     11  N   UNL A   1      32.949  26.287  24.631  1.00  0.00    -0.314 N 
ATOM     12  C   UNL A   1      32.617  25.277  22.656  1.00  0.00     0.033 A 
ATOM     13  C   UNL A   1      32.187  26.311  23.468  1.00  0.00     0.053 A 
BRANCH  11  14
ATOM     14  C   UNL A   1      32.934  27.294  25.655  1.00  0.00     0.046 A 
ATOM     15  C   UNL A   1      31.839  27.473  26.494  1.00  0.00     0.026 A 
ATOM     16  C   UNL A   1      33.944  28.255  25.694  1.00  0.00     0.026 A 
ATOM     17  C   UNL A   1      31.800  28.574  27.368  1.00  0.00     0.002 A 
ATOM     18  C   UNL A   1      33.925  29.342  26.565  1.00  0.00     0.002 A 
ATOM     19  C   UNL A   1      32.842  29.503  27.408  1.00  0.00     0.000 A 
ENDBRANCH  11  14
BRANCH  13  20
ATOM     20  C   UNL A   1      31.172  27.312  23.161  1.00  0.00    -0.001 A 
ATOM     21  C   UNL A   1      31.540  28.548  22.626  1.00  0.00     0.011 A 
ATOM     22  C   UNL A   1      29.826  27.043  23.426  1.00  0.00     0.011 A 
ATOM     23  C   UNL A   1      30.583  29.527  22.378  1.00  0.00     0.021 A 
ATOM     24  C   UNL A   1      28.859  28.019  23.188  1.00  0.00     0.021 A 
ATOM     25  C   UNL A   1      29.246  29.259  22.675  1.00  0.00     0.067 A 
BRANCH  25  26
ATOM     26  S   UNL A   1      28.030  30.510  22.348  1.00  0.00     0.175 S 
ATOM     27  C   UNL A   1      28.871  32.038  22.674  1.00  0.00     0.163 C 
ATOM     28  O   UNL A   1      27.709  30.433  20.950  1.00  0.00    -0.224 OA
ATOM     29  O   UNL A   1      26.987  30.367  23.366  1.00  0.00    -0.224 OA
ENDBRANCH  25  26
ENDBRANCH  13  20
ENDBRANCH   7   8
ENDBRANCH   5   7
ENDBRANCH   4   5
ENDBRANCH   3   4
ENDBRANCH   2   3
ENDBRANCH   1   2
BRANCH   1  30
ATOM     30  C   UNL A   1      38.988  22.578  26.385  1.00  0.00     0.202 C 
BRANCH  30  31
ATOM     31  C   UNL A   1      39.926  21.333  26.246  1.00  0.00     0.261 C 
BRANCH  31  32
ATOM     32  O   UNL A   1      41.362  21.258  26.718  1.00  0.00    -0.460 OA
BRANCH  32  33
ATOM     33  C   UNL A   1      42.265  22.151  26.094  1.00  0.00     0.338 C 
ATOM     34  O   UNL A   1      42.969  21.752  25.170  1.00  0.00    -0.246 OA
BRANCH  33  35
ATOM     35  C   UNL A   1      42.461  23.669  26.555  1.00  0.00     0.060 A 
ATOM     36  C   UNL A   1      42.353  24.089  27.886  1.00  0.00     0.016 A 
ATOM     37  C   UNL A   1      42.340  24.777  25.667  1.00  0.00     0.016 A 
ATOM     38  C   UNL A   1      42.232  25.520  28.286  1.00  0.00     0.010 A 
ATOM     39  C   UNL A   1      42.187  26.226  26.075  1.00  0.00     0.010 A 
ATOM     40  C   UNL A   1      42.149  26.680  27.416  1.00  0.00    -0.014 A 
BRANCH  40  41
ATOM     41  C   UNL A   1      41.408  28.104  28.020  1.00  0.00     0.031 A 
ATOM     42  C   UNL A   1      42.557  29.043  27.875  1.00  0.00     0.074 A 
ATOM     43  C   UNL A   1      40.268  28.702  28.649  1.00  0.00     0.049 A 
ATOM     44  N   UNL A   1      43.702  28.744  28.429  1.00  0.00    -0.248 NA
ATOM     45  C   UNL A   1      42.633  30.062  26.830  1.00  0.00     0.031 C 
ATOM     46  C   UNL A   1      39.038  28.043  29.151  1.00  0.00     0.029 A 
ATOM     47  N   UNL A   1      39.902  30.082  29.019  1.00  0.00    -0.354 N 
ATOM     48  C   UNL A   1      44.568  29.743  28.073  1.00  0.00     0.074 A 
ATOM     49  C   UNL A   1      43.936  30.356  26.908  1.00  0.00     0.031 C 
ATOM     50  C   UNL A   1      38.073  28.929  29.566  1.00  0.00     0.029 A 
ATOM     51  C   UNL A   1      38.513  30.326  29.476  1.00  0.00     0.049 A 
ATOM     52  H   UNL A   1      40.557  30.814  28.963  1.00  0.00     0.167 HD
ATOM     53  C   UNL A   1      45.168  30.373  29.125  1.00  0.00     0.037 A 
ATOM     54  C   UNL A   1      37.798  31.504  29.832  1.00  0.00     0.037 A 
ATOM     55  C   UNL A   1      44.505  31.605  29.459  1.00  0.00     0.049 A 
ATOM     56  C   UNL A   1      38.820  32.455  30.278  1.00  0.00     0.074 A 
ATOM     57  C   UNL A   1      44.036  32.647  28.687  1.00  0.00     0.029 A 
ATOM     58  N   UNL A   1      43.831  31.661  30.664  1.00  0.00    -0.354 N 
ATOM     59  N   UNL A   1      39.381  32.367  31.444  1.00  0.00    -0.248 NA
ATOM     60  C   UNL A   1      39.203  33.615  29.481  1.00  0.00     0.031 C 
ATOM     61  C   UNL A   1      42.765  32.928  29.220  1.00  0.00     0.029 A 
ATOM     62  C   UNL A   1      42.694  32.424  30.512  1.00  0.00     0.049 A 
ATOM     63  H   UNL A   1      44.117  31.226  31.499  1.00  0.00     0.167 HD
ATOM     64  C   UNL A   1      40.532  33.066  31.273  1.00  0.00     0.074 A 
ATOM     65  C   UNL A   1      40.251  34.012  30.206  1.00  0.00     0.031 C 
ATOM     66  C   UNL A   1      41.674  32.382  31.531  1.00  0.00     0.037 A 
BRANCH  53  67
ATOM     67  C   UNL A   1      45.775  29.450  30.141  1.00  0.00     0.058 A 
ATOM     68  C   UNL A   1      47.163  29.293  30.161  1.00  0.00     0.135 A 
ATOM     69  C   UNL A   1      45.017  28.666  31.037  1.00  0.00     0.135 A 
ATOM     70  F   UNL A   1      47.936  30.030  29.347  1.00  0.00    -0.206 F 
ATOM     71  C   UNL A   1      47.778  28.379  31.013  1.00  0.00     0.059 A 
ATOM     72  C   UNL A   1      45.605  27.716  31.865  1.00  0.00     0.059 A 
ATOM     73  F   UNL A   1      43.687  28.830  31.135  1.00  0.00    -0.206 F 
ATOM     74  C   UNL A   1      46.989  27.584  31.850  1.00  0.00     0.060 A 
BRANCH  74  75
ATOM     75  S   UNL A   1      47.810  26.381  32.913  1.00  0.00     0.124 S 
ATOM     76  O   UNL A   1      48.250  27.208  34.035  1.00  0.00    -0.237 OA
ATOM     77  O   UNL A   1      46.721  25.456  33.208  1.00  0.00    -0.237 OA
ATOM     78  O   UNL A   1      48.887  25.858  32.078  1.00  0.00    -0.744 OA
ENDBRANCH  74  75
ENDBRANCH  53  67
BRANCH  54  79
ATOM     79  C   UNL A   1      36.366  32.205  30.129  1.00  0.00     0.058 A 
ATOM     80  C   UNL A   1      35.822  32.303  31.475  1.00  0.00     0.135 A 
ATOM     81  C   UNL A   1      35.737  33.111  29.259  1.00  0.00     0.135 A 
ATOM     82  F   UNL A   1      36.223  31.476  32.451  1.00  0.00    -0.206 F 
ATOM     83  C   UNL A   1      34.903  33.286  31.927  1.00  0.00     0.059 A 
ATOM     84  C   UNL A   1      34.781  34.095  29.690  1.00  0.00     0.059 A 
ATOM     85  F   UNL A   1      36.081  33.129  27.965  1.00  0.00    -0.206 F 
ATOM     86  C   UNL A   1      34.418  34.219  31.034  1.00  0.00     0.060 A 
BRANCH  86  87
ATOM     87  S   UNL A   1      33.474  35.656  31.673  1.00  0.00     0.124 S 
ATOM     88  O   UNL A   1      33.248  36.461  30.477  1.00  0.00    -0.237 OA
ATOM     89  O   UNL A   1      32.283  35.026  32.239  1.00  0.00    -0.237 OA
ATOM     90  O   UNL A   1      34.378  36.244  32.658  1.00  0.00    -0.744 OA
ENDBRANCH  86  87
ENDBRANCH  54  79
BRANCH  66  91
ATOM     91  C   UNL A   1      41.705  31.553  32.807  1.00  0.00     0.058 A 
ATOM     92  C   UNL A   1      42.103  31.982  34.096  1.00  0.00     0.135 A 
ATOM     93  C   UNL A   1      41.412  30.184  32.683  1.00  0.00     0.135 A 
ATOM     94  F   UNL A   1      42.290  33.278  34.391  1.00  0.00    -0.206 F 
ATOM     95  C   UNL A   1      42.309  31.086  35.151  1.00  0.00     0.059 A 
ATOM     96  C   UNL A   1      41.551  29.284  33.738  1.00  0.00     0.059 A 
ATOM     97  F   UNL A   1      40.989  29.697  31.505  1.00  0.00    -0.206 F 
ATOM     98  C   UNL A   1      42.046  29.734  34.957  1.00  0.00     0.060 A 
BRANCH  98  99
ATOM     99  S   UNL A   1      42.361  28.577  36.306  1.00  0.00     0.124 S 
ATOM    100  O   UNL A   1      42.964  29.445  37.315  1.00  0.00    -0.237 OA
ATOM    101  O   UNL A   1      41.026  28.081  36.621  1.00  0.00    -0.237 OA
ATOM    102  O   UNL A   1      43.270  27.601  35.710  1.00  0.00    -0.744 OA
ENDBRANCH  98  99
ENDBRANCH  66  91
ENDBRANCH  40  41
ENDBRANCH  33  35
ENDBRANCH  32  33
ENDBRANCH  31  32
ENDBRANCH  30  31
ENDBRANCH   1  30
TORSDOF 21
ENDMDL
MODEL 3
REMARK VINA RESULT:     -10.6      2.044      3.046
REMARK SMILES Cc1c(CC(=O)OCCOCCOC(=O)c2ccc(-c3c4nc(c(-c5c(F)cc(S(=O)(=O)[O-])cc5F)c5ccc([nH]5)c(-c5c(F)cc(S(=O)(=O)[O-])cc5F)c5nc(c(-c6c(F)cc(S(=O)(=O)[O-])cc6F)c6ccc3[nH]6)C=C5)C=C4)cc2)cc(-c2ccc(S(C)(=O)=O)cc2)n1-c1ccccc1
REMARK SMILES IDX 10 1 9 2 8 3 7 4 5 5 6 6 4 7 3 8 1 9 2 10 94 11 82 12 83 13
REMARK SMILES IDX 95 14 96 15 100 16 97 17 99 18 98 19 84 20 85 21 93 22 86 23
REMARK SMILES IDX 92 24 87 25 88 26 89 27 90 28 91 29 11 30 12 31 13 32 14 33
REMARK SMILES IDX 15 34 16 35 17 36 81 37 18 38 80 39 19 40 20 41 21 42 74 43
REMARK SMILES IDX 22 44 79 45 73 46 75 47 23 48 78 49 72 50 71 51 24 53 58 54
REMARK SMILES IDX 37 55 57 56 38 57 41 58 56 59 76 60 39 61 40 62 55 64 77 65
REMARK SMILES IDX 42 66 25 67 26 68 35 69 27 70 28 71 34 72 36 73 29 74 30 75
REMARK SMILES IDX 31 76 32 77 33 78 59 79 60 80 69 81 61 82 62 83 68 84 70 85
REMARK SMILES IDX 63 86 64 87 65 88 66 89 67 90 43 91 44 92 53 93 45 94 46 95
REMARK SMILES IDX 52 96 54 97 47 98 48 99 49 100 50 101 51 102
REMARK H PARENT 75 52 41 63
REMARK Flexibility Score: inf
ROOT
ATOM      1  O   UNL A   1      37.106  20.867  24.651  1.00  0.00    -0.374 OA
ENDROOT
BRANCH   1   2
ATOM      2  C   UNL A   1      36.083  20.100  25.258  1.00  0.00     0.202 C 
BRANCH   2   3
ATOM      3  C   UNL A   1      34.695  20.246  24.614  1.00  0.00     0.261 C 
BRANCH   3   4
ATOM      4  O   UNL A   1      33.667  20.647  25.549  1.00  0.00    -0.463 OA
BRANCH   4   5
ATOM      5  C   UNL A   1      32.540  21.182  25.006  1.00  0.00     0.310 C 
ATOM      6  O   UNL A   1      31.400  20.858  25.339  1.00  0.00    -0.252 OA
BRANCH   5   7
ATOM      7  C   UNL A   1      32.756  22.184  23.884  1.00  0.00     0.160 C 
BRANCH   7   8
ATOM      8  C   UNL A   1      32.576  23.667  24.125  1.00  0.00    -0.015 A 
ATOM      9  C   UNL A   1      33.659  24.055  26.473  1.00  0.00     0.065 C 
ATOM     10  C   UNL A   1      32.973  24.461  25.209  1.00  0.00     0.024 A 
ATOM     11  N   UNL A   1      32.498  25.766  25.015  1.00  0.00    -0.314 N 
ATOM     12  C   UNL A   1      31.728  24.491  23.339  1.00  0.00     0.033 A 
ATOM     13  C   UNL A   1      31.608  25.727  23.947  1.00  0.00     0.053 A 
BRANCH  11  14
ATOM     14  C   UNL A   1      32.805  26.931  25.798  1.00  0.00     0.046 A 
ATOM     15  C   UNL A   1      34.041  27.566  25.715  1.00  0.00     0.026 A 
ATOM     16  C   UNL A   1      31.937  27.331  26.813  1.00  0.00     0.026 A 
ATOM     17  C   UNL A   1      34.358  28.598  26.617  1.00  0.00     0.002 A 
ATOM     18  C   UNL A   1      32.233  28.361  27.702  1.00  0.00     0.002 A 
ATOM     19  C   UNL A   1      33.455  28.998  27.604  1.00  0.00     0.000 A 
ENDBRANCH  11  14
BRANCH  13  20
ATOM     20  C   UNL A   1      30.767  26.840  23.526  1.00  0.00    -0.001 A 
ATOM     21  C   UNL A   1      29.407  26.855  23.842  1.00  0.00     0.011 A 
ATOM     22  C   UNL A   1      31.317  27.888  22.782  1.00  0.00     0.011 A 
ATOM     23  C   UNL A   1      28.586  27.889  23.401  1.00  0.00     0.021 A 
ATOM     24  C   UNL A   1      30.503  28.925  22.328  1.00  0.00     0.021 A 
ATOM     25  C   UNL A   1      29.140  28.913  22.632  1.00  0.00     0.067 A 
BRANCH  25  26
ATOM     26  S   UNL A   1      28.089  30.232  22.080  1.00  0.00     0.175 S 
ATOM     27  C   UNL A   1      29.007  31.707  22.439  1.00  0.00     0.163 C 
ATOM     28  O   UNL A   1      27.949  30.093  20.656  1.00  0.00    -0.224 OA
ATOM     29  O   UNL A   1      26.912  30.233  22.952  1.00  0.00    -0.224 OA
ENDBRANCH  25  26
ENDBRANCH  13  20
ENDBRANCH   7   8
ENDBRANCH   5   7
ENDBRANCH   4   5
ENDBRANCH   3   4
ENDBRANCH   2   3
ENDBRANCH   1   2
BRANCH   1  30
ATOM     30  C   UNL A   1      38.428  20.386  24.887  1.00  0.00     0.202 C 
BRANCH  30  31
ATOM     31  C   UNL A   1      39.219  20.930  26.122  1.00  0.00     0.261 C 
BRANCH  31  32
ATOM     32  O   UNL A   1      39.608  22.374  26.353  1.00  0.00    -0.460 OA
BRANCH  32  33
ATOM     33  C   UNL A   1      40.977  22.609  26.621  1.00  0.00     0.338 C 
ATOM     34  O   UNL A   1      41.778  21.682  26.535  1.00  0.00    -0.246 OA
BRANCH  33  35
ATOM     35  C   UNL A   1      41.553  24.027  27.082  1.00  0.00     0.060 A 
ATOM     36  C   UNL A   1      41.492  24.491  28.401  1.00  0.00     0.016 A 
ATOM     37  C   UNL A   1      41.785  25.106  26.181  1.00  0.00     0.016 A 
ATOM     38  C   UNL A   1      41.741  25.910  28.783  1.00  0.00     0.010 A 
ATOM     39  C   UNL A   1      42.008  26.552  26.569  1.00  0.00     0.010 A 
ATOM     40  C   UNL A   1      42.023  27.030  27.901  1.00  0.00    -0.014 A 
BRANCH  40  41
ATOM     41  C   UNL A   1      41.664  28.614  28.451  1.00  0.00     0.031 A 
ATOM     42  C   UNL A   1      42.925  29.294  28.035  1.00  0.00     0.074 A 
ATOM     43  C   UNL A   1      40.774  29.472  29.175  1.00  0.00     0.049 A 
ATOM     44  N   UNL A   1      44.072  28.820  28.441  1.00  0.00    -0.248 NA
ATOM     45  C   UNL A   1      43.007  30.194  26.886  1.00  0.00     0.031 C 
ATOM     46  C   UNL A   1      39.546  29.108  29.924  1.00  0.00     0.029 A 
ATOM     47  N   UNL A   1      40.731  30.921  29.444  1.00  0.00    -0.354 N 
ATOM     48  C   UNL A   1      45.033  29.599  27.853  1.00  0.00     0.074 A 
ATOM     49  C   UNL A   1      44.337  30.231  26.736  1.00  0.00     0.031 C 
ATOM     50  C   UNL A   1      38.842  30.196  30.380  1.00  0.00     0.029 A 
ATOM     51  C   UNL A   1      39.507  31.468  30.074  1.00  0.00     0.049 A 
ATOM     52  H   UNL A   1      41.490  31.504  29.211  1.00  0.00     0.167 HD
ATOM     53  C   UNL A   1      45.905  30.179  28.728  1.00  0.00     0.037 A 
ATOM     54  C   UNL A   1      39.087  32.788  30.404  1.00  0.00     0.037 A 
ATOM     55  C   UNL A   1      45.542  31.540  29.022  1.00  0.00     0.049 A 
ATOM     56  C   UNL A   1      40.325  33.551  30.586  1.00  0.00     0.074 A 
ATOM     57  C   UNL A   1      45.147  32.590  28.220  1.00  0.00     0.029 A 
ATOM     58  N   UNL A   1      45.101  31.821  30.301  1.00  0.00    -0.354 N 
ATOM     59  N   UNL A   1      41.047  33.446  31.657  1.00  0.00    -0.248 NA
ATOM     60  C   UNL A   1      40.773  34.548  29.619  1.00  0.00     0.031 C 
ATOM     61  C   UNL A   1      44.055  33.156  28.904  1.00  0.00     0.029 A 
ATOM     62  C   UNL A   1      44.112  32.778  30.239  1.00  0.00     0.049 A 
ATOM     63  H   UNL A   1      45.439  31.404  31.126  1.00  0.00     0.167 HD
ATOM     64  C   UNL A   1      42.261  33.890  31.241  1.00  0.00     0.074 A 
ATOM     65  C   UNL A   1      41.982  34.786  30.132  1.00  0.00     0.031 C 
ATOM     66  C   UNL A   1      43.287  33.017  31.397  1.00  0.00     0.037 A 
BRANCH  53  67
ATOM     67  C   UNL A   1      46.496  29.237  29.736  1.00  0.00     0.058 A 
ATOM     68  C   UNL A   1      47.804  28.784  29.546  1.00  0.00     0.135 A 
ATOM     69  C   UNL A   1      45.779  28.716  30.835  1.00  0.00     0.135 A 
ATOM     70  F   UNL A   1      48.542  29.264  28.531  1.00  0.00    -0.206 F 
ATOM     71  C   UNL A   1      48.374  27.835  30.391  1.00  0.00     0.059 A 
ATOM     72  C   UNL A   1      46.311  27.736  31.666  1.00  0.00     0.059 A 
ATOM     73  F   UNL A   1      44.551  29.173  31.130  1.00  0.00    -0.206 F 
ATOM     74  C   UNL A   1      47.614  27.306  31.438  1.00  0.00     0.060 A 
BRANCH  74  75
ATOM     75  S   UNL A   1      48.364  26.049  32.492  1.00  0.00     0.124 S 
ATOM     76  O   UNL A   1      47.375  24.974  32.443  1.00  0.00    -0.237 OA
ATOM     77  O   UNL A   1      49.614  25.781  31.789  1.00  0.00    -0.237 OA
ATOM     78  O   UNL A   1      48.486  26.710  33.787  1.00  0.00    -0.744 OA
ENDBRANCH  74  75
ENDBRANCH  53  67
BRANCH  54  79
ATOM     79  C   UNL A   1      37.876  33.778  30.834  1.00  0.00     0.058 A 
ATOM     80  C   UNL A   1      36.719  33.994  29.980  1.00  0.00     0.135 A 
ATOM     81  C   UNL A   1      37.612  34.170  32.157  1.00  0.00     0.135 A 
ATOM     82  F   UNL A   1      36.773  33.761  28.660  1.00  0.00    -0.206 F 
ATOM     83  C   UNL A   1      35.427  34.383  30.418  1.00  0.00     0.059 A 
ATOM     84  C   UNL A   1      36.319  34.596  32.617  1.00  0.00     0.059 A 
ATOM     85  F   UNL A   1      38.582  34.083  33.077  1.00  0.00    -0.206 F 
ATOM     86  C   UNL A   1      35.217  34.639  31.758  1.00  0.00     0.060 A 
BRANCH  86  87
ATOM     87  S   UNL A   1      33.499  34.849  32.366  1.00  0.00     0.124 S 
ATOM     88  O   UNL A   1      33.586  36.045  33.197  1.00  0.00    -0.237 OA
ATOM     89  O   UNL A   1      32.742  35.001  31.125  1.00  0.00    -0.237 OA
ATOM     90  O   UNL A   1      33.241  33.605  33.088  1.00  0.00    -0.744 OA
ENDBRANCH  86  87
ENDBRANCH  54  79
BRANCH  66  91
ATOM     91  C   UNL A   1      43.381  32.300  32.737  1.00  0.00     0.058 A 
ATOM     92  C   UNL A   1      42.746  31.089  33.106  1.00  0.00     0.135 A 
ATOM     93  C   UNL A   1      44.086  32.956  33.760  1.00  0.00     0.135 A 
ATOM     94  F   UNL A   1      42.146  30.294  32.207  1.00  0.00    -0.206 F 
ATOM     95  C   UNL A   1      42.717  30.635  34.429  1.00  0.00     0.059 A 
ATOM     96  C   UNL A   1      44.123  32.487  35.072  1.00  0.00     0.059 A 
ATOM     97  F   UNL A   1      44.752  34.090  33.489  1.00  0.00    -0.206 F 
ATOM     98  C   UNL A   1      43.395  31.351  35.410  1.00  0.00     0.060 A 
BRANCH  98  99
ATOM     99  S   UNL A   1      43.314  30.786  37.123  1.00  0.00     0.124 S 
ATOM    100  O   UNL A   1      42.287  29.749  37.051  1.00  0.00    -0.237 OA
ATOM    101  O   UNL A   1      44.671  30.312  37.368  1.00  0.00    -0.237 OA
ATOM    102  O   UNL A   1      42.925  31.987  37.857  1.00  0.00    -0.744 OA
ENDBRANCH  98  99
ENDBRANCH  66  91
ENDBRANCH  40  41
ENDBRANCH  33  35
ENDBRANCH  32  33
ENDBRANCH  31  32
ENDBRANCH  30  31
ENDBRANCH   1  30
TORSDOF 21
ENDMDL
