MODEL 1
REMARK VINA RESULT:     -10.8      0.000      0.000
REMARK SMILES O=C(OCCOCCOC(=O)C1(Cc2ccncc2)Cc2ccccc2C1)c1ccc(-c2c3nc(c(-c4c(F)cc(S(=O)(=O)[O-])cc4F)c4ccc([nH]4)c(-c4c(F)cc(S(=O)(=O)[O-])cc4F)c4nc(c(-c5c(F)cc(S(=O)(=O)[O-])cc5F)c5ccc2[nH]5)C=C4)C=C3)cc1
REMARK SMILES IDX 5 1 4 2 3 3 2 4 1 5 28 6 29 7 93 8 30 9 92 10 31 11 32 12
REMARK SMILES IDX 33 13 86 14 34 15 91 16 85 17 87 18 35 19 90 20 84 21 83 22
REMARK SMILES IDX 36 24 70 25 49 26 69 27 50 28 53 29 68 30 88 31 51 32 52 33
REMARK SMILES IDX 67 35 89 36 54 37 37 38 38 39 47 40 39 41 40 42 46 43 48 44
REMARK SMILES IDX 41 45 42 46 43 47 44 48 45 49 71 50 72 51 81 52 73 53 74 54
REMARK SMILES IDX 80 55 82 56 75 57 76 58 77 59 78 60 79 61 55 62 56 63 65 64
REMARK SMILES IDX 57 65 58 66 64 67 66 68 59 69 60 70 61 71 62 72 63 73 6 74
REMARK SMILES IDX 7 75 8 76 9 77 10 78 11 79 12 80 20 81 27 82 21 83 26 84
REMARK SMILES IDX 22 85 25 86 23 87 24 88 13 89 14 90 15 91 19 92 16 93 18 94
REMARK SMILES IDX 17 95
REMARK H PARENT 87 23 53 34
REMARK Flexibility Score: inf
ROOT
ATOM      1  C   UNL A   1      32.699  29.289  25.313  1.00  0.00     0.202 C 
ENDROOT
BRANCH   1   2
ATOM      2  C   UNL A   1      33.566  28.491  26.297  1.00  0.00     0.261 C 
BRANCH   2   3
ATOM      3  O   UNL A   1      33.602  29.098  27.596  1.00  0.00    -0.460 OA
BRANCH   3   4
ATOM      4  C   UNL A   1      34.436  30.092  27.991  1.00  0.00     0.338 C 
ATOM      5  O   UNL A   1      33.991  31.223  28.163  1.00  0.00    -0.246 OA
BRANCH   4   6
ATOM      6  C   UNL A   1      35.884  29.843  28.223  1.00  0.00     0.060 A 
ATOM      7  C   UNL A   1      36.863  30.038  27.250  1.00  0.00     0.016 A 
ATOM      8  C   UNL A   1      36.291  29.457  29.504  1.00  0.00     0.016 A 
ATOM      9  C   UNL A   1      38.187  29.763  27.472  1.00  0.00     0.010 A 
ATOM     10  C   UNL A   1      37.644  29.245  29.772  1.00  0.00     0.010 A 
ATOM     11  C   UNL A   1      38.584  29.392  28.744  1.00  0.00    -0.014 A 
BRANCH  11  12
ATOM     12  C   UNL A   1      40.004  29.085  28.899  1.00  0.00     0.031 A 
ATOM     13  C   UNL A   1      40.881  30.148  29.461  1.00  0.00     0.074 A 
ATOM     14  C   UNL A   1      40.414  27.821  28.694  1.00  0.00     0.049 A 
ATOM     15  N   UNL A   1      42.173  30.158  29.588  1.00  0.00    -0.248 NA
ATOM     16  C   UNL A   1      40.210  31.365  29.962  1.00  0.00     0.031 C 
ATOM     17  C   UNL A   1      39.542  26.697  28.324  1.00  0.00     0.029 A 
ATOM     18  N   UNL A   1      41.652  27.258  28.792  1.00  0.00    -0.354 N 
ATOM     19  C   UNL A   1      42.482  31.402  30.117  1.00  0.00     0.074 A 
ATOM     20  C   UNL A   1      41.243  32.111  30.323  1.00  0.00     0.031 C 
ATOM     21  C   UNL A   1      40.279  25.581  28.223  1.00  0.00     0.029 A 
ATOM     22  C   UNL A   1      41.676  25.934  28.421  1.00  0.00     0.049 A 
ATOM     23  H   UNL A   1      42.448  27.750  29.097  1.00  0.00     0.167 HD
ATOM     24  C   UNL A   1      43.713  31.895  30.367  1.00  0.00     0.037 A 
ATOM     25  C   UNL A   1      42.731  25.133  28.193  1.00  0.00     0.037 A 
ATOM     26  C   UNL A   1      44.906  31.124  30.147  1.00  0.00     0.049 A 
ATOM     27  C   UNL A   1      44.096  25.740  28.381  1.00  0.00     0.074 A 
ATOM     28  C   UNL A   1      46.222  31.502  30.313  1.00  0.00     0.029 A 
ATOM     29  N   UNL A   1      44.911  29.805  29.704  1.00  0.00    -0.354 N 
ATOM     30  N   UNL A   1      44.404  26.946  28.808  1.00  0.00    -0.248 NA
ATOM     31  C   UNL A   1      45.249  24.909  28.033  1.00  0.00     0.031 C 
ATOM     32  C   UNL A   1      47.025  30.428  29.916  1.00  0.00     0.029 A 
ATOM     33  C   UNL A   1      46.210  29.362  29.558  1.00  0.00     0.049 A 
ATOM     34  H   UNL A   1      44.107  29.267  29.522  1.00  0.00     0.167 HD
ATOM     35  C   UNL A   1      45.788  27.015  28.788  1.00  0.00     0.074 A 
ATOM     36  C   UNL A   1      46.256  25.719  28.329  1.00  0.00     0.031 C 
ATOM     37  C   UNL A   1      46.607  28.049  29.107  1.00  0.00     0.037 A 
BRANCH  24  38
ATOM     38  C   UNL A   1      43.813  33.331  30.784  1.00  0.00     0.058 A 
ATOM     39  C   UNL A   1      43.821  34.388  29.861  1.00  0.00     0.135 A 
ATOM     40  C   UNL A   1      43.922  33.650  32.147  1.00  0.00     0.135 A 
ATOM     41  F   UNL A   1      43.764  34.137  28.543  1.00  0.00    -0.206 F 
ATOM     42  C   UNL A   1      43.943  35.711  30.277  1.00  0.00     0.059 A 
ATOM     43  C   UNL A   1      44.021  34.966  32.586  1.00  0.00     0.059 A 
ATOM     44  F   UNL A   1      43.949  32.675  33.069  1.00  0.00    -0.206 F 
ATOM     45  C   UNL A   1      44.040  35.990  31.641  1.00  0.00     0.060 A 
BRANCH  45  46
ATOM     46  S   UNL A   1      44.181  37.712  32.165  1.00  0.00     0.124 S 
ATOM     47  O   UNL A   1      43.239  37.755  33.280  1.00  0.00    -0.237 OA
ATOM     48  O   UNL A   1      45.591  37.812  32.523  1.00  0.00    -0.237 OA
ATOM     49  O   UNL A   1      43.782  38.463  30.979  1.00  0.00    -0.744 OA
ENDBRANCH  45  46
ENDBRANCH  24  38
BRANCH  25  50
ATOM     50  C   UNL A   1      42.540  23.755  27.665  1.00  0.00     0.058 A 
ATOM     51  C   UNL A   1      42.442  22.649  28.521  1.00  0.00     0.135 A 
ATOM     52  C   UNL A   1      42.458  23.511  26.282  1.00  0.00     0.135 A 
ATOM     53  F   UNL A   1      42.515  22.822  29.850  1.00  0.00    -0.206 F 
ATOM     54  C   UNL A   1      42.299  21.354  28.029  1.00  0.00     0.059 A 
ATOM     55  C   UNL A   1      42.283  22.231  25.767  1.00  0.00     0.059 A 
ATOM     56  F   UNL A   1      42.533  24.531  25.412  1.00  0.00    -0.206 F 
ATOM     57  C   UNL A   1      42.224  21.156  26.649  1.00  0.00     0.060 A 
BRANCH  57  58
ATOM     58  S   UNL A   1      42.042  19.473  26.018  1.00  0.00     0.124 S 
ATOM     59  O   UNL A   1      42.888  19.514  24.831  1.00  0.00    -0.237 OA
ATOM     60  O   UNL A   1      42.541  18.672  27.131  1.00  0.00    -0.237 OA
ATOM     61  O   UNL A   1      40.608  19.361  25.767  1.00  0.00    -0.744 OA
ENDBRANCH  57  58
ENDBRANCH  25  50
BRANCH  37  62
ATOM     62  C   UNL A   1      48.079  27.802  28.994  1.00  0.00     0.058 A 
ATOM     63  C   UNL A   1      48.789  28.143  27.834  1.00  0.00     0.135 A 
ATOM     64  C   UNL A   1      48.796  27.311  30.096  1.00  0.00     0.135 A 
ATOM     65  F   UNL A   1      48.139  28.605  26.754  1.00  0.00    -0.206 F 
ATOM     66  C   UNL A   1      50.168  28.002  27.770  1.00  0.00     0.059 A 
ATOM     67  C   UNL A   1      50.178  27.193  30.064  1.00  0.00     0.059 A 
ATOM     68  F   UNL A   1      48.155  26.982  31.229  1.00  0.00    -0.206 F 
ATOM     69  C   UNL A   1      50.854  27.538  28.894  1.00  0.00     0.060 A 
BRANCH  69  70
ATOM     70  S   UNL A   1      52.652  27.439  28.823  1.00  0.00     0.124 S 
ATOM     71  O   UNL A   1      52.860  26.008  28.627  1.00  0.00    -0.237 OA
ATOM     72  O   UNL A   1      52.966  28.288  27.679  1.00  0.00    -0.237 OA
ATOM     73  O   UNL A   1      53.074  27.963  30.119  1.00  0.00    -0.744 OA
ENDBRANCH  69  70
ENDBRANCH  37  62
ENDBRANCH  11  12
ENDBRANCH   4   6
ENDBRANCH   3   4
ENDBRANCH   2   3
ENDBRANCH   1   2
BRANCH   1  74
ATOM     74  O   UNL A   1      32.572  28.862  23.953  1.00  0.00    -0.374 OA
BRANCH  74  75
ATOM     75  C   UNL A   1      33.735  28.292  23.333  1.00  0.00     0.202 C 
BRANCH  75  76
ATOM     76  C   UNL A   1      33.371  27.023  22.568  1.00  0.00     0.261 C 
BRANCH  76  77
ATOM     77  O   UNL A   1      34.140  25.961  23.150  1.00  0.00    -0.463 OA
BRANCH  77  78
ATOM     78  C   UNL A   1      33.522  24.754  23.094  1.00  0.00     0.313 C 
ATOM     79  O   UNL A   1      32.603  24.519  22.310  1.00  0.00    -0.252 OA
BRANCH  78  80
ATOM     80  C   UNL A   1      34.059  23.781  24.142  1.00  0.00     0.080 C 
ATOM     81  C   UNL A   1      35.005  22.700  23.522  1.00  0.00     0.055 C 
ATOM     82  C   UNL A   1      34.954  24.612  25.098  1.00  0.00     0.055 C 
ATOM     83  C   UNL A   1      36.177  22.668  24.433  1.00  0.00    -0.044 A 
ATOM     84  C   UNL A   1      36.166  23.755  25.298  1.00  0.00    -0.044 A 
ATOM     85  C   UNL A   1      37.205  21.740  24.424  1.00  0.00     0.004 A 
ATOM     86  C   UNL A   1      37.226  23.964  26.159  1.00  0.00     0.004 A 
ATOM     87  C   UNL A   1      38.262  21.927  25.308  1.00  0.00     0.000 A 
ATOM     88  C   UNL A   1      38.277  23.040  26.162  1.00  0.00     0.000 A 
BRANCH  80  89
ATOM     89  C   UNL A   1      32.900  22.987  24.831  1.00  0.00     0.055 C 
BRANCH  89  90
ATOM     90  C   UNL A   1      32.782  21.503  24.587  1.00  0.00    -0.044 A 
ATOM     91  C   UNL A   1      33.228  20.585  25.548  1.00  0.00     0.024 A 
ATOM     92  C   UNL A   1      32.253  21.006  23.399  1.00  0.00     0.024 A 
ATOM     93  C   UNL A   1      33.198  19.232  25.247  1.00  0.00     0.111 A 
ATOM     94  C   UNL A   1      32.248  19.634  23.198  1.00  0.00     0.111 A 
ATOM     95  N   UNL A   1      32.712  18.735  24.090  1.00  0.00    -0.265 NA
ENDBRANCH  89  90
ENDBRANCH  80  89
ENDBRANCH  78  80
ENDBRANCH  77  78
ENDBRANCH  76  77
ENDBRANCH  75  76
ENDBRANCH  74  75
ENDBRANCH   1  74
TORSDOF 19
ENDMDL
MODEL 2
REMARK VINA RESULT:     -10.3      1.034      2.564
REMARK SMILES O=C(OCCOCCOC(=O)C1(Cc2ccncc2)Cc2ccccc2C1)c1ccc(-c2c3nc(c(-c4c(F)cc(S(=O)(=O)[O-])cc4F)c4ccc([nH]4)c(-c4c(F)cc(S(=O)(=O)[O-])cc4F)c4nc(c(-c5c(F)cc(S(=O)(=O)[O-])cc5F)c5ccc2[nH]5)C=C4)C=C3)cc1
REMARK SMILES IDX 5 1 4 2 3 3 2 4 1 5 28 6 29 7 93 8 30 9 92 10 31 11 32 12
REMARK SMILES IDX 33 13 86 14 34 15 91 16 85 17 87 18 35 19 90 20 84 21 83 22
REMARK SMILES IDX 36 24 70 25 49 26 69 27 50 28 53 29 68 30 88 31 51 32 52 33
REMARK SMILES IDX 67 35 89 36 54 37 37 38 38 39 47 40 39 41 40 42 46 43 48 44
REMARK SMILES IDX 41 45 42 46 43 47 44 48 45 49 71 50 72 51 81 52 73 53 74 54
REMARK SMILES IDX 80 55 82 56 75 57 76 58 77 59 78 60 79 61 55 62 56 63 65 64
REMARK SMILES IDX 57 65 58 66 64 67 66 68 59 69 60 70 61 71 62 72 63 73 6 74
REMARK SMILES IDX 7 75 8 76 9 77 10 78 11 79 12 80 20 81 27 82 21 83 26 84
REMARK SMILES IDX 22 85 25 86 23 87 24 88 13 89 14 90 15 91 19 92 16 93 18 94
REMARK SMILES IDX 17 95
REMARK H PARENT 87 23 53 34
REMARK Flexibility Score: inf
ROOT
ATOM      1  C   UNL A   1      32.715  29.296  25.433  1.00  0.00     0.202 C 
ENDROOT
BRANCH   1   2
ATOM      2  C   UNL A   1      33.835  28.813  26.365  1.00  0.00     0.261 C 
BRANCH   2   3
ATOM      3  O   UNL A   1      33.781  29.454  27.647  1.00  0.00    -0.460 OA
BRANCH   3   4
ATOM      4  C   UNL A   1      34.693  30.326  28.145  1.00  0.00     0.338 C 
ATOM      5  O   UNL A   1      34.342  31.463  28.446  1.00  0.00    -0.246 OA
BRANCH   4   6
ATOM      6  C   UNL A   1      36.116  29.935  28.335  1.00  0.00     0.060 A 
ATOM      7  C   UNL A   1      36.604  29.357  29.507  1.00  0.00     0.016 A 
ATOM      8  C   UNL A   1      36.995  30.097  27.260  1.00  0.00     0.016 A 
ATOM      9  C   UNL A   1      37.927  29.043  29.676  1.00  0.00     0.010 A 
ATOM     10  C   UNL A   1      38.331  29.713  27.388  1.00  0.00     0.010 A 
ATOM     11  C   UNL A   1      38.788  29.195  28.606  1.00  0.00    -0.014 A 
BRANCH  11  12
ATOM     12  C   UNL A   1      40.188  28.870  28.869  1.00  0.00     0.031 A 
ATOM     13  C   UNL A   1      41.025  29.911  29.527  1.00  0.00     0.074 A 
ATOM     14  C   UNL A   1      40.603  27.608  28.667  1.00  0.00     0.049 A 
ATOM     15  N   UNL A   1      42.302  29.904  29.760  1.00  0.00    -0.248 NA
ATOM     16  C   UNL A   1      40.326  31.122  30.001  1.00  0.00     0.031 C 
ATOM     17  C   UNL A   1      39.755  26.502  28.199  1.00  0.00     0.029 A 
ATOM     18  N   UNL A   1      41.825  27.029  28.852  1.00  0.00    -0.354 N 
ATOM     19  C   UNL A   1      42.577  31.132  30.343  1.00  0.00     0.074 A 
ATOM     20  C   UNL A   1      41.331  31.848  30.464  1.00  0.00     0.031 C 
ATOM     21  C   UNL A   1      40.488  25.381  28.132  1.00  0.00     0.029 A 
ATOM     22  C   UNL A   1      41.868  25.715  28.452  1.00  0.00     0.049 A 
ATOM     23  H   UNL A   1      42.597  27.505  29.234  1.00  0.00     0.167 HD
ATOM     24  C   UNL A   1      43.788  31.606  30.704  1.00  0.00     0.037 A 
ATOM     25  C   UNL A   1      42.932  24.909  28.291  1.00  0.00     0.037 A 
ATOM     26  C   UNL A   1      44.988  30.829  30.564  1.00  0.00     0.049 A 
ATOM     27  C   UNL A   1      44.281  25.497  28.605  1.00  0.00     0.074 A 
ATOM     28  C   UNL A   1      46.289  31.188  30.847  1.00  0.00     0.029 A 
ATOM     29  N   UNL A   1      45.018  29.521  30.091  1.00  0.00    -0.354 N 
ATOM     30  N   UNL A   1      44.563  26.689  29.085  1.00  0.00    -0.248 NA
ATOM     31  C   UNL A   1      45.452  24.662  28.332  1.00  0.00     0.031 C 
ATOM     32  C   UNL A   1      47.113  30.117  30.490  1.00  0.00     0.029 A 
ATOM     33  C   UNL A   1      46.322  29.068  30.040  1.00  0.00     0.049 A 
ATOM     34  H   UNL A   1      44.228  28.996  29.830  1.00  0.00     0.167 HD
ATOM     35  C   UNL A   1      45.945  26.744  29.181  1.00  0.00     0.074 A 
ATOM     36  C   UNL A   1      46.438  25.455  28.729  1.00  0.00     0.031 C 
ATOM     37  C   UNL A   1      46.743  27.761  29.591  1.00  0.00     0.037 A 
BRANCH  24  38
ATOM     38  C   UNL A   1      43.865  33.031  31.163  1.00  0.00     0.058 A 
ATOM     39  C   UNL A   1      43.988  34.107  30.272  1.00  0.00     0.135 A 
ATOM     40  C   UNL A   1      43.832  33.318  32.538  1.00  0.00     0.135 A 
ATOM     41  F   UNL A   1      44.069  33.886  28.950  1.00  0.00    -0.206 F 
ATOM     42  C   UNL A   1      44.086  35.419  30.730  1.00  0.00     0.059 A 
ATOM     43  C   UNL A   1      43.904  34.621  33.016  1.00  0.00     0.059 A 
ATOM     44  F   UNL A   1      43.745  32.322  33.434  1.00  0.00    -0.206 F 
ATOM     45  C   UNL A   1      44.040  35.666  32.103  1.00  0.00     0.060 A 
BRANCH  45  46
ATOM     46  S   UNL A   1      44.151  37.373  32.680  1.00  0.00     0.124 S 
ATOM     47  O   UNL A   1      43.849  38.113  31.458  1.00  0.00    -0.237 OA
ATOM     48  O   UNL A   1      43.126  37.417  33.716  1.00  0.00    -0.237 OA
ATOM     49  O   UNL A   1      45.527  37.484  33.154  1.00  0.00    -0.744 OA
ENDBRANCH  45  46
ENDBRANCH  24  38
BRANCH  25  50
ATOM     50  C   UNL A   1      42.772  23.545  27.716  1.00  0.00     0.058 A 
ATOM     51  C   UNL A   1      42.865  23.316  26.336  1.00  0.00     0.135 A 
ATOM     52  C   UNL A   1      42.513  22.435  28.541  1.00  0.00     0.135 A 
ATOM     53  F   UNL A   1      43.109  24.338  25.501  1.00  0.00    -0.206 F 
ATOM     54  C   UNL A   1      42.680  22.046  25.793  1.00  0.00     0.059 A 
ATOM     55  C   UNL A   1      42.357  21.153  28.025  1.00  0.00     0.059 A 
ATOM     56  F   UNL A   1      42.425  22.590  29.871  1.00  0.00    -0.206 F 
ATOM     57  C   UNL A   1      42.423  20.972  26.647  1.00  0.00     0.060 A 
BRANCH  57  58
ATOM     58  S   UNL A   1      42.181  19.330  25.934  1.00  0.00     0.124 S 
ATOM     59  O   UNL A   1      42.668  18.472  27.008  1.00  0.00    -0.237 OA
ATOM     60  O   UNL A   1      40.740  19.306  25.700  1.00  0.00    -0.237 OA
ATOM     61  O   UNL A   1      43.005  19.361  24.729  1.00  0.00    -0.744 OA
ENDBRANCH  57  58
ENDBRANCH  25  50
BRANCH  37  62
ATOM     62  C   UNL A   1      48.217  27.502  29.593  1.00  0.00     0.058 A 
ATOM     63  C   UNL A   1      49.019  27.846  28.495  1.00  0.00     0.135 A 
ATOM     64  C   UNL A   1      48.841  26.998  30.744  1.00  0.00     0.135 A 
ATOM     65  F   UNL A   1      48.461  28.320  27.370  1.00  0.00    -0.206 F 
ATOM     66  C   UNL A   1      50.398  27.693  28.539  1.00  0.00     0.059 A 
ATOM     67  C   UNL A   1      50.220  26.867  30.821  1.00  0.00     0.059 A 
ATOM     68  F   UNL A   1      48.109  26.666  31.820  1.00  0.00    -0.206 F 
ATOM     69  C   UNL A   1      50.990  27.215  29.710  1.00  0.00     0.060 A 
BRANCH  69  70
ATOM     70  S   UNL A   1      52.787  27.100  29.781  1.00  0.00     0.124 S 
ATOM     71  O   UNL A   1      53.086  26.406  28.532  1.00  0.00    -0.237 OA
ATOM     72  O   UNL A   1      53.186  28.502  29.839  1.00  0.00    -0.237 OA
ATOM     73  O   UNL A   1      53.031  26.334  31.000  1.00  0.00    -0.744 OA
ENDBRANCH  69  70
ENDBRANCH  37  62
ENDBRANCH  11  12
ENDBRANCH   4   6
ENDBRANCH   3   4
ENDBRANCH   2   3
ENDBRANCH   1   2
BRANCH   1  74
ATOM     74  O   UNL A   1      32.065  28.375  24.550  1.00  0.00    -0.374 OA
BRANCH  74  75
ATOM     75  C   UNL A   1      32.583  27.038  24.500  1.00  0.00     0.202 C 
BRANCH  75  76
ATOM     76  C   UNL A   1      31.626  26.116  23.748  1.00  0.00     0.261 C 
BRANCH  76  77
ATOM     77  O   UNL A   1      32.416  25.030  23.246  1.00  0.00    -0.463 OA
BRANCH  77  78
ATOM     78  C   UNL A   1      31.801  23.823  23.347  1.00  0.00     0.313 C 
ATOM     79  O   UNL A   1      30.582  23.714  23.470  1.00  0.00    -0.252 OA
BRANCH  78  80
ATOM     80  C   UNL A   1      32.797  22.666  23.351  1.00  0.00     0.080 C 
ATOM     81  C   UNL A   1      32.997  22.058  24.779  1.00  0.00     0.055 C 
ATOM     82  C   UNL A   1      32.159  21.531  22.507  1.00  0.00     0.055 C 
ATOM     83  C   UNL A   1      32.913  20.590  24.571  1.00  0.00    -0.044 A 
ATOM     84  C   UNL A   1      32.415  20.293  23.309  1.00  0.00    -0.044 A 
ATOM     85  C   UNL A   1      33.217  19.606  25.498  1.00  0.00     0.004 A 
ATOM     86  C   UNL A   1      32.165  18.980  22.956  1.00  0.00     0.004 A 
ATOM     87  C   UNL A   1      32.995  18.281  25.139  1.00  0.00     0.000 A 
ATOM     88  C   UNL A   1      32.461  17.972  23.880  1.00  0.00     0.000 A 
BRANCH  80  89
ATOM     89  C   UNL A   1      34.216  23.131  22.884  1.00  0.00     0.055 C 
BRANCH  89  90
ATOM     90  C   UNL A   1      35.340  23.176  23.888  1.00  0.00    -0.044 A 
ATOM     91  C   UNL A   1      36.404  22.268  23.809  1.00  0.00     0.024 A 
ATOM     92  C   UNL A   1      35.341  24.100  24.930  1.00  0.00     0.024 A 
ATOM     93  C   UNL A   1      37.366  22.272  24.807  1.00  0.00     0.111 A 
ATOM     94  C   UNL A   1      36.358  24.038  25.870  1.00  0.00     0.111 A 
ATOM     95  N   UNL A   1      37.368  23.145  25.837  1.00  0.00    -0.265 NA
ENDBRANCH  89  90
ENDBRANCH  80  89
ENDBRANCH  78  80
ENDBRANCH  77  78
ENDBRANCH  76  77
ENDBRANCH  75  76
ENDBRANCH  74  75
ENDBRANCH   1  74
TORSDOF 19
ENDMDL
MODEL 3
REMARK VINA RESULT:     -10.2      2.775      9.294
REMARK SMILES O=C(OCCOCCOC(=O)C1(Cc2ccncc2)Cc2ccccc2C1)c1ccc(-c2c3nc(c(-c4c(F)cc(S(=O)(=O)[O-])cc4F)c4ccc([nH]4)c(-c4c(F)cc(S(=O)(=O)[O-])cc4F)c4nc(c(-c5c(F)cc(S(=O)(=O)[O-])cc5F)c5ccc2[nH]5)C=C4)C=C3)cc1
REMARK SMILES IDX 5 1 4 2 3 3 2 4 1 5 28 6 29 7 93 8 30 9 92 10 31 11 32 12
REMARK SMILES IDX 33 13 86 14 34 15 91 16 85 17 87 18 35 19 90 20 84 21 83 22
REMARK SMILES IDX 36 24 70 25 49 26 69 27 50 28 53 29 68 30 88 31 51 32 52 33
REMARK SMILES IDX 67 35 89 36 54 37 37 38 38 39 47 40 39 41 40 42 46 43 48 44
REMARK SMILES IDX 41 45 42 46 43 47 44 48 45 49 71 50 72 51 81 52 73 53 74 54
REMARK SMILES IDX 80 55 82 56 75 57 76 58 77 59 78 60 79 61 55 62 56 63 65 64
REMARK SMILES IDX 57 65 58 66 64 67 66 68 59 69 60 70 61 71 62 72 63 73 6 74
REMARK SMILES IDX 7 75 8 76 9 77 10 78 11 79 12 80 20 81 27 82 21 83 26 84
REMARK SMILES IDX 22 85 25 86 23 87 24 88 13 89 14 90 15 91 19 92 16 93 18 94
REMARK SMILES IDX 17 95
REMARK H PARENT 87 23 53 34
REMARK Flexibility Score: inf
ROOT
ATOM      1  C   UNL A   1      35.003  32.522  29.482  1.00  0.00     0.202 C 
ENDROOT
BRANCH   1   2
ATOM      2  C   UNL A   1      35.216  32.128  30.950  1.00  0.00     0.261 C 
BRANCH   2   3
ATOM      3  O   UNL A   1      36.548  31.653  31.191  1.00  0.00    -0.460 OA
BRANCH   3   4
ATOM      4  C   UNL A   1      37.000  30.394  30.966  1.00  0.00     0.338 C 
ATOM      5  O   UNL A   1      36.268  29.437  31.202  1.00  0.00    -0.246 OA
BRANCH   4   6
ATOM      6  C   UNL A   1      38.367  30.143  30.436  1.00  0.00     0.060 A 
ATOM      7  C   UNL A   1      38.690  30.208  29.081  1.00  0.00     0.016 A 
ATOM      8  C   UNL A   1      39.395  29.894  31.350  1.00  0.00     0.016 A 
ATOM      9  C   UNL A   1      39.947  29.932  28.610  1.00  0.00     0.010 A 
ATOM     10  C   UNL A   1      40.698  29.686  30.896  1.00  0.00     0.010 A 
ATOM     11  C   UNL A   1      40.961  29.697  29.520  1.00  0.00    -0.014 A 
BRANCH  11  12
ATOM     12  C   UNL A   1      42.266  29.381  28.946  1.00  0.00     0.031 A 
ATOM     13  C   UNL A   1      42.463  28.013  28.394  1.00  0.00     0.074 A 
ATOM     14  C   UNL A   1      43.157  30.376  28.788  1.00  0.00     0.049 A 
ATOM     15  N   UNL A   1      43.549  27.463  27.941  1.00  0.00    -0.248 NA
ATOM     16  C   UNL A   1      41.269  27.146  28.331  1.00  0.00     0.031 C 
ATOM     17  C   UNL A   1      42.926  31.783  29.145  1.00  0.00     0.029 A 
ATOM     18  N   UNL A   1      44.416  30.372  28.265  1.00  0.00    -0.354 N 
ATOM     19  C   UNL A   1      43.192  26.167  27.603  1.00  0.00     0.074 A 
ATOM     20  C   UNL A   1      41.782  26.017  27.867  1.00  0.00     0.031 C 
ATOM     21  C   UNL A   1      44.014  32.502  28.832  1.00  0.00     0.029 A 
ATOM     22  C   UNL A   1      45.043  31.592  28.352  1.00  0.00     0.049 A 
ATOM     23  H   UNL A   1      44.834  29.575  27.865  1.00  0.00     0.167 HD
ATOM     24  C   UNL A   1      44.007  25.194  27.144  1.00  0.00     0.037 A 
ATOM     25  C   UNL A   1      46.334  31.903  28.139  1.00  0.00     0.037 A 
ATOM     26  C   UNL A   1      45.404  25.421  26.893  1.00  0.00     0.049 A 
ATOM     27  C   UNL A   1      47.242  30.777  27.725  1.00  0.00     0.074 A 
ATOM     28  C   UNL A   1      46.362  24.524  26.468  1.00  0.00     0.029 A 
ATOM     29  N   UNL A   1      46.035  26.650  27.054  1.00  0.00    -0.354 N 
ATOM     30  N   UNL A   1      46.931  29.524  27.477  1.00  0.00    -0.248 NA
ATOM     31  C   UNL A   1      48.668  31.084  27.594  1.00  0.00     0.031 C 
ATOM     32  C   UNL A   1      47.586  25.199  26.427  1.00  0.00     0.029 A 
ATOM     33  C   UNL A   1      47.381  26.529  26.769  1.00  0.00     0.049 A 
ATOM     34  H   UNL A   1      45.590  27.482  27.330  1.00  0.00     0.167 HD
ATOM     35  C   UNL A   1      48.122  28.893  27.150  1.00  0.00     0.074 A 
ATOM     36  C   UNL A   1      49.155  29.912  27.211  1.00  0.00     0.031 C 
ATOM     37  C   UNL A   1      48.355  27.593  26.837  1.00  0.00     0.037 A 
BRANCH  24  38
ATOM     38  C   UNL A   1      43.432  23.817  27.003  1.00  0.00     0.058 A 
ATOM     39  C   UNL A   1      43.206  22.976  28.103  1.00  0.00     0.135 A 
ATOM     40  C   UNL A   1      43.118  23.325  25.726  1.00  0.00     0.135 A 
ATOM     41  F   UNL A   1      43.531  23.378  29.342  1.00  0.00    -0.206 F 
ATOM     42  C   UNL A   1      42.697  21.690  27.939  1.00  0.00     0.059 A 
ATOM     43  C   UNL A   1      42.586  22.054  25.540  1.00  0.00     0.059 A 
ATOM     44  F   UNL A   1      43.343  24.079  24.638  1.00  0.00    -0.206 F 
ATOM     45  C   UNL A   1      42.388  21.240  26.654  1.00  0.00     0.060 A 
BRANCH  45  46
ATOM     46  S   UNL A   1      41.712  19.577  26.459  1.00  0.00     0.124 S 
ATOM     47  O   UNL A   1      42.160  18.935  27.692  1.00  0.00    -0.237 OA
ATOM     48  O   UNL A   1      40.280  19.834  26.363  1.00  0.00    -0.237 OA
ATOM     49  O   UNL A   1      42.344  19.093  25.236  1.00  0.00    -0.744 OA
ENDBRANCH  45  46
ENDBRANCH  24  38
BRANCH  25  50
ATOM     50  C   UNL A   1      46.841  33.274  28.418  1.00  0.00     0.058 A 
ATOM     51  C   UNL A   1      47.243  33.659  29.705  1.00  0.00     0.135 A 
ATOM     52  C   UNL A   1      46.928  34.238  27.398  1.00  0.00     0.135 A 
ATOM     53  F   UNL A   1      47.181  32.780  30.718  1.00  0.00    -0.206 F 
ATOM     54  C   UNL A   1      47.685  34.952  29.977  1.00  0.00     0.059 A 
ATOM     55  C   UNL A   1      47.396  35.526  27.638  1.00  0.00     0.059 A 
ATOM     56  F   UNL A   1      46.569  33.926  26.143  1.00  0.00    -0.206 F 
ATOM     57  C   UNL A   1      47.754  35.879  28.935  1.00  0.00     0.060 A 
BRANCH  57  58
ATOM     58  S   UNL A   1      48.324  37.554  29.296  1.00  0.00     0.124 S 
ATOM     59  O   UNL A   1      49.160  37.835  28.134  1.00  0.00    -0.237 OA
ATOM     60  O   UNL A   1      47.069  38.296  29.374  1.00  0.00    -0.237 OA
ATOM     61  O   UNL A   1      49.034  37.403  30.563  1.00  0.00    -0.744 OA
ENDBRANCH  57  58
ENDBRANCH  25  50
BRANCH  37  62
ATOM     62  C   UNL A   1      49.769  27.221  26.515  1.00  0.00     0.058 A 
ATOM     63  C   UNL A   1      50.654  26.789  27.512  1.00  0.00     0.135 A 
ATOM     64  C   UNL A   1      50.204  27.205  25.181  1.00  0.00     0.135 A 
ATOM     65  F   UNL A   1      50.281  26.800  28.801  1.00  0.00    -0.206 F 
ATOM     66  C   UNL A   1      51.934  26.353  27.195  1.00  0.00     0.059 A 
ATOM     67  C   UNL A   1      51.467  26.743  24.839  1.00  0.00     0.059 A 
ATOM     68  F   UNL A   1      49.383  27.601  24.196  1.00  0.00    -0.206 F 
ATOM     69  C   UNL A   1      52.326  26.322  25.855  1.00  0.00     0.060 A 
BRANCH  69  70
ATOM     70  S   UNL A   1      53.959  25.676  25.452  1.00  0.00     0.124 S 
ATOM     71  O   UNL A   1      54.569  26.818  24.781  1.00  0.00    -0.237 OA
ATOM     72  O   UNL A   1      54.499  25.351  26.769  1.00  0.00    -0.237 OA
ATOM     73  O   UNL A   1      53.670  24.526  24.599  1.00  0.00    -0.744 OA
ENDBRANCH  69  70
ENDBRANCH  37  62
ENDBRANCH  11  12
ENDBRANCH   4   6
ENDBRANCH   3   4
ENDBRANCH   2   3
ENDBRANCH   1   2
BRANCH   1  74
ATOM     74  O   UNL A   1      34.385  31.606  28.573  1.00  0.00    -0.374 OA
BRANCH  74  75
ATOM     75  C   UNL A   1      35.245  30.903  27.664  1.00  0.00     0.202 C 
BRANCH  75  76
ATOM     76  C   UNL A   1      35.097  29.393  27.839  1.00  0.00     0.261 C 
BRANCH  76  77
ATOM     77  O   UNL A   1      34.628  28.882  26.584  1.00  0.00    -0.463 OA
BRANCH  77  78
ATOM     78  C   UNL A   1      33.307  28.569  26.588  1.00  0.00     0.313 C 
ATOM     79  O   UNL A   1      32.661  28.450  27.627  1.00  0.00    -0.252 OA
BRANCH  78  80
ATOM     80  C   UNL A   1      32.766  28.330  25.179  1.00  0.00     0.080 C 
ATOM     81  C   UNL A   1      31.686  27.199  25.140  1.00  0.00     0.055 C 
ATOM     82  C   UNL A   1      32.020  29.626  24.767  1.00  0.00     0.055 C 
ATOM     83  C   UNL A   1      30.586  27.766  24.320  1.00  0.00    -0.044 A 
ATOM     84  C   UNL A   1      30.756  29.132  24.134  1.00  0.00    -0.044 A 
ATOM     85  C   UNL A   1      29.483  27.084  23.833  1.00  0.00     0.004 A 
ATOM     86  C   UNL A   1      29.785  29.866  23.481  1.00  0.00     0.004 A 
ATOM     87  C   UNL A   1      28.515  27.811  23.149  1.00  0.00     0.000 A 
ATOM     88  C   UNL A   1      28.660  29.197  22.985  1.00  0.00     0.000 A 
BRANCH  80  89
ATOM     89  C   UNL A   1      33.899  27.869  24.203  1.00  0.00     0.055 C 
BRANCH  89  90
ATOM     90  C   UNL A   1      33.662  26.672  23.317  1.00  0.00    -0.044 A 
ATOM     91  C   UNL A   1      33.140  26.833  22.026  1.00  0.00     0.024 A 
ATOM     92  C   UNL A   1      33.929  25.380  23.761  1.00  0.00     0.024 A 
ATOM     93  C   UNL A   1      32.839  25.705  21.279  1.00  0.00     0.111 A 
ATOM     94  C   UNL A   1      33.611  24.315  22.932  1.00  0.00     0.111 A 
ATOM     95  N   UNL A   1      33.069  24.445  21.704  1.00  0.00    -0.265 NA
ENDBRANCH  89  90
ENDBRANCH  80  89
ENDBRANCH  78  80
ENDBRANCH  77  78
ENDBRANCH  76  77
ENDBRANCH  75  76
ENDBRANCH  74  75
ENDBRANCH   1  74
TORSDOF 19
ENDMDL
