MODEL 1
REMARK VINA RESULT:     -11.9      0.000      0.000
REMARK SMILES NS(=O)(=O)c1ccc(-n2nc(C(=O)OCCOCCOC(=O)c3ccc(-c4c5nc(c(-c6c(F)cc(S(=O)(=O)[O-])cc6F)c6ccc([nH]6)c(-c6c(F)cc(S(=O)(=O)[O-])cc6F)c6nc(c(-c7c(F)cc(S(=O)(=O)[O-])cc7F)c7ccc4[nH]7)C=C6)C=C5)cc3)cc2-c2ccc(Cl)s2)cc1
REMARK SMILES IDX 17 1 16 2 15 3 14 4 12 5 13 6 11 7 9 8 10 9 90 10 89 11 8 12
REMARK SMILES IDX 5 13 6 14 98 15 7 16 97 17 2 18 3 19 4 20 1 21 91 24 92 25
REMARK SMILES IDX 96 26 93 27 94 28 95 29 18 30 19 31 20 32 21 33 22 34 23 35
REMARK SMILES IDX 24 36 88 37 25 38 87 39 26 40 27 41 28 42 81 43 29 44 86 45
REMARK SMILES IDX 80 46 82 47 30 48 85 49 79 50 78 51 31 53 65 54 44 55 64 56
REMARK SMILES IDX 45 57 48 58 63 59 83 60 46 61 47 62 62 64 84 65 49 66 32 67
REMARK SMILES IDX 33 68 42 69 34 70 35 71 41 72 43 73 36 74 37 75 38 76 39 77
REMARK SMILES IDX 40 78 66 79 67 80 76 81 68 82 69 83 75 84 77 85 70 86 71 87
REMARK SMILES IDX 72 88 73 89 74 90 50 91 51 92 60 93 52 94 53 95 59 96 61 97
REMARK SMILES IDX 54 98 55 99 56 100 57 101 58 102
REMARK H PARENT 1 22 1 23 82 52 48 63
REMARK Flexibility Score: inf
ROOT
ATOM      1  O   UNL A   1      32.067  29.667  25.007  1.00  0.00    -0.374 OA
ENDROOT
BRANCH   1   2
ATOM      2  C   UNL A   1      31.057  28.661  24.961  1.00  0.00     0.202 C 
BRANCH   2   3
ATOM      3  C   UNL A   1      30.347  28.421  23.625  1.00  0.00     0.261 C 
BRANCH   3   4
ATOM      4  O   UNL A   1      30.835  27.258  22.944  1.00  0.00    -0.458 OA
BRANCH   4   5
ATOM      5  C   UNL A   1      30.384  26.064  23.436  1.00  0.00     0.358 C 
ATOM      6  O   UNL A   1      29.215  25.822  23.713  1.00  0.00    -0.244 OA
BRANCH   5   7
ATOM      7  C   UNL A   1      31.462  25.070  23.512  1.00  0.00     0.171 A 
ATOM      8  N   UNL A   1      32.423  23.160  23.649  1.00  0.00    -0.231 N 
ATOM      9  N   UNL A   1      31.227  23.747  23.408  1.00  0.00    -0.160 NA
ATOM     10  C   UNL A   1      33.431  24.092  23.832  1.00  0.00     0.085 A 
ATOM     11  C   UNL A   1      32.843  25.326  23.661  1.00  0.00     0.068 A 
BRANCH   8  12
ATOM     12  C   UNL A   1      32.484  21.763  23.846  1.00  0.00     0.065 A 
ATOM     13  C   UNL A   1      32.758  19.026  24.202  1.00  0.00     0.082 A 
ATOM     14  C   UNL A   1      33.005  19.889  25.274  1.00  0.00     0.024 A 
ATOM     15  C   UNL A   1      32.354  19.522  22.956  1.00  0.00     0.024 A 
ATOM     16  C   UNL A   1      32.882  21.265  25.092  1.00  0.00     0.030 A 
ATOM     17  C   UNL A   1      32.185  20.900  22.783  1.00  0.00     0.030 A 
BRANCH  13  18
ATOM     18  S   UNL A   1      33.007  17.288  24.417  1.00  0.00     0.238 S 
ATOM     19  O   UNL A   1      33.142  16.659  23.116  1.00  0.00    -0.207 OA
ATOM     20  O   UNL A   1      32.107  16.797  25.423  1.00  0.00    -0.207 OA
BRANCH  18  21
ATOM     21  N   UNL A   1      34.546  17.225  25.087  1.00  0.00    -0.225 NA
ATOM     22  H   UNL A   1      34.485  17.383  26.093  1.00  0.00     0.137 HD
ATOM     23  H   UNL A   1      35.131  17.945  24.664  1.00  0.00     0.137 HD
ENDBRANCH  18  21
ENDBRANCH  13  18
ENDBRANCH   8  12
BRANCH  10  24
ATOM     24  C   UNL A   1      34.804  23.816  24.135  1.00  0.00     0.054 A 
ATOM     25  C   UNL A   1      35.697  23.172  23.298  1.00  0.00     0.024 A 
ATOM     26  S   UNL A   1      35.526  24.218  25.636  1.00  0.00    -0.122 S 
ATOM     27  C   UNL A   1      36.989  23.039  23.886  1.00  0.00     0.033 A 
ATOM     28  C   UNL A   1      37.012  23.571  25.149  1.00  0.00     0.094 A 
ATOM     29  Cl  UNL A   1      38.360  23.625  26.207  1.00  0.00    -0.072 Cl
ENDBRANCH  10  24
ENDBRANCH   5   7
ENDBRANCH   4   5
ENDBRANCH   3   4
ENDBRANCH   2   3
ENDBRANCH   1   2
BRANCH   1  30
ATOM     30  C   UNL A   1      33.036  29.654  26.051  1.00  0.00     0.202 C 
BRANCH  30  31
ATOM     31  C   UNL A   1      33.247  30.911  26.879  1.00  0.00     0.261 C 
BRANCH  31  32
ATOM     32  O   UNL A   1      34.089  30.697  28.001  1.00  0.00    -0.460 OA
BRANCH  32  33
ATOM     33  C   UNL A   1      35.128  31.564  28.060  1.00  0.00     0.338 C 
ATOM     34  O   UNL A   1      35.198  32.664  27.538  1.00  0.00    -0.246 OA
BRANCH  33  35
ATOM     35  C   UNL A   1      36.255  30.895  28.711  1.00  0.00     0.060 A 
ATOM     36  C   UNL A   1      37.239  31.720  29.258  1.00  0.00     0.016 A 
ATOM     37  C   UNL A   1      36.459  29.521  28.514  1.00  0.00     0.016 A 
ATOM     38  C   UNL A   1      38.507  31.206  29.411  1.00  0.00     0.010 A 
ATOM     39  C   UNL A   1      37.728  29.015  28.653  1.00  0.00     0.010 A 
ATOM     40  C   UNL A   1      38.751  29.884  29.019  1.00  0.00    -0.014 A 
BRANCH  40  41
ATOM     41  C   UNL A   1      40.086  29.354  29.191  1.00  0.00     0.031 A 
ATOM     42  C   UNL A   1      40.400  29.196  30.627  1.00  0.00     0.074 A 
ATOM     43  C   UNL A   1      40.863  28.963  28.160  1.00  0.00     0.049 A 
ATOM     44  N   UNL A   1      41.166  29.955  31.337  1.00  0.00    -0.248 NA
ATOM     45  C   UNL A   1      39.568  28.276  31.427  1.00  0.00     0.031 C 
ATOM     46  C   UNL A   1      40.510  28.892  26.741  1.00  0.00     0.029 A 
ATOM     47  N   UNL A   1      42.128  28.459  28.180  1.00  0.00    -0.354 N 
ATOM     48  C   UNL A   1      41.151  29.387  32.604  1.00  0.00     0.074 A 
ATOM     49  C   UNL A   1      39.969  28.573  32.665  1.00  0.00     0.031 C 
ATOM     50  C   UNL A   1      41.443  28.167  26.082  1.00  0.00     0.029 A 
ATOM     51  C   UNL A   1      42.519  27.826  26.997  1.00  0.00     0.049 A 
ATOM     52  H   UNL A   1      42.720  28.533  28.964  1.00  0.00     0.167 HD
ATOM     53  C   UNL A   1      42.295  29.341  33.337  1.00  0.00     0.037 A 
ATOM     54  C   UNL A   1      43.615  27.036  26.829  1.00  0.00     0.037 A 
ATOM     55  C   UNL A   1      43.257  30.302  32.846  1.00  0.00     0.049 A 
ATOM     56  C   UNL A   1      44.565  27.382  27.922  1.00  0.00     0.074 A 
ATOM     57  C   UNL A   1      43.249  31.669  32.640  1.00  0.00     0.029 A 
ATOM     58  N   UNL A   1      44.297  29.813  32.094  1.00  0.00    -0.354 N 
ATOM     59  N   UNL A   1      45.161  28.539  28.013  1.00  0.00    -0.248 NA
ATOM     60  C   UNL A   1      44.457  26.639  29.167  1.00  0.00     0.031 C 
ATOM     61  C   UNL A   1      43.980  31.869  31.431  1.00  0.00     0.029 A 
ATOM     62  C   UNL A   1      44.474  30.635  31.011  1.00  0.00     0.049 A 
ATOM     63  H   UNL A   1      44.826  29.009  32.298  1.00  0.00     0.167 HD
ATOM     64  C   UNL A   1      45.074  28.873  29.357  1.00  0.00     0.074 A 
ATOM     65  C   UNL A   1      44.698  27.631  30.031  1.00  0.00     0.031 C 
ATOM     66  C   UNL A   1      45.017  30.181  29.749  1.00  0.00     0.037 A 
BRANCH  53  67
ATOM     67  C   UNL A   1      42.698  28.137  34.159  1.00  0.00     0.058 A 
ATOM     68  C   UNL A   1      42.934  28.305  35.537  1.00  0.00     0.135 A 
ATOM     69  C   UNL A   1      43.132  26.904  33.615  1.00  0.00     0.135 A 
ATOM     70  F   UNL A   1      42.586  29.445  36.155  1.00  0.00    -0.206 F 
ATOM     71  C   UNL A   1      43.602  27.349  36.301  1.00  0.00     0.059 A 
ATOM     72  C   UNL A   1      43.747  25.915  34.370  1.00  0.00     0.059 A 
ATOM     73  F   UNL A   1      43.074  26.622  32.310  1.00  0.00    -0.206 F 
ATOM     74  C   UNL A   1      44.008  26.159  35.706  1.00  0.00     0.060 A 
BRANCH  74  75
ATOM     75  S   UNL A   1      44.908  24.940  36.674  1.00  0.00     0.124 S 
ATOM     76  O   UNL A   1      44.180  24.975  37.936  1.00  0.00    -0.237 OA
ATOM     77  O   UNL A   1      44.738  23.736  35.866  1.00  0.00    -0.237 OA
ATOM     78  O   UNL A   1      46.266  25.476  36.709  1.00  0.00    -0.744 OA
ENDBRANCH  74  75
ENDBRANCH  53  67
BRANCH  54  79
ATOM     79  C   UNL A   1      43.724  25.752  26.070  1.00  0.00     0.058 A 
ATOM     80  C   UNL A   1      44.865  25.457  25.294  1.00  0.00     0.135 A 
ATOM     81  C   UNL A   1      42.868  24.666  26.333  1.00  0.00     0.135 A 
ATOM     82  F   UNL A   1      45.748  26.424  24.996  1.00  0.00    -0.206 F 
ATOM     83  C   UNL A   1      45.174  24.156  24.873  1.00  0.00     0.059 A 
ATOM     84  C   UNL A   1      43.150  23.364  25.917  1.00  0.00     0.059 A 
ATOM     85  F   UNL A   1      41.772  24.812  27.091  1.00  0.00    -0.206 F 
ATOM     86  C   UNL A   1      44.321  23.109  25.215  1.00  0.00     0.060 A 
BRANCH  86  87
ATOM     87  S   UNL A   1      44.809  21.399  24.870  1.00  0.00     0.124 S 
ATOM     88  O   UNL A   1      44.665  21.330  23.420  1.00  0.00    -0.237 OA
ATOM     89  O   UNL A   1      46.175  21.357  25.378  1.00  0.00    -0.237 OA
ATOM     90  O   UNL A   1      43.841  20.613  25.631  1.00  0.00    -0.744 OA
ENDBRANCH  86  87
ENDBRANCH  54  79
BRANCH  66  91
ATOM     91  C   UNL A   1      45.393  31.239  28.739  1.00  0.00     0.058 A 
ATOM     92  C   UNL A   1      44.556  31.728  27.718  1.00  0.00     0.135 A 
ATOM     93  C   UNL A   1      46.650  31.846  28.875  1.00  0.00     0.135 A 
ATOM     94  F   UNL A   1      43.294  31.290  27.589  1.00  0.00    -0.206 F 
ATOM     95  C   UNL A   1      44.982  32.720  26.830  1.00  0.00     0.059 A 
ATOM     96  C   UNL A   1      47.080  32.859  28.026  1.00  0.00     0.059 A 
ATOM     97  F   UNL A   1      47.473  31.474  29.870  1.00  0.00    -0.206 F 
ATOM     98  C   UNL A   1      46.253  33.271  26.986  1.00  0.00     0.060 A 
BRANCH  98  99
ATOM     99  S   UNL A   1      46.817  34.547  25.838  1.00  0.00     0.124 S 
ATOM    100  O   UNL A   1      48.177  34.110  25.539  1.00  0.00    -0.237 OA
ATOM    101  O   UNL A   1      45.859  34.436  24.743  1.00  0.00    -0.237 OA
ATOM    102  O   UNL A   1      46.717  35.777  26.620  1.00  0.00    -0.744 OA
ENDBRANCH  98  99
ENDBRANCH  66  91
ENDBRANCH  40  41
ENDBRANCH  33  35
ENDBRANCH  32  33
ENDBRANCH  31  32
ENDBRANCH  30  31
ENDBRANCH   1  30
TORSDOF 21
ENDMDL
MODEL 2
REMARK VINA RESULT:     -11.0      3.442      5.698
REMARK SMILES NS(=O)(=O)c1ccc(-n2nc(C(=O)OCCOCCOC(=O)c3ccc(-c4c5nc(c(-c6c(F)cc(S(=O)(=O)[O-])cc6F)c6ccc([nH]6)c(-c6c(F)cc(S(=O)(=O)[O-])cc6F)c6nc(c(-c7c(F)cc(S(=O)(=O)[O-])cc7F)c7ccc4[nH]7)C=C6)C=C5)cc3)cc2-c2ccc(Cl)s2)cc1
REMARK SMILES IDX 17 1 16 2 15 3 14 4 12 5 13 6 11 7 9 8 10 9 90 10 89 11 8 12
REMARK SMILES IDX 5 13 6 14 98 15 7 16 97 17 2 18 3 19 4 20 1 21 91 24 92 25
REMARK SMILES IDX 96 26 93 27 94 28 95 29 18 30 19 31 20 32 21 33 22 34 23 35
REMARK SMILES IDX 24 36 88 37 25 38 87 39 26 40 27 41 28 42 81 43 29 44 86 45
REMARK SMILES IDX 80 46 82 47 30 48 85 49 79 50 78 51 31 53 65 54 44 55 64 56
REMARK SMILES IDX 45 57 48 58 63 59 83 60 46 61 47 62 62 64 84 65 49 66 32 67
REMARK SMILES IDX 33 68 42 69 34 70 35 71 41 72 43 73 36 74 37 75 38 76 39 77
REMARK SMILES IDX 40 78 66 79 67 80 76 81 68 82 69 83 75 84 77 85 70 86 71 87
REMARK SMILES IDX 72 88 73 89 74 90 50 91 51 92 60 93 52 94 53 95 59 96 61 97
REMARK SMILES IDX 54 98 55 99 56 100 57 101 58 102
REMARK H PARENT 1 22 1 23 82 52 48 63
REMARK Flexibility Score: inf
ROOT
ATOM      1  O   UNL A   1      33.592  34.802  28.314  1.00  0.00    -0.374 OA
ENDROOT
BRANCH   1   2
ATOM      2  C   UNL A   1      33.782  33.398  28.471  1.00  0.00     0.202 C 
BRANCH   2   3
ATOM      3  C   UNL A   1      35.207  32.850  28.343  1.00  0.00     0.261 C 
BRANCH   3   4
ATOM      4  O   UNL A   1      35.301  31.779  27.393  1.00  0.00    -0.458 OA
BRANCH   4   5
ATOM      5  C   UNL A   1      35.076  30.530  27.903  1.00  0.00     0.358 C 
ATOM      6  O   UNL A   1      35.510  30.127  28.976  1.00  0.00    -0.244 OA
BRANCH   5   7
ATOM      7  C   UNL A   1      34.172  29.753  27.046  1.00  0.00     0.171 A 
ATOM      8  N   UNL A   1      32.627  29.330  25.624  1.00  0.00    -0.231 N 
ATOM      9  N   UNL A   1      33.395  30.333  26.110  1.00  0.00    -0.160 NA
ATOM     10  C   UNL A   1      32.954  28.107  26.184  1.00  0.00     0.085 A 
ATOM     11  C   UNL A   1      34.007  28.350  27.039  1.00  0.00     0.068 A 
BRANCH   8  12
ATOM     12  C   UNL A   1      31.534  29.638  24.784  1.00  0.00     0.065 A 
ATOM     13  C   UNL A   1      29.292  30.167  23.238  1.00  0.00     0.082 A 
ATOM     14  C   UNL A   1      29.629  31.032  24.285  1.00  0.00     0.024 A 
ATOM     15  C   UNL A   1      30.083  29.048  22.946  1.00  0.00     0.024 A 
ATOM     16  C   UNL A   1      30.746  30.759  25.071  1.00  0.00     0.030 A 
ATOM     17  C   UNL A   1      31.232  28.797  23.704  1.00  0.00     0.030 A 
BRANCH  13  18
ATOM     18  S   UNL A   1      27.821  30.472  22.305  1.00  0.00     0.238 S 
ATOM     19  O   UNL A   1      28.086  30.228  20.899  1.00  0.00    -0.207 OA
ATOM     20  O   UNL A   1      27.197  31.677  22.776  1.00  0.00    -0.207 OA
BRANCH  18  21
ATOM     21  N   UNL A   1      26.824  29.206  22.780  1.00  0.00    -0.225 NA
ATOM     22  H   UNL A   1      27.201  28.776  23.624  1.00  0.00     0.137 HD
ATOM     23  H   UNL A   1      26.780  28.511  22.035  1.00  0.00     0.137 HD
ENDBRANCH  18  21
ENDBRANCH  13  18
ENDBRANCH   8  12
BRANCH  10  24
ATOM     24  C   UNL A   1      32.320  26.850  25.919  1.00  0.00     0.054 A 
ATOM     25  C   UNL A   1      31.122  26.425  26.463  1.00  0.00     0.024 A 
ATOM     26  S   UNL A   1      33.007  25.655  24.900  1.00  0.00    -0.122 S 
ATOM     27  C   UNL A   1      30.756  25.123  26.012  1.00  0.00     0.033 A 
ATOM     28  C   UNL A   1      31.701  24.612  25.162  1.00  0.00     0.094 A 
ATOM     29  Cl  UNL A   1      31.657  23.081  24.391  1.00  0.00    -0.072 Cl
ENDBRANCH  10  24
ENDBRANCH   5   7
ENDBRANCH   4   5
ENDBRANCH   3   4
ENDBRANCH   2   3
ENDBRANCH   1   2
BRANCH   1  30
ATOM     30  C   UNL A   1      33.311  35.613  29.451  1.00  0.00     0.202 C 
BRANCH  30  31
ATOM     31  C   UNL A   1      33.488  35.022  30.841  1.00  0.00     0.261 C 
BRANCH  31  32
ATOM     32  O   UNL A   1      34.835  35.047  31.283  1.00  0.00    -0.460 OA
BRANCH  32  33
ATOM     33  C   UNL A   1      34.961  34.874  32.620  1.00  0.00     0.338 C 
ATOM     34  O   UNL A   1      34.390  35.499  33.498  1.00  0.00    -0.246 OA
BRANCH  33  35
ATOM     35  C   UNL A   1      36.044  33.921  32.867  1.00  0.00     0.060 A 
ATOM     36  C   UNL A   1      37.336  34.446  32.925  1.00  0.00     0.016 A 
ATOM     37  C   UNL A   1      35.804  32.545  32.741  1.00  0.00     0.016 A 
ATOM     38  C   UNL A   1      38.391  33.608  32.644  1.00  0.00     0.010 A 
ATOM     39  C   UNL A   1      36.856  31.714  32.446  1.00  0.00     0.010 A 
ATOM     40  C   UNL A   1      38.124  32.272  32.319  1.00  0.00    -0.014 A 
BRANCH  40  41
ATOM     41  C   UNL A   1      39.242  31.400  32.031  1.00  0.00     0.031 A 
ATOM     42  C   UNL A   1      40.003  31.109  33.266  1.00  0.00     0.074 A 
ATOM     43  C   UNL A   1      39.462  30.858  30.817  1.00  0.00     0.049 A 
ATOM     44  N   UNL A   1      41.143  31.609  33.605  1.00  0.00    -0.248 NA
ATOM     45  C   UNL A   1      39.308  30.412  34.366  1.00  0.00     0.031 C 
ATOM     46  C   UNL A   1      38.613  30.939  29.627  1.00  0.00     0.029 A 
ATOM     47  N   UNL A   1      40.469  30.035  30.411  1.00  0.00    -0.354 N 
ATOM     48  C   UNL A   1      41.441  31.017  34.825  1.00  0.00     0.074 A 
ATOM     49  C   UNL A   1      40.193  30.544  35.356  1.00  0.00     0.031 C 
ATOM     50  C   UNL A   1      39.020  30.018  28.722  1.00  0.00     0.029 A 
ATOM     51  C   UNL A   1      40.225  29.369  29.209  1.00  0.00     0.049 A 
ATOM     52  H   UNL A   1      41.301  29.919  30.924  1.00  0.00     0.167 HD
ATOM     53  C   UNL A   1      42.718  30.640  35.100  1.00  0.00     0.037 A 
ATOM     54  C   UNL A   1      40.937  28.323  28.706  1.00  0.00     0.037 A 
ATOM     55  C   UNL A   1      43.652  31.329  34.237  1.00  0.00     0.049 A 
ATOM     56  C   UNL A   1      42.274  28.361  29.361  1.00  0.00     0.074 A 
ATOM     57  C   UNL A   1      43.927  32.656  33.965  1.00  0.00     0.029 A 
ATOM     58  N   UNL A   1      44.182  30.611  33.193  1.00  0.00    -0.354 N 
ATOM     59  N   UNL A   1      43.143  29.314  29.160  1.00  0.00    -0.248 NA
ATOM     60  C   UNL A   1      42.435  27.625  30.605  1.00  0.00     0.031 C 
ATOM     61  C   UNL A   1      44.195  32.702  32.564  1.00  0.00     0.029 A 
ATOM     62  C   UNL A   1      44.163  31.398  32.070  1.00  0.00     0.049 A 
ATOM     63  H   UNL A   1      44.519  29.688  33.242  1.00  0.00     0.167 HD
ATOM     64  C   UNL A   1      43.639  29.607  30.423  1.00  0.00     0.074 A 
ATOM     65  C   UNL A   1      43.222  28.483  31.262  1.00  0.00     0.031 C 
ATOM     66  C   UNL A   1      44.072  30.866  30.728  1.00  0.00     0.037 A 
BRANCH  53  67
ATOM     67  C   UNL A   1      43.062  29.341  35.794  1.00  0.00     0.058 A 
ATOM     68  C   UNL A   1      44.071  29.344  36.777  1.00  0.00     0.135 A 
ATOM     69  C   UNL A   1      42.653  28.061  35.348  1.00  0.00     0.135 A 
ATOM     70  F   UNL A   1      44.553  30.502  37.256  1.00  0.00    -0.206 F 
ATOM     71  C   UNL A   1      44.668  28.170  37.236  1.00  0.00     0.059 A 
ATOM     72  C   UNL A   1      43.194  26.879  35.834  1.00  0.00     0.059 A 
ATOM     73  F   UNL A   1      41.780  27.880  34.353  1.00  0.00    -0.206 F 
ATOM     74  C   UNL A   1      44.224  26.943  36.754  1.00  0.00     0.060 A 
BRANCH  74  75
ATOM     75  S   UNL A   1      45.018  25.428  37.309  1.00  0.00     0.124 S 
ATOM     76  O   UNL A   1      46.426  25.740  37.091  1.00  0.00    -0.237 OA
ATOM     77  O   UNL A   1      44.583  25.358  38.700  1.00  0.00    -0.237 OA
ATOM     78  O   UNL A   1      44.450  24.411  36.430  1.00  0.00    -0.744 OA
ENDBRANCH  74  75
ENDBRANCH  53  67
BRANCH  54  79
ATOM     79  C   UNL A   1      40.425  27.087  28.039  1.00  0.00     0.058 A 
ATOM     80  C   UNL A   1      40.981  26.626  26.827  1.00  0.00     0.135 A 
ATOM     81  C   UNL A   1      39.604  26.168  28.721  1.00  0.00     0.135 A 
ATOM     82  F   UNL A   1      41.786  27.425  26.107  1.00  0.00    -0.206 F 
ATOM     83  C   UNL A   1      40.796  25.316  26.363  1.00  0.00     0.059 A 
ATOM     84  C   UNL A   1      39.398  24.862  28.274  1.00  0.00     0.059 A 
ATOM     85  F   UNL A   1      39.048  26.475  29.902  1.00  0.00    -0.206 F 
ATOM     86  C   UNL A   1      40.023  24.431  27.111  1.00  0.00     0.060 A 
BRANCH  86  87
ATOM     87  S   UNL A   1      39.949  22.682  26.645  1.00  0.00     0.124 S 
ATOM     88  O   UNL A   1      40.157  22.018  27.927  1.00  0.00    -0.237 OA
ATOM     89  O   UNL A   1      38.611  22.569  26.076  1.00  0.00    -0.237 OA
ATOM     90  O   UNL A   1      41.043  22.543  25.686  1.00  0.00    -0.744 OA
ENDBRANCH  86  87
ENDBRANCH  54  79
BRANCH  66  91
ATOM     91  C   UNL A   1      44.319  31.825  29.588  1.00  0.00     0.058 A 
ATOM     92  C   UNL A   1      45.476  31.861  28.786  1.00  0.00     0.135 A 
ATOM     93  C   UNL A   1      43.278  32.698  29.240  1.00  0.00     0.135 A 
ATOM     94  F   UNL A   1      46.472  30.982  28.970  1.00  0.00    -0.206 F 
ATOM     95  C   UNL A   1      45.618  32.777  27.740  1.00  0.00     0.059 A 
ATOM     96  C   UNL A   1      43.382  33.592  28.181  1.00  0.00     0.059 A 
ATOM     97  F   UNL A   1      42.120  32.670  29.921  1.00  0.00    -0.206 F 
ATOM     98  C   UNL A   1      44.567  33.648  27.453  1.00  0.00     0.060 A 
BRANCH  98  99
ATOM     99  S   UNL A   1      44.743  34.841  26.108  1.00  0.00     0.124 S 
ATOM    100  O   UNL A   1      44.900  36.098  26.834  1.00  0.00    -0.237 OA
ATOM    101  O   UNL A   1      45.930  34.360  25.409  1.00  0.00    -0.237 OA
ATOM    102  O   UNL A   1      43.493  34.704  25.365  1.00  0.00    -0.744 OA
ENDBRANCH  98  99
ENDBRANCH  66  91
ENDBRANCH  40  41
ENDBRANCH  33  35
ENDBRANCH  32  33
ENDBRANCH  31  32
ENDBRANCH  30  31
ENDBRANCH   1  30
TORSDOF 21
ENDMDL
MODEL 3
REMARK VINA RESULT:     -10.6      3.218      5.538
REMARK SMILES NS(=O)(=O)c1ccc(-n2nc(C(=O)OCCOCCOC(=O)c3ccc(-c4c5nc(c(-c6c(F)cc(S(=O)(=O)[O-])cc6F)c6ccc([nH]6)c(-c6c(F)cc(S(=O)(=O)[O-])cc6F)c6nc(c(-c7c(F)cc(S(=O)(=O)[O-])cc7F)c7ccc4[nH]7)C=C6)C=C5)cc3)cc2-c2ccc(Cl)s2)cc1
REMARK SMILES IDX 17 1 16 2 15 3 14 4 12 5 13 6 11 7 9 8 10 9 90 10 89 11 8 12
REMARK SMILES IDX 5 13 6 14 98 15 7 16 97 17 2 18 3 19 4 20 1 21 91 24 92 25
REMARK SMILES IDX 96 26 93 27 94 28 95 29 18 30 19 31 20 32 21 33 22 34 23 35
REMARK SMILES IDX 24 36 88 37 25 38 87 39 26 40 27 41 28 42 81 43 29 44 86 45
REMARK SMILES IDX 80 46 82 47 30 48 85 49 79 50 78 51 31 53 65 54 44 55 64 56
REMARK SMILES IDX 45 57 48 58 63 59 83 60 46 61 47 62 62 64 84 65 49 66 32 67
REMARK SMILES IDX 33 68 42 69 34 70 35 71 41 72 43 73 36 74 37 75 38 76 39 77
REMARK SMILES IDX 40 78 66 79 67 80 76 81 68 82 69 83 75 84 77 85 70 86 71 87
REMARK SMILES IDX 72 88 73 89 74 90 50 91 51 92 60 93 52 94 53 95 59 96 61 97
REMARK SMILES IDX 54 98 55 99 56 100 57 101 58 102
REMARK H PARENT 1 22 1 23 82 52 48 63
REMARK Flexibility Score: inf
ROOT
ATOM      1  O   UNL A   1      33.983  34.191  28.935  1.00  0.00    -0.374 OA
ENDROOT
BRANCH   1   2
ATOM      2  C   UNL A   1      34.237  32.882  28.429  1.00  0.00     0.202 C 
BRANCH   2   3
ATOM      3  C   UNL A   1      35.695  32.477  28.192  1.00  0.00     0.261 C 
BRANCH   3   4
ATOM      4  O   UNL A   1      35.817  31.339  27.328  1.00  0.00    -0.458 OA
BRANCH   4   5
ATOM      5  C   UNL A   1      35.446  30.146  27.884  1.00  0.00     0.358 C 
ATOM      6  O   UNL A   1      35.822  29.740  28.977  1.00  0.00    -0.244 OA
BRANCH   5   7
ATOM      7  C   UNL A   1      34.467  29.442  27.046  1.00  0.00     0.171 A 
ATOM      8  N   UNL A   1      32.804  29.139  25.729  1.00  0.00    -0.231 N 
ATOM      9  N   UNL A   1      33.618  30.098  26.229  1.00  0.00    -0.160 NA
ATOM     10  C   UNL A   1      33.167  27.874  26.158  1.00  0.00     0.085 A 
ATOM     11  C   UNL A   1      34.290  28.045  26.938  1.00  0.00     0.068 A 
BRANCH   8  12
ATOM     12  C   UNL A   1      31.647  29.516  25.013  1.00  0.00     0.065 A 
ATOM     13  C   UNL A   1      29.469  30.320  23.495  1.00  0.00     0.082 A 
ATOM     14  C   UNL A   1      30.086  29.095  23.222  1.00  0.00     0.024 A 
ATOM     15  C   UNL A   1      29.923  31.139  24.537  1.00  0.00     0.024 A 
ATOM     16  C   UNL A   1      31.189  28.697  23.974  1.00  0.00     0.030 A 
ATOM     17  C   UNL A   1      31.001  30.720  25.325  1.00  0.00     0.030 A 
BRANCH  13  18
ATOM     18  S   UNL A   1      28.128  30.859  22.475  1.00  0.00     0.238 S 
ATOM     19  O   UNL A   1      26.903  30.219  22.916  1.00  0.00    -0.207 OA
ATOM     20  O   UNL A   1      28.545  30.864  21.100  1.00  0.00    -0.207 OA
BRANCH  18  21
ATOM     21  N   UNL A   1      27.957  32.469  22.923  1.00  0.00    -0.225 NA
ATOM     22  H   UNL A   1      27.027  32.797  22.664  1.00  0.00     0.137 HD
ATOM     23  H   UNL A   1      28.662  33.031  22.446  1.00  0.00     0.137 HD
ENDBRANCH  18  21
ENDBRANCH  13  18
ENDBRANCH   8  12
BRANCH  10  24
ATOM     24  C   UNL A   1      32.504  26.643  25.846  1.00  0.00     0.054 A 
ATOM     25  C   UNL A   1      31.418  26.122  26.526  1.00  0.00     0.024 A 
ATOM     26  S   UNL A   1      33.013  25.603  24.583  1.00  0.00    -0.122 S 
ATOM     27  C   UNL A   1      30.986  24.877  25.982  1.00  0.00     0.033 A 
ATOM     28  C   UNL A   1      31.776  24.501  24.927  1.00  0.00     0.094 A 
ATOM     29  Cl  UNL A   1      31.608  23.077  23.985  1.00  0.00    -0.072 Cl
ENDBRANCH  10  24
ENDBRANCH   5   7
ENDBRANCH   4   5
ENDBRANCH   3   4
ENDBRANCH   2   3
ENDBRANCH   1   2
BRANCH   1  30
ATOM     30  C   UNL A   1      34.197  34.473  30.315  1.00  0.00     0.202 C 
BRANCH  30  31
ATOM     31  C   UNL A   1      34.488  33.324  31.268  1.00  0.00     0.261 C 
BRANCH  31  32
ATOM     32  O   UNL A   1      35.805  33.364  31.793  1.00  0.00    -0.460 OA
BRANCH  32  33
ATOM     33  C   UNL A   1      35.897  32.846  33.040  1.00  0.00     0.338 C 
ATOM     34  O   UNL A   1      35.225  33.146  34.012  1.00  0.00    -0.246 OA
BRANCH  33  35
ATOM     35  C   UNL A   1      37.072  31.975  33.097  1.00  0.00     0.060 A 
ATOM     36  C   UNL A   1      38.318  32.604  33.054  1.00  0.00     0.016 A 
ATOM     37  C   UNL A   1      36.927  30.594  32.895  1.00  0.00     0.016 A 
ATOM     38  C   UNL A   1      39.396  31.879  32.600  1.00  0.00     0.010 A 
ATOM     39  C   UNL A   1      38.000  29.878  32.427  1.00  0.00     0.010 A 
ATOM     40  C   UNL A   1      39.198  30.550  32.206  1.00  0.00    -0.014 A 
BRANCH  40  41
ATOM     41  C   UNL A   1      40.341  29.797  31.735  1.00  0.00     0.031 A 
ATOM     42  C   UNL A   1      41.291  29.552  32.841  1.00  0.00     0.074 A 
ATOM     43  C   UNL A   1      40.436  29.307  30.483  1.00  0.00     0.049 A 
ATOM     44  N   UNL A   1      42.417  30.153  33.037  1.00  0.00    -0.248 NA
ATOM     45  C   UNL A   1      40.827  28.767  34.000  1.00  0.00     0.031 C 
ATOM     46  C   UNL A   1      39.424  29.333  29.425  1.00  0.00     0.029 A 
ATOM     47  N   UNL A   1      41.448  28.595  29.912  1.00  0.00    -0.354 N 
ATOM     48  C   UNL A   1      42.937  29.565  34.182  1.00  0.00     0.074 A 
ATOM     49  C   UNL A   1      41.826  28.960  34.863  1.00  0.00     0.031 C 
ATOM     50  C   UNL A   1      39.783  28.477  28.440  1.00  0.00     0.029 A 
ATOM     51  C   UNL A   1      41.100  27.936  28.731  1.00  0.00     0.049 A 
ATOM     52  H   UNL A   1      42.352  28.549  30.300  1.00  0.00     0.167 HD
ATOM     53  C   UNL A   1      44.270  29.308  34.264  1.00  0.00     0.037 A 
ATOM     54  C   UNL A   1      41.829  26.976  28.098  1.00  0.00     0.037 A 
ATOM     55  C   UNL A   1      45.005  30.104  33.306  1.00  0.00     0.049 A 
ATOM     56  C   UNL A   1      43.236  27.130  28.562  1.00  0.00     0.074 A 
ATOM     57  C   UNL A   1      45.114  31.458  33.047  1.00  0.00     0.029 A 
ATOM     58  N   UNL A   1      45.447  29.466  32.174  1.00  0.00    -0.354 N 
ATOM     59  N   UNL A   1      43.974  28.167  28.279  1.00  0.00    -0.248 NA
ATOM     60  C   UNL A   1      43.637  26.384  29.745  1.00  0.00     0.031 C 
ATOM     61  C   UNL A   1      45.176  31.561  31.626  1.00  0.00     0.029 A 
ATOM     62  C   UNL A   1      45.196  30.272  31.094  1.00  0.00     0.049 A 
ATOM     63  H   UNL A   1      45.872  28.579  32.142  1.00  0.00     0.167 HD
ATOM     64  C   UNL A   1      44.615  28.477  29.470  1.00  0.00     0.074 A 
ATOM     65  C   UNL A   1      44.426  27.299  30.317  1.00  0.00     0.031 C 
ATOM     66  C   UNL A   1      44.967  29.765  29.758  1.00  0.00     0.037 A 
BRANCH  53  67
ATOM     67  C   UNL A   1      44.828  28.033  34.856  1.00  0.00     0.058 A 
ATOM     68  C   UNL A   1      44.376  26.797  34.353  1.00  0.00     0.135 A 
ATOM     69  C   UNL A   1      45.561  27.964  36.065  1.00  0.00     0.135 A 
ATOM     70  F   UNL A   1      43.651  26.745  33.225  1.00  0.00    -0.206 F 
ATOM     71  C   UNL A   1      44.584  25.596  35.030  1.00  0.00     0.059 A 
ATOM     72  C   UNL A   1      45.828  26.773  36.725  1.00  0.00     0.059 A 
ATOM     73  F   UNL A   1      45.977  29.047  36.728  1.00  0.00    -0.206 F 
ATOM     74  C   UNL A   1      45.308  25.596  36.218  1.00  0.00     0.060 A 
BRANCH  74  75
ATOM     75  S   UNL A   1      45.543  24.058  37.118  1.00  0.00     0.124 S 
ATOM     76  O   UNL A   1      46.998  23.966  37.164  1.00  0.00    -0.237 OA
ATOM     77  O   UNL A   1      44.878  24.350  38.383  1.00  0.00    -0.237 OA
ATOM     78  O   UNL A   1      44.871  23.072  36.278  1.00  0.00    -0.744 OA
ENDBRANCH  74  75
ENDBRANCH  53  67
BRANCH  54  79
ATOM     79  C   UNL A   1      41.345  25.712  27.463  1.00  0.00     0.058 A 
ATOM     80  C   UNL A   1      42.117  25.039  26.493  1.00  0.00     0.135 A 
ATOM     81  C   UNL A   1      40.276  24.976  28.009  1.00  0.00     0.135 A 
ATOM     82  F   UNL A   1      43.164  25.653  25.918  1.00  0.00    -0.206 F 
ATOM     83  C   UNL A   1      41.890  23.700  26.145  1.00  0.00     0.059 A 
ATOM     84  C   UNL A   1      40.025  23.646  27.672  1.00  0.00     0.059 A 
ATOM     85  F   UNL A   1      39.493  25.494  28.967  1.00  0.00    -0.206 F 
ATOM     86  C   UNL A   1      40.855  23.001  26.764  1.00  0.00     0.060 A 
BRANCH  86  87
ATOM     87  S   UNL A   1      40.681  21.220  26.492  1.00  0.00     0.124 S 
ATOM     88  O   UNL A   1      41.841  20.926  25.659  1.00  0.00    -0.237 OA
ATOM     89  O   UNL A   1      40.720  20.692  27.851  1.00  0.00    -0.237 OA
ATOM     90  O   UNL A   1      39.387  21.107  25.822  1.00  0.00    -0.744 OA
ENDBRANCH  86  87
ENDBRANCH  54  79
BRANCH  66  91
ATOM     91  C   UNL A   1      44.960  30.769  28.630  1.00  0.00     0.058 A 
ATOM     92  C   UNL A   1      45.994  30.950  27.691  1.00  0.00     0.135 A 
ATOM     93  C   UNL A   1      43.796  31.530  28.448  1.00  0.00     0.135 A 
ATOM     94  F   UNL A   1      47.093  30.183  27.716  1.00  0.00    -0.206 F 
ATOM     95  C   UNL A   1      45.900  31.898  26.668  1.00  0.00     0.059 A 
ATOM     96  C   UNL A   1      43.666  32.452  27.417  1.00  0.00     0.059 A 
ATOM     97  F   UNL A   1      42.746  31.359  29.268  1.00  0.00    -0.206 F 
ATOM     98  C   UNL A   1      44.734  32.654  26.547  1.00  0.00     0.060 A 
BRANCH  98  99
ATOM     99  S   UNL A   1      44.606  33.888  25.234  1.00  0.00     0.124 S 
ATOM    100  O   UNL A   1      45.973  34.394  25.156  1.00  0.00    -0.237 OA
ATOM    101  O   UNL A   1      44.156  33.095  24.095  1.00  0.00    -0.237 OA
ATOM    102  O   UNL A   1      43.621  34.835  25.751  1.00  0.00    -0.744 OA
ENDBRANCH  98  99
ENDBRANCH  66  91
ENDBRANCH  40  41
ENDBRANCH  33  35
ENDBRANCH  32  33
ENDBRANCH  31  32
ENDBRANCH  30  31
ENDBRANCH   1  30
TORSDOF 21
ENDMDL
