MODEL 1
REMARK VINA RESULT:     -12.2      0.000      0.000
REMARK SMILES O=C(OCCOCCOC(=O)[C@H]1[C@@H]2C[C@H]3C[C@@H](C2)C[C@]1(n1ncc(N2CCN(c4ccc(F)cc4)CC2)c(Cl)c1=O)C3)c1ccc(-c2c3nc(c(-c4c(F)cc(S(=O)(=O)[O-])cc4F)c4ccc([nH]4)c(-c4c(F)cc(S(=O)(=O)[O-])cc4F)c4nc(c(-c5c(F)cc(S(=O)(=O)[O-])cc5F)c5ccc2[nH]5)C=C4)C=C3)cc1
REMARK SMILES IDX 6 1 5 2 4 3 3 4 2 5 1 6 43 7 44 8 108 9 45 10 107 11 46 12
REMARK SMILES IDX 47 13 48 14 101 15 49 16 106 17 100 18 102 19 50 20 105 21
REMARK SMILES IDX 99 22 98 23 51 25 85 26 64 27 84 28 65 29 68 30 83 31 103 32
REMARK SMILES IDX 66 33 67 34 82 36 104 37 69 38 52 39 53 40 62 41 54 42 55 43
REMARK SMILES IDX 61 44 63 45 56 46 57 47 58 48 59 49 60 50 86 51 87 52 96 53
REMARK SMILES IDX 88 54 89 55 95 56 97 57 90 58 91 59 92 60 93 61 94 62 70 63
REMARK SMILES IDX 71 64 80 65 72 66 73 67 79 68 81 69 74 70 75 71 76 72 77 73
REMARK SMILES IDX 78 74 7 75 8 76 9 77 10 78 11 79 12 80 13 81 20 82 18 83
REMARK SMILES IDX 14 84 42 85 19 86 17 87 15 88 16 89 21 90 22 91 40 92 23 93
REMARK SMILES IDX 38 94 41 95 24 96 39 97 25 98 26 99 37 100 27 101 36 102
REMARK SMILES IDX 28 103 29 104 30 105 35 106 31 107 34 108 32 109 33 110
REMARK H PARENT 102 24 68 35
REMARK Flexibility Score: inf
ROOT
ATOM      1  O   UNL A   1      37.029  23.172  26.193  1.00  0.00    -0.374 OA
ENDROOT
BRANCH   1   2
ATOM      2  C   UNL A   1      38.354  23.635  25.947  1.00  0.00     0.202 C 
BRANCH   2   3
ATOM      3  C   UNL A   1      39.453  22.721  26.498  1.00  0.00     0.261 C 
BRANCH   3   4
ATOM      4  O   UNL A   1      40.502  23.406  27.208  1.00  0.00    -0.460 OA
BRANCH   4   5
ATOM      5  C   UNL A   1      41.044  24.630  26.989  1.00  0.00     0.338 C 
ATOM      6  O   UNL A   1      41.828  24.744  26.045  1.00  0.00    -0.246 OA
BRANCH   5   7
ATOM      7  C   UNL A   1      40.865  25.819  27.890  1.00  0.00     0.060 A 
ATOM      8  C   UNL A   1      39.642  25.908  28.588  1.00  0.00     0.016 A 
ATOM      9  C   UNL A   1      41.790  26.846  28.080  1.00  0.00     0.016 A 
ATOM     10  C   UNL A   1      39.374  26.977  29.453  1.00  0.00     0.010 A 
ATOM     11  C   UNL A   1      41.500  27.955  28.867  1.00  0.00     0.010 A 
ATOM     12  C   UNL A   1      40.319  27.993  29.607  1.00  0.00    -0.014 A 
BRANCH  12  13
ATOM     13  C   UNL A   1      40.305  28.894  30.773  1.00  0.00     0.031 A 
ATOM     14  C   UNL A   1      41.105  28.626  32.004  1.00  0.00     0.074 A 
ATOM     15  C   UNL A   1      39.402  29.893  30.704  1.00  0.00     0.049 A 
ATOM     16  N   UNL A   1      41.181  29.344  33.091  1.00  0.00    -0.248 NA
ATOM     17  C   UNL A   1      41.914  27.398  32.033  1.00  0.00     0.031 C 
ATOM     18  C   UNL A   1      38.520  30.144  29.553  1.00  0.00     0.029 A 
ATOM     19  N   UNL A   1      39.035  30.845  31.610  1.00  0.00    -0.354 N 
ATOM     20  C   UNL A   1      42.080  28.689  33.921  1.00  0.00     0.074 A 
ATOM     21  C   UNL A   1      42.481  27.478  33.234  1.00  0.00     0.031 C 
ATOM     22  C   UNL A   1      37.698  31.161  29.837  1.00  0.00     0.029 A 
ATOM     23  C   UNL A   1      38.009  31.646  31.171  1.00  0.00     0.049 A 
ATOM     24  H   UNL A   1      39.464  30.948  32.490  1.00  0.00     0.167 HD
ATOM     25  C   UNL A   1      42.532  29.094  35.132  1.00  0.00     0.037 A 
ATOM     26  C   UNL A   1      37.400  32.679  31.774  1.00  0.00     0.037 A 
ATOM     27  C   UNL A   1      42.058  30.291  35.788  1.00  0.00     0.049 A 
ATOM     28  C   UNL A   1      37.927  33.108  33.108  1.00  0.00     0.074 A 
ATOM     29  C   UNL A   1      42.471  30.839  36.991  1.00  0.00     0.029 A 
ATOM     30  N   UNL A   1      41.052  31.117  35.301  1.00  0.00    -0.354 N 
ATOM     31  N   UNL A   1      38.869  32.550  33.832  1.00  0.00    -0.248 NA
ATOM     32  C   UNL A   1      37.346  34.321  33.691  1.00  0.00     0.031 C 
ATOM     33  C   UNL A   1      41.687  31.968  37.248  1.00  0.00     0.029 A 
ATOM     34  C   UNL A   1      40.820  32.159  36.183  1.00  0.00     0.049 A 
ATOM     35  H   UNL A   1      40.572  30.981  34.451  1.00  0.00     0.167 HD
ATOM     36  C   UNL A   1      39.021  33.363  34.943  1.00  0.00     0.074 A 
ATOM     37  C   UNL A   1      38.079  34.456  34.787  1.00  0.00     0.031 C 
ATOM     38  C   UNL A   1      39.864  33.224  35.996  1.00  0.00     0.037 A 
BRANCH  25  39
ATOM     39  C   UNL A   1      43.612  28.292  35.812  1.00  0.00     0.058 A 
ATOM     40  C   UNL A   1      43.288  27.225  36.666  1.00  0.00     0.135 A 
ATOM     41  C   UNL A   1      44.969  28.489  35.508  1.00  0.00     0.135 A 
ATOM     42  F   UNL A   1      42.009  26.991  37.001  1.00  0.00    -0.206 F 
ATOM     43  C   UNL A   1      44.265  26.380  37.186  1.00  0.00     0.059 A 
ATOM     44  C   UNL A   1      45.963  27.643  35.999  1.00  0.00     0.059 A 
ATOM     45  F   UNL A   1      45.342  29.493  34.698  1.00  0.00    -0.206 F 
ATOM     46  C   UNL A   1      45.600  26.587  36.835  1.00  0.00     0.060 A 
BRANCH  46  47
ATOM     47  S   UNL A   1      46.841  25.435  37.465  1.00  0.00     0.124 S 
ATOM     48  O   UNL A   1      46.059  24.653  38.419  1.00  0.00    -0.237 OA
ATOM     49  O   UNL A   1      47.251  24.730  36.255  1.00  0.00    -0.237 OA
ATOM     50  O   UNL A   1      47.852  26.308  38.053  1.00  0.00    -0.744 OA
ENDBRANCH  46  47
ENDBRANCH  25  39
BRANCH  26  51
ATOM     51  C   UNL A   1      36.328  33.416  31.061  1.00  0.00     0.058 A 
ATOM     52  C   UNL A   1      35.007  33.382  31.530  1.00  0.00     0.135 A 
ATOM     53  C   UNL A   1      36.611  34.234  29.956  1.00  0.00     0.135 A 
ATOM     54  F   UNL A   1      34.695  32.633  32.598  1.00  0.00    -0.206 F 
ATOM     55  C   UNL A   1      33.997  34.109  30.912  1.00  0.00     0.059 A 
ATOM     56  C   UNL A   1      35.621  34.991  29.335  1.00  0.00     0.059 A 
ATOM     57  F   UNL A   1      37.868  34.336  29.497  1.00  0.00    -0.206 F 
ATOM     58  C   UNL A   1      34.314  34.911  29.813  1.00  0.00     0.060 A 
BRANCH  58  59
ATOM     59  S   UNL A   1      32.993  35.869  29.040  1.00  0.00     0.124 S 
ATOM     60  O   UNL A   1      33.754  36.867  28.296  1.00  0.00    -0.237 OA
ATOM     61  O   UNL A   1      32.311  34.858  28.238  1.00  0.00    -0.237 OA
ATOM     62  O   UNL A   1      32.233  36.375  30.178  1.00  0.00    -0.744 OA
ENDBRANCH  58  59
ENDBRANCH  26  51
BRANCH  38  63
ATOM     63  C   UNL A   1      39.805  34.293  37.047  1.00  0.00     0.058 A 
ATOM     64  C   UNL A   1      40.496  35.504  36.896  1.00  0.00     0.135 A 
ATOM     65  C   UNL A   1      39.021  34.115  38.197  1.00  0.00     0.135 A 
ATOM     66  F   UNL A   1      41.269  35.714  35.818  1.00  0.00    -0.206 F 
ATOM     67  C   UNL A   1      40.433  36.497  37.865  1.00  0.00     0.059 A 
ATOM     68  C   UNL A   1      38.918  35.107  39.165  1.00  0.00     0.059 A 
ATOM     69  F   UNL A   1      38.337  32.976  38.381  1.00  0.00    -0.206 F 
ATOM     70  C   UNL A   1      39.639  36.290  38.995  1.00  0.00     0.060 A 
BRANCH  70  71
ATOM     71  S   UNL A   1      39.545  37.601  40.230  1.00  0.00     0.124 S 
ATOM     72  O   UNL A   1      38.791  38.625  39.515  1.00  0.00    -0.237 OA
ATOM     73  O   UNL A   1      38.840  36.943  41.326  1.00  0.00    -0.237 OA
ATOM     74  O   UNL A   1      40.944  37.921  40.494  1.00  0.00    -0.744 OA
ENDBRANCH  70  71
ENDBRANCH  38  63
ENDBRANCH  12  13
ENDBRANCH   5   7
ENDBRANCH   4   5
ENDBRANCH   3   4
ENDBRANCH   2   3
ENDBRANCH   1   2
BRANCH   1  75
ATOM     75  C   UNL A   1      36.298  22.859  25.015  1.00  0.00     0.202 C 
BRANCH  75  76
ATOM     76  C   UNL A   1      36.898  21.688  24.261  1.00  0.00     0.261 C 
BRANCH  76  77
ATOM     77  O   UNL A   1      36.525  20.414  24.817  1.00  0.00    -0.463 OA
BRANCH  77  78
ATOM     78  C   UNL A   1      35.243  20.343  25.312  1.00  0.00     0.311 C 
ATOM     79  O   UNL A   1      34.898  20.866  26.353  1.00  0.00    -0.252 OA
BRANCH  78  80
ATOM     80  C   UNL A   1      34.413  19.434  24.435  1.00  0.00     0.130 C 
ATOM     81  C   UNL A   1      34.908  17.968  24.638  1.00  0.00     0.006 C 
ATOM     82  C   UNL A   1      32.850  19.460  24.370  1.00  0.00     0.081 C 
ATOM     83  C   UNL A   1      34.206  17.249  25.799  1.00  0.00     0.008 C 
ATOM     84  C   UNL A   1      34.645  17.236  23.322  1.00  0.00     0.008 C 
ATOM     85  C   UNL A   1      32.568  18.656  23.027  1.00  0.00     0.035 C 
ATOM     86  C   UNL A   1      32.194  18.625  25.508  1.00  0.00     0.035 C 
ATOM     87  C   UNL A   1      32.707  17.184  25.539  1.00  0.00    -0.008 C 
ATOM     88  C   UNL A   1      33.136  17.228  23.061  1.00  0.00    -0.008 C 
ATOM     89  C   UNL A   1      32.442  16.476  24.201  1.00  0.00     0.007 C 
BRANCH  82  90
ATOM     90  N   UNL A   1      32.128  20.789  24.304  1.00  0.00    -0.222 N 
ATOM     91  N   UNL A   1      31.774  21.325  25.528  1.00  0.00    -0.175 NA
ATOM     92  C   UNL A   1      32.130  21.583  23.145  1.00  0.00     0.288 A 
ATOM     93  C   UNL A   1      31.774  22.609  25.644  1.00  0.00     0.161 A 
ATOM     94  C   UNL A   1      32.145  23.069  23.370  1.00  0.00     0.132 A 
ATOM     95  O   UNL A   1      32.250  21.138  22.009  1.00  0.00    -0.266 OA
ATOM     96  C   UNL A   1      32.116  23.600  24.602  1.00  0.00     0.082 A 
ATOM     97  Cl  UNL A   1      32.472  24.064  21.985  1.00  0.00    -0.076 Cl
BRANCH  96  98
ATOM     98  N   UNL A   1      32.341  24.916  25.007  1.00  0.00    -0.365 N 
ATOM     99  C   UNL A   1      31.225  25.822  25.381  1.00  0.00     0.138 C 
ATOM    100  C   UNL A   1      33.641  25.599  24.837  1.00  0.00     0.138 C 
ATOM    101  C   UNL A   1      31.582  26.698  26.610  1.00  0.00     0.138 C 
ATOM    102  C   UNL A   1      33.987  26.482  26.055  1.00  0.00     0.138 C 
ATOM    103  N   UNL A   1      32.860  27.378  26.368  1.00  0.00    -0.368 N 
BRANCH 103 104
ATOM    104  C   UNL A   1      33.092  28.684  26.731  1.00  0.00     0.037 A 
ATOM    105  C   UNL A   1      34.363  29.060  27.194  1.00  0.00     0.029 A 
ATOM    106  C   UNL A   1      32.109  29.679  26.642  1.00  0.00     0.029 A 
ATOM    107  C   UNL A   1      34.650  30.379  27.554  1.00  0.00     0.041 A 
ATOM    108  C   UNL A   1      32.382  31.000  27.019  1.00  0.00     0.041 A 
ATOM    109  C   UNL A   1      33.653  31.336  27.467  1.00  0.00     0.123 A 
ATOM    110  F   UNL A   1      33.919  32.601  27.819  1.00  0.00    -0.207 F 
ENDBRANCH 103 104
ENDBRANCH  96  98
ENDBRANCH  82  90
ENDBRANCH  78  80
ENDBRANCH  77  78
ENDBRANCH  76  77
ENDBRANCH  75  76
ENDBRANCH   1  75
TORSDOF 20
ENDMDL
MODEL 2
REMARK VINA RESULT:     -11.7      9.905     17.892
REMARK SMILES O=C(OCCOCCOC(=O)[C@H]1[C@@H]2C[C@H]3C[C@@H](C2)C[C@]1(n1ncc(N2CCN(c4ccc(F)cc4)CC2)c(Cl)c1=O)C3)c1ccc(-c2c3nc(c(-c4c(F)cc(S(=O)(=O)[O-])cc4F)c4ccc([nH]4)c(-c4c(F)cc(S(=O)(=O)[O-])cc4F)c4nc(c(-c5c(F)cc(S(=O)(=O)[O-])cc5F)c5ccc2[nH]5)C=C4)C=C3)cc1
REMARK SMILES IDX 6 1 5 2 4 3 3 4 2 5 1 6 43 7 44 8 108 9 45 10 107 11 46 12
REMARK SMILES IDX 47 13 48 14 101 15 49 16 106 17 100 18 102 19 50 20 105 21
REMARK SMILES IDX 99 22 98 23 51 25 85 26 64 27 84 28 65 29 68 30 83 31 103 32
REMARK SMILES IDX 66 33 67 34 82 36 104 37 69 38 52 39 53 40 62 41 54 42 55 43
REMARK SMILES IDX 61 44 63 45 56 46 57 47 58 48 59 49 60 50 86 51 87 52 96 53
REMARK SMILES IDX 88 54 89 55 95 56 97 57 90 58 91 59 92 60 93 61 94 62 70 63
REMARK SMILES IDX 71 64 80 65 72 66 73 67 79 68 81 69 74 70 75 71 76 72 77 73
REMARK SMILES IDX 78 74 7 75 8 76 9 77 10 78 11 79 12 80 13 81 20 82 18 83
REMARK SMILES IDX 14 84 42 85 19 86 17 87 15 88 16 89 21 90 22 91 40 92 23 93
REMARK SMILES IDX 38 94 41 95 24 96 39 97 25 98 26 99 37 100 27 101 36 102
REMARK SMILES IDX 28 103 29 104 30 105 35 106 31 107 34 108 32 109 33 110
REMARK H PARENT 102 24 68 35
REMARK Flexibility Score: inf
ROOT
ATOM      1  O   UNL A   1      47.456  39.430  25.360  1.00  0.00    -0.374 OA
ENDROOT
BRANCH   1   2
ATOM      2  C   UNL A   1      47.848  39.326  26.726  1.00  0.00     0.202 C 
BRANCH   2   3
ATOM      3  C   UNL A   1      48.446  37.969  27.108  1.00  0.00     0.261 C 
BRANCH   3   4
ATOM      4  O   UNL A   1      48.230  37.584  28.479  1.00  0.00    -0.460 OA
BRANCH   4   5
ATOM      5  C   UNL A   1      47.261  36.805  29.021  1.00  0.00     0.338 C 
ATOM      6  O   UNL A   1      46.597  37.283  29.944  1.00  0.00    -0.246 OA
BRANCH   5   7
ATOM      7  C   UNL A   1      47.028  35.362  28.673  1.00  0.00     0.060 A 
ATOM      8  C   UNL A   1      47.430  34.405  29.628  1.00  0.00     0.016 A 
ATOM      9  C   UNL A   1      46.471  34.889  27.483  1.00  0.00     0.016 A 
ATOM     10  C   UNL A   1      47.258  33.033  29.401  1.00  0.00     0.010 A 
ATOM     11  C   UNL A   1      46.376  33.529  27.211  1.00  0.00     0.010 A 
ATOM     12  C   UNL A   1      46.709  32.598  28.193  1.00  0.00    -0.014 A 
BRANCH  12  13
ATOM     13  C   UNL A   1      46.119  31.255  28.050  1.00  0.00     0.031 A 
ATOM     14  C   UNL A   1      44.718  30.946  28.462  1.00  0.00     0.074 A 
ATOM     15  C   UNL A   1      46.984  30.296  27.664  1.00  0.00     0.049 A 
ATOM     16  N   UNL A   1      44.084  29.808  28.381  1.00  0.00    -0.248 NA
ATOM     17  C   UNL A   1      43.926  32.039  29.047  1.00  0.00     0.031 C 
ATOM     18  C   UNL A   1      48.400  30.530  27.339  1.00  0.00     0.029 A 
ATOM     19  N   UNL A   1      46.835  28.947  27.520  1.00  0.00    -0.354 N 
ATOM     20  C   UNL A   1      42.803  30.049  28.858  1.00  0.00     0.074 A 
ATOM     21  C   UNL A   1      42.766  31.433  29.284  1.00  0.00     0.031 C 
ATOM     22  C   UNL A   1      48.992  29.362  27.065  1.00  0.00     0.029 A 
ATOM     23  C   UNL A   1      47.999  28.306  27.170  1.00  0.00     0.049 A 
ATOM     24  H   UNL A   1      45.980  28.481  27.655  1.00  0.00     0.167 HD
ATOM     25  C   UNL A   1      41.763  29.182  28.904  1.00  0.00     0.037 A 
ATOM     26  C   UNL A   1      48.232  27.005  26.935  1.00  0.00     0.037 A 
ATOM     27  C   UNL A   1      41.875  27.798  28.508  1.00  0.00     0.049 A 
ATOM     28  C   UNL A   1      47.061  26.074  26.985  1.00  0.00     0.074 A 
ATOM     29  C   UNL A   1      40.886  26.830  28.458  1.00  0.00     0.029 A 
ATOM     30  N   UNL A   1      43.054  27.181  28.106  1.00  0.00    -0.354 N 
ATOM     31  N   UNL A   1      45.820  26.339  27.320  1.00  0.00    -0.248 NA
ATOM     32  C   UNL A   1      47.303  24.684  26.591  1.00  0.00     0.031 C 
ATOM     33  C   UNL A   1      41.476  25.623  28.069  1.00  0.00     0.029 A 
ATOM     34  C   UNL A   1      42.822  25.845  27.823  1.00  0.00     0.049 A 
ATOM     35  H   UNL A   1      43.929  27.628  28.035  1.00  0.00     0.167 HD
ATOM     36  C   UNL A   1      45.121  25.156  27.144  1.00  0.00     0.074 A 
ATOM     37  C   UNL A   1      46.080  24.178  26.663  1.00  0.00     0.031 C 
ATOM     38  C   UNL A   1      43.807  24.899  27.355  1.00  0.00     0.037 A 
BRANCH  25  39
ATOM     39  C   UNL A   1      40.413  29.689  29.342  1.00  0.00     0.058 A 
ATOM     40  C   UNL A   1      40.175  30.044  30.681  1.00  0.00     0.135 A 
ATOM     41  C   UNL A   1      39.395  29.955  28.411  1.00  0.00     0.135 A 
ATOM     42  F   UNL A   1      41.106  29.806  31.618  1.00  0.00    -0.206 F 
ATOM     43  C   UNL A   1      38.987  30.651  31.078  1.00  0.00     0.059 A 
ATOM     44  C   UNL A   1      38.205  30.581  28.782  1.00  0.00     0.059 A 
ATOM     45  F   UNL A   1      39.561  29.637  27.118  1.00  0.00    -0.206 F 
ATOM     46  C   UNL A   1      38.012  30.930  30.119  1.00  0.00     0.060 A 
BRANCH  46  47
ATOM     47  S   UNL A   1      36.508  31.781  30.647  1.00  0.00     0.124 S 
ATOM     48  O   UNL A   1      35.819  31.977  29.374  1.00  0.00    -0.237 OA
ATOM     49  O   UNL A   1      35.903  30.809  31.550  1.00  0.00    -0.237 OA
ATOM     50  O   UNL A   1      37.007  32.998  31.280  1.00  0.00    -0.744 OA
ENDBRANCH  46  47
ENDBRANCH  25  39
BRANCH  26  51
ATOM     51  C   UNL A   1      49.589  26.566  26.527  1.00  0.00     0.058 A 
ATOM     52  C   UNL A   1      50.489  26.061  27.476  1.00  0.00     0.135 A 
ATOM     53  C   UNL A   1      49.984  26.559  25.180  1.00  0.00     0.135 A 
ATOM     54  F   UNL A   1      50.146  26.027  28.773  1.00  0.00    -0.206 F 
ATOM     55  C   UNL A   1      51.745  25.591  27.110  1.00  0.00     0.059 A 
ATOM     56  C   UNL A   1      51.227  26.071  24.786  1.00  0.00     0.059 A 
ATOM     57  F   UNL A   1      49.141  26.989  24.229  1.00  0.00    -0.206 F 
ATOM     58  C   UNL A   1      52.105  25.601  25.762  1.00  0.00     0.060 A 
BRANCH  58  59
ATOM     59  S   UNL A   1      53.730  24.961  25.302  1.00  0.00     0.124 S 
ATOM     60  O   UNL A   1      54.508  25.252  26.501  1.00  0.00    -0.237 OA
ATOM     61  O   UNL A   1      53.445  23.552  25.052  1.00  0.00    -0.237 OA
ATOM     62  O   UNL A   1      54.076  25.743  24.119  1.00  0.00    -0.744 OA
ENDBRANCH  58  59
ENDBRANCH  26  51
BRANCH  38  63
ATOM     63  C   UNL A   1      43.340  23.507  27.051  1.00  0.00     0.058 A 
ATOM     64  C   UNL A   1      43.197  23.056  25.730  1.00  0.00     0.135 A 
ATOM     65  C   UNL A   1      43.067  22.606  28.092  1.00  0.00     0.135 A 
ATOM     66  F   UNL A   1      43.435  23.887  24.702  1.00  0.00    -0.206 F 
ATOM     67  C   UNL A   1      42.773  21.764  25.450  1.00  0.00     0.059 A 
ATOM     68  C   UNL A   1      42.671  21.299  27.835  1.00  0.00     0.059 A 
ATOM     69  F   UNL A   1      43.197  22.990  29.371  1.00  0.00    -0.206 F 
ATOM     70  C   UNL A   1      42.516  20.892  26.510  1.00  0.00     0.060 A 
BRANCH  70  71
ATOM     71  S   UNL A   1      41.995  19.208  26.128  1.00  0.00     0.124 S 
ATOM     72  O   UNL A   1      40.550  19.369  25.999  1.00  0.00    -0.237 OA
ATOM     73  O   UNL A   1      42.715  18.935  24.887  1.00  0.00    -0.237 OA
ATOM     74  O   UNL A   1      42.440  18.442  27.287  1.00  0.00    -0.744 OA
ENDBRANCH  70  71
ENDBRANCH  38  63
ENDBRANCH  12  13
ENDBRANCH   5   7
ENDBRANCH   4   5
ENDBRANCH   3   4
ENDBRANCH   2   3
ENDBRANCH   1   2
BRANCH   1  75
ATOM     75  C   UNL A   1      46.952  40.708  24.998  1.00  0.00     0.202 C 
BRANCH  75  76
ATOM     76  C   UNL A   1      47.135  41.001  23.521  1.00  0.00     0.261 C 
BRANCH  76  77
ATOM     77  O   UNL A   1      46.012  41.693  22.944  1.00  0.00    -0.463 OA
BRANCH  77  78
ATOM     78  C   UNL A   1      46.158  42.046  21.622  1.00  0.00     0.311 C 
ATOM     79  O   UNL A   1      46.482  41.262  20.752  1.00  0.00    -0.252 OA
BRANCH  78  80
ATOM     80  C   UNL A   1      45.975  43.539  21.475  1.00  0.00     0.130 C 
ATOM     81  C   UNL A   1      46.470  43.958  20.055  1.00  0.00     0.006 C 
ATOM     82  C   UNL A   1      44.653  44.303  21.820  1.00  0.00     0.081 C 
ATOM     83  C   UNL A   1      45.377  43.863  18.981  1.00  0.00     0.008 C 
ATOM     84  C   UNL A   1      46.972  45.396  20.178  1.00  0.00     0.008 C 
ATOM     85  C   UNL A   1      45.161  45.807  21.900  1.00  0.00     0.035 C 
ATOM     86  C   UNL A   1      43.625  44.266  20.652  1.00  0.00     0.035 C 
ATOM     87  C   UNL A   1      44.216  44.783  19.340  1.00  0.00    -0.008 C 
ATOM     88  C   UNL A   1      45.798  46.290  20.587  1.00  0.00    -0.008 C 
ATOM     89  C   UNL A   1      44.725  46.224  19.496  1.00  0.00     0.007 C 
BRANCH  82  90
ATOM     90  N   UNL A   1      43.910  43.969  23.095  1.00  0.00    -0.222 N 
ATOM     91  N   UNL A   1      42.882  43.056  22.952  1.00  0.00    -0.175 NA
ATOM     92  C   UNL A   1      44.431  44.271  24.364  1.00  0.00     0.288 A 
ATOM     93  C   UNL A   1      42.645  42.258  23.937  1.00  0.00     0.161 A 
ATOM     94  C   UNL A   1      44.121  43.281  25.452  1.00  0.00     0.132 A 
ATOM     95  O   UNL A   1      45.205  45.196  24.585  1.00  0.00    -0.266 OA
ATOM     96  C   UNL A   1      43.359  42.201  25.231  1.00  0.00     0.082 A 
ATOM     97  Cl  UNL A   1      45.008  43.451  26.936  1.00  0.00    -0.076 Cl
BRANCH  96  98
ATOM     98  N   UNL A   1      43.149  41.082  26.038  1.00  0.00    -0.365 N 
ATOM     99  C   UNL A   1      41.784  40.646  26.432  1.00  0.00     0.138 C 
ATOM    100  C   UNL A   1      44.235  40.413  26.785  1.00  0.00     0.138 C 
ATOM    101  C   UNL A   1      41.642  39.101  26.400  1.00  0.00     0.138 C 
ATOM    102  C   UNL A   1      44.082  38.878  26.764  1.00  0.00     0.138 C 
ATOM    103  N   UNL A   1      42.723  38.497  27.187  1.00  0.00    -0.368 N 
BRANCH 103 104
ATOM    104  C   UNL A   1      42.530  37.414  28.012  1.00  0.00     0.037 A 
ATOM    105  C   UNL A   1      43.350  37.246  29.140  1.00  0.00     0.029 A 
ATOM    106  C   UNL A   1      41.526  36.463  27.789  1.00  0.00     0.029 A 
ATOM    107  C   UNL A   1      43.176  36.174  30.017  1.00  0.00     0.041 A 
ATOM    108  C   UNL A   1      41.357  35.374  28.652  1.00  0.00     0.041 A 
ATOM    109  C   UNL A   1      42.183  35.243  29.761  1.00  0.00     0.123 A 
ATOM    110  F   UNL A   1      42.017  34.207  30.594  1.00  0.00    -0.207 F 
ENDBRANCH 103 104
ENDBRANCH  96  98
ENDBRANCH  82  90
ENDBRANCH  78  80
ENDBRANCH  77  78
ENDBRANCH  76  77
ENDBRANCH  75  76
ENDBRANCH   1  75
TORSDOF 20
ENDMDL
MODEL 3
REMARK VINA RESULT:     -11.5      6.653     13.497
REMARK SMILES O=C(OCCOCCOC(=O)[C@H]1[C@@H]2C[C@H]3C[C@@H](C2)C[C@]1(n1ncc(N2CCN(c4ccc(F)cc4)CC2)c(Cl)c1=O)C3)c1ccc(-c2c3nc(c(-c4c(F)cc(S(=O)(=O)[O-])cc4F)c4ccc([nH]4)c(-c4c(F)cc(S(=O)(=O)[O-])cc4F)c4nc(c(-c5c(F)cc(S(=O)(=O)[O-])cc5F)c5ccc2[nH]5)C=C4)C=C3)cc1
REMARK SMILES IDX 6 1 5 2 4 3 3 4 2 5 1 6 43 7 44 8 108 9 45 10 107 11 46 12
REMARK SMILES IDX 47 13 48 14 101 15 49 16 106 17 100 18 102 19 50 20 105 21
REMARK SMILES IDX 99 22 98 23 51 25 85 26 64 27 84 28 65 29 68 30 83 31 103 32
REMARK SMILES IDX 66 33 67 34 82 36 104 37 69 38 52 39 53 40 62 41 54 42 55 43
REMARK SMILES IDX 61 44 63 45 56 46 57 47 58 48 59 49 60 50 86 51 87 52 96 53
REMARK SMILES IDX 88 54 89 55 95 56 97 57 90 58 91 59 92 60 93 61 94 62 70 63
REMARK SMILES IDX 71 64 80 65 72 66 73 67 79 68 81 69 74 70 75 71 76 72 77 73
REMARK SMILES IDX 78 74 7 75 8 76 9 77 10 78 11 79 12 80 13 81 20 82 18 83
REMARK SMILES IDX 14 84 42 85 19 86 17 87 15 88 16 89 21 90 22 91 40 92 23 93
REMARK SMILES IDX 38 94 41 95 24 96 39 97 25 98 26 99 37 100 27 101 36 102
REMARK SMILES IDX 28 103 29 104 30 105 35 106 31 107 34 108 32 109 33 110
REMARK H PARENT 102 24 68 35
REMARK Flexibility Score: inf
ROOT
ATOM      1  O   UNL A   1      38.860  31.939  37.542  1.00  0.00    -0.374 OA
ENDROOT
BRANCH   1   2
ATOM      2  C   UNL A   1      38.312  33.214  37.863  1.00  0.00     0.202 C 
BRANCH   2   3
ATOM      3  C   UNL A   1      39.150  34.027  38.856  1.00  0.00     0.261 C 
BRANCH   3   4
ATOM      4  O   UNL A   1      39.209  35.438  38.574  1.00  0.00    -0.460 OA
BRANCH   4   5
ATOM      5  C   UNL A   1      40.178  36.162  37.961  1.00  0.00     0.338 C 
ATOM      6  O   UNL A   1      40.459  37.261  38.444  1.00  0.00    -0.246 OA
BRANCH   5   7
ATOM      7  C   UNL A   1      40.837  35.785  36.664  1.00  0.00     0.060 A 
ATOM      8  C   UNL A   1      42.248  35.781  36.645  1.00  0.00     0.016 A 
ATOM      9  C   UNL A   1      40.177  35.460  35.478  1.00  0.00     0.016 A 
ATOM     10  C   UNL A   1      42.960  35.445  35.487  1.00  0.00     0.010 A 
ATOM     11  C   UNL A   1      40.872  35.209  34.300  1.00  0.00     0.010 A 
ATOM     12  C   UNL A   1      42.264  35.137  34.315  1.00  0.00    -0.014 A 
BRANCH  12  13
ATOM     13  C   UNL A   1      42.894  34.385  33.216  1.00  0.00     0.031 A 
ATOM     14  C   UNL A   1      43.246  35.017  31.910  1.00  0.00     0.074 A 
ATOM     15  C   UNL A   1      42.987  33.056  33.420  1.00  0.00     0.049 A 
ATOM     16  N   UNL A   1      43.807  34.464  30.869  1.00  0.00    -0.248 NA
ATOM     17  C   UNL A   1      42.923  36.442  31.737  1.00  0.00     0.031 C 
ATOM     18  C   UNL A   1      42.565  32.369  34.651  1.00  0.00     0.029 A 
ATOM     19  N   UNL A   1      43.412  32.043  32.611  1.00  0.00    -0.354 N 
ATOM     20  C   UNL A   1      43.953  35.476  29.930  1.00  0.00     0.074 A 
ATOM     21  C   UNL A   1      43.365  36.670  30.503  1.00  0.00     0.031 C 
ATOM     22  C   UNL A   1      42.725  31.049  34.500  1.00  0.00     0.029 A 
ATOM     23  C   UNL A   1      43.280  30.800  33.180  1.00  0.00     0.049 A 
ATOM     24  H   UNL A   1      43.776  32.189  31.708  1.00  0.00     0.167 HD
ATOM     25  C   UNL A   1      44.549  35.396  28.716  1.00  0.00     0.037 A 
ATOM     26  C   UNL A   1      43.597  29.589  32.696  1.00  0.00     0.037 A 
ATOM     27  C   UNL A   1      45.077  34.163  28.179  1.00  0.00     0.049 A 
ATOM     28  C   UNL A   1      44.261  29.534  31.356  1.00  0.00     0.074 A 
ATOM     29  C   UNL A   1      45.749  33.957  26.987  1.00  0.00     0.029 A 
ATOM     30  N   UNL A   1      44.977  32.922  28.798  1.00  0.00    -0.354 N 
ATOM     31  N   UNL A   1      44.507  30.519  30.525  1.00  0.00    -0.248 NA
ATOM     32  C   UNL A   1      44.727  28.221  30.901  1.00  0.00     0.031 C 
ATOM     33  C   UNL A   1      46.016  32.590  26.866  1.00  0.00     0.029 A 
ATOM     34  C   UNL A   1      45.561  31.946  28.007  1.00  0.00     0.049 A 
ATOM     35  H   UNL A   1      44.553  32.760  29.672  1.00  0.00     0.167 HD
ATOM     36  C   UNL A   1      45.190  29.953  29.460  1.00  0.00     0.074 A 
ATOM     37  C   UNL A   1      45.324  28.540  29.762  1.00  0.00     0.031 C 
ATOM     38  C   UNL A   1      45.666  30.545  28.338  1.00  0.00     0.037 A 
BRANCH  25  39
ATOM     39  C   UNL A   1      44.715  36.654  27.903  1.00  0.00     0.058 A 
ATOM     40  C   UNL A   1      43.634  37.201  27.192  1.00  0.00     0.135 A 
ATOM     41  C   UNL A   1      45.908  37.395  27.938  1.00  0.00     0.135 A 
ATOM     42  F   UNL A   1      42.470  36.536  27.114  1.00  0.00    -0.206 F 
ATOM     43  C   UNL A   1      43.725  38.437  26.558  1.00  0.00     0.059 A 
ATOM     44  C   UNL A   1      46.016  38.644  27.328  1.00  0.00     0.059 A 
ATOM     45  F   UNL A   1      46.977  36.924  28.600  1.00  0.00    -0.206 F 
ATOM     46  C   UNL A   1      44.916  39.159  26.643  1.00  0.00     0.060 A 
BRANCH  46  47
ATOM     47  S   UNL A   1      44.987  40.791  25.870  1.00  0.00     0.124 S 
ATOM     48  O   UNL A   1      46.013  40.590  24.850  1.00  0.00    -0.237 OA
ATOM     49  O   UNL A   1      43.626  40.956  25.372  1.00  0.00    -0.237 OA
ATOM     50  O   UNL A   1      45.363  41.675  26.969  1.00  0.00    -0.744 OA
ENDBRANCH  46  47
ENDBRANCH  25  39
BRANCH  26  51
ATOM     51  C   UNL A   1      43.389  28.386  33.539  1.00  0.00     0.058 A 
ATOM     52  C   UNL A   1      42.116  27.812  33.659  1.00  0.00     0.135 A 
ATOM     53  C   UNL A   1      44.464  27.735  34.166  1.00  0.00     0.135 A 
ATOM     54  F   UNL A   1      41.063  28.385  33.057  1.00  0.00    -0.206 F 
ATOM     55  C   UNL A   1      41.907  26.653  34.397  1.00  0.00     0.059 A 
ATOM     56  C   UNL A   1      44.284  26.560  34.890  1.00  0.00     0.059 A 
ATOM     57  F   UNL A   1      45.709  28.220  34.042  1.00  0.00    -0.206 F 
ATOM     58  C   UNL A   1      42.998  26.034  35.009  1.00  0.00     0.060 A 
BRANCH  58  59
ATOM     59  S   UNL A   1      42.713  24.513  35.941  1.00  0.00     0.124 S 
ATOM     60  O   UNL A   1      43.457  23.541  35.148  1.00  0.00    -0.237 OA
ATOM     61  O   UNL A   1      43.280  24.842  37.245  1.00  0.00    -0.237 OA
ATOM     62  O   UNL A   1      41.260  24.370  35.914  1.00  0.00    -0.744 OA
ENDBRANCH  58  59
ENDBRANCH  26  51
BRANCH  38  63
ATOM     63  C   UNL A   1      46.386  29.657  27.367  1.00  0.00     0.058 A 
ATOM     64  C   UNL A   1      45.705  29.009  26.326  1.00  0.00     0.135 A 
ATOM     65  C   UNL A   1      47.776  29.482  27.460  1.00  0.00     0.135 A 
ATOM     66  F   UNL A   1      44.373  29.138  26.205  1.00  0.00    -0.206 F 
ATOM     67  C   UNL A   1      46.374  28.194  25.422  1.00  0.00     0.059 A 
ATOM     68  C   UNL A   1      48.470  28.695  26.549  1.00  0.00     0.059 A 
ATOM     69  F   UNL A   1      48.470  30.087  28.435  1.00  0.00    -0.206 F 
ATOM     70  C   UNL A   1      47.757  28.046  25.540  1.00  0.00     0.060 A 
BRANCH  70  71
ATOM     71  S   UNL A   1      48.614  27.008  24.341  1.00  0.00     0.124 S 
ATOM     72  O   UNL A   1      47.541  26.694  23.403  1.00  0.00    -0.237 OA
ATOM     73  O   UNL A   1      49.651  27.905  23.840  1.00  0.00    -0.237 OA
ATOM     74  O   UNL A   1      49.095  25.887  25.142  1.00  0.00    -0.744 OA
ENDBRANCH  70  71
ENDBRANCH  38  63
ENDBRANCH  12  13
ENDBRANCH   5   7
ENDBRANCH   4   5
ENDBRANCH   3   4
ENDBRANCH   2   3
ENDBRANCH   1   2
BRANCH   1  75
ATOM     75  C   UNL A   1      38.141  31.237  36.537  1.00  0.00     0.202 C 
BRANCH  75  76
ATOM     76  C   UNL A   1      39.031  30.809  35.386  1.00  0.00     0.261 C 
BRANCH  76  77
ATOM     77  O   UNL A   1      39.359  31.893  34.498  1.00  0.00    -0.463 OA
BRANCH  77  78
ATOM     78  C   UNL A   1      39.071  31.672  33.171  1.00  0.00     0.311 C 
ATOM     79  O   UNL A   1      39.903  31.325  32.355  1.00  0.00    -0.252 OA
BRANCH  78  80
ATOM     80  C   UNL A   1      37.632  32.043  32.897  1.00  0.00     0.130 C 
ATOM     81  C   UNL A   1      37.341  33.418  33.577  1.00  0.00     0.006 C 
ATOM     82  C   UNL A   1      36.966  32.002  31.482  1.00  0.00     0.081 C 
ATOM     83  C   UNL A   1      37.671  34.618  32.678  1.00  0.00     0.008 C 
ATOM     84  C   UNL A   1      35.856  33.416  33.939  1.00  0.00     0.008 C 
ATOM     85  C   UNL A   1      35.420  32.051  31.851  1.00  0.00     0.035 C 
ATOM     86  C   UNL A   1      37.244  33.292  30.657  1.00  0.00     0.035 C 
ATOM     87  C   UNL A   1      36.834  34.561  31.407  1.00  0.00    -0.008 C 
ATOM     88  C   UNL A   1      35.039  33.309  32.648  1.00  0.00    -0.008 C 
ATOM     89  C   UNL A   1      35.341  34.527  31.771  1.00  0.00     0.007 C 
BRANCH  82  90
ATOM     90  N   UNL A   1      37.214  30.817  30.575  1.00  0.00    -0.222 N 
ATOM     91  N   UNL A   1      37.733  31.129  29.332  1.00  0.00    -0.175 NA
ATOM     92  C   UNL A   1      37.259  29.500  31.061  1.00  0.00     0.288 A 
ATOM     93  C   UNL A   1      38.539  30.282  28.787  1.00  0.00     0.161 A 
ATOM     94  C   UNL A   1      38.236  28.583  30.380  1.00  0.00     0.132 A 
ATOM     95  O   UNL A   1      36.660  29.118  32.060  1.00  0.00    -0.266 OA
ATOM     96  C   UNL A   1      38.985  28.988  29.345  1.00  0.00     0.082 A 
ATOM     97  Cl  UNL A   1      38.547  27.060  31.157  1.00  0.00    -0.076 Cl
BRANCH  96  98
ATOM     98  N   UNL A   1      40.077  28.364  28.741  1.00  0.00    -0.365 N 
ATOM     99  C   UNL A   1      41.305  28.024  29.506  1.00  0.00     0.138 C 
ATOM    100  C   UNL A   1      40.226  28.242  27.276  1.00  0.00     0.138 C 
ATOM    101  C   UNL A   1      41.874  26.640  29.096  1.00  0.00     0.138 C 
ATOM    102  C   UNL A   1      40.806  26.870  26.873  1.00  0.00     0.138 C 
ATOM    103  N   UNL A   1      42.033  26.593  27.638  1.00  0.00    -0.368 N 
BRANCH 103 104
ATOM    104  C   UNL A   1      43.118  26.010  27.025  1.00  0.00     0.037 A 
ATOM    105  C   UNL A   1      43.040  25.655  25.668  1.00  0.00     0.029 A 
ATOM    106  C   UNL A   1      44.324  25.766  27.695  1.00  0.00     0.029 A 
ATOM    107  C   UNL A   1      44.123  25.081  24.999  1.00  0.00     0.041 A 
ATOM    108  C   UNL A   1      45.409  25.173  27.037  1.00  0.00     0.041 A 
ATOM    109  C   UNL A   1      45.297  24.840  25.693  1.00  0.00     0.123 A 
ATOM    110  F   UNL A   1      46.337  24.281  25.059  1.00  0.00    -0.207 F 
ENDBRANCH 103 104
ENDBRANCH  96  98
ENDBRANCH  82  90
ENDBRANCH  78  80
ENDBRANCH  77  78
ENDBRANCH  76  77
ENDBRANCH  75  76
ENDBRANCH   1  75
TORSDOF 20
ENDMDL
