MODEL 1
REMARK VINA RESULT:      -7.6      0.000      0.000
REMARK SMILES Cc1c(CC(=O)N[C@@H](CCO)C(=O)OCCOCCOC(=O)c2ccc(-c3c4nc(c(-c5c(F)cc(S(=O)(=O)[O-])cc5F)c5ccc([nH]5)c(-c5c(F)cc(S(=O)(=O)[O-])cc5F)c5nc(c(-c6c(F)cc(S(=O)(=O)[O-])cc6F)c6ccc3[nH]6)C=C5)C=C4)cc2)cc(-c2ccc(S(C)(=O)=O)cc2)n1-c1ccc(F)cc1
REMARK SMILES IDX 16 1 15 2 14 3 12 4 13 5 8 6 7 7 5 8 6 9 4 11 3 12 1 13 2 14
REMARK SMILES IDX 101 15 89 16 90 17 102 18 103 19 108 20 104 21 107 22 105 23
REMARK SMILES IDX 106 24 91 25 92 26 100 27 93 28 99 29 94 30 95 31 96 32
REMARK SMILES IDX 97 33 98 34 9 35 10 36 11 37 17 39 18 40 19 41 20 42 21 43
REMARK SMILES IDX 22 44 23 45 24 46 88 47 25 48 87 49 26 50 27 51 28 52 81 53
REMARK SMILES IDX 29 54 86 55 80 56 82 57 30 58 85 59 79 60 78 61 31 63 65 64
REMARK SMILES IDX 44 65 64 66 45 67 48 68 63 69 83 70 46 71 47 72 62 74 84 75
REMARK SMILES IDX 49 76 32 77 33 78 42 79 34 80 35 81 41 82 43 83 36 84 37 85
REMARK SMILES IDX 38 86 39 87 40 88 66 89 67 90 76 91 68 92 69 93 75 94 77 95
REMARK SMILES IDX 70 96 71 97 72 98 73 99 74 100 50 101 51 102 60 103 52 104
REMARK SMILES IDX 53 105 59 106 61 107 54 108 55 109 56 110 57 111 58 112
REMARK H PARENT 7 10 11 38 82 62 48 73
REMARK Flexibility Score: inf
ROOT
ATOM      1  C   UNL A   1      37.337  33.146  37.333  1.00  0.00     0.202 C 
ENDROOT
BRANCH   1   2
ATOM      2  C   UNL A   1      37.970  32.319  36.201  1.00  0.00     0.261 C 
BRANCH   2   3
ATOM      3  O   UNL A   1      37.966  33.061  34.970  1.00  0.00    -0.462 OA
BRANCH   3   4
ATOM      4  C   UNL A   1      37.451  32.411  33.888  1.00  0.00     0.328 C 
ATOM      5  O   UNL A   1      37.546  31.208  33.675  1.00  0.00    -0.250 OA
BRANCH   4   6
ATOM      6  C   UNL A   1      36.824  33.392  32.885  1.00  0.00     0.194 C 
BRANCH   6   7
ATOM      7  N   UNL A   1      35.778  32.843  32.013  1.00  0.00    -0.342 N 
ATOM      8  C   UNL A   1      35.781  32.637  30.663  1.00  0.00     0.225 C 
ATOM      9  O   UNL A   1      34.774  32.133  30.159  1.00  0.00    -0.275 OA
ATOM     10  H   UNL A   1      34.946  32.583  32.473  1.00  0.00     0.164 HD
BRANCH   8  11
ATOM     11  C   UNL A   1      37.003  32.952  29.812  1.00  0.00     0.137 C 
BRANCH  11  12
ATOM     12  C   UNL A   1      37.975  31.817  29.723  1.00  0.00    -0.017 A 
ATOM     13  C   UNL A   1      36.825  30.316  27.956  1.00  0.00     0.065 C 
ATOM     14  C   UNL A   1      37.936  30.722  28.870  1.00  0.00     0.024 A 
ATOM     15  N   UNL A   1      39.120  30.008  29.023  1.00  0.00    -0.314 N 
ATOM     16  C   UNL A   1      39.144  31.679  30.514  1.00  0.00     0.033 A 
ATOM     17  C   UNL A   1      39.882  30.621  30.020  1.00  0.00     0.053 A 
BRANCH  15  18
ATOM     18  C   UNL A   1      39.536  28.883  28.256  1.00  0.00     0.046 A 
ATOM     19  C   UNL A   1      39.231  27.589  28.704  1.00  0.00     0.029 A 
ATOM     20  C   UNL A   1      40.320  29.069  27.110  1.00  0.00     0.029 A 
ATOM     21  C   UNL A   1      39.722  26.484  28.011  1.00  0.00     0.041 A 
ATOM     22  C   UNL A   1      40.818  27.956  26.431  1.00  0.00     0.041 A 
ATOM     23  C   UNL A   1      40.518  26.677  26.889  1.00  0.00     0.123 A 
ATOM     24  F   UNL A   1      41.016  25.613  26.246  1.00  0.00    -0.207 F 
ENDBRANCH  15  18
BRANCH  17  25
ATOM     25  C   UNL A   1      41.284  30.320  30.332  1.00  0.00    -0.001 A 
ATOM     26  C   UNL A   1      42.317  31.018  29.687  1.00  0.00     0.011 A 
ATOM     27  C   UNL A   1      41.604  29.376  31.315  1.00  0.00     0.011 A 
ATOM     28  C   UNL A   1      43.653  30.752  29.990  1.00  0.00     0.021 A 
ATOM     29  C   UNL A   1      42.939  29.102  31.623  1.00  0.00     0.021 A 
ATOM     30  C   UNL A   1      43.956  29.783  30.950  1.00  0.00     0.067 A 
BRANCH  30  31
ATOM     31  S   UNL A   1      45.661  29.467  31.337  1.00  0.00     0.175 S 
ATOM     32  C   UNL A   1      45.641  27.863  32.093  1.00  0.00     0.163 C 
ATOM     33  O   UNL A   1      46.378  29.383  30.097  1.00  0.00    -0.224 OA
ATOM     34  O   UNL A   1      46.059  30.421  32.375  1.00  0.00    -0.224 OA
ENDBRANCH  30  31
ENDBRANCH  17  25
ENDBRANCH  11  12
ENDBRANCH   8  11
ENDBRANCH   6   7
BRANCH   6  35
ATOM     35  C   UNL A   1      36.295  34.633  33.615  1.00  0.00     0.065 C 
BRANCH  35  36
ATOM     36  C   UNL A   1      34.857  35.011  33.260  1.00  0.00     0.159 C 
BRANCH  36  37
ATOM     37  O   UNL A   1      34.803  35.766  32.060  1.00  0.00    -0.396 OA
ATOM     38  H   UNL A   1      33.940  35.639  31.636  1.00  0.00     0.210 HD
ENDBRANCH  36  37
ENDBRANCH  35  36
ENDBRANCH   6  35
ENDBRANCH   4   6
ENDBRANCH   3   4
ENDBRANCH   2   3
ENDBRANCH   1   2
BRANCH   1  39
ATOM     39  O   UNL A   1      38.198  33.383  38.446  1.00  0.00    -0.374 OA
BRANCH  39  40
ATOM     40  C   UNL A   1      38.793  34.691  38.532  1.00  0.00     0.202 C 
BRANCH  40  41
ATOM     41  C   UNL A   1      40.311  34.827  38.210  1.00  0.00     0.261 C 
BRANCH  41  42
ATOM     42  O   UNL A   1      40.924  36.180  38.172  1.00  0.00    -0.460 OA
BRANCH  42  43
ATOM     43  C   UNL A   1      42.273  36.249  38.459  1.00  0.00     0.338 C 
ATOM     44  O   UNL A   1      42.715  35.903  39.549  1.00  0.00    -0.246 OA
BRANCH  43  45
ATOM     45  C   UNL A   1      43.247  36.679  37.333  1.00  0.00     0.060 A 
ATOM     46  C   UNL A   1      42.716  37.070  36.105  1.00  0.00     0.016 A 
ATOM     47  C   UNL A   1      44.637  36.426  37.295  1.00  0.00     0.016 A 
ATOM     48  C   UNL A   1      43.535  37.236  34.924  1.00  0.00     0.010 A 
ATOM     49  C   UNL A   1      45.462  36.530  36.061  1.00  0.00     0.010 A 
ATOM     50  C   UNL A   1      44.943  36.935  34.811  1.00  0.00    -0.014 A 
BRANCH  50  51
ATOM     51  C   UNL A   1      45.519  36.600  33.297  1.00  0.00     0.031 A 
ATOM     52  C   UNL A   1      46.624  37.599  33.163  1.00  0.00     0.074 A 
ATOM     53  C   UNL A   1      45.337  35.819  32.136  1.00  0.00     0.049 A 
ATOM     54  N   UNL A   1      46.412  38.871  33.365  1.00  0.00    -0.248 NA
ATOM     55  C   UNL A   1      48.034  37.202  33.203  1.00  0.00     0.031 C 
ATOM     56  C   UNL A   1      44.279  34.830  31.856  1.00  0.00     0.029 A 
ATOM     57  N   UNL A   1      46.074  35.707  30.889  1.00  0.00    -0.354 N 
ATOM     58  C   UNL A   1      47.631  39.479  33.209  1.00  0.00     0.074 A 
ATOM     59  C   UNL A   1      48.596  38.402  33.382  1.00  0.00     0.031 C 
ATOM     60  C   UNL A   1      44.486  34.159  30.679  1.00  0.00     0.029 A 
ATOM     61  C   UNL A   1      45.670  34.648  29.969  1.00  0.00     0.049 A 
ATOM     62  H   UNL A   1      46.814  36.320  30.675  1.00  0.00     0.167 HD
ATOM     63  C   UNL A   1      47.679  40.507  32.315  1.00  0.00     0.037 A 
ATOM     64  C   UNL A   1      46.172  34.235  28.721  1.00  0.00     0.037 A 
ATOM     65  C   UNL A   1      48.326  40.136  31.086  1.00  0.00     0.049 A 
ATOM     66  C   UNL A   1      46.920  35.374  28.170  1.00  0.00     0.074 A 
ATOM     67  C   UNL A   1      49.474  39.427  30.793  1.00  0.00     0.029 A 
ATOM     68  N   UNL A   1      47.535  40.096  29.956  1.00  0.00    -0.354 N 
ATOM     69  N   UNL A   1      46.320  36.391  27.638  1.00  0.00    -0.248 NA
ATOM     70  C   UNL A   1      48.376  35.377  28.061  1.00  0.00     0.031 C 
ATOM     71  C   UNL A   1      49.105  38.573  29.731  1.00  0.00     0.029 A 
ATOM     72  C   UNL A   1      47.909  39.019  29.183  1.00  0.00     0.049 A 
ATOM     73  H   UNL A   1      46.817  40.733  29.738  1.00  0.00     0.167 HD
ATOM     74  C   UNL A   1      47.284  37.345  27.609  1.00  0.00     0.074 A 
ATOM     75  C   UNL A   1      48.541  36.620  27.604  1.00  0.00     0.031 C 
ATOM     76  C   UNL A   1      46.968  38.516  28.212  1.00  0.00     0.037 A 
BRANCH  63  77
ATOM     77  C   UNL A   1      46.529  41.469  32.387  1.00  0.00     0.058 A 
ATOM     78  C   UNL A   1      46.684  42.660  33.101  1.00  0.00     0.135 A 
ATOM     79  C   UNL A   1      45.258  41.199  31.837  1.00  0.00     0.135 A 
ATOM     80  F   UNL A   1      47.883  42.990  33.611  1.00  0.00    -0.206 F 
ATOM     81  C   UNL A   1      45.614  43.526  33.306  1.00  0.00     0.059 A 
ATOM     82  C   UNL A   1      44.164  42.024  32.065  1.00  0.00     0.059 A 
ATOM     83  F   UNL A   1      45.073  40.124  31.051  1.00  0.00    -0.206 F 
ATOM     84  C   UNL A   1      44.353  43.186  32.808  1.00  0.00     0.060 A 
BRANCH  84  85
ATOM     85  S   UNL A   1      42.960  44.270  33.187  1.00  0.00     0.124 S 
ATOM     86  O   UNL A   1      43.556  45.598  33.055  1.00  0.00    -0.237 OA
ATOM     87  O   UNL A   1      42.010  43.907  32.140  1.00  0.00    -0.237 OA
ATOM     88  O   UNL A   1      42.592  43.897  34.549  1.00  0.00    -0.744 OA
ENDBRANCH  84  85
ENDBRANCH  63  77
BRANCH  64  89
ATOM     89  C   UNL A   1      46.139  33.112  27.600  1.00  0.00     0.058 A 
ATOM     90  C   UNL A   1      47.264  32.227  27.387  1.00  0.00     0.135 A 
ATOM     91  C   UNL A   1      44.956  32.607  27.038  1.00  0.00     0.135 A 
ATOM     92  F   UNL A   1      48.496  32.558  27.799  1.00  0.00    -0.206 F 
ATOM     93  C   UNL A   1      47.190  30.933  26.827  1.00  0.00     0.059 A 
ATOM     94  C   UNL A   1      44.864  31.313  26.434  1.00  0.00     0.059 A 
ATOM     95  F   UNL A   1      43.821  33.314  27.138  1.00  0.00    -0.206 F 
ATOM     96  C   UNL A   1      45.971  30.460  26.382  1.00  0.00     0.060 A 
BRANCH  96  97
ATOM     97  S   UNL A   1      45.840  28.707  25.886  1.00  0.00     0.124 S 
ATOM     98  O   UNL A   1      46.624  28.659  24.657  1.00  0.00    -0.237 OA
ATOM     99  O   UNL A   1      46.422  28.012  27.033  1.00  0.00    -0.237 OA
ATOM    100  O   UNL A   1      44.403  28.509  25.718  1.00  0.00    -0.744 OA
ENDBRANCH  96  97
ENDBRANCH  64  89
BRANCH  76 101
ATOM    101  C   UNL A   1      45.580  39.075  27.936  1.00  0.00     0.058 A 
ATOM    102  C   UNL A   1      44.357  38.656  28.516  1.00  0.00     0.135 A 
ATOM    103  C   UNL A   1      45.476  40.051  26.931  1.00  0.00     0.135 A 
ATOM    104  F   UNL A   1      44.316  37.832  29.574  1.00  0.00    -0.206 F 
ATOM    105  C   UNL A   1      43.117  39.086  28.037  1.00  0.00     0.059 A 
ATOM    106  C   UNL A   1      44.251  40.541  26.482  1.00  0.00     0.059 A 
ATOM    107  F   UNL A   1      46.589  40.542  26.362  1.00  0.00    -0.206 F 
ATOM    108  C   UNL A   1      43.073  40.017  27.006  1.00  0.00     0.060 A 
BRANCH 108 109
ATOM    109  S   UNL A   1      41.470  40.537  26.358  1.00  0.00     0.124 S 
ATOM    110  O   UNL A   1      41.859  41.483  25.316  1.00  0.00    -0.237 OA
ATOM    111  O   UNL A   1      40.892  39.284  25.883  1.00  0.00    -0.237 OA
ATOM    112  O   UNL A   1      40.814  41.133  27.518  1.00  0.00    -0.744 OA
ENDBRANCH 108 109
ENDBRANCH  76 101
ENDBRANCH  50  51
ENDBRANCH  43  45
ENDBRANCH  42  43
ENDBRANCH  41  42
ENDBRANCH  40  41
ENDBRANCH  39  40
ENDBRANCH   1  39
TORSDOF 26
ENDMDL
MODEL 2
REMARK VINA RESULT:      -7.4      5.078     14.080
REMARK SMILES Cc1c(CC(=O)N[C@@H](CCO)C(=O)OCCOCCOC(=O)c2ccc(-c3c4nc(c(-c5c(F)cc(S(=O)(=O)[O-])cc5F)c5ccc([nH]5)c(-c5c(F)cc(S(=O)(=O)[O-])cc5F)c5nc(c(-c6c(F)cc(S(=O)(=O)[O-])cc6F)c6ccc3[nH]6)C=C5)C=C4)cc2)cc(-c2ccc(S(C)(=O)=O)cc2)n1-c1ccc(F)cc1
REMARK SMILES IDX 16 1 15 2 14 3 12 4 13 5 8 6 7 7 5 8 6 9 4 11 3 12 1 13 2 14
REMARK SMILES IDX 101 15 89 16 90 17 102 18 103 19 108 20 104 21 107 22 105 23
REMARK SMILES IDX 106 24 91 25 92 26 100 27 93 28 99 29 94 30 95 31 96 32
REMARK SMILES IDX 97 33 98 34 9 35 10 36 11 37 17 39 18 40 19 41 20 42 21 43
REMARK SMILES IDX 22 44 23 45 24 46 88 47 25 48 87 49 26 50 27 51 28 52 81 53
REMARK SMILES IDX 29 54 86 55 80 56 82 57 30 58 85 59 79 60 78 61 31 63 65 64
REMARK SMILES IDX 44 65 64 66 45 67 48 68 63 69 83 70 46 71 47 72 62 74 84 75
REMARK SMILES IDX 49 76 32 77 33 78 42 79 34 80 35 81 41 82 43 83 36 84 37 85
REMARK SMILES IDX 38 86 39 87 40 88 66 89 67 90 76 91 68 92 69 93 75 94 77 95
REMARK SMILES IDX 70 96 71 97 72 98 73 99 74 100 50 101 51 102 60 103 52 104
REMARK SMILES IDX 53 105 59 106 61 107 54 108 55 109 56 110 57 111 58 112
REMARK H PARENT 7 10 11 38 82 62 48 73
REMARK Flexibility Score: inf
ROOT
ATOM      1  C   UNL A   1      48.437  39.587  29.729  1.00  0.00     0.202 C 
ENDROOT
BRANCH   1   2
ATOM      2  C   UNL A   1      47.964  41.047  29.629  1.00  0.00     0.261 C 
BRANCH   2   3
ATOM      3  O   UNL A   1      46.852  41.279  30.510  1.00  0.00    -0.462 OA
BRANCH   3   4
ATOM      4  C   UNL A   1      45.630  40.909  30.033  1.00  0.00     0.328 C 
ATOM      5  O   UNL A   1      45.034  39.882  30.337  1.00  0.00    -0.250 OA
BRANCH   4   6
ATOM      6  C   UNL A   1      45.122  41.885  28.959  1.00  0.00     0.194 C 
BRANCH   6   7
ATOM      7  N   UNL A   1      44.501  41.276  27.775  1.00  0.00    -0.342 N 
ATOM      8  C   UNL A   1      44.320  41.785  26.521  1.00  0.00     0.225 C 
ATOM      9  O   UNL A   1      43.785  41.058  25.680  1.00  0.00    -0.275 OA
ATOM     10  H   UNL A   1      44.164  40.360  27.906  1.00  0.00     0.164 HD
BRANCH   8  11
ATOM     11  C   UNL A   1      44.817  43.174  26.146  1.00  0.00     0.137 C 
BRANCH  11  12
ATOM     12  C   UNL A   1      45.281  43.277  24.726  1.00  0.00    -0.017 A 
ATOM     13  C   UNL A   1      43.100  44.016  23.543  1.00  0.00     0.065 C 
ATOM     14  C   UNL A   1      44.562  43.712  23.621  1.00  0.00     0.024 A 
ATOM     15  N   UNL A   1      45.434  43.795  22.540  1.00  0.00    -0.314 N 
ATOM     16  C   UNL A   1      46.582  42.949  24.267  1.00  0.00     0.033 A 
ATOM     17  C   UNL A   1      46.693  43.351  22.950  1.00  0.00     0.053 A 
BRANCH  15  18
ATOM     18  C   UNL A   1      45.132  44.305  21.245  1.00  0.00     0.046 A 
ATOM     19  C   UNL A   1      45.390  45.653  20.955  1.00  0.00     0.029 A 
ATOM     20  C   UNL A   1      44.499  43.486  20.301  1.00  0.00     0.029 A 
ATOM     21  C   UNL A   1      45.004  46.181  19.725  1.00  0.00     0.041 A 
ATOM     22  C   UNL A   1      44.103  44.028  19.077  1.00  0.00     0.041 A 
ATOM     23  C   UNL A   1      44.356  45.368  18.802  1.00  0.00     0.123 A 
ATOM     24  F   UNL A   1      43.955  45.889  17.635  1.00  0.00    -0.207 F 
ENDBRANCH  15  18
BRANCH  17  25
ATOM     25  C   UNL A   1      47.938  43.486  22.186  1.00  0.00    -0.001 A 
ATOM     26  C   UNL A   1      48.106  42.788  20.978  1.00  0.00     0.011 A 
ATOM     27  C   UNL A   1      48.947  44.353  22.621  1.00  0.00     0.011 A 
ATOM     28  C   UNL A   1      49.279  42.924  20.234  1.00  0.00     0.021 A 
ATOM     29  C   UNL A   1      50.125  44.493  21.883  1.00  0.00     0.021 A 
ATOM     30  C   UNL A   1      50.289  43.768  20.701  1.00  0.00     0.067 A 
BRANCH  30  31
ATOM     31  S   UNL A   1      51.770  43.944  19.734  1.00  0.00     0.175 S 
ATOM     32  C   UNL A   1      51.507  45.434  18.810  1.00  0.00     0.163 C 
ATOM     33  O   UNL A   1      52.859  44.154  20.645  1.00  0.00    -0.224 OA
ATOM     34  O   UNL A   1      51.795  42.843  18.769  1.00  0.00    -0.224 OA
ENDBRANCH  30  31
ENDBRANCH  17  25
ENDBRANCH  11  12
ENDBRANCH   8  11
ENDBRANCH   6   7
BRANCH   6  35
ATOM     35  C   UNL A   1      44.165  42.908  29.581  1.00  0.00     0.065 C 
BRANCH  35  36
ATOM     36  C   UNL A   1      44.856  44.090  30.261  1.00  0.00     0.159 C 
BRANCH  36  37
ATOM     37  O   UNL A   1      45.258  45.068  29.315  1.00  0.00    -0.396 OA
ATOM     38  H   UNL A   1      45.001  45.948  29.630  1.00  0.00     0.210 HD
ENDBRANCH  36  37
ENDBRANCH  35  36
ENDBRANCH   6  35
ENDBRANCH   4   6
ENDBRANCH   3   4
ENDBRANCH   2   3
ENDBRANCH   1   2
BRANCH   1  39
ATOM     39  O   UNL A   1      49.256  39.155  28.643  1.00  0.00    -0.374 OA
BRANCH  39  40
ATOM     40  C   UNL A   1      48.571  38.650  27.482  1.00  0.00     0.202 C 
BRANCH  40  41
ATOM     41  C   UNL A   1      47.029  38.453  27.570  1.00  0.00     0.261 C 
BRANCH  41  42
ATOM     42  O   UNL A   1      46.370  37.487  26.653  1.00  0.00    -0.460 OA
BRANCH  42  43
ATOM     43  C   UNL A   1      46.703  36.158  26.822  1.00  0.00     0.338 C 
ATOM     44  O   UNL A   1      47.533  35.609  26.105  1.00  0.00    -0.246 OA
BRANCH  43  45
ATOM     45  C   UNL A   1      46.081  35.385  28.012  1.00  0.00     0.060 A 
ATOM     46  C   UNL A   1      45.247  34.302  27.741  1.00  0.00     0.016 A 
ATOM     47  C   UNL A   1      46.006  35.836  29.349  1.00  0.00     0.016 A 
ATOM     48  C   UNL A   1      44.420  33.686  28.757  1.00  0.00     0.010 A 
ATOM     49  C   UNL A   1      45.102  35.245  30.372  1.00  0.00     0.010 A 
ATOM     50  C   UNL A   1      44.258  34.141  30.117  1.00  0.00    -0.014 A 
BRANCH  50  51
ATOM     51  C   UNL A   1      42.860  33.711  30.890  1.00  0.00     0.031 A 
ATOM     52  C   UNL A   1      43.378  32.876  32.016  1.00  0.00     0.074 A 
ATOM     53  C   UNL A   1      41.451  33.782  30.857  1.00  0.00     0.049 A 
ATOM     54  N   UNL A   1      44.177  31.867  31.796  1.00  0.00    -0.248 NA
ATOM     55  C   UNL A   1      43.365  33.351  33.403  1.00  0.00     0.031 C 
ATOM     56  C   UNL A   1      40.590  34.405  29.835  1.00  0.00     0.029 A 
ATOM     57  N   UNL A   1      40.412  33.309  31.756  1.00  0.00    -0.354 N 
ATOM     58  C   UNL A   1      44.488  31.365  33.033  1.00  0.00     0.074 A 
ATOM     59  C   UNL A   1      44.193  32.456  33.951  1.00  0.00     0.031 C 
ATOM     60  C   UNL A   1      39.266  34.404  30.191  1.00  0.00     0.029 A 
ATOM     61  C   UNL A   1      39.042  33.721  31.468  1.00  0.00     0.049 A 
ATOM     62  H   UNL A   1      40.624  32.735  32.527  1.00  0.00     0.167 HD
ATOM     63  C   UNL A   1      44.258  30.034  33.217  1.00  0.00     0.037 A 
ATOM     64  C   UNL A   1      37.822  33.488  32.130  1.00  0.00     0.037 A 
ATOM     65  C   UNL A   1      43.092  29.785  34.020  1.00  0.00     0.049 A 
ATOM     66  C   UNL A   1      38.018  32.292  32.961  1.00  0.00     0.074 A 
ATOM     67  C   UNL A   1      42.607  30.340  35.188  1.00  0.00     0.029 A 
ATOM     68  N   UNL A   1      42.020  29.185  33.390  1.00  0.00    -0.354 N 
ATOM     69  N   UNL A   1      38.017  31.101  32.453  1.00  0.00    -0.248 NA
ATOM     70  C   UNL A   1      38.087  32.352  34.418  1.00  0.00     0.031 C 
ATOM     71  C   UNL A   1      41.224  30.508  34.956  1.00  0.00     0.029 A 
ATOM     72  C   UNL A   1      40.853  29.750  33.852  1.00  0.00     0.049 A 
ATOM     73  H   UNL A   1      42.081  28.468  32.718  1.00  0.00     0.167 HD
ATOM     74  C   UNL A   1      38.586  30.344  33.425  1.00  0.00     0.074 A 
ATOM     75  C   UNL A   1      38.350  31.066  34.661  1.00  0.00     0.031 C 
ATOM     76  C   UNL A   1      39.664  29.617  33.046  1.00  0.00     0.037 A 
BRANCH  63  77
ATOM     77  C   UNL A   1      44.684  29.150  32.081  1.00  0.00     0.058 A 
ATOM     78  C   UNL A   1      43.902  29.109  30.923  1.00  0.00     0.135 A 
ATOM     79  C   UNL A   1      45.799  28.288  32.147  1.00  0.00     0.135 A 
ATOM     80  F   UNL A   1      42.854  29.939  30.787  1.00  0.00    -0.206 F 
ATOM     81  C   UNL A   1      44.181  28.216  29.893  1.00  0.00     0.059 A 
ATOM     82  C   UNL A   1      46.071  27.357  31.152  1.00  0.00     0.059 A 
ATOM     83  F   UNL A   1      46.649  28.356  33.185  1.00  0.00    -0.206 F 
ATOM     84  C   UNL A   1      45.250  27.326  30.028  1.00  0.00     0.060 A 
BRANCH  84  85
ATOM     85  S   UNL A   1      45.518  26.102  28.729  1.00  0.00     0.124 S 
ATOM     86  O   UNL A   1      45.261  26.877  27.516  1.00  0.00    -0.237 OA
ATOM     87  O   UNL A   1      46.913  25.737  28.951  1.00  0.00    -0.237 OA
ATOM     88  O   UNL A   1      44.527  25.071  29.016  1.00  0.00    -0.744 OA
ENDBRANCH  84  85
ENDBRANCH  63  77
BRANCH  64  89
ATOM     89  C   UNL A   1      36.289  33.884  32.235  1.00  0.00     0.058 A 
ATOM     90  C   UNL A   1      35.821  34.826  33.227  1.00  0.00     0.135 A 
ATOM     91  C   UNL A   1      35.369  33.720  31.187  1.00  0.00     0.135 A 
ATOM     92  F   UNL A   1      36.532  35.078  34.336  1.00  0.00    -0.206 F 
ATOM     93  C   UNL A   1      34.661  35.622  33.115  1.00  0.00     0.059 A 
ATOM     94  C   UNL A   1      34.169  34.490  31.069  1.00  0.00     0.059 A 
ATOM     95  F   UNL A   1      35.647  32.871  30.188  1.00  0.00    -0.206 F 
ATOM     96  C   UNL A   1      33.850  35.478  32.007  1.00  0.00     0.060 A 
BRANCH  96  97
ATOM     97  S   UNL A   1      32.491  36.674  31.753  1.00  0.00     0.124 S 
ATOM     98  O   UNL A   1      31.402  36.096  32.531  1.00  0.00    -0.237 OA
ATOM     99  O   UNL A   1      33.059  37.911  32.285  1.00  0.00    -0.237 OA
ATOM    100  O   UNL A   1      32.298  36.663  30.305  1.00  0.00    -0.744 OA
ENDBRANCH  96  97
ENDBRANCH  64  89
BRANCH  76 101
ATOM    101  C   UNL A   1      39.561  28.883  31.716  1.00  0.00     0.058 A 
ATOM    102  C   UNL A   1      39.031  27.589  31.492  1.00  0.00     0.135 A 
ATOM    103  C   UNL A   1      40.134  29.510  30.598  1.00  0.00     0.135 A 
ATOM    104  F   UNL A   1      38.338  26.929  32.432  1.00  0.00    -0.206 F 
ATOM    105  C   UNL A   1      39.179  26.921  30.272  1.00  0.00     0.059 A 
ATOM    106  C   UNL A   1      40.235  28.888  29.355  1.00  0.00     0.059 A 
ATOM    107  F   UNL A   1      40.616  30.759  30.709  1.00  0.00    -0.206 F 
ATOM    108  C   UNL A   1      39.800  27.574  29.213  1.00  0.00     0.060 A 
BRANCH 108 109
ATOM    109  S   UNL A   1      40.031  26.694  27.653  1.00  0.00     0.124 S 
ATOM    110  O   UNL A   1      41.329  26.057  27.857  1.00  0.00    -0.237 OA
ATOM    111  O   UNL A   1      38.887  25.789  27.621  1.00  0.00    -0.237 OA
ATOM    112  O   UNL A   1      40.019  27.762  26.659  1.00  0.00    -0.744 OA
ENDBRANCH 108 109
ENDBRANCH  76 101
ENDBRANCH  50  51
ENDBRANCH  43  45
ENDBRANCH  42  43
ENDBRANCH  41  42
ENDBRANCH  40  41
ENDBRANCH  39  40
ENDBRANCH   1  39
TORSDOF 26
ENDMDL
MODEL 3
REMARK VINA RESULT:      -7.1      6.333     10.842
REMARK SMILES Cc1c(CC(=O)N[C@@H](CCO)C(=O)OCCOCCOC(=O)c2ccc(-c3c4nc(c(-c5c(F)cc(S(=O)(=O)[O-])cc5F)c5ccc([nH]5)c(-c5c(F)cc(S(=O)(=O)[O-])cc5F)c5nc(c(-c6c(F)cc(S(=O)(=O)[O-])cc6F)c6ccc3[nH]6)C=C5)C=C4)cc2)cc(-c2ccc(S(C)(=O)=O)cc2)n1-c1ccc(F)cc1
REMARK SMILES IDX 16 1 15 2 14 3 12 4 13 5 8 6 7 7 5 8 6 9 4 11 3 12 1 13 2 14
REMARK SMILES IDX 101 15 89 16 90 17 102 18 103 19 108 20 104 21 107 22 105 23
REMARK SMILES IDX 106 24 91 25 92 26 100 27 93 28 99 29 94 30 95 31 96 32
REMARK SMILES IDX 97 33 98 34 9 35 10 36 11 37 17 39 18 40 19 41 20 42 21 43
REMARK SMILES IDX 22 44 23 45 24 46 88 47 25 48 87 49 26 50 27 51 28 52 81 53
REMARK SMILES IDX 29 54 86 55 80 56 82 57 30 58 85 59 79 60 78 61 31 63 65 64
REMARK SMILES IDX 44 65 64 66 45 67 48 68 63 69 83 70 46 71 47 72 62 74 84 75
REMARK SMILES IDX 49 76 32 77 33 78 42 79 34 80 35 81 41 82 43 83 36 84 37 85
REMARK SMILES IDX 38 86 39 87 40 88 66 89 67 90 76 91 68 92 69 93 75 94 77 95
REMARK SMILES IDX 70 96 71 97 72 98 73 99 74 100 50 101 51 102 60 103 52 104
REMARK SMILES IDX 53 105 59 106 61 107 54 108 55 109 56 110 57 111 58 112
REMARK H PARENT 7 10 11 38 82 62 48 73
REMARK Flexibility Score: inf
ROOT
ATOM      1  C   UNL A   1      49.605  23.537  38.974  1.00  0.00     0.202 C 
ENDROOT
BRANCH   1   2
ATOM      2  C   UNL A   1      48.694  22.559  38.214  1.00  0.00     0.261 C 
BRANCH   2   3
ATOM      3  O   UNL A   1      48.517  21.346  38.964  1.00  0.00    -0.462 OA
BRANCH   3   4
ATOM      4  C   UNL A   1      48.465  20.198  38.232  1.00  0.00     0.328 C 
ATOM      5  O   UNL A   1      49.408  19.704  37.623  1.00  0.00    -0.250 OA
BRANCH   4   6
ATOM      6  C   UNL A   1      47.035  19.639  38.157  1.00  0.00     0.194 C 
BRANCH   6   7
ATOM      7  N   UNL A   1      46.676  18.951  36.910  1.00  0.00    -0.342 N 
ATOM      8  C   UNL A   1      45.974  19.404  35.829  1.00  0.00     0.225 C 
ATOM      9  O   UNL A   1      45.822  18.631  34.880  1.00  0.00    -0.275 OA
ATOM     10  H   UNL A   1      46.989  18.019  36.843  1.00  0.00     0.164 HD
BRANCH   8  11
ATOM     11  C   UNL A   1      45.452  20.832  35.762  1.00  0.00     0.137 C 
BRANCH  11  12
ATOM     12  C   UNL A   1      46.466  21.813  35.262  1.00  0.00    -0.017 A 
ATOM     13  C   UNL A   1      45.099  24.011  35.311  1.00  0.00     0.065 C 
ATOM     14  C   UNL A   1      46.338  23.190  35.141  1.00  0.00     0.024 A 
ATOM     15  N   UNL A   1      47.578  23.714  34.788  1.00  0.00    -0.314 N 
ATOM     16  C   UNL A   1      47.776  21.484  34.829  1.00  0.00     0.033 A 
ATOM     17  C   UNL A   1      48.476  22.657  34.626  1.00  0.00     0.053 A 
BRANCH  15  18
ATOM     18  C   UNL A   1      47.913  25.093  34.674  1.00  0.00     0.046 A 
ATOM     19  C   UNL A   1      48.282  25.814  35.819  1.00  0.00     0.029 A 
ATOM     20  C   UNL A   1      47.787  25.742  33.438  1.00  0.00     0.029 A 
ATOM     21  C   UNL A   1      48.512  27.185  35.728  1.00  0.00     0.041 A 
ATOM     22  C   UNL A   1      48.006  27.118  33.360  1.00  0.00     0.041 A 
ATOM     23  C   UNL A   1      48.362  27.826  34.504  1.00  0.00     0.123 A 
ATOM     24  F   UNL A   1      48.551  29.150  34.428  1.00  0.00    -0.207 F 
ENDBRANCH  15  18
BRANCH  17  25
ATOM     25  C   UNL A   1      49.930  22.786  34.475  1.00  0.00    -0.001 A 
ATOM     26  C   UNL A   1      50.786  22.389  35.515  1.00  0.00     0.011 A 
ATOM     27  C   UNL A   1      50.480  23.253  33.276  1.00  0.00     0.011 A 
ATOM     28  C   UNL A   1      52.171  22.490  35.375  1.00  0.00     0.021 A 
ATOM     29  C   UNL A   1      51.865  23.359  33.128  1.00  0.00     0.021 A 
ATOM     30  C   UNL A   1      52.702  22.988  34.183  1.00  0.00     0.067 A 
BRANCH  30  31
ATOM     31  S   UNL A   1      54.467  23.096  34.013  1.00  0.00     0.175 S 
ATOM     32  C   UNL A   1      54.742  22.947  32.268  1.00  0.00     0.163 C 
ATOM     33  O   UNL A   1      54.863  24.410  34.431  1.00  0.00    -0.224 OA
ATOM     34  O   UNL A   1      55.041  21.901  34.637  1.00  0.00    -0.224 OA
ENDBRANCH  30  31
ENDBRANCH  17  25
ENDBRANCH  11  12
ENDBRANCH   8  11
ENDBRANCH   6   7
BRANCH   6  35
ATOM     35  C   UNL A   1      46.758  18.723  39.355  1.00  0.00     0.065 C 
BRANCH  35  36
ATOM     36  C   UNL A   1      46.105  19.421  40.548  1.00  0.00     0.159 C 
BRANCH  36  37
ATOM     37  O   UNL A   1      45.745  20.756  40.231  1.00  0.00    -0.396 OA
ATOM     38  H   UNL A   1      45.078  21.070  40.861  1.00  0.00     0.210 HD
ENDBRANCH  36  37
ENDBRANCH  35  36
ENDBRANCH   6  35
ENDBRANCH   4   6
ENDBRANCH   3   4
ENDBRANCH   2   3
ENDBRANCH   1   2
BRANCH   1  39
ATOM     39  O   UNL A   1      49.042  24.832  39.182  1.00  0.00    -0.374 OA
BRANCH  39  40
ATOM     40  C   UNL A   1      47.816  24.887  39.935  1.00  0.00     0.202 C 
BRANCH  40  41
ATOM     41  C   UNL A   1      46.567  25.522  39.256  1.00  0.00     0.261 C 
BRANCH  41  42
ATOM     42  O   UNL A   1      46.000  26.776  39.816  1.00  0.00    -0.460 OA
BRANCH  42  43
ATOM     43  C   UNL A   1      46.685  27.940  39.529  1.00  0.00     0.338 C 
ATOM     44  O   UNL A   1      47.803  28.154  39.983  1.00  0.00    -0.246 OA
BRANCH  43  45
ATOM     45  C   UNL A   1      46.055  28.940  38.527  1.00  0.00     0.060 A 
ATOM     46  C   UNL A   1      45.135  28.462  37.596  1.00  0.00     0.016 A 
ATOM     47  C   UNL A   1      46.534  30.237  38.235  1.00  0.00     0.016 A 
ATOM     48  C   UNL A   1      44.694  29.251  36.466  1.00  0.00     0.010 A 
ATOM     49  C   UNL A   1      46.131  31.016  37.033  1.00  0.00     0.010 A 
ATOM     50  C   UNL A   1      45.192  30.552  36.086  1.00  0.00    -0.014 A 
BRANCH  50  51
ATOM     51  C   UNL A   1      45.032  30.980  34.496  1.00  0.00     0.031 A 
ATOM     52  C   UNL A   1      44.636  32.418  34.605  1.00  0.00     0.074 A 
ATOM     53  C   UNL A   1      45.068  30.518  33.163  1.00  0.00     0.049 A 
ATOM     54  N   UNL A   1      43.623  32.784  35.343  1.00  0.00    -0.248 NA
ATOM     55  C   UNL A   1      45.554  33.503  34.249  1.00  0.00     0.031 C 
ATOM     56  C   UNL A   1      45.296  29.143  32.678  1.00  0.00     0.029 A 
ATOM     57  N   UNL A   1      44.916  31.178  31.879  1.00  0.00    -0.354 N 
ATOM     58  C   UNL A   1      43.576  34.151  35.253  1.00  0.00     0.074 A 
ATOM     59  C   UNL A   1      44.910  34.531  34.810  1.00  0.00     0.031 C 
ATOM     60  C   UNL A   1      45.399  29.078  31.313  1.00  0.00     0.029 A 
ATOM     61  C   UNL A   1      45.188  30.384  30.684  1.00  0.00     0.049 A 
ATOM     62  H   UNL A   1      44.641  32.121  31.817  1.00  0.00     0.167 HD
ATOM     63  C   UNL A   1      42.383  34.688  34.865  1.00  0.00     0.037 A 
ATOM     64  C   UNL A   1      45.177  30.701  29.313  1.00  0.00     0.037 A 
ATOM     65  C   UNL A   1      42.408  35.151  33.505  1.00  0.00     0.049 A 
ATOM     66  C   UNL A   1      44.337  31.898  29.164  1.00  0.00     0.074 A 
ATOM     67  C   UNL A   1      43.320  35.876  32.765  1.00  0.00     0.029 A 
ATOM     68  N   UNL A   1      41.615  34.471  32.603  1.00  0.00    -0.354 N 
ATOM     69  N   UNL A   1      43.045  31.833  29.202  1.00  0.00    -0.248 NA
ATOM     70  C   UNL A   1      44.891  33.207  28.830  1.00  0.00     0.031 C 
ATOM     71  C   UNL A   1      43.381  35.210  31.521  1.00  0.00     0.029 A 
ATOM     72  C   UNL A   1      42.288  34.360  31.407  1.00  0.00     0.049 A 
ATOM     73  H   UNL A   1      40.713  34.120  32.786  1.00  0.00     0.167 HD
ATOM     74  C   UNL A   1      42.672  33.121  29.410  1.00  0.00     0.074 A 
ATOM     75  C   UNL A   1      43.768  33.925  28.903  1.00  0.00     0.031 C 
ATOM     76  C   UNL A   1      41.873  33.333  30.482  1.00  0.00     0.037 A 
BRANCH  63  77
ATOM     77  C   UNL A   1      41.172  34.081  35.512  1.00  0.00     0.058 A 
ATOM     78  C   UNL A   1      40.539  34.772  36.549  1.00  0.00     0.135 A 
ATOM     79  C   UNL A   1      40.677  32.802  35.182  1.00  0.00     0.135 A 
ATOM     80  F   UNL A   1      40.940  36.012  36.878  1.00  0.00    -0.206 F 
ATOM     81  C   UNL A   1      39.493  34.200  37.266  1.00  0.00     0.059 A 
ATOM     82  C   UNL A   1      39.664  32.192  35.912  1.00  0.00     0.059 A 
ATOM     83  F   UNL A   1      41.173  32.133  34.127  1.00  0.00    -0.206 F 
ATOM     84  C   UNL A   1      39.080  32.901  36.958  1.00  0.00     0.060 A 
BRANCH  84  85
ATOM     85  S   UNL A   1      37.799  32.142  37.978  1.00  0.00     0.124 S 
ATOM     86  O   UNL A   1      36.651  33.013  37.732  1.00  0.00    -0.237 OA
ATOM     87  O   UNL A   1      37.707  30.809  37.394  1.00  0.00    -0.237 OA
ATOM     88  O   UNL A   1      38.343  32.218  39.330  1.00  0.00    -0.744 OA
ENDBRANCH  84  85
ENDBRANCH  63  77
BRANCH  64  89
ATOM     89  C   UNL A   1      45.565  30.218  27.852  1.00  0.00     0.058 A 
ATOM     90  C   UNL A   1      46.927  30.297  27.369  1.00  0.00     0.135 A 
ATOM     91  C   UNL A   1      44.786  29.330  27.093  1.00  0.00     0.135 A 
ATOM     92  F   UNL A   1      47.813  31.134  27.926  1.00  0.00    -0.206 F 
ATOM     93  C   UNL A   1      47.484  29.481  26.361  1.00  0.00     0.059 A 
ATOM     94  C   UNL A   1      45.321  28.518  26.043  1.00  0.00     0.059 A 
ATOM     95  F   UNL A   1      43.495  29.151  27.403  1.00  0.00    -0.206 F 
ATOM     96  C   UNL A   1      46.682  28.558  25.721  1.00  0.00     0.060 A 
BRANCH  96  97
ATOM     97  S   UNL A   1      47.464  27.348  24.597  1.00  0.00     0.124 S 
ATOM     98  O   UNL A   1      46.517  26.239  24.606  1.00  0.00    -0.237 OA
ATOM     99  O   UNL A   1      47.549  28.094  23.343  1.00  0.00    -0.237 OA
ATOM    100  O   UNL A   1      48.750  27.076  25.234  1.00  0.00    -0.744 OA
ENDBRANCH  96  97
ENDBRANCH  64  89
BRANCH  76 101
ATOM    101  C   UNL A   1      40.729  32.350  30.690  1.00  0.00     0.058 A 
ATOM    102  C   UNL A   1      40.808  31.054  31.257  1.00  0.00     0.135 A 
ATOM    103  C   UNL A   1      39.473  32.720  30.186  1.00  0.00     0.135 A 
ATOM    104  F   UNL A   1      41.907  30.620  31.893  1.00  0.00    -0.206 F 
ATOM    105  C   UNL A   1      39.743  30.150  31.205  1.00  0.00     0.059 A 
ATOM    106  C   UNL A   1      38.379  31.857  30.182  1.00  0.00     0.059 A 
ATOM    107  F   UNL A   1      39.296  33.950  29.677  1.00  0.00    -0.206 F 
ATOM    108  C   UNL A   1      38.536  30.555  30.648  1.00  0.00     0.060 A 
BRANCH 108 109
ATOM    109  S   UNL A   1      37.176  29.372  30.542  1.00  0.00     0.124 S 
ATOM    110  O   UNL A   1      36.679  29.606  29.189  1.00  0.00    -0.237 OA
ATOM    111  O   UNL A   1      37.845  28.092  30.751  1.00  0.00    -0.237 OA
ATOM    112  O   UNL A   1      36.276  29.794  31.610  1.00  0.00    -0.744 OA
ENDBRANCH 108 109
ENDBRANCH  76 101
ENDBRANCH  50  51
ENDBRANCH  43  45
ENDBRANCH  42  43
ENDBRANCH  41  42
ENDBRANCH  40  41
ENDBRANCH  39  40
ENDBRANCH   1  39
TORSDOF 26
ENDMDL
