MODEL 1
REMARK VINA RESULT:      -9.2      0.000      0.000
REMARK SMILES C[C@@H]1[C@@H](C(=O)OCCOCCOC(=O)c2ccc(-c3c4nc(c(-c5c(F)cc(S(=O)(=O)[O-])cc5F)c5ccc([nH]5)c(-c5c(F)cc(S(=O)(=O)[O-])cc5F)c5nc(c(-c6c(F)cc(S(=O)(=O)[O-])cc6F)c6ccc3[nH]6)C=C5)C=C4)cc2)CC[N@@H+]1CCCOCC(F)(F)F
REMARK SMILES IDX 7 1 6 2 4 3 5 4 3 5 1 6 2 7 83 8 81 9 82 10 84 12 85 13
REMARK SMILES IDX 86 14 87 15 88 16 89 17 90 18 91 19 92 20 8 21 9 22 10 23
REMARK SMILES IDX 11 24 12 25 13 26 14 27 15 28 16 29 80 30 17 31 79 32 18 33
REMARK SMILES IDX 19 34 20 35 73 36 21 37 78 38 72 39 74 40 22 41 77 42 71 43
REMARK SMILES IDX 70 44 23 46 57 47 36 48 56 49 37 50 40 51 55 52 75 53 38 54
REMARK SMILES IDX 39 55 54 57 76 58 41 59 24 60 25 61 34 62 26 63 27 64 33 65
REMARK SMILES IDX 35 66 28 67 29 68 30 69 31 70 32 71 58 72 59 73 68 74 60 75
REMARK SMILES IDX 61 76 67 77 69 78 62 79 63 80 64 81 65 82 66 83 42 84 43 85
REMARK SMILES IDX 52 86 44 87 45 88 51 89 53 90 46 91 47 92 48 93 49 94 50 95
REMARK H PARENT 83 11 74 45 40 56
REMARK Flexibility Score: inf
ROOT
ATOM      1  C   UNL A   1      38.980  22.077  26.058  1.00  0.00     0.261 C 
ENDROOT
BRANCH   1   2
ATOM      2  O   UNL A   1      38.041  22.053  24.977  1.00  0.00    -0.463 OA
BRANCH   2   3
ATOM      3  C   UNL A   1      36.798  21.572  25.267  1.00  0.00     0.315 C 
ATOM      4  O   UNL A   1      36.397  20.450  24.988  1.00  0.00    -0.252 OA
BRANCH   3   5
ATOM      5  C   UNL A   1      36.046  22.590  26.115  1.00  0.00     0.162 C 
ATOM      6  C   UNL A   1      33.979  22.619  27.560  1.00  0.00     0.076 C 
ATOM      7  C   UNL A   1      34.544  22.253  26.186  1.00  0.00     0.195 C 
ATOM      8  N   UNL A   1      33.987  23.005  25.063  1.00  0.00    -0.332 N 
ATOM      9  C   UNL A   1      36.057  23.949  25.432  1.00  0.00     0.083 C 
ATOM     10  C   UNL A   1      35.021  23.723  24.358  1.00  0.00     0.263 C 
ATOM     11  H   UNL A   1      33.586  22.290  24.455  1.00  0.00     0.348 HD
BRANCH   8  12
ATOM     12  C   UNL A   1      32.598  23.372  24.953  1.00  0.00     0.264 C 
BRANCH  12  13
ATOM     13  C   UNL A   1      31.687  22.505  24.067  1.00  0.00     0.090 C 
BRANCH  13  14
ATOM     14  C   UNL A   1      32.251  21.870  22.788  1.00  0.00     0.166 C 
BRANCH  14  15
ATOM     15  O   UNL A   1      32.094  20.452  22.704  1.00  0.00    -0.372 OA
BRANCH  15  16
ATOM     16  C   UNL A   1      32.435  19.678  23.864  1.00  0.00     0.275 C 
BRANCH  16  17
ATOM     17  C   UNL A   1      32.806  18.199  23.674  1.00  0.00     0.411 C 
ATOM     18  F   UNL A   1      32.209  17.379  24.565  1.00  0.00    -0.168 F 
ATOM     19  F   UNL A   1      32.415  17.790  22.439  1.00  0.00    -0.168 F 
ATOM     20  F   UNL A   1      34.138  18.002  23.760  1.00  0.00    -0.168 F 
ENDBRANCH  16  17
ENDBRANCH  15  16
ENDBRANCH  14  15
ENDBRANCH  13  14
ENDBRANCH  12  13
ENDBRANCH   8  12
ENDBRANCH   3   5
ENDBRANCH   2   3
ENDBRANCH   1   2
BRANCH   1  21
ATOM     21  C   UNL A   1      39.747  20.756  26.136  1.00  0.00     0.202 C 
BRANCH  21  22
ATOM     22  O   UNL A   1      41.172  20.833  26.071  1.00  0.00    -0.374 OA
BRANCH  22  23
ATOM     23  C   UNL A   1      41.833  21.741  26.949  1.00  0.00     0.202 C 
BRANCH  23  24
ATOM     24  C   UNL A   1      42.645  22.877  26.320  1.00  0.00     0.261 C 
BRANCH  24  25
ATOM     25  O   UNL A   1      41.829  24.003  25.963  1.00  0.00    -0.460 OA
BRANCH  25  26
ATOM     26  C   UNL A   1      42.494  25.181  25.955  1.00  0.00     0.338 C 
ATOM     27  O   UNL A   1      43.349  25.538  25.152  1.00  0.00    -0.246 OA
BRANCH  26  28
ATOM     28  C   UNL A   1      41.936  26.097  26.963  1.00  0.00     0.060 A 
ATOM     29  C   UNL A   1      42.466  27.391  27.011  1.00  0.00     0.016 A 
ATOM     30  C   UNL A   1      40.992  25.675  27.902  1.00  0.00     0.016 A 
ATOM     31  C   UNL A   1      42.110  28.250  28.046  1.00  0.00     0.010 A 
ATOM     32  C   UNL A   1      40.642  26.537  28.948  1.00  0.00     0.010 A 
ATOM     33  C   UNL A   1      41.238  27.807  29.047  1.00  0.00    -0.014 A 
BRANCH  33  34
ATOM     34  C   UNL A   1      41.104  28.609  30.287  1.00  0.00     0.031 A 
ATOM     35  C   UNL A   1      40.020  29.649  30.357  1.00  0.00     0.074 A 
ATOM     36  C   UNL A   1      41.895  28.372  31.346  1.00  0.00     0.049 A 
ATOM     37  N   UNL A   1      39.721  30.470  31.331  1.00  0.00    -0.248 NA
ATOM     38  C   UNL A   1      39.156  29.782  29.173  1.00  0.00     0.031 C 
ATOM     39  C   UNL A   1      42.947  27.358  31.405  1.00  0.00     0.029 A 
ATOM     40  N   UNL A   1      41.937  28.973  32.578  1.00  0.00    -0.354 N 
ATOM     41  C   UNL A   1      38.641  31.219  30.876  1.00  0.00     0.074 A 
ATOM     42  C   UNL A   1      38.356  30.777  29.529  1.00  0.00     0.031 C 
ATOM     43  C   UNL A   1      43.538  27.414  32.611  1.00  0.00     0.029 A 
ATOM     44  C   UNL A   1      42.927  28.484  33.396  1.00  0.00     0.049 A 
ATOM     45  H   UNL A   1      41.316  29.687  32.851  1.00  0.00     0.167 HD
ATOM     46  C   UNL A   1      37.946  32.181  31.526  1.00  0.00     0.037 A 
ATOM     47  C   UNL A   1      43.305  28.872  34.630  1.00  0.00     0.037 A 
ATOM     48  C   UNL A   1      38.235  32.612  32.868  1.00  0.00     0.049 A 
ATOM     49  C   UNL A   1      42.557  29.988  35.311  1.00  0.00     0.074 A 
ATOM     50  C   UNL A   1      37.583  33.570  33.625  1.00  0.00     0.029 A 
ATOM     51  N   UNL A   1      39.265  32.115  33.654  1.00  0.00    -0.354 N 
ATOM     52  N   UNL A   1      41.528  30.678  34.875  1.00  0.00    -0.248 NA
ATOM     53  C   UNL A   1      43.016  30.376  36.651  1.00  0.00     0.031 C 
ATOM     54  C   UNL A   1      38.248  33.684  34.851  1.00  0.00     0.029 A 
ATOM     55  C   UNL A   1      39.282  32.761  34.878  1.00  0.00     0.049 A 
ATOM     56  H   UNL A   1      39.892  31.405  33.381  1.00  0.00     0.167 HD
ATOM     57  C   UNL A   1      41.202  31.563  35.898  1.00  0.00     0.074 A 
ATOM     58  C   UNL A   1      42.136  31.314  36.977  1.00  0.00     0.031 C 
ATOM     59  C   UNL A   1      40.217  32.495  35.942  1.00  0.00     0.037 A 
BRANCH  46  60
ATOM     60  C   UNL A   1      36.821  32.851  30.786  1.00  0.00     0.058 A 
ATOM     61  C   UNL A   1      37.050  33.913  29.897  1.00  0.00     0.135 A 
ATOM     62  C   UNL A   1      35.499  32.406  30.949  1.00  0.00     0.135 A 
ATOM     63  F   UNL A   1      38.292  34.391  29.719  1.00  0.00    -0.206 F 
ATOM     64  C   UNL A   1      36.005  34.526  29.212  1.00  0.00     0.059 A 
ATOM     65  C   UNL A   1      34.442  32.987  30.256  1.00  0.00     0.059 A 
ATOM     66  F   UNL A   1      35.224  31.397  31.790  1.00  0.00    -0.206 F 
ATOM     67  C   UNL A   1      34.704  34.055  29.399  1.00  0.00     0.060 A 
BRANCH  67  68
ATOM     68  S   UNL A   1      33.358  34.857  28.500  1.00  0.00     0.124 S 
ATOM     69  O   UNL A   1      34.092  35.794  27.654  1.00  0.00    -0.237 OA
ATOM     70  O   UNL A   1      32.731  33.736  27.809  1.00  0.00    -0.237 OA
ATOM     71  O   UNL A   1      32.557  35.465  29.558  1.00  0.00    -0.744 OA
ENDBRANCH  67  68
ENDBRANCH  46  60
BRANCH  47  72
ATOM     72  C   UNL A   1      44.458  28.209  35.295  1.00  0.00     0.058 A 
ATOM     73  C   UNL A   1      44.268  27.147  36.191  1.00  0.00     0.135 A 
ATOM     74  C   UNL A   1      45.775  28.623  35.043  1.00  0.00     0.135 A 
ATOM     75  F   UNL A   1      43.026  26.720  36.472  1.00  0.00    -0.206 F 
ATOM     76  C   UNL A   1      45.340  26.528  36.825  1.00  0.00     0.059 A 
ATOM     77  C   UNL A   1      46.865  28.004  35.645  1.00  0.00     0.059 A 
ATOM     78  F   UNL A   1      46.012  29.628  34.185  1.00  0.00    -0.206 F 
ATOM     79  C   UNL A   1      46.637  26.962  36.543  1.00  0.00     0.060 A 
BRANCH  79  80
ATOM     80  S   UNL A   1      48.025  26.122  37.335  1.00  0.00     0.124 S 
ATOM     81  O   UNL A   1      47.993  26.699  38.674  1.00  0.00    -0.237 OA
ATOM     82  O   UNL A   1      47.632  24.719  37.235  1.00  0.00    -0.237 OA
ATOM     83  O   UNL A   1      49.165  26.506  36.509  1.00  0.00    -0.744 OA
ENDBRANCH  79  80
ENDBRANCH  47  72
BRANCH  59  84
ATOM     84  C   UNL A   1      40.075  33.291  37.210  1.00  0.00     0.058 A 
ATOM     85  C   UNL A   1      40.903  34.390  37.487  1.00  0.00     0.135 A 
ATOM     86  C   UNL A   1      39.060  32.985  38.131  1.00  0.00     0.135 A 
ATOM     87  F   UNL A   1      41.891  34.722  36.641  1.00  0.00    -0.206 F 
ATOM     88  C   UNL A   1      40.745  35.143  38.647  1.00  0.00     0.059 A 
ATOM     89  C   UNL A   1      38.867  33.740  39.284  1.00  0.00     0.059 A 
ATOM     90  F   UNL A   1      38.234  31.951  37.907  1.00  0.00    -0.206 F 
ATOM     91  C   UNL A   1      39.724  34.810  39.538  1.00  0.00     0.060 A 
BRANCH  91  92
ATOM     92  S   UNL A   1      39.509  35.815  41.023  1.00  0.00     0.124 S 
ATOM     93  O   UNL A   1      40.842  36.384  41.189  1.00  0.00    -0.237 OA
ATOM     94  O   UNL A   1      38.465  36.752  40.619  1.00  0.00    -0.237 OA
ATOM     95  O   UNL A   1      39.111  34.842  42.037  1.00  0.00    -0.744 OA
ENDBRANCH  91  92
ENDBRANCH  59  84
ENDBRANCH  33  34
ENDBRANCH  26  28
ENDBRANCH  25  26
ENDBRANCH  24  25
ENDBRANCH  23  24
ENDBRANCH  22  23
ENDBRANCH  21  22
ENDBRANCH   1  21
TORSDOF 23
ENDMDL
MODEL 2
REMARK VINA RESULT:      -9.1      2.689      8.888
REMARK SMILES C[C@@H]1[C@@H](C(=O)OCCOCCOC(=O)c2ccc(-c3c4nc(c(-c5c(F)cc(S(=O)(=O)[O-])cc5F)c5ccc([nH]5)c(-c5c(F)cc(S(=O)(=O)[O-])cc5F)c5nc(c(-c6c(F)cc(S(=O)(=O)[O-])cc6F)c6ccc3[nH]6)C=C5)C=C4)cc2)CC[N@@H+]1CCCOCC(F)(F)F
REMARK SMILES IDX 7 1 6 2 4 3 5 4 3 5 1 6 2 7 83 8 81 9 82 10 84 12 85 13
REMARK SMILES IDX 86 14 87 15 88 16 89 17 90 18 91 19 92 20 8 21 9 22 10 23
REMARK SMILES IDX 11 24 12 25 13 26 14 27 15 28 16 29 80 30 17 31 79 32 18 33
REMARK SMILES IDX 19 34 20 35 73 36 21 37 78 38 72 39 74 40 22 41 77 42 71 43
REMARK SMILES IDX 70 44 23 46 57 47 36 48 56 49 37 50 40 51 55 52 75 53 38 54
REMARK SMILES IDX 39 55 54 57 76 58 41 59 24 60 25 61 34 62 26 63 27 64 33 65
REMARK SMILES IDX 35 66 28 67 29 68 30 69 31 70 32 71 58 72 59 73 68 74 60 75
REMARK SMILES IDX 61 76 67 77 69 78 62 79 63 80 64 81 65 82 66 83 42 84 43 85
REMARK SMILES IDX 52 86 44 87 45 88 51 89 53 90 46 91 47 92 48 93 49 94 50 95
REMARK H PARENT 83 11 74 45 40 56
REMARK Flexibility Score: inf
ROOT
ATOM      1  C   UNL A   1      36.919  21.617  25.753  1.00  0.00     0.261 C 
ENDROOT
BRANCH   1   2
ATOM      2  O   UNL A   1      36.110  21.047  24.718  1.00  0.00    -0.463 OA
BRANCH   2   3
ATOM      3  C   UNL A   1      34.822  21.487  24.645  1.00  0.00     0.315 C 
ATOM      4  O   UNL A   1      33.836  20.765  24.602  1.00  0.00    -0.252 OA
BRANCH   3   5
ATOM      5  C   UNL A   1      34.797  23.005  24.773  1.00  0.00     0.162 C 
ATOM      6  C   UNL A   1      33.440  24.728  26.018  1.00  0.00     0.076 C 
ATOM      7  C   UNL A   1      33.377  23.512  25.091  1.00  0.00     0.195 C 
ATOM      8  N   UNL A   1      32.818  23.768  23.765  1.00  0.00    -0.332 N 
ATOM      9  C   UNL A   1      35.094  23.648  23.428  1.00  0.00     0.083 C 
ATOM     10  C   UNL A   1      33.771  23.447  22.730  1.00  0.00     0.263 C 
ATOM     11  H   UNL A   1      32.016  23.140  23.703  1.00  0.00     0.348 HD
BRANCH   8  12
ATOM     12  C   UNL A   1      31.700  24.644  23.520  1.00  0.00     0.264 C 
BRANCH  12  13
ATOM     13  C   UNL A   1      31.978  26.150  23.374  1.00  0.00     0.090 C 
BRANCH  13  14
ATOM     14  C   UNL A   1      30.958  27.046  22.656  1.00  0.00     0.166 C 
BRANCH  14  15
ATOM     15  O   UNL A   1      29.980  27.642  23.510  1.00  0.00    -0.372 OA
BRANCH  15  16
ATOM     16  C   UNL A   1      28.919  28.381  22.886  1.00  0.00     0.275 C 
BRANCH  16  17
ATOM     17  C   UNL A   1      29.244  29.751  22.271  1.00  0.00     0.411 C 
ATOM     18  F   UNL A   1      28.424  30.089  21.253  1.00  0.00    -0.168 F 
ATOM     19  F   UNL A   1      29.114  30.716  23.218  1.00  0.00    -0.168 F 
ATOM     20  F   UNL A   1      30.512  29.806  21.813  1.00  0.00    -0.168 F 
ENDBRANCH  16  17
ENDBRANCH  15  16
ENDBRANCH  14  15
ENDBRANCH  13  14
ENDBRANCH  12  13
ENDBRANCH   8  12
ENDBRANCH   3   5
ENDBRANCH   2   3
ENDBRANCH   1   2
BRANCH   1  21
ATOM     21  C   UNL A   1      38.399  21.565  25.373  1.00  0.00     0.202 C 
BRANCH  21  22
ATOM     22  O   UNL A   1      39.255  20.790  26.215  1.00  0.00    -0.374 OA
BRANCH  22  23
ATOM     23  C   UNL A   1      40.641  21.125  26.248  1.00  0.00     0.202 C 
BRANCH  23  24
ATOM     24  C   UNL A   1      41.112  22.105  27.325  1.00  0.00     0.261 C 
BRANCH  24  25
ATOM     25  O   UNL A   1      40.744  23.462  27.033  1.00  0.00    -0.460 OA
BRANCH  25  26
ATOM     26  C   UNL A   1      41.770  24.339  27.127  1.00  0.00     0.338 C 
ATOM     27  O   UNL A   1      42.863  24.255  26.578  1.00  0.00    -0.246 OA
BRANCH  26  28
ATOM     28  C   UNL A   1      41.352  25.546  27.858  1.00  0.00     0.060 A 
ATOM     29  C   UNL A   1      42.318  26.540  28.052  1.00  0.00     0.016 A 
ATOM     30  C   UNL A   1      40.081  25.663  28.427  1.00  0.00     0.016 A 
ATOM     31  C   UNL A   1      42.044  27.624  28.879  1.00  0.00     0.010 A 
ATOM     32  C   UNL A   1      39.811  26.748  29.267  1.00  0.00     0.010 A 
ATOM     33  C   UNL A   1      40.808  27.704  29.532  1.00  0.00    -0.014 A 
BRANCH  33  34
ATOM     34  C   UNL A   1      40.640  28.686  30.629  1.00  0.00     0.031 A 
ATOM     35  C   UNL A   1      41.541  28.588  31.830  1.00  0.00     0.074 A 
ATOM     36  C   UNL A   1      39.740  29.679  30.529  1.00  0.00     0.049 A 
ATOM     37  N   UNL A   1      41.570  29.328  32.907  1.00  0.00    -0.248 NA
ATOM     38  C   UNL A   1      42.545  27.511  31.813  1.00  0.00     0.031 C 
ATOM     39  C   UNL A   1      38.847  29.899  29.392  1.00  0.00     0.029 A 
ATOM     40  N   UNL A   1      39.429  30.690  31.402  1.00  0.00    -0.354 N 
ATOM     41  C   UNL A   1      42.588  28.805  33.698  1.00  0.00     0.074 A 
ATOM     42  C   UNL A   1      43.132  27.667  32.990  1.00  0.00     0.031 C 
ATOM     43  C   UNL A   1      38.080  30.974  29.642  1.00  0.00     0.029 A 
ATOM     44  C   UNL A   1      38.407  31.499  30.965  1.00  0.00     0.049 A 
ATOM     45  H   UNL A   1      39.893  30.824  32.260  1.00  0.00     0.167 HD
ATOM     46  C   UNL A   1      43.034  29.241  34.899  1.00  0.00     0.037 A 
ATOM     47  C   UNL A   1      37.797  32.533  31.577  1.00  0.00     0.037 A 
ATOM     48  C   UNL A   1      42.488  30.377  35.594  1.00  0.00     0.049 A 
ATOM     49  C   UNL A   1      38.268  32.962  32.942  1.00  0.00     0.074 A 
ATOM     50  C   UNL A   1      42.876  30.910  36.810  1.00  0.00     0.029 A 
ATOM     51  N   UNL A   1      41.434  31.153  35.135  1.00  0.00    -0.354 N 
ATOM     52  N   UNL A   1      39.242  32.469  33.672  1.00  0.00    -0.248 NA
ATOM     53  C   UNL A   1      37.562  34.090  33.565  1.00  0.00     0.031 C 
ATOM     54  C   UNL A   1      42.025  31.981  37.108  1.00  0.00     0.029 A 
ATOM     55  C   UNL A   1      41.141  32.147  36.054  1.00  0.00     0.049 A 
ATOM     56  H   UNL A   1      40.963  31.018  34.280  1.00  0.00     0.167 HD
ATOM     57  C   UNL A   1      39.281  33.242  34.828  1.00  0.00     0.074 A 
ATOM     58  C   UNL A   1      38.240  34.241  34.695  1.00  0.00     0.031 C 
ATOM     59  C   UNL A   1      40.104  33.137  35.900  1.00  0.00     0.037 A 
BRANCH  46  60
ATOM     60  C   UNL A   1      44.150  28.471  35.550  1.00  0.00     0.058 A 
ATOM     61  C   UNL A   1      43.899  27.416  36.442  1.00  0.00     0.135 A 
ATOM     62  C   UNL A   1      45.488  28.778  35.258  1.00  0.00     0.135 A 
ATOM     63  F   UNL A   1      42.638  27.095  36.772  1.00  0.00    -0.206 F 
ATOM     64  C   UNL A   1      44.936  26.706  37.038  1.00  0.00     0.059 A 
ATOM     65  C   UNL A   1      46.541  28.065  35.824  1.00  0.00     0.059 A 
ATOM     66  F   UNL A   1      45.785  29.781  34.417  1.00  0.00    -0.206 F 
ATOM     67  C   UNL A   1      46.255  27.039  36.723  1.00  0.00     0.060 A 
BRANCH  67  68
ATOM     68  S   UNL A   1      47.591  26.105  37.501  1.00  0.00     0.124 S 
ATOM     69  O   UNL A   1      48.768  26.796  36.983  1.00  0.00    -0.237 OA
ATOM     70  O   UNL A   1      47.319  26.295  38.922  1.00  0.00    -0.237 OA
ATOM     71  O   UNL A   1      47.391  24.748  37.003  1.00  0.00    -0.744 OA
ENDBRANCH  67  68
ENDBRANCH  46  60
BRANCH  47  72
ATOM     72  C   UNL A   1      36.664  33.226  30.907  1.00  0.00     0.058 A 
ATOM     73  C   UNL A   1      36.884  34.143  29.869  1.00  0.00     0.135 A 
ATOM     74  C   UNL A   1      35.337  32.980  31.292  1.00  0.00     0.135 A 
ATOM     75  F   UNL A   1      38.136  34.419  29.472  1.00  0.00    -0.206 F 
ATOM     76  C   UNL A   1      35.830  34.803  29.246  1.00  0.00     0.059 A 
ATOM     77  C   UNL A   1      34.265  33.608  30.667  1.00  0.00     0.059 A 
ATOM     78  F   UNL A   1      35.072  32.103  32.273  1.00  0.00    -0.206 F 
ATOM     79  C   UNL A   1      34.522  34.526  29.650  1.00  0.00     0.060 A 
BRANCH  79  80
ATOM     80  S   UNL A   1      33.159  35.353  28.802  1.00  0.00     0.124 S 
ATOM     81  O   UNL A   1      32.575  34.254  28.043  1.00  0.00    -0.237 OA
ATOM     82  O   UNL A   1      32.361  35.853  29.919  1.00  0.00    -0.237 OA
ATOM     83  O   UNL A   1      33.830  36.381  28.012  1.00  0.00    -0.744 OA
ENDBRANCH  79  80
ENDBRANCH  47  72
BRANCH  59  84
ATOM     84  C   UNL A   1      39.940  34.148  37.001  1.00  0.00     0.058 A 
ATOM     85  C   UNL A   1      40.531  35.419  36.929  1.00  0.00     0.135 A 
ATOM     86  C   UNL A   1      39.134  33.861  38.115  1.00  0.00     0.135 A 
ATOM     87  F   UNL A   1      41.314  35.742  35.888  1.00  0.00    -0.206 F 
ATOM     88  C   UNL A   1      40.348  36.362  37.936  1.00  0.00     0.059 A 
ATOM     89  C   UNL A   1      38.916  34.798  39.120  1.00  0.00     0.059 A 
ATOM     90  F   UNL A   1      38.536  32.664  38.226  1.00  0.00    -0.206 F 
ATOM     91  C   UNL A   1      39.538  36.042  39.026  1.00  0.00     0.060 A 
BRANCH  91  92
ATOM     92  S   UNL A   1      39.283  37.286  40.310  1.00  0.00     0.124 S 
ATOM     93  O   UNL A   1      38.573  38.326  39.574  1.00  0.00    -0.237 OA
ATOM     94  O   UNL A   1      38.494  36.558  41.299  1.00  0.00    -0.237 OA
ATOM     95  O   UNL A   1      40.640  37.627  40.728  1.00  0.00    -0.744 OA
ENDBRANCH  91  92
ENDBRANCH  59  84
ENDBRANCH  33  34
ENDBRANCH  26  28
ENDBRANCH  25  26
ENDBRANCH  24  25
ENDBRANCH  23  24
ENDBRANCH  22  23
ENDBRANCH  21  22
ENDBRANCH   1  21
TORSDOF 23
ENDMDL
MODEL 3
REMARK VINA RESULT:      -8.4      5.823     12.679
REMARK SMILES C[C@@H]1[C@@H](C(=O)OCCOCCOC(=O)c2ccc(-c3c4nc(c(-c5c(F)cc(S(=O)(=O)[O-])cc5F)c5ccc([nH]5)c(-c5c(F)cc(S(=O)(=O)[O-])cc5F)c5nc(c(-c6c(F)cc(S(=O)(=O)[O-])cc6F)c6ccc3[nH]6)C=C5)C=C4)cc2)CC[N@@H+]1CCCOCC(F)(F)F
REMARK SMILES IDX 7 1 6 2 4 3 5 4 3 5 1 6 2 7 83 8 81 9 82 10 84 12 85 13
REMARK SMILES IDX 86 14 87 15 88 16 89 17 90 18 91 19 92 20 8 21 9 22 10 23
REMARK SMILES IDX 11 24 12 25 13 26 14 27 15 28 16 29 80 30 17 31 79 32 18 33
REMARK SMILES IDX 19 34 20 35 73 36 21 37 78 38 72 39 74 40 22 41 77 42 71 43
REMARK SMILES IDX 70 44 23 46 57 47 36 48 56 49 37 50 40 51 55 52 75 53 38 54
REMARK SMILES IDX 39 55 54 57 76 58 41 59 24 60 25 61 34 62 26 63 27 64 33 65
REMARK SMILES IDX 35 66 28 67 29 68 30 69 31 70 32 71 58 72 59 73 68 74 60 75
REMARK SMILES IDX 61 76 67 77 69 78 62 79 63 80 64 81 65 82 66 83 42 84 43 85
REMARK SMILES IDX 52 86 44 87 45 88 51 89 53 90 46 91 47 92 48 93 49 94 50 95
REMARK H PARENT 83 11 74 45 40 56
REMARK Flexibility Score: inf
ROOT
ATOM      1  C   UNL A   1      40.167  32.870  34.395  1.00  0.00     0.261 C 
ENDROOT
BRANCH   1   2
ATOM      2  O   UNL A   1      39.642  31.780  35.161  1.00  0.00    -0.463 OA
BRANCH   2   3
ATOM      3  C   UNL A   1      39.908  30.528  34.692  1.00  0.00     0.315 C 
ATOM      4  O   UNL A   1      39.061  29.693  34.405  1.00  0.00    -0.252 OA
BRANCH   3   5
ATOM      5  C   UNL A   1      41.404  30.386  34.445  1.00  0.00     0.162 C 
ATOM      6  C   UNL A   1      42.894  29.332  32.704  1.00  0.00     0.076 C 
ATOM      7  C   UNL A   1      41.718  29.101  33.655  1.00  0.00     0.195 C 
ATOM      8  N   UNL A   1      41.955  28.118  34.711  1.00  0.00    -0.332 N 
ATOM      9  C   UNL A   1      42.133  30.162  35.761  1.00  0.00     0.083 C 
ATOM     10  C   UNL A   1      41.797  28.713  36.016  1.00  0.00     0.263 C 
ATOM     11  H   UNL A   1      41.234  27.410  34.564  1.00  0.00     0.348 HD
BRANCH   8  12
ATOM     12  C   UNL A   1      42.693  26.895  34.520  1.00  0.00     0.264 C 
BRANCH  12  13
ATOM     13  C   UNL A   1      44.202  26.907  34.818  1.00  0.00     0.090 C 
BRANCH  13  14
ATOM     14  C   UNL A   1      45.197  26.492  33.725  1.00  0.00     0.166 C 
BRANCH  14  15
ATOM     15  O   UNL A   1      45.696  25.159  33.845  1.00  0.00    -0.372 OA
BRANCH  15  16
ATOM     16  C   UNL A   1      44.922  24.106  33.252  1.00  0.00     0.275 C 
BRANCH  16  17
ATOM     17  C   UNL A   1      44.186  23.127  34.181  1.00  0.00     0.411 C 
ATOM     18  F   UNL A   1      42.896  22.928  33.834  1.00  0.00    -0.168 F 
ATOM     19  F   UNL A   1      44.796  21.914  34.136  1.00  0.00    -0.168 F 
ATOM     20  F   UNL A   1      44.208  23.541  35.464  1.00  0.00    -0.168 F 
ENDBRANCH  16  17
ENDBRANCH  15  16
ENDBRANCH  14  15
ENDBRANCH  13  14
ENDBRANCH  12  13
ENDBRANCH   8  12
ENDBRANCH   3   5
ENDBRANCH   2   3
ENDBRANCH   1   2
BRANCH   1  21
ATOM     21  C   UNL A   1      39.332  33.094  33.133  1.00  0.00     0.202 C 
BRANCH  21  22
ATOM     22  O   UNL A   1      38.099  33.799  33.291  1.00  0.00    -0.374 OA
BRANCH  22  23
ATOM     23  C   UNL A   1      37.486  34.343  32.125  1.00  0.00     0.202 C 
BRANCH  23  24
ATOM     24  C   UNL A   1      36.191  33.692  31.631  1.00  0.00     0.261 C 
BRANCH  24  25
ATOM     25  O   UNL A   1      36.250  32.258  31.663  1.00  0.00    -0.460 OA
BRANCH  25  26
ATOM     26  C   UNL A   1      36.015  31.673  30.466  1.00  0.00     0.338 C 
ATOM     27  O   UNL A   1      35.062  31.877  29.722  1.00  0.00    -0.246 OA
BRANCH  26  28
ATOM     28  C   UNL A   1      37.167  30.854  30.057  1.00  0.00     0.060 A 
ATOM     29  C   UNL A   1      37.952  30.304  31.077  1.00  0.00     0.016 A 
ATOM     30  C   UNL A   1      37.532  30.708  28.716  1.00  0.00     0.016 A 
ATOM     31  C   UNL A   1      39.149  29.666  30.766  1.00  0.00     0.010 A 
ATOM     32  C   UNL A   1      38.740  30.076  28.406  1.00  0.00     0.010 A 
ATOM     33  C   UNL A   1      39.574  29.598  29.434  1.00  0.00    -0.014 A 
BRANCH  33  34
ATOM     34  C   UNL A   1      40.970  29.192  29.147  1.00  0.00     0.031 A 
ATOM     35  C   UNL A   1      42.064  30.212  29.308  1.00  0.00     0.074 A 
ATOM     36  C   UNL A   1      41.260  27.926  28.806  1.00  0.00     0.049 A 
ATOM     37  N   UNL A   1      43.350  30.087  29.106  1.00  0.00    -0.248 NA
ATOM     38  C   UNL A   1      41.654  31.553  29.758  1.00  0.00     0.031 C 
ATOM     39  C   UNL A   1      40.286  26.844  28.665  1.00  0.00     0.029 A 
ATOM     40  N   UNL A   1      42.463  27.336  28.513  1.00  0.00    -0.354 N 
ATOM     41  C   UNL A   1      43.901  31.331  29.399  1.00  0.00     0.074 A 
ATOM     42  C   UNL A   1      42.807  32.204  29.762  1.00  0.00     0.031 C 
ATOM     43  C   UNL A   1      40.931  25.722  28.303  1.00  0.00     0.029 A 
ATOM     44  C   UNL A   1      42.356  26.013  28.158  1.00  0.00     0.049 A 
ATOM     45  H   UNL A   1      43.323  27.815  28.553  1.00  0.00     0.167 HD
ATOM     46  C   UNL A   1      45.201  31.705  29.375  1.00  0.00     0.037 A 
ATOM     47  C   UNL A   1      43.301  25.144  27.747  1.00  0.00     0.037 A 
ATOM     48  C   UNL A   1      46.283  30.827  29.015  1.00  0.00     0.049 A 
ATOM     49  C   UNL A   1      44.734  25.601  27.668  1.00  0.00     0.074 A 
ATOM     50  C   UNL A   1      47.638  31.103  28.970  1.00  0.00     0.029 A 
ATOM     51  N   UNL A   1      46.133  29.502  28.632  1.00  0.00    -0.354 N 
ATOM     52  N   UNL A   1      45.244  26.775  27.961  1.00  0.00    -0.248 NA
ATOM     53  C   UNL A   1      45.721  24.616  27.205  1.00  0.00     0.031 C 
ATOM     54  C   UNL A   1      48.303  29.958  28.516  1.00  0.00     0.029 A 
ATOM     55  C   UNL A   1      47.367  28.953  28.327  1.00  0.00     0.049 A 
ATOM     56  H   UNL A   1      45.273  29.022  28.584  1.00  0.00     0.167 HD
ATOM     57  C   UNL A   1      46.613  26.661  27.744  1.00  0.00     0.074 A 
ATOM     58  C   UNL A   1      46.853  25.301  27.304  1.00  0.00     0.031 C 
ATOM     59  C   UNL A   1      47.585  27.595  27.897  1.00  0.00     0.037 A 
BRANCH  46  60
ATOM     60  C   UNL A   1      45.523  33.132  29.723  1.00  0.00     0.058 A 
ATOM     61  C   UNL A   1      45.777  33.533  31.044  1.00  0.00     0.135 A 
ATOM     62  C   UNL A   1      45.602  34.108  28.715  1.00  0.00     0.135 A 
ATOM     63  F   UNL A   1      45.694  32.645  32.048  1.00  0.00    -0.206 F 
ATOM     64  C   UNL A   1      46.077  34.854  31.358  1.00  0.00     0.059 A 
ATOM     65  C   UNL A   1      45.926  35.430  29.003  1.00  0.00     0.059 A 
ATOM     66  F   UNL A   1      45.364  33.780  27.436  1.00  0.00    -0.206 F 
ATOM     67  C   UNL A   1      46.148  35.796  30.329  1.00  0.00     0.060 A 
BRANCH  67  68
ATOM     68  S   UNL A   1      46.544  37.508  30.752  1.00  0.00     0.124 S 
ATOM     69  O   UNL A   1      47.630  37.793  29.819  1.00  0.00    -0.237 OA
ATOM     70  O   UNL A   1      45.285  38.195  30.487  1.00  0.00    -0.237 OA
ATOM     71  O   UNL A   1      46.930  37.430  32.157  1.00  0.00    -0.744 OA
ENDBRANCH  67  68
ENDBRANCH  46  60
BRANCH  47  72
ATOM     72  C   UNL A   1      42.919  23.759  27.366  1.00  0.00     0.058 A 
ATOM     73  C   UNL A   1      42.824  22.740  28.326  1.00  0.00     0.135 A 
ATOM     74  C   UNL A   1      42.636  23.427  26.032  1.00  0.00     0.135 A 
ATOM     75  F   UNL A   1      43.093  23.006  29.614  1.00  0.00    -0.206 F 
ATOM     76  C   UNL A   1      42.477  21.440  27.976  1.00  0.00     0.059 A 
ATOM     77  C   UNL A   1      42.263  22.140  25.660  1.00  0.00     0.059 A 
ATOM     78  F   UNL A   1      42.701  24.367  25.076  1.00  0.00    -0.206 F 
ATOM     79  C   UNL A   1      42.196  21.150  26.639  1.00  0.00     0.060 A 
BRANCH  79  80
ATOM     80  S   UNL A   1      41.701  19.469  26.202  1.00  0.00     0.124 S 
ATOM     81  O   UNL A   1      42.613  19.170  25.104  1.00  0.00    -0.237 OA
ATOM     82  O   UNL A   1      41.941  18.744  27.447  1.00  0.00    -0.237 OA
ATOM     83  O   UNL A   1      40.296  19.618  25.834  1.00  0.00    -0.744 OA
ENDBRANCH  79  80
ENDBRANCH  47  72
BRANCH  59  84
ATOM     84  C   UNL A   1      49.002  27.171  27.621  1.00  0.00     0.058 A 
ATOM     85  C   UNL A   1      49.588  27.336  26.357  1.00  0.00     0.135 A 
ATOM     86  C   UNL A   1      49.798  26.646  28.652  1.00  0.00     0.135 A 
ATOM     87  F   UNL A   1      48.868  27.829  25.337  1.00  0.00    -0.206 F 
ATOM     88  C   UNL A   1      50.909  26.971  26.117  1.00  0.00     0.059 A 
ATOM     89  C   UNL A   1      51.130  26.300  28.441  1.00  0.00     0.059 A 
ATOM     90  F   UNL A   1      49.289  26.480  29.883  1.00  0.00    -0.206 F 
ATOM     91  C   UNL A   1      51.672  26.455  27.166  1.00  0.00     0.060 A 
BRANCH  91  92
ATOM     92  S   UNL A   1      53.395  26.016  26.850  1.00  0.00     0.124 S 
ATOM     93  O   UNL A   1      53.259  24.678  26.287  1.00  0.00    -0.237 OA
ATOM     94  O   UNL A   1      53.817  27.057  25.918  1.00  0.00    -0.237 OA
ATOM     95  O   UNL A   1      54.010  26.082  28.173  1.00  0.00    -0.744 OA
ENDBRANCH  91  92
ENDBRANCH  59  84
ENDBRANCH  33  34
ENDBRANCH  26  28
ENDBRANCH  25  26
ENDBRANCH  24  25
ENDBRANCH  23  24
ENDBRANCH  22  23
ENDBRANCH  21  22
ENDBRANCH   1  21
TORSDOF 23
ENDMDL
