MODEL 1
REMARK VINA RESULT:     -12.7      0.000      0.000
REMARK SMILES O=C(OCCOCCOC(=O)c1nn(Cc2ccc(F)cc2)c2c1CN(C(=O)[C@H]1CC1(F)F)CC2)c1ccc(-c2c3nc(c(-c4c(F)cc(S(=O)(=O)[O-])cc4F)c4ccc([nH]4)c(-c4c(F)cc(S(=O)(=O)[O-])cc4F)c4nc(c(-c5c(F)cc(S(=O)(=O)[O-])cc5F)c5ccc2[nH]5)C=C4)C=C3)cc1
REMARK SMILES IDX 5 1 4 2 3 3 2 4 1 5 36 6 37 7 101 8 38 9 100 10 39 11 40 12
REMARK SMILES IDX 41 13 94 14 42 15 99 16 93 17 95 18 43 19 98 20 92 21 91 22
REMARK SMILES IDX 44 24 78 25 57 26 77 27 58 28 61 29 76 30 96 31 59 32 60 33
REMARK SMILES IDX 75 35 97 36 62 37 45 38 46 39 55 40 47 41 48 42 54 43 56 44
REMARK SMILES IDX 49 45 50 46 51 47 52 48 53 49 79 50 80 51 89 52 81 53 82 54
REMARK SMILES IDX 88 55 90 56 83 57 84 58 85 59 86 60 87 61 63 62 64 63 73 64
REMARK SMILES IDX 65 65 66 66 72 67 74 68 67 69 68 70 69 71 70 72 71 73 6 74
REMARK SMILES IDX 7 75 8 76 9 77 10 78 11 79 12 80 13 81 24 82 14 83 23 84
REMARK SMILES IDX 25 85 35 86 26 87 34 88 15 89 16 90 17 91 22 92 18 93 21 94
REMARK SMILES IDX 19 95 20 96 27 97 28 98 29 99 30 100 31 101 32 102 33 103
REMARK H PARENT 95 23 61 34
REMARK Flexibility Score: inf
ROOT
ATOM      1  C   UNL A   1      41.451  20.003  26.835  1.00  0.00     0.202 C 
ENDROOT
BRANCH   1   2
ATOM      2  C   UNL A   1      42.606  19.243  26.190  1.00  0.00     0.261 C 
BRANCH   2   3
ATOM      3  O   UNL A   1      43.108  19.896  25.013  1.00  0.00    -0.460 OA
BRANCH   3   4
ATOM      4  C   UNL A   1      44.248  20.624  24.943  1.00  0.00     0.338 C 
ATOM      5  O   UNL A   1      45.179  20.244  24.236  1.00  0.00    -0.246 OA
BRANCH   4   6
ATOM      6  C   UNL A   1      44.260  22.009  25.464  1.00  0.00     0.060 A 
ATOM      7  C   UNL A   1      45.150  22.512  26.411  1.00  0.00     0.016 A 
ATOM      8  C   UNL A   1      43.217  22.826  24.997  1.00  0.00     0.016 A 
ATOM      9  C   UNL A   1      44.840  23.678  27.085  1.00  0.00     0.010 A 
ATOM     10  C   UNL A   1      42.951  24.035  25.608  1.00  0.00     0.010 A 
ATOM     11  C   UNL A   1      43.708  24.406  26.712  1.00  0.00    -0.014 A 
BRANCH  11  12
ATOM     12  C   UNL A   1      43.460  25.665  27.392  1.00  0.00     0.031 A 
ATOM     13  C   UNL A   1      44.518  26.679  27.128  1.00  0.00     0.074 A 
ATOM     14  C   UNL A   1      42.331  25.909  28.086  1.00  0.00     0.049 A 
ATOM     15  N   UNL A   1      45.341  27.206  27.973  1.00  0.00    -0.248 NA
ATOM     16  C   UNL A   1      44.828  26.996  25.721  1.00  0.00     0.031 C 
ATOM     17  C   UNL A   1      41.128  25.077  28.188  1.00  0.00     0.029 A 
ATOM     18  N   UNL A   1      41.980  27.020  28.786  1.00  0.00    -0.354 N 
ATOM     19  C   UNL A   1      46.118  28.099  27.239  1.00  0.00     0.074 A 
ATOM     20  C   UNL A   1      45.889  27.791  25.852  1.00  0.00     0.031 C 
ATOM     21  C   UNL A   1      40.112  25.817  28.689  1.00  0.00     0.029 A 
ATOM     22  C   UNL A   1      40.623  27.120  29.077  1.00  0.00     0.049 A 
ATOM     23  H   UNL A   1      42.635  27.701  29.065  1.00  0.00     0.167 HD
ATOM     24  C   UNL A   1      46.703  29.174  27.831  1.00  0.00     0.037 A 
ATOM     25  C   UNL A   1      39.977  28.224  29.540  1.00  0.00     0.037 A 
ATOM     26  C   UNL A   1      46.798  28.991  29.255  1.00  0.00     0.049 A 
ATOM     27  C   UNL A   1      41.017  29.108  30.134  1.00  0.00     0.074 A 
ATOM     28  C   UNL A   1      47.434  28.071  30.066  1.00  0.00     0.029 A 
ATOM     29  N   UNL A   1      45.847  29.594  30.040  1.00  0.00    -0.354 N 
ATOM     30  N   UNL A   1      41.704  28.804  31.202  1.00  0.00    -0.248 NA
ATOM     31  C   UNL A   1      41.626  30.103  29.262  1.00  0.00     0.031 C 
ATOM     32  C   UNL A   1      46.520  27.827  31.130  1.00  0.00     0.029 A 
ATOM     33  C   UNL A   1      45.420  28.668  30.958  1.00  0.00     0.049 A 
ATOM     34  H   UNL A   1      45.529  30.522  29.961  1.00  0.00     0.167 HD
ATOM     35  C   UNL A   1      42.997  29.227  30.925  1.00  0.00     0.074 A 
ATOM     36  C   UNL A   1      42.873  30.078  29.742  1.00  0.00     0.031 C 
ATOM     37  C   UNL A   1      44.079  28.625  31.500  1.00  0.00     0.037 A 
BRANCH  24  38
ATOM     38  C   UNL A   1      46.847  30.524  27.170  1.00  0.00     0.058 A 
ATOM     39  C   UNL A   1      45.752  31.332  26.786  1.00  0.00     0.135 A 
ATOM     40  C   UNL A   1      48.103  31.166  27.167  1.00  0.00     0.135 A 
ATOM     41  F   UNL A   1      44.488  30.898  26.831  1.00  0.00    -0.206 F 
ATOM     42  C   UNL A   1      45.888  32.666  26.427  1.00  0.00     0.059 A 
ATOM     43  C   UNL A   1      48.254  32.521  26.861  1.00  0.00     0.059 A 
ATOM     44  F   UNL A   1      49.210  30.502  27.534  1.00  0.00    -0.206 F 
ATOM     45  C   UNL A   1      47.137  33.261  26.495  1.00  0.00     0.060 A 
BRANCH  45  46
ATOM     46  S   UNL A   1      47.239  35.029  26.169  1.00  0.00     0.124 S 
ATOM     47  O   UNL A   1      47.864  35.514  27.396  1.00  0.00    -0.237 OA
ATOM     48  O   UNL A   1      48.074  35.067  24.972  1.00  0.00    -0.237 OA
ATOM     49  O   UNL A   1      45.846  35.417  25.975  1.00  0.00    -0.744 OA
ENDBRANCH  45  46
ENDBRANCH  24  38
BRANCH  25  50
ATOM     50  C   UNL A   1      38.637  28.746  29.137  1.00  0.00     0.058 A 
ATOM     51  C   UNL A   1      38.427  29.360  27.887  1.00  0.00     0.135 A 
ATOM     52  C   UNL A   1      37.616  28.928  30.092  1.00  0.00     0.135 A 
ATOM     53  F   UNL A   1      39.347  29.286  26.914  1.00  0.00    -0.206 F 
ATOM     54  C   UNL A   1      37.314  30.157  27.620  1.00  0.00     0.059 A 
ATOM     55  C   UNL A   1      36.491  29.728  29.848  1.00  0.00     0.059 A 
ATOM     56  F   UNL A   1      37.733  28.387  31.314  1.00  0.00    -0.206 F 
ATOM     57  C   UNL A   1      36.368  30.367  28.618  1.00  0.00     0.060 A 
BRANCH  57  58
ATOM     58  S   UNL A   1      35.045  31.556  28.294  1.00  0.00     0.124 S 
ATOM     59  O   UNL A   1      34.087  30.742  27.552  1.00  0.00    -0.237 OA
ATOM     60  O   UNL A   1      34.638  31.934  29.643  1.00  0.00    -0.237 OA
ATOM     61  O   UNL A   1      35.707  32.605  27.524  1.00  0.00    -0.744 OA
ENDBRANCH  57  58
ENDBRANCH  25  50
BRANCH  37  62
ATOM     62  C   UNL A   1      43.857  27.681  32.655  1.00  0.00     0.058 A 
ATOM     63  C   UNL A   1      43.840  28.234  33.945  1.00  0.00     0.135 A 
ATOM     64  C   UNL A   1      43.848  26.277  32.559  1.00  0.00     0.135 A 
ATOM     65  F   UNL A   1      43.900  29.567  34.106  1.00  0.00    -0.206 F 
ATOM     66  C   UNL A   1      43.834  27.443  35.087  1.00  0.00     0.059 A 
ATOM     67  C   UNL A   1      43.803  25.461  33.696  1.00  0.00     0.059 A 
ATOM     68  F   UNL A   1      43.954  25.665  31.372  1.00  0.00    -0.206 F 
ATOM     69  C   UNL A   1      43.814  26.055  34.956  1.00  0.00     0.060 A 
BRANCH  69  70
ATOM     70  S   UNL A   1      43.831  25.066  36.465  1.00  0.00     0.124 S 
ATOM     71  O   UNL A   1      42.702  25.622  37.205  1.00  0.00    -0.237 OA
ATOM     72  O   UNL A   1      43.641  23.712  35.950  1.00  0.00    -0.237 OA
ATOM     73  O   UNL A   1      45.145  25.332  37.043  1.00  0.00    -0.744 OA
ENDBRANCH  69  70
ENDBRANCH  37  62
ENDBRANCH  11  12
ENDBRANCH   4   6
ENDBRANCH   3   4
ENDBRANCH   2   3
ENDBRANCH   1   2
BRANCH   1  74
ATOM     74  O   UNL A   1      40.222  20.060  26.119  1.00  0.00    -0.374 OA
BRANCH  74  75
ATOM     75  C   UNL A   1      39.538  21.319  26.132  1.00  0.00     0.202 C 
BRANCH  75  76
ATOM     76  C   UNL A   1      38.275  21.476  25.272  1.00  0.00     0.261 C 
BRANCH  76  77
ATOM     77  O   UNL A   1      37.114  21.857  26.027  1.00  0.00    -0.458 OA
BRANCH  77  78
ATOM     78  C   UNL A   1      36.783  23.187  25.986  1.00  0.00     0.359 C 
ATOM     79  O   UNL A   1      37.517  24.095  26.325  1.00  0.00    -0.244 OA
BRANCH  78  80
ATOM     80  C   UNL A   1      35.484  23.411  25.330  1.00  0.00     0.175 A 
ATOM     81  N   UNL A   1      35.218  24.531  24.629  1.00  0.00    -0.165 NA
ATOM     82  C   UNL A   1      34.364  22.528  25.313  1.00  0.00     0.028 A 
ATOM     83  N   UNL A   1      33.971  24.353  24.142  1.00  0.00    -0.264 N 
ATOM     84  C   UNL A   1      33.421  23.171  24.538  1.00  0.00     0.046 A 
ATOM     85  C   UNL A   1      34.137  21.199  25.962  1.00  0.00     0.159 C 
ATOM     86  C   UNL A   1      32.095  22.604  24.176  1.00  0.00     0.078 C 
ATOM     87  N   UNL A   1      32.928  20.584  25.378  1.00  0.00    -0.337 N 
ATOM     88  C   UNL A   1      31.766  21.473  25.170  1.00  0.00     0.126 C 
BRANCH  83  89
ATOM     89  C   UNL A   1      33.453  25.286  23.151  1.00  0.00     0.180 C 
BRANCH  89  90
ATOM     90  C   UNL A   1      32.906  26.555  23.755  1.00  0.00    -0.026 A 
ATOM     91  C   UNL A   1      33.719  27.698  23.867  1.00  0.00     0.008 A 
ATOM     92  C   UNL A   1      31.565  26.633  24.166  1.00  0.00     0.008 A 
ATOM     93  C   UNL A   1      33.198  28.896  24.357  1.00  0.00     0.039 A 
ATOM     94  C   UNL A   1      31.046  27.834  24.653  1.00  0.00     0.039 A 
ATOM     95  C   UNL A   1      31.863  28.954  24.738  1.00  0.00     0.123 A 
ATOM     96  F   UNL A   1      31.355  30.109  25.185  1.00  0.00    -0.207 F 
ENDBRANCH  89  90
ENDBRANCH  83  89
BRANCH  87  97
ATOM     97  C   UNL A   1      32.939  19.219  25.120  1.00  0.00     0.232 C 
ATOM     98  O   UNL A   1      32.174  18.424  25.650  1.00  0.00    -0.274 OA
BRANCH  97  99
ATOM     99  C   UNL A   1      33.928  18.731  24.137  1.00  0.00     0.154 C 
ATOM    100  C   UNL A   1      35.037  17.794  24.594  1.00  0.00     0.097 C 
ATOM    101  C   UNL A   1      33.944  17.311  23.717  1.00  0.00     0.260 C 
ATOM    102  F   UNL A   1      33.085  16.356  24.204  1.00  0.00    -0.206 F 
ATOM    103  F   UNL A   1      34.255  16.957  22.423  1.00  0.00    -0.206 F 
ENDBRANCH  97  99
ENDBRANCH  87  97
ENDBRANCH  78  80
ENDBRANCH  77  78
ENDBRANCH  76  77
ENDBRANCH  75  76
ENDBRANCH  74  75
ENDBRANCH   1  74
TORSDOF 21
ENDMDL
MODEL 2
REMARK VINA RESULT:     -12.4      1.104      4.183
REMARK SMILES O=C(OCCOCCOC(=O)c1nn(Cc2ccc(F)cc2)c2c1CN(C(=O)[C@H]1CC1(F)F)CC2)c1ccc(-c2c3nc(c(-c4c(F)cc(S(=O)(=O)[O-])cc4F)c4ccc([nH]4)c(-c4c(F)cc(S(=O)(=O)[O-])cc4F)c4nc(c(-c5c(F)cc(S(=O)(=O)[O-])cc5F)c5ccc2[nH]5)C=C4)C=C3)cc1
REMARK SMILES IDX 5 1 4 2 3 3 2 4 1 5 36 6 37 7 101 8 38 9 100 10 39 11 40 12
REMARK SMILES IDX 41 13 94 14 42 15 99 16 93 17 95 18 43 19 98 20 92 21 91 22
REMARK SMILES IDX 44 24 78 25 57 26 77 27 58 28 61 29 76 30 96 31 59 32 60 33
REMARK SMILES IDX 75 35 97 36 62 37 45 38 46 39 55 40 47 41 48 42 54 43 56 44
REMARK SMILES IDX 49 45 50 46 51 47 52 48 53 49 79 50 80 51 89 52 81 53 82 54
REMARK SMILES IDX 88 55 90 56 83 57 84 58 85 59 86 60 87 61 63 62 64 63 73 64
REMARK SMILES IDX 65 65 66 66 72 67 74 68 67 69 68 70 69 71 70 72 71 73 6 74
REMARK SMILES IDX 7 75 8 76 9 77 10 78 11 79 12 80 13 81 24 82 14 83 23 84
REMARK SMILES IDX 25 85 35 86 26 87 34 88 15 89 16 90 17 91 22 92 18 93 21 94
REMARK SMILES IDX 19 95 20 96 27 97 28 98 29 99 30 100 31 101 32 102 33 103
REMARK H PARENT 95 23 61 34
REMARK Flexibility Score: inf
ROOT
ATOM      1  C   UNL A   1      40.818  19.688  26.355  1.00  0.00     0.202 C 
ENDROOT
BRANCH   1   2
ATOM      2  C   UNL A   1      42.302  19.357  26.233  1.00  0.00     0.261 C 
BRANCH   2   3
ATOM      3  O   UNL A   1      42.892  19.893  25.037  1.00  0.00    -0.460 OA
BRANCH   3   4
ATOM      4  C   UNL A   1      44.047  20.597  24.978  1.00  0.00     0.338 C 
ATOM      5  O   UNL A   1      44.978  20.195  24.282  1.00  0.00    -0.246 OA
BRANCH   4   6
ATOM      6  C   UNL A   1      44.083  21.983  25.495  1.00  0.00     0.060 A 
ATOM      7  C   UNL A   1      44.974  22.470  26.449  1.00  0.00     0.016 A 
ATOM      8  C   UNL A   1      43.062  22.819  25.016  1.00  0.00     0.016 A 
ATOM      9  C   UNL A   1      44.682  23.644  27.117  1.00  0.00     0.010 A 
ATOM     10  C   UNL A   1      42.815  24.035  25.621  1.00  0.00     0.010 A 
ATOM     11  C   UNL A   1      43.568  24.394  26.731  1.00  0.00    -0.014 A 
BRANCH  11  12
ATOM     12  C   UNL A   1      43.340  25.660  27.405  1.00  0.00     0.031 A 
ATOM     13  C   UNL A   1      44.404  26.662  27.122  1.00  0.00     0.074 A 
ATOM     14  C   UNL A   1      42.221  25.919  28.110  1.00  0.00     0.049 A 
ATOM     15  N   UNL A   1      45.241  27.188  27.953  1.00  0.00    -0.248 NA
ATOM     16  C   UNL A   1      44.700  26.967  25.709  1.00  0.00     0.031 C 
ATOM     17  C   UNL A   1      41.012  25.099  28.232  1.00  0.00     0.029 A 
ATOM     18  N   UNL A   1      41.888  27.038  28.807  1.00  0.00    -0.354 N 
ATOM     19  C   UNL A   1      46.017  28.068  27.204  1.00  0.00     0.074 A 
ATOM     20  C   UNL A   1      45.769  27.754  25.823  1.00  0.00     0.031 C 
ATOM     21  C   UNL A   1      40.009  25.851  28.739  1.00  0.00     0.029 A 
ATOM     22  C   UNL A   1      40.535  27.152  29.113  1.00  0.00     0.049 A 
ATOM     23  H   UNL A   1      42.552  27.714  29.074  1.00  0.00     0.167 HD
ATOM     24  C   UNL A   1      46.619  29.143  27.782  1.00  0.00     0.037 A 
ATOM     25  C   UNL A   1      39.905  28.265  29.575  1.00  0.00     0.037 A 
ATOM     26  C   UNL A   1      46.728  28.968  29.206  1.00  0.00     0.049 A 
ATOM     27  C   UNL A   1      40.960  29.144  30.151  1.00  0.00     0.074 A 
ATOM     28  C   UNL A   1      47.366  28.048  30.016  1.00  0.00     0.029 A 
ATOM     29  N   UNL A   1      45.792  29.585  29.998  1.00  0.00    -0.354 N 
ATOM     30  N   UNL A   1      41.656  28.840  31.214  1.00  0.00    -0.248 NA
ATOM     31  C   UNL A   1      41.568  30.126  29.265  1.00  0.00     0.031 C 
ATOM     32  C   UNL A   1      46.462  27.819  31.092  1.00  0.00     0.029 A 
ATOM     33  C   UNL A   1      45.368  28.669  30.927  1.00  0.00     0.049 A 
ATOM     34  H   UNL A   1      45.482  30.516  29.916  1.00  0.00     0.167 HD
ATOM     35  C   UNL A   1      42.950  29.250  30.918  1.00  0.00     0.074 A 
ATOM     36  C   UNL A   1      42.819  30.094  29.731  1.00  0.00     0.031 C 
ATOM     37  C   UNL A   1      44.033  28.642  31.485  1.00  0.00     0.037 A 
BRANCH  24  38
ATOM     38  C   UNL A   1      46.767  30.487  27.110  1.00  0.00     0.058 A 
ATOM     39  C   UNL A   1      45.675  31.293  26.716  1.00  0.00     0.135 A 
ATOM     40  C   UNL A   1      48.025  31.127  27.106  1.00  0.00     0.135 A 
ATOM     41  F   UNL A   1      44.409  30.861  26.761  1.00  0.00    -0.206 F 
ATOM     42  C   UNL A   1      45.814  32.624  26.346  1.00  0.00     0.059 A 
ATOM     43  C   UNL A   1      48.178  32.478  26.789  1.00  0.00     0.059 A 
ATOM     44  F   UNL A   1      49.129  30.463  27.481  1.00  0.00    -0.206 F 
ATOM     45  C   UNL A   1      47.064  33.218  26.413  1.00  0.00     0.060 A 
BRANCH  45  46
ATOM     46  S   UNL A   1      47.170  34.982  26.072  1.00  0.00     0.124 S 
ATOM     47  O   UNL A   1      48.105  35.005  24.950  1.00  0.00    -0.237 OA
ATOM     48  O   UNL A   1      45.785  35.311  25.753  1.00  0.00    -0.237 OA
ATOM     49  O   UNL A   1      47.675  35.537  27.324  1.00  0.00    -0.744 OA
ENDBRANCH  45  46
ENDBRANCH  24  38
BRANCH  25  50
ATOM     50  C   UNL A   1      38.566  28.796  29.185  1.00  0.00     0.058 A 
ATOM     51  C   UNL A   1      38.349  29.416  27.939  1.00  0.00     0.135 A 
ATOM     52  C   UNL A   1      37.552  28.981  30.148  1.00  0.00     0.135 A 
ATOM     53  F   UNL A   1      39.261  29.340  26.958  1.00  0.00    -0.206 F 
ATOM     54  C   UNL A   1      37.239  30.221  27.683  1.00  0.00     0.059 A 
ATOM     55  C   UNL A   1      36.430  29.789  29.915  1.00  0.00     0.059 A 
ATOM     56  F   UNL A   1      37.676  28.435  31.368  1.00  0.00    -0.206 F 
ATOM     57  C   UNL A   1      36.302  30.432  28.688  1.00  0.00     0.060 A 
BRANCH  57  58
ATOM     58  S   UNL A   1      34.984  31.631  28.379  1.00  0.00     0.124 S 
ATOM     59  O   UNL A   1      33.985  30.808  27.701  1.00  0.00    -0.237 OA
ATOM     60  O   UNL A   1      34.636  32.057  29.730  1.00  0.00    -0.237 OA
ATOM     61  O   UNL A   1      35.629  32.645  27.550  1.00  0.00    -0.744 OA
ENDBRANCH  57  58
ENDBRANCH  25  50
BRANCH  37  62
ATOM     62  C   UNL A   1      43.816  27.708  32.649  1.00  0.00     0.058 A 
ATOM     63  C   UNL A   1      43.819  28.270  33.935  1.00  0.00     0.135 A 
ATOM     64  C   UNL A   1      43.794  26.303  32.563  1.00  0.00     0.135 A 
ATOM     65  F   UNL A   1      43.892  29.603  34.086  1.00  0.00    -0.206 F 
ATOM     66  C   UNL A   1      43.818  27.487  35.083  1.00  0.00     0.059 A 
ATOM     67  C   UNL A   1      43.754  25.496  33.705  1.00  0.00     0.059 A 
ATOM     68  F   UNL A   1      43.881  25.682  31.379  1.00  0.00    -0.206 F 
ATOM     69  C   UNL A   1      43.785  26.098  34.962  1.00  0.00     0.060 A 
BRANCH  69  70
ATOM     70  S   UNL A   1      43.811  25.119  36.477  1.00  0.00     0.124 S 
ATOM     71  O   UNL A   1      45.140  25.413  37.005  1.00  0.00    -0.237 OA
ATOM     72  O   UNL A   1      42.695  25.685  37.232  1.00  0.00    -0.237 OA
ATOM     73  O   UNL A   1      43.616  23.749  36.012  1.00  0.00    -0.744 OA
ENDBRANCH  69  70
ENDBRANCH  37  62
ENDBRANCH  11  12
ENDBRANCH   4   6
ENDBRANCH   3   4
ENDBRANCH   2   3
ENDBRANCH   1   2
BRANCH   1  74
ATOM     74  O   UNL A   1      39.908  18.914  25.580  1.00  0.00    -0.374 OA
BRANCH  74  75
ATOM     75  C   UNL A   1      38.698  19.568  25.181  1.00  0.00     0.202 C 
BRANCH  75  76
ATOM     76  C   UNL A   1      38.588  21.088  25.377  1.00  0.00     0.261 C 
BRANCH  76  77
ATOM     77  O   UNL A   1      37.522  21.686  24.621  1.00  0.00    -0.458 OA
BRANCH  77  78
ATOM     78  C   UNL A   1      36.531  22.286  25.356  1.00  0.00     0.359 C 
ATOM     79  O   UNL A   1      36.720  23.008  26.315  1.00  0.00    -0.244 OA
BRANCH  78  80
ATOM     80  C   UNL A   1      35.202  22.084  24.756  1.00  0.00     0.175 A 
ATOM     81  N   UNL A   1      34.606  20.876  24.723  1.00  0.00    -0.165 NA
ATOM     82  C   UNL A   1      34.366  23.075  24.162  1.00  0.00     0.028 A 
ATOM     83  N   UNL A   1      33.400  21.095  24.155  1.00  0.00    -0.264 N 
ATOM     84  C   UNL A   1      33.222  22.396  23.794  1.00  0.00     0.046 A 
ATOM     85  C   UNL A   1      34.577  24.536  23.916  1.00  0.00     0.159 C 
ATOM     86  C   UNL A   1      32.022  23.028  23.187  1.00  0.00     0.078 C 
ATOM     87  N   UNL A   1      33.285  25.149  23.546  1.00  0.00    -0.337 N 
ATOM     88  C   UNL A   1      32.439  24.392  22.600  1.00  0.00     0.126 C 
BRANCH  83  89
ATOM     89  C   UNL A   1      32.405  20.031  24.166  1.00  0.00     0.180 C 
BRANCH  89  90
ATOM     90  C   UNL A   1      32.980  18.679  24.503  1.00  0.00    -0.026 A 
ATOM     91  C   UNL A   1      32.544  17.986  25.648  1.00  0.00     0.008 A 
ATOM     92  C   UNL A   1      33.918  18.067  23.656  1.00  0.00     0.008 A 
ATOM     93  C   UNL A   1      33.019  16.704  25.925  1.00  0.00     0.039 A 
ATOM     94  C   UNL A   1      34.389  16.782  23.935  1.00  0.00     0.039 A 
ATOM     95  C   UNL A   1      33.931  16.111  25.062  1.00  0.00     0.123 A 
ATOM     96  F   UNL A   1      34.368  14.871  25.313  1.00  0.00    -0.207 F 
ENDBRANCH  89  90
ENDBRANCH  83  89
BRANCH  87  97
ATOM     97  C   UNL A   1      32.979  26.404  24.055  1.00  0.00     0.232 C 
ATOM     98  O   UNL A   1      33.510  27.438  23.673  1.00  0.00    -0.274 OA
BRANCH  97  99
ATOM     99  C   UNL A   1      31.938  26.466  25.103  1.00  0.00     0.154 C 
ATOM    100  C   UNL A   1      32.089  25.617  26.356  1.00  0.00     0.097 C 
ATOM    101  C   UNL A   1      32.219  27.092  26.415  1.00  0.00     0.260 C 
ATOM    102  F   UNL A   1      33.433  27.631  26.766  1.00  0.00    -0.206 F 
ATOM    103  F   UNL A   1      31.248  27.805  27.083  1.00  0.00    -0.206 F 
ENDBRANCH  97  99
ENDBRANCH  87  97
ENDBRANCH  78  80
ENDBRANCH  77  78
ENDBRANCH  76  77
ENDBRANCH  75  76
ENDBRANCH  74  75
ENDBRANCH   1  74
TORSDOF 21
ENDMDL
MODEL 3
REMARK VINA RESULT:     -12.3      2.806      9.006
REMARK SMILES O=C(OCCOCCOC(=O)c1nn(Cc2ccc(F)cc2)c2c1CN(C(=O)[C@H]1CC1(F)F)CC2)c1ccc(-c2c3nc(c(-c4c(F)cc(S(=O)(=O)[O-])cc4F)c4ccc([nH]4)c(-c4c(F)cc(S(=O)(=O)[O-])cc4F)c4nc(c(-c5c(F)cc(S(=O)(=O)[O-])cc5F)c5ccc2[nH]5)C=C4)C=C3)cc1
REMARK SMILES IDX 5 1 4 2 3 3 2 4 1 5 36 6 37 7 101 8 38 9 100 10 39 11 40 12
REMARK SMILES IDX 41 13 94 14 42 15 99 16 93 17 95 18 43 19 98 20 92 21 91 22
REMARK SMILES IDX 44 24 78 25 57 26 77 27 58 28 61 29 76 30 96 31 59 32 60 33
REMARK SMILES IDX 75 35 97 36 62 37 45 38 46 39 55 40 47 41 48 42 54 43 56 44
REMARK SMILES IDX 49 45 50 46 51 47 52 48 53 49 79 50 80 51 89 52 81 53 82 54
REMARK SMILES IDX 88 55 90 56 83 57 84 58 85 59 86 60 87 61 63 62 64 63 73 64
REMARK SMILES IDX 65 65 66 66 72 67 74 68 67 69 68 70 69 71 70 72 71 73 6 74
REMARK SMILES IDX 7 75 8 76 9 77 10 78 11 79 12 80 13 81 24 82 14 83 23 84
REMARK SMILES IDX 25 85 35 86 26 87 34 88 15 89 16 90 17 91 22 92 18 93 21 94
REMARK SMILES IDX 19 95 20 96 27 97 28 98 29 99 30 100 31 101 32 102 33 103
REMARK H PARENT 95 23 61 34
REMARK Flexibility Score: inf
ROOT
ATOM      1  C   UNL A   1      32.235  29.774  25.880  1.00  0.00     0.202 C 
ENDROOT
BRANCH   1   2
ATOM      2  C   UNL A   1      32.721  30.820  26.879  1.00  0.00     0.261 C 
BRANCH   2   3
ATOM      3  O   UNL A   1      33.972  30.464  27.490  1.00  0.00    -0.460 OA
BRANCH   3   4
ATOM      4  C   UNL A   1      34.977  31.323  27.783  1.00  0.00     0.338 C 
ATOM      5  O   UNL A   1      34.753  32.530  27.854  1.00  0.00    -0.246 OA
BRANCH   4   6
ATOM      6  C   UNL A   1      36.254  30.796  28.312  1.00  0.00     0.060 A 
ATOM      7  C   UNL A   1      37.268  31.557  28.890  1.00  0.00     0.016 A 
ATOM      8  C   UNL A   1      36.451  29.419  28.119  1.00  0.00     0.016 A 
ATOM      9  C   UNL A   1      38.539  31.025  29.001  1.00  0.00     0.010 A 
ATOM     10  C   UNL A   1      37.699  28.859  28.310  1.00  0.00     0.010 A 
ATOM     11  C   UNL A   1      38.757  29.690  28.657  1.00  0.00    -0.014 A 
BRANCH  11  12
ATOM     12  C   UNL A   1      40.089  29.148  28.862  1.00  0.00     0.031 A 
ATOM     13  C   UNL A   1      40.449  29.035  30.302  1.00  0.00     0.074 A 
ATOM     14  C   UNL A   1      40.853  28.692  27.849  1.00  0.00     0.049 A 
ATOM     15  N   UNL A   1      41.383  29.661  30.937  1.00  0.00    -0.248 NA
ATOM     16  C   UNL A   1      39.533  28.284  31.181  1.00  0.00     0.031 C 
ATOM     17  C   UNL A   1      40.490  28.522  26.440  1.00  0.00     0.029 A 
ATOM     18  N   UNL A   1      42.115  28.187  27.891  1.00  0.00    -0.354 N 
ATOM     19  C   UNL A   1      41.320  29.204  32.251  1.00  0.00     0.074 A 
ATOM     20  C   UNL A   1      40.064  28.515  32.381  1.00  0.00     0.031 C 
ATOM     21  C   UNL A   1      41.407  27.736  25.832  1.00  0.00     0.029 A 
ATOM     22  C   UNL A   1      42.491  27.468  26.760  1.00  0.00     0.049 A 
ATOM     23  H   UNL A   1      42.715  28.321  28.659  1.00  0.00     0.167 HD
ATOM     24  C   UNL A   1      42.415  29.225  33.057  1.00  0.00     0.037 A 
ATOM     25  C   UNL A   1      43.582  26.665  26.643  1.00  0.00     0.037 A 
ATOM     26  C   UNL A   1      43.402  30.147  32.561  1.00  0.00     0.049 A 
ATOM     27  C   UNL A   1      44.530  27.074  27.715  1.00  0.00     0.074 A 
ATOM     28  C   UNL A   1      43.417  31.510  32.335  1.00  0.00     0.029 A 
ATOM     29  N   UNL A   1      44.451  29.632  31.841  1.00  0.00    -0.354 N 
ATOM     30  N   UNL A   1      45.127  28.235  27.750  1.00  0.00    -0.248 NA
ATOM     31  C   UNL A   1      44.434  26.382  28.992  1.00  0.00     0.031 C 
ATOM     32  C   UNL A   1      44.151  31.672  31.126  1.00  0.00     0.029 A 
ATOM     33  C   UNL A   1      44.614  30.417  30.728  1.00  0.00     0.049 A 
ATOM     34  H   UNL A   1      44.990  28.843  32.079  1.00  0.00     0.167 HD
ATOM     35  C   UNL A   1      45.093  28.611  29.086  1.00  0.00     0.074 A 
ATOM     36  C   UNL A   1      44.712  27.399  29.812  1.00  0.00     0.031 C 
ATOM     37  C   UNL A   1      45.094  29.926  29.454  1.00  0.00     0.037 A 
BRANCH  24  38
ATOM     38  C   UNL A   1      42.736  28.152  34.070  1.00  0.00     0.058 A 
ATOM     39  C   UNL A   1      43.283  26.893  33.735  1.00  0.00     0.135 A 
ATOM     40  C   UNL A   1      42.764  28.478  35.443  1.00  0.00     0.135 A 
ATOM     41  F   UNL A   1      43.418  26.481  32.469  1.00  0.00    -0.206 F 
ATOM     42  C   UNL A   1      43.815  26.025  34.679  1.00  0.00     0.059 A 
ATOM     43  C   UNL A   1      43.342  27.643  36.402  1.00  0.00     0.059 A 
ATOM     44  F   UNL A   1      42.289  29.658  35.874  1.00  0.00    -0.206 F 
ATOM     45  C   UNL A   1      43.867  26.419  36.007  1.00  0.00     0.060 A 
BRANCH  45  46
ATOM     46  S   UNL A   1      44.702  25.329  37.170  1.00  0.00     0.124 S 
ATOM     47  O   UNL A   1      46.098  25.714  36.977  1.00  0.00    -0.237 OA
ATOM     48  O   UNL A   1      44.103  25.726  38.440  1.00  0.00    -0.237 OA
ATOM     49  O   UNL A   1      44.346  23.995  36.697  1.00  0.00    -0.744 OA
ENDBRANCH  45  46
ENDBRANCH  24  38
BRANCH  25  50
ATOM     50  C   UNL A   1      43.681  25.335  25.971  1.00  0.00     0.058 A 
ATOM     51  C   UNL A   1      42.879  24.246  26.363  1.00  0.00     0.135 A 
ATOM     52  C   UNL A   1      44.778  25.024  25.142  1.00  0.00     0.135 A 
ATOM     53  F   UNL A   1      41.830  24.416  27.181  1.00  0.00    -0.206 F 
ATOM     54  C   UNL A   1      43.179  22.928  26.016  1.00  0.00     0.059 A 
ATOM     55  C   UNL A   1      45.102  23.707  24.783  1.00  0.00     0.059 A 
ATOM     56  F   UNL A   1      45.604  25.996  24.725  1.00  0.00    -0.206 F 
ATOM     57  C   UNL A   1      44.313  22.663  25.256  1.00  0.00     0.060 A 
BRANCH  57  58
ATOM     58  S   UNL A   1      44.769  20.934  24.991  1.00  0.00     0.124 S 
ATOM     59  O   UNL A   1      46.136  20.904  25.502  1.00  0.00    -0.237 OA
ATOM     60  O   UNL A   1      43.779  20.230  25.799  1.00  0.00    -0.237 OA
ATOM     61  O   UNL A   1      44.635  20.760  23.547  1.00  0.00    -0.744 OA
ENDBRANCH  57  58
ENDBRANCH  25  50
BRANCH  37  62
ATOM     62  C   UNL A   1      45.418  30.971  28.416  1.00  0.00     0.058 A 
ATOM     63  C   UNL A   1      46.695  31.551  28.462  1.00  0.00     0.135 A 
ATOM     64  C   UNL A   1      44.487  31.538  27.525  1.00  0.00     0.135 A 
ATOM     65  F   UNL A   1      47.612  31.090  29.328  1.00  0.00    -0.206 F 
ATOM     66  C   UNL A   1      47.035  32.650  27.681  1.00  0.00     0.059 A 
ATOM     67  C   UNL A   1      44.820  32.620  26.703  1.00  0.00     0.059 A 
ATOM     68  F   UNL A   1      43.220  31.105  27.483  1.00  0.00    -0.206 F 
ATOM     69  C   UNL A   1      46.092  33.179  26.801  1.00  0.00     0.060 A 
BRANCH  69  70
ATOM     70  S   UNL A   1      46.567  34.621  25.826  1.00  0.00     0.124 S 
ATOM     71  O   UNL A   1      46.350  35.712  26.771  1.00  0.00    -0.237 OA
ATOM     72  O   UNL A   1      47.963  34.334  25.506  1.00  0.00    -0.237 OA
ATOM     73  O   UNL A   1      45.650  34.592  24.690  1.00  0.00    -0.744 OA
ENDBRANCH  69  70
ENDBRANCH  37  62
ENDBRANCH  11  12
ENDBRANCH   4   6
ENDBRANCH   3   4
ENDBRANCH   2   3
ENDBRANCH   1   2
BRANCH   1  74
ATOM     74  O   UNL A   1      32.894  29.715  24.620  1.00  0.00    -0.374 OA
BRANCH  74  75
ATOM     75  C   UNL A   1      33.846  28.658  24.451  1.00  0.00     0.202 C 
BRANCH  75  76
ATOM     76  C   UNL A   1      34.596  28.554  23.114  1.00  0.00     0.261 C 
BRANCH  76  77
ATOM     77  O   UNL A   1      33.725  28.418  21.979  1.00  0.00    -0.458 OA
BRANCH  77  78
ATOM     78  C   UNL A   1      33.099  27.205  21.848  1.00  0.00     0.359 C 
ATOM     79  O   UNL A   1      33.606  26.212  21.363  1.00  0.00    -0.244 OA
BRANCH  78  80
ATOM     80  C   UNL A   1      31.784  27.190  22.509  1.00  0.00     0.175 A 
ATOM     81  N   UNL A   1      30.798  28.041  22.164  1.00  0.00    -0.165 NA
ATOM     82  C   UNL A   1      31.352  26.314  23.549  1.00  0.00     0.028 A 
ATOM     83  N   UNL A   1      29.747  27.695  22.938  1.00  0.00    -0.264 N 
ATOM     84  C   UNL A   1      30.041  26.672  23.789  1.00  0.00     0.046 A 
ATOM     85  C   UNL A   1      32.067  25.235  24.300  1.00  0.00     0.159 C 
ATOM     86  C   UNL A   1      29.142  25.990  24.756  1.00  0.00     0.078 C 
ATOM     87  N   UNL A   1      31.075  24.443  25.055  1.00  0.00    -0.337 N 
ATOM     88  C   UNL A   1      30.014  25.200  25.752  1.00  0.00     0.126 C 
BRANCH  83  89
ATOM     89  C   UNL A   1      28.439  28.275  22.665  1.00  0.00     0.180 C 
BRANCH  89  90
ATOM     90  C   UNL A   1      28.443  29.784  22.672  1.00  0.00    -0.026 A 
ATOM     91  C   UNL A   1      28.905  30.488  23.798  1.00  0.00     0.008 A 
ATOM     92  C   UNL A   1      28.038  30.506  21.538  1.00  0.00     0.008 A 
ATOM     93  C   UNL A   1      28.980  31.881  23.783  1.00  0.00     0.039 A 
ATOM     94  C   UNL A   1      28.116  31.900  21.525  1.00  0.00     0.039 A 
ATOM     95  C   UNL A   1      28.593  32.574  22.643  1.00  0.00     0.123 A 
ATOM     96  F   UNL A   1      28.687  33.909  22.617  1.00  0.00    -0.207 F 
ENDBRANCH  89  90
ENDBRANCH  83  89
BRANCH  87  97
ATOM     97  C   UNL A   1      31.235  23.065  25.113  1.00  0.00     0.232 C 
ATOM     98  O   UNL A   1      30.836  22.375  26.042  1.00  0.00    -0.274 OA
BRANCH  97  99
ATOM     99  C   UNL A   1      31.912  22.421  23.968  1.00  0.00     0.154 C 
ATOM    100  C   UNL A   1      33.362  21.981  24.109  1.00  0.00     0.097 C 
ATOM    101  C   UNL A   1      32.270  20.984  24.007  1.00  0.00     0.260 C 
ATOM    102  F   UNL A   1      32.030  20.162  25.081  1.00  0.00    -0.206 F 
ATOM    103  F   UNL A   1      32.202  20.205  22.874  1.00  0.00    -0.206 F 
ENDBRANCH  97  99
ENDBRANCH  87  97
ENDBRANCH  78  80
ENDBRANCH  77  78
ENDBRANCH  76  77
ENDBRANCH  75  76
ENDBRANCH  74  75
ENDBRANCH   1  74
TORSDOF 21
ENDMDL
