MODEL 1
REMARK VINA RESULT:     -10.1      0.000      0.000
REMARK SMILES O=C(CSc1ccnc(C(=O)OCCOCCOC(=O)c2ccc(-c3c4nc(c(-c5c(F)cc(S(=O)(=O)[O-])cc5F)c5ccc([nH]5)c(-c5c(F)cc(S(=O)(=O)[O-])cc5F)c5nc(c(-c6c(F)cc(S(=O)(=O)[O-])cc6F)c6ccc3[nH]6)C=C5)C=C4)cc2)c1)NCC(F)(F)F
REMARK SMILES IDX 14 1 13 2 12 3 10 4 11 5 9 6 5 7 6 8 87 9 7 10 8 11 4 12
REMARK SMILES IDX 3 13 2 14 1 15 88 16 89 18 90 19 91 20 92 21 93 22 15 23
REMARK SMILES IDX 16 24 17 25 18 26 19 27 20 28 21 29 22 30 86 31 23 32 85 33
REMARK SMILES IDX 24 34 25 35 26 36 79 37 27 38 84 39 78 40 80 41 28 42 83 43
REMARK SMILES IDX 77 44 76 45 29 47 63 48 42 49 62 50 43 51 46 52 61 53 81 54
REMARK SMILES IDX 44 55 45 56 60 58 82 59 47 60 30 61 31 62 40 63 32 64 33 65
REMARK SMILES IDX 39 66 41 67 34 68 35 69 36 70 37 71 38 72 64 73 65 74 74 75
REMARK SMILES IDX 66 76 67 77 73 78 75 79 68 80 69 81 70 82 71 83 72 84 48 85
REMARK SMILES IDX 49 86 58 87 50 88 51 89 57 90 59 91 52 92 53 93 54 94 55 95
REMARK SMILES IDX 56 96
REMARK H PARENT 88 17 80 46 46 57
REMARK Flexibility Score: inf
ROOT
ATOM      1  C   UNL A   1      31.864  27.948  24.028  1.00  0.00     0.202 C 
ENDROOT
BRANCH   1   2
ATOM      2  C   UNL A   1      30.642  27.283  24.670  1.00  0.00     0.261 C 
BRANCH   2   3
ATOM      3  O   UNL A   1      30.788  25.852  24.663  1.00  0.00    -0.459 OA
BRANCH   3   4
ATOM      4  C   UNL A   1      30.552  25.227  25.847  1.00  0.00     0.357 C 
ATOM      5  O   UNL A   1      29.558  25.357  26.544  1.00  0.00    -0.244 OA
BRANCH   4   6
ATOM      6  C   UNL A   1      31.639  24.230  26.112  1.00  0.00     0.149 A 
ATOM      7  C   UNL A   1      33.521  22.908  25.444  1.00  0.00     0.012 A 
ATOM      8  C   UNL A   1      33.486  22.311  26.707  1.00  0.00     0.035 A 
ATOM      9  C   UNL A   1      32.568  23.878  25.135  1.00  0.00     0.051 A 
ATOM     10  C   UNL A   1      32.527  22.720  27.614  1.00  0.00     0.113 A 
ATOM     11  N   UNL A   1      31.610  23.666  27.347  1.00  0.00    -0.249 NA
BRANCH   7  12
ATOM     12  S   UNL A   1      34.773  22.299  24.320  1.00  0.00    -0.116 SA
BRANCH  12  13
ATOM     13  C   UNL A   1      35.884  21.335  25.406  1.00  0.00     0.174 C 
BRANCH  13  14
ATOM     14  C   UNL A   1      35.949  19.874  24.996  1.00  0.00     0.230 C 
ATOM     15  O   UNL A   1      37.014  19.268  24.940  1.00  0.00    -0.274 OA
ATOM     16  N   UNL A   1      34.741  19.283  24.717  1.00  0.00    -0.346 N 
ATOM     17  H   UNL A   1      33.925  19.833  24.744  1.00  0.00     0.163 HD
BRANCH  16  18
ATOM     18  C   UNL A   1      34.625  17.864  24.379  1.00  0.00     0.231 C 
BRANCH  18  19
ATOM     19  C   UNL A   1      33.185  17.386  24.202  1.00  0.00     0.405 C 
ATOM     20  F   UNL A   1      32.329  18.322  24.685  1.00  0.00    -0.169 F 
ATOM     21  F   UNL A   1      32.890  17.206  22.899  1.00  0.00    -0.169 F 
ATOM     22  F   UNL A   1      32.946  16.235  24.858  1.00  0.00    -0.169 F 
ENDBRANCH  18  19
ENDBRANCH  16  18
ENDBRANCH  13  14
ENDBRANCH  12  13
ENDBRANCH   7  12
ENDBRANCH   4   6
ENDBRANCH   3   4
ENDBRANCH   2   3
ENDBRANCH   1   2
BRANCH   1  23
ATOM     23  O   UNL A   1      32.331  29.127  24.690  1.00  0.00    -0.374 OA
BRANCH  23  24
ATOM     24  C   UNL A   1      31.891  29.317  26.035  1.00  0.00     0.202 C 
BRANCH  24  25
ATOM     25  C   UNL A   1      32.615  30.423  26.814  1.00  0.00     0.261 C 
BRANCH  25  26
ATOM     26  O   UNL A   1      33.613  29.889  27.705  1.00  0.00    -0.460 OA
BRANCH  26  27
ATOM     27  C   UNL A   1      34.472  30.804  28.213  1.00  0.00     0.338 C 
ATOM     28  O   UNL A   1      34.202  31.919  28.636  1.00  0.00    -0.246 OA
BRANCH  27  29
ATOM     29  C   UNL A   1      35.813  30.204  28.344  1.00  0.00     0.060 A 
ATOM     30  C   UNL A   1      36.195  29.721  29.601  1.00  0.00     0.016 A 
ATOM     31  C   UNL A   1      36.706  30.173  27.271  1.00  0.00     0.016 A 
ATOM     32  C   UNL A   1      37.485  29.225  29.797  1.00  0.00     0.010 A 
ATOM     33  C   UNL A   1      38.000  29.682  27.475  1.00  0.00     0.010 A 
ATOM     34  C   UNL A   1      38.406  29.223  28.741  1.00  0.00    -0.014 A 
BRANCH  34  35
ATOM     35  C   UNL A   1      39.828  28.868  28.990  1.00  0.00     0.031 A 
ATOM     36  C   UNL A   1      40.745  29.899  29.594  1.00  0.00     0.074 A 
ATOM     37  C   UNL A   1      40.298  27.643  28.693  1.00  0.00     0.049 A 
ATOM     38  N   UNL A   1      42.025  29.822  29.852  1.00  0.00    -0.248 NA
ATOM     39  C   UNL A   1      40.138  31.193  29.946  1.00  0.00     0.031 C 
ATOM     40  C   UNL A   1      39.511  26.550  28.120  1.00  0.00     0.029 A 
ATOM     41  N   UNL A   1      41.558  27.114  28.825  1.00  0.00    -0.354 N 
ATOM     42  C   UNL A   1      42.380  31.057  30.383  1.00  0.00     0.074 A 
ATOM     43  C   UNL A   1      41.188  31.878  30.377  1.00  0.00     0.031 C 
ATOM     44  C   UNL A   1      40.308  25.481  27.948  1.00  0.00     0.029 A 
ATOM     45  C   UNL A   1      41.667  25.821  28.369  1.00  0.00     0.049 A 
ATOM     46  H   UNL A   1      42.314  27.613  29.212  1.00  0.00     0.167 HD
ATOM     47  C   UNL A   1      43.585  31.467  30.845  1.00  0.00     0.037 A 
ATOM     48  C   UNL A   1      42.741  25.010  28.283  1.00  0.00     0.037 A 
ATOM     49  C   UNL A   1      44.766  30.646  30.865  1.00  0.00     0.049 A 
ATOM     50  C   UNL A   1      44.083  25.505  28.762  1.00  0.00     0.074 A 
ATOM     51  C   UNL A   1      46.025  30.962  31.348  1.00  0.00     0.029 A 
ATOM     52  N   UNL A   1      44.839  29.350  30.378  1.00  0.00    -0.354 N 
ATOM     53  N   UNL A   1      44.394  26.664  29.292  1.00  0.00    -0.248 NA
ATOM     54  C   UNL A   1      45.218  24.580  28.633  1.00  0.00     0.031 C 
ATOM     55  C   UNL A   1      46.869  29.871  31.113  1.00  0.00     0.029 A 
ATOM     56  C   UNL A   1      46.126  28.860  30.527  1.00  0.00     0.049 A 
ATOM     57  H   UNL A   1      44.086  28.852  29.986  1.00  0.00     0.167 HD
ATOM     58  C   UNL A   1      45.755  26.599  29.578  1.00  0.00     0.074 A 
ATOM     59  C   UNL A   1      46.204  25.283  29.175  1.00  0.00     0.031 C 
ATOM     60  C   UNL A   1      46.559  27.544  30.125  1.00  0.00     0.037 A 
BRANCH  47  61
ATOM     61  C   UNL A   1      43.687  32.879  31.354  1.00  0.00     0.058 A 
ATOM     62  C   UNL A   1      43.567  33.182  32.719  1.00  0.00     0.135 A 
ATOM     63  C   UNL A   1      43.930  33.940  30.467  1.00  0.00     0.135 A 
ATOM     64  F   UNL A   1      43.317  32.207  33.608  1.00  0.00    -0.206 F 
ATOM     65  C   UNL A   1      43.654  34.490  33.184  1.00  0.00     0.059 A 
ATOM     66  C   UNL A   1      44.047  35.254  30.912  1.00  0.00     0.059 A 
ATOM     67  F   UNL A   1      44.052  33.706  29.150  1.00  0.00    -0.206 F 
ATOM     68  C   UNL A   1      43.891  35.519  32.272  1.00  0.00     0.060 A 
BRANCH  68  69
ATOM     69  S   UNL A   1      43.995  37.213  32.888  1.00  0.00     0.124 S 
ATOM     70  O   UNL A   1      43.907  37.979  31.648  1.00  0.00    -0.237 OA
ATOM     71  O   UNL A   1      42.833  37.298  33.768  1.00  0.00    -0.237 OA
ATOM     72  O   UNL A   1      45.290  37.252  33.560  1.00  0.00    -0.744 OA
ENDBRANCH  68  69
ENDBRANCH  47  61
BRANCH  48  73
ATOM     73  C   UNL A   1      42.599  23.644  27.714  1.00  0.00     0.058 A 
ATOM     74  C   UNL A   1      42.448  22.524  28.545  1.00  0.00     0.135 A 
ATOM     75  C   UNL A   1      42.615  23.429  26.326  1.00  0.00     0.135 A 
ATOM     76  F   UNL A   1      42.441  22.675  29.878  1.00  0.00    -0.206 F 
ATOM     77  C   UNL A   1      42.328  21.239  28.024  1.00  0.00     0.059 A 
ATOM     78  C   UNL A   1      42.473  22.156  25.780  1.00  0.00     0.059 A 
ATOM     79  F   UNL A   1      42.751  24.467  25.487  1.00  0.00    -0.206 F 
ATOM     80  C   UNL A   1      42.339  21.067  26.639  1.00  0.00     0.060 A 
BRANCH  80  81
ATOM     81  S   UNL A   1      42.135  19.401  25.972  1.00  0.00     0.124 S 
ATOM     82  O   UNL A   1      42.612  18.579  27.079  1.00  0.00    -0.237 OA
ATOM     83  O   UNL A   1      40.699  19.349  25.711  1.00  0.00    -0.237 OA
ATOM     84  O   UNL A   1      42.980  19.409  24.782  1.00  0.00    -0.744 OA
ENDBRANCH  80  81
ENDBRANCH  48  73
BRANCH  60  85
ATOM     85  C   UNL A   1      48.003  27.187  30.349  1.00  0.00     0.058 A 
ATOM     86  C   UNL A   1      48.994  27.503  29.407  1.00  0.00     0.135 A 
ATOM     87  C   UNL A   1      48.409  26.577  31.548  1.00  0.00     0.135 A 
ATOM     88  F   UNL A   1      48.660  28.082  28.243  1.00  0.00    -0.206 F 
ATOM     89  C   UNL A   1      50.335  27.211  29.637  1.00  0.00     0.059 A 
ATOM     90  C   UNL A   1      49.747  26.299  31.810  1.00  0.00     0.059 A 
ATOM     91  F   UNL A   1      47.503  26.263  32.487  1.00  0.00    -0.206 F 
ATOM     92  C   UNL A   1      50.703  26.611  30.843  1.00  0.00     0.060 A 
BRANCH  92  93
ATOM     93  S   UNL A   1      52.451  26.274  31.148  1.00  0.00     0.124 S 
ATOM     94  O   UNL A   1      52.387  24.991  31.838  1.00  0.00    -0.237 OA
ATOM     95  O   UNL A   1      53.003  26.241  29.798  1.00  0.00    -0.237 OA
ATOM     96  O   UNL A   1      52.877  27.407  31.965  1.00  0.00    -0.744 OA
ENDBRANCH  92  93
ENDBRANCH  60  85
ENDBRANCH  34  35
ENDBRANCH  27  29
ENDBRANCH  26  27
ENDBRANCH  25  26
ENDBRANCH  24  25
ENDBRANCH  23  24
ENDBRANCH   1  23
TORSDOF 22
ENDMDL
MODEL 2
REMARK VINA RESULT:      -9.9      2.767      3.683
REMARK SMILES O=C(CSc1ccnc(C(=O)OCCOCCOC(=O)c2ccc(-c3c4nc(c(-c5c(F)cc(S(=O)(=O)[O-])cc5F)c5ccc([nH]5)c(-c5c(F)cc(S(=O)(=O)[O-])cc5F)c5nc(c(-c6c(F)cc(S(=O)(=O)[O-])cc6F)c6ccc3[nH]6)C=C5)C=C4)cc2)c1)NCC(F)(F)F
REMARK SMILES IDX 14 1 13 2 12 3 10 4 11 5 9 6 5 7 6 8 87 9 7 10 8 11 4 12
REMARK SMILES IDX 3 13 2 14 1 15 88 16 89 18 90 19 91 20 92 21 93 22 15 23
REMARK SMILES IDX 16 24 17 25 18 26 19 27 20 28 21 29 22 30 86 31 23 32 85 33
REMARK SMILES IDX 24 34 25 35 26 36 79 37 27 38 84 39 78 40 80 41 28 42 83 43
REMARK SMILES IDX 77 44 76 45 29 47 63 48 42 49 62 50 43 51 46 52 61 53 81 54
REMARK SMILES IDX 44 55 45 56 60 58 82 59 47 60 30 61 31 62 40 63 32 64 33 65
REMARK SMILES IDX 39 66 41 67 34 68 35 69 36 70 37 71 38 72 64 73 65 74 74 75
REMARK SMILES IDX 66 76 67 77 73 78 75 79 68 80 69 81 70 82 71 83 72 84 48 85
REMARK SMILES IDX 49 86 58 87 50 88 51 89 57 90 59 91 52 92 53 93 54 94 55 95
REMARK SMILES IDX 56 96
REMARK H PARENT 88 17 80 46 46 57
REMARK Flexibility Score: inf
ROOT
ATOM      1  C   UNL A   1      32.081  30.180  26.684  1.00  0.00     0.202 C 
ENDROOT
BRANCH   1   2
ATOM      2  C   UNL A   1      32.735  28.807  26.504  1.00  0.00     0.261 C 
BRANCH   2   3
ATOM      3  O   UNL A   1      31.982  28.009  25.575  1.00  0.00    -0.459 OA
BRANCH   3   4
ATOM      4  C   UNL A   1      31.493  26.837  26.060  1.00  0.00     0.357 C 
ATOM      5  O   UNL A   1      30.837  26.698  27.081  1.00  0.00    -0.244 OA
BRANCH   4   6
ATOM      6  C   UNL A   1      31.756  25.739  25.075  1.00  0.00     0.149 A 
ATOM      7  C   UNL A   1      33.117  24.008  24.132  1.00  0.00     0.012 A 
ATOM      8  C   UNL A   1      32.147  23.856  23.138  1.00  0.00     0.035 A 
ATOM      9  C   UNL A   1      32.924  24.981  25.113  1.00  0.00     0.051 A 
ATOM     10  C   UNL A   1      31.020  24.654  23.176  1.00  0.00     0.113 A 
ATOM     11  N   UNL A   1      30.802  25.585  24.121  1.00  0.00    -0.249 NA
BRANCH   7  12
ATOM     12  S   UNL A   1      34.559  22.958  23.993  1.00  0.00    -0.116 SA
BRANCH  12  13
ATOM     13  C   UNL A   1      34.335  21.750  25.347  1.00  0.00     0.174 C 
BRANCH  13  14
ATOM     14  C   UNL A   1      34.982  20.414  25.027  1.00  0.00     0.230 C 
ATOM     15  O   UNL A   1      36.200  20.267  25.049  1.00  0.00    -0.274 OA
ATOM     16  N   UNL A   1      34.113  19.390  24.735  1.00  0.00    -0.346 N 
ATOM     17  H   UNL A   1      33.148  19.582  24.698  1.00  0.00     0.163 HD
BRANCH  16  18
ATOM     18  C   UNL A   1      34.573  18.025  24.477  1.00  0.00     0.231 C 
BRANCH  18  19
ATOM     19  C   UNL A   1      33.704  17.257  23.484  1.00  0.00     0.405 C 
ATOM     20  F   UNL A   1      32.669  18.037  23.083  1.00  0.00    -0.169 F 
ATOM     21  F   UNL A   1      34.406  16.924  22.382  1.00  0.00    -0.169 F 
ATOM     22  F   UNL A   1      33.189  16.134  24.019  1.00  0.00    -0.169 F 
ENDBRANCH  18  19
ENDBRANCH  16  18
ENDBRANCH  13  14
ENDBRANCH  12  13
ENDBRANCH   7  12
ENDBRANCH   4   6
ENDBRANCH   3   4
ENDBRANCH   2   3
ENDBRANCH   1   2
BRANCH   1  23
ATOM     23  O   UNL A   1      32.950  31.209  27.163  1.00  0.00    -0.374 OA
BRANCH  23  24
ATOM     24  C   UNL A   1      34.255  30.799  27.572  1.00  0.00     0.202 C 
BRANCH  24  25
ATOM     25  C   UNL A   1      34.888  31.637  28.690  1.00  0.00     0.261 C 
BRANCH  25  26
ATOM     26  O   UNL A   1      35.728  30.843  29.549  1.00  0.00    -0.460 OA
BRANCH  26  27
ATOM     27  C   UNL A   1      36.810  31.489  30.046  1.00  0.00     0.338 C 
ATOM     28  O   UNL A   1      36.816  32.451  30.801  1.00  0.00    -0.246 OA
BRANCH  27  29
ATOM     29  C   UNL A   1      38.037  30.761  29.673  1.00  0.00     0.060 A 
ATOM     30  C   UNL A   1      39.037  30.622  30.643  1.00  0.00     0.016 A 
ATOM     31  C   UNL A   1      38.232  30.276  28.379  1.00  0.00     0.016 A 
ATOM     32  C   UNL A   1      40.251  30.017  30.313  1.00  0.00     0.010 A 
ATOM     33  C   UNL A   1      39.454  29.678  28.051  1.00  0.00     0.010 A 
ATOM     34  C   UNL A   1      40.479  29.562  29.008  1.00  0.00    -0.014 A 
BRANCH  34  35
ATOM     35  C   UNL A   1      41.829  29.087  28.607  1.00  0.00     0.031 A 
ATOM     36  C   UNL A   1      42.968  30.070  28.561  1.00  0.00     0.074 A 
ATOM     37  C   UNL A   1      42.044  27.794  28.297  1.00  0.00     0.049 A 
ATOM     38  N   UNL A   1      44.210  29.886  28.196  1.00  0.00    -0.248 NA
ATOM     39  C   UNL A   1      42.662  31.450  28.973  1.00  0.00     0.031 C 
ATOM     40  C   UNL A   1      41.031  26.738  28.318  1.00  0.00     0.029 A 
ATOM     41  N   UNL A   1      43.189  27.152  27.895  1.00  0.00    -0.354 N 
ATOM     42  C   UNL A   1      44.830  31.124  28.321  1.00  0.00     0.074 A 
ATOM     43  C   UNL A   1      43.819  32.060  28.761  1.00  0.00     0.031 C 
ATOM     44  C   UNL A   1      41.600  25.580  27.942  1.00  0.00     0.029 A 
ATOM     45  C   UNL A   1      43.009  25.816  27.624  1.00  0.00     0.049 A 
ATOM     46  H   UNL A   1      44.059  27.605  27.808  1.00  0.00     0.167 HD
ATOM     47  C   UNL A   1      46.126  31.450  28.101  1.00  0.00     0.037 A 
ATOM     48  C   UNL A   1      43.873  24.892  27.157  1.00  0.00     0.037 A 
ATOM     49  C   UNL A   1      47.136  30.515  27.678  1.00  0.00     0.049 A 
ATOM     50  C   UNL A   1      45.301  25.289  26.878  1.00  0.00     0.074 A 
ATOM     51  C   UNL A   1      48.484  30.744  27.465  1.00  0.00     0.029 A 
ATOM     52  N   UNL A   1      46.909  29.177  27.399  1.00  0.00    -0.354 N 
ATOM     53  N   UNL A   1      45.879  26.456  27.033  1.00  0.00    -0.248 NA
ATOM     54  C   UNL A   1      46.194  24.242  26.360  1.00  0.00     0.031 C 
ATOM     55  C   UNL A   1      49.063  29.553  27.015  1.00  0.00     0.029 A 
ATOM     56  C   UNL A   1      48.086  28.571  26.993  1.00  0.00     0.049 A 
ATOM     57  H   UNL A   1      46.039  28.723  27.479  1.00  0.00     0.167 HD
ATOM     58  C   UNL A   1      47.206  26.278  26.653  1.00  0.00     0.074 A 
ATOM     59  C   UNL A   1      47.349  24.888  26.273  1.00  0.00     0.031 C 
ATOM     60  C   UNL A   1      48.215  27.183  26.622  1.00  0.00     0.037 A 
BRANCH  47  61
ATOM     61  C   UNL A   1      46.522  32.887  28.302  1.00  0.00     0.058 A 
ATOM     62  C   UNL A   1      46.449  33.826  27.260  1.00  0.00     0.135 A 
ATOM     63  C   UNL A   1      46.960  33.336  29.558  1.00  0.00     0.135 A 
ATOM     64  F   UNL A   1      46.055  33.445  26.034  1.00  0.00    -0.206 F 
ATOM     65  C   UNL A   1      46.825  35.151  27.449  1.00  0.00     0.059 A 
ATOM     66  C   UNL A   1      47.316  34.664  29.777  1.00  0.00     0.059 A 
ATOM     67  F   UNL A   1      47.050  32.480  30.589  1.00  0.00    -0.206 F 
ATOM     68  C   UNL A   1      47.259  35.560  28.710  1.00  0.00     0.060 A 
BRANCH  68  69
ATOM     69  S   UNL A   1      47.749  37.282  28.938  1.00  0.00     0.124 S 
ATOM     70  O   UNL A   1      46.461  37.920  29.190  1.00  0.00    -0.237 OA
ATOM     71  O   UNL A   1      48.650  37.202  30.085  1.00  0.00    -0.237 OA
ATOM     72  O   UNL A   1      48.384  37.627  27.670  1.00  0.00    -0.744 OA
ENDBRANCH  68  69
ENDBRANCH  47  61
BRANCH  48  73
ATOM     73  C   UNL A   1      43.415  23.498  26.917  1.00  0.00     0.058 A 
ATOM     74  C   UNL A   1      43.195  23.020  25.617  1.00  0.00     0.135 A 
ATOM     75  C   UNL A   1      43.183  22.615  27.984  1.00  0.00     0.135 A 
ATOM     76  F   UNL A   1      43.389  23.830  24.564  1.00  0.00    -0.206 F 
ATOM     77  C   UNL A   1      42.752  21.722  25.381  1.00  0.00     0.059 A 
ATOM     78  C   UNL A   1      42.763  21.305  27.774  1.00  0.00     0.059 A 
ATOM     79  F   UNL A   1      43.384  23.021  29.248  1.00  0.00    -0.206 F 
ATOM     80  C   UNL A   1      42.542  20.871  26.468  1.00  0.00     0.060 A 
BRANCH  80  81
ATOM     81  S   UNL A   1      42.014  19.174  26.149  1.00  0.00     0.124 S 
ATOM     82  O   UNL A   1      42.796  18.839  24.964  1.00  0.00    -0.237 OA
ATOM     83  O   UNL A   1      42.402  18.495  27.383  1.00  0.00    -0.237 OA
ATOM     84  O   UNL A   1      40.575  19.303  25.940  1.00  0.00    -0.744 OA
ENDBRANCH  80  81
ENDBRANCH  48  73
BRANCH  60  85
ATOM     85  C   UNL A   1      49.573  26.701  26.189  1.00  0.00     0.058 A 
ATOM     86  C   UNL A   1      50.033  26.880  24.875  1.00  0.00     0.135 A 
ATOM     87  C   UNL A   1      50.447  26.109  27.115  1.00  0.00     0.135 A 
ATOM     88  F   UNL A   1      49.236  27.437  23.950  1.00  0.00    -0.206 F 
ATOM     89  C   UNL A   1      51.307  26.473  24.490  1.00  0.00     0.059 A 
ATOM     90  C   UNL A   1      51.733  25.716  26.757  1.00  0.00     0.059 A 
ATOM     91  F   UNL A   1      50.061  25.923  28.387  1.00  0.00    -0.206 F 
ATOM     92  C   UNL A   1      52.151  25.893  25.439  1.00  0.00     0.060 A 
BRANCH  92  93
ATOM     93  S   UNL A   1      53.816  25.406  24.937  1.00  0.00     0.124 S 
ATOM     94  O   UNL A   1      54.617  25.907  26.048  1.00  0.00    -0.237 OA
ATOM     95  O   UNL A   1      53.702  23.954  24.841  1.00  0.00    -0.237 OA
ATOM     96  O   UNL A   1      54.003  26.099  23.665  1.00  0.00    -0.744 OA
ENDBRANCH  92  93
ENDBRANCH  60  85
ENDBRANCH  34  35
ENDBRANCH  27  29
ENDBRANCH  26  27
ENDBRANCH  25  26
ENDBRANCH  24  25
ENDBRANCH  23  24
ENDBRANCH   1  23
TORSDOF 22
ENDMDL
MODEL 3
REMARK VINA RESULT:      -9.9      5.307     11.594
REMARK SMILES O=C(CSc1ccnc(C(=O)OCCOCCOC(=O)c2ccc(-c3c4nc(c(-c5c(F)cc(S(=O)(=O)[O-])cc5F)c5ccc([nH]5)c(-c5c(F)cc(S(=O)(=O)[O-])cc5F)c5nc(c(-c6c(F)cc(S(=O)(=O)[O-])cc6F)c6ccc3[nH]6)C=C5)C=C4)cc2)c1)NCC(F)(F)F
REMARK SMILES IDX 14 1 13 2 12 3 10 4 11 5 9 6 5 7 6 8 87 9 7 10 8 11 4 12
REMARK SMILES IDX 3 13 2 14 1 15 88 16 89 18 90 19 91 20 92 21 93 22 15 23
REMARK SMILES IDX 16 24 17 25 18 26 19 27 20 28 21 29 22 30 86 31 23 32 85 33
REMARK SMILES IDX 24 34 25 35 26 36 79 37 27 38 84 39 78 40 80 41 28 42 83 43
REMARK SMILES IDX 77 44 76 45 29 47 63 48 42 49 62 50 43 51 46 52 61 53 81 54
REMARK SMILES IDX 44 55 45 56 60 58 82 59 47 60 30 61 31 62 40 63 32 64 33 65
REMARK SMILES IDX 39 66 41 67 34 68 35 69 36 70 37 71 38 72 64 73 65 74 74 75
REMARK SMILES IDX 66 76 67 77 73 78 75 79 68 80 69 81 70 82 71 83 72 84 48 85
REMARK SMILES IDX 49 86 58 87 50 88 51 89 57 90 59 91 52 92 53 93 54 94 55 95
REMARK SMILES IDX 56 96
REMARK H PARENT 88 17 80 46 46 57
REMARK Flexibility Score: inf
ROOT
ATOM      1  C   UNL A   1      43.149  18.836  25.746  1.00  0.00     0.202 C 
ENDROOT
BRANCH   1   2
ATOM      2  C   UNL A   1      44.238  18.920  24.672  1.00  0.00     0.261 C 
BRANCH   2   3
ATOM      3  O   UNL A   1      44.370  20.270  24.195  1.00  0.00    -0.459 OA
BRANCH   3   4
ATOM      4  C   UNL A   1      45.436  20.966  24.672  1.00  0.00     0.357 C 
ATOM      5  O   UNL A   1      46.568  20.534  24.827  1.00  0.00    -0.244 OA
BRANCH   4   6
ATOM      6  C   UNL A   1      45.052  22.403  24.855  1.00  0.00     0.149 A 
ATOM      7  C   UNL A   1      45.508  24.658  25.520  1.00  0.00     0.012 A 
ATOM      8  C   UNL A   1      44.170  24.956  25.249  1.00  0.00     0.035 A 
ATOM      9  C   UNL A   1      45.955  23.350  25.334  1.00  0.00     0.051 A 
ATOM     10  C   UNL A   1      43.344  23.953  24.779  1.00  0.00     0.113 A 
ATOM     11  N   UNL A   1      43.755  22.690  24.573  1.00  0.00    -0.249 NA
BRANCH   7  12
ATOM     12  S   UNL A   1      46.502  26.005  26.154  1.00  0.00    -0.116 SA
BRANCH  12  13
ATOM     13  C   UNL A   1      46.665  27.122  24.716  1.00  0.00     0.174 C 
BRANCH  13  14
ATOM     14  C   UNL A   1      47.820  26.721  23.815  1.00  0.00     0.230 C 
ATOM     15  O   UNL A   1      48.278  25.583  23.823  1.00  0.00    -0.274 OA
ATOM     16  N   UNL A   1      48.296  27.709  22.988  1.00  0.00    -0.346 N 
ATOM     17  H   UNL A   1      47.910  28.613  23.055  1.00  0.00     0.163 HD
BRANCH  16  18
ATOM     18  C   UNL A   1      49.356  27.466  22.009  1.00  0.00     0.231 C 
BRANCH  18  19
ATOM     19  C   UNL A   1      48.841  27.076  20.624  1.00  0.00     0.405 C 
ATOM     20  F   UNL A   1      47.611  27.611  20.426  1.00  0.00    -0.169 F 
ATOM     21  F   UNL A   1      49.648  27.552  19.655  1.00  0.00    -0.169 F 
ATOM     22  F   UNL A   1      48.736  25.741  20.477  1.00  0.00    -0.169 F 
ENDBRANCH  18  19
ENDBRANCH  16  18
ENDBRANCH  13  14
ENDBRANCH  12  13
ENDBRANCH   7  12
ENDBRANCH   4   6
ENDBRANCH   3   4
ENDBRANCH   2   3
ENDBRANCH   1   2
BRANCH   1  23
ATOM     23  O   UNL A   1      42.390  20.033  25.936  1.00  0.00    -0.374 OA
BRANCH  23  24
ATOM     24  C   UNL A   1      41.012  19.865  26.271  1.00  0.00     0.202 C 
BRANCH  24  25
ATOM     25  C   UNL A   1      40.368  21.041  27.016  1.00  0.00     0.261 C 
BRANCH  25  26
ATOM     26  O   UNL A   1      40.503  22.277  26.289  1.00  0.00    -0.460 OA
BRANCH  26  27
ATOM     27  C   UNL A   1      39.367  23.007  26.188  1.00  0.00     0.338 C 
ATOM     28  O   UNL A   1      38.297  22.650  25.716  1.00  0.00    -0.246 OA
BRANCH  27  29
ATOM     29  C   UNL A   1      39.539  24.292  26.892  1.00  0.00     0.060 A 
ATOM     30  C   UNL A   1      40.229  25.315  26.231  1.00  0.00     0.016 A 
ATOM     31  C   UNL A   1      39.088  24.471  28.201  1.00  0.00     0.016 A 
ATOM     32  C   UNL A   1      40.493  26.517  26.888  1.00  0.00     0.010 A 
ATOM     33  C   UNL A   1      39.363  25.675  28.858  1.00  0.00     0.010 A 
ATOM     34  C   UNL A   1      40.083  26.699  28.216  1.00  0.00    -0.014 A 
BRANCH  34  35
ATOM     35  C   UNL A   1      40.520  27.899  28.975  1.00  0.00     0.031 A 
ATOM     36  C   UNL A   1      41.904  27.928  29.569  1.00  0.00     0.074 A 
ATOM     37  C   UNL A   1      39.702  28.957  29.129  1.00  0.00     0.049 A 
ATOM     38  N   UNL A   1      42.474  28.846  30.304  1.00  0.00    -0.248 NA
ATOM     39  C   UNL A   1      42.756  26.757  29.303  1.00  0.00     0.031 C 
ATOM     40  C   UNL A   1      38.345  29.063  28.592  1.00  0.00     0.029 A 
ATOM     41  N   UNL A   1      39.892  30.144  29.793  1.00  0.00    -0.354 N 
ATOM     42  C   UNL A   1      43.742  28.362  30.601  1.00  0.00     0.074 A 
ATOM     43  C   UNL A   1      43.847  27.053  29.995  1.00  0.00     0.031 C 
ATOM     44  C   UNL A   1      37.825  30.250  28.950  1.00  0.00     0.029 A 
ATOM     45  C   UNL A   1      38.797  30.976  29.766  1.00  0.00     0.049 A 
ATOM     46  H   UNL A   1      40.734  30.379  30.246  1.00  0.00     0.167 HD
ATOM     47  C   UNL A   1      44.735  28.959  31.303  1.00  0.00     0.037 A 
ATOM     48  C   UNL A   1      38.594  32.175  30.348  1.00  0.00     0.037 A 
ATOM     49  C   UNL A   1      44.637  30.268  31.892  1.00  0.00     0.049 A 
ATOM     50  C   UNL A   1      39.699  32.800  31.162  1.00  0.00     0.074 A 
ATOM     51  C   UNL A   1      45.603  30.972  32.591  1.00  0.00     0.029 A 
ATOM     52  N   UNL A   1      43.507  31.070  31.857  1.00  0.00    -0.354 N 
ATOM     53  N   UNL A   1      40.905  32.344  31.405  1.00  0.00    -0.248 NA
ATOM     54  C   UNL A   1      39.415  34.103  31.781  1.00  0.00     0.031 C 
ATOM     55  C   UNL A   1      45.041  32.181  33.015  1.00  0.00     0.029 A 
ATOM     56  C   UNL A   1      43.741  32.250  32.541  1.00  0.00     0.049 A 
ATOM     57  H   UNL A   1      42.661  30.834  31.411  1.00  0.00     0.167 HD
ATOM     58  C   UNL A   1      41.529  33.313  32.185  1.00  0.00     0.074 A 
ATOM     59  C   UNL A   1      40.573  34.385  32.363  1.00  0.00     0.031 C 
ATOM     60  C   UNL A   1      42.781  33.314  32.707  1.00  0.00     0.037 A 
BRANCH  47  61
ATOM     61  C   UNL A   1      46.014  28.188  31.484  1.00  0.00     0.058 A 
ATOM     62  C   UNL A   1      46.183  27.274  32.536  1.00  0.00     0.135 A 
ATOM     63  C   UNL A   1      47.077  28.350  30.581  1.00  0.00     0.135 A 
ATOM     64  F   UNL A   1      45.204  27.094  33.438  1.00  0.00    -0.206 F 
ATOM     65  C   UNL A   1      47.370  26.570  32.704  1.00  0.00     0.059 A 
ATOM     66  C   UNL A   1      48.265  27.637  30.715  1.00  0.00     0.059 A 
ATOM     67  F   UNL A   1      46.970  29.213  29.558  1.00  0.00    -0.206 F 
ATOM     68  C   UNL A   1      48.407  26.761  31.790  1.00  0.00     0.060 A 
BRANCH  68  69
ATOM     69  S   UNL A   1      49.945  25.845  32.025  1.00  0.00     0.124 S 
ATOM     70  O   UNL A   1      50.916  26.931  32.128  1.00  0.00    -0.237 OA
ATOM     71  O   UNL A   1      49.687  25.109  33.258  1.00  0.00    -0.237 OA
ATOM     72  O   UNL A   1      50.042  25.029  30.819  1.00  0.00    -0.744 OA
ENDBRANCH  68  69
ENDBRANCH  47  61
BRANCH  48  73
ATOM     73  C   UNL A   1      37.288  32.868  30.188  1.00  0.00     0.058 A 
ATOM     74  C   UNL A   1      37.012  33.642  29.052  1.00  0.00     0.135 A 
ATOM     75  C   UNL A   1      36.291  32.774  31.172  1.00  0.00     0.135 A 
ATOM     76  F   UNL A   1      37.938  33.775  28.090  1.00  0.00    -0.206 F 
ATOM     77  C   UNL A   1      35.799  34.307  28.899  1.00  0.00     0.059 A 
ATOM     78  C   UNL A   1      35.061  33.410  31.031  1.00  0.00     0.059 A 
ATOM     79  F   UNL A   1      36.503  32.041  32.277  1.00  0.00    -0.206 F 
ATOM     80  C   UNL A   1      34.828  34.182  29.894  1.00  0.00     0.060 A 
BRANCH  80  81
ATOM     81  S   UNL A   1      33.239  35.009  29.663  1.00  0.00     0.124 S 
ATOM     82  O   UNL A   1      33.657  36.318  29.174  1.00  0.00    -0.237 OA
ATOM     83  O   UNL A   1      32.581  34.143  28.689  1.00  0.00    -0.237 OA
ATOM     84  O   UNL A   1      32.655  34.992  31.001  1.00  0.00    -0.744 OA
ENDBRANCH  80  81
ENDBRANCH  48  73
BRANCH  60  85
ATOM     85  C   UNL A   1      43.206  34.520  33.498  1.00  0.00     0.058 A 
ATOM     86  C   UNL A   1      43.094  34.561  34.896  1.00  0.00     0.135 A 
ATOM     87  C   UNL A   1      43.791  35.624  32.855  1.00  0.00     0.135 A 
ATOM     88  F   UNL A   1      42.539  33.535  35.560  1.00  0.00    -0.206 F 
ATOM     89  C   UNL A   1      43.530  35.662  35.628  1.00  0.00     0.059 A 
ATOM     90  C   UNL A   1      44.256  36.724  33.569  1.00  0.00     0.059 A 
ATOM     91  F   UNL A   1      43.932  35.632  31.520  1.00  0.00    -0.206 F 
ATOM     92  C   UNL A   1      44.112  36.738  34.956  1.00  0.00     0.060 A 
BRANCH  92  93
ATOM     93  S   UNL A   1      44.711  38.143  35.920  1.00  0.00     0.124 S 
ATOM     94  O   UNL A   1      44.016  39.255  35.282  1.00  0.00    -0.237 OA
ATOM     95  O   UNL A   1      44.267  37.808  37.270  1.00  0.00    -0.237 OA
ATOM     96  O   UNL A   1      46.156  38.104  35.715  1.00  0.00    -0.744 OA
ENDBRANCH  92  93
ENDBRANCH  60  85
ENDBRANCH  34  35
ENDBRANCH  27  29
ENDBRANCH  26  27
ENDBRANCH  25  26
ENDBRANCH  24  25
ENDBRANCH  23  24
ENDBRANCH   1  23
TORSDOF 22
ENDMDL
