MODEL 1
REMARK VINA RESULT:     -11.2      0.000      0.000
REMARK SMILES O=C(OCCOCCOC(=O)[C@H]1CC[C@H](CN2C(=O)c3cccnc3C2=O)O1)c1ccc(-c2c3nc(c(-c4c(F)cc(S(=O)(=O)[O-])cc4F)c4ccc([nH]4)c(-c4c(F)cc(S(=O)(=O)[O-])cc4F)c4nc(c(-c5c(F)cc(S(=O)(=O)[O-])cc5F)c5ccc2[nH]5)C=C4)C=C3)cc1
REMARK SMILES IDX 5 1 4 2 3 3 2 4 1 5 29 6 30 7 94 8 31 9 93 10 32 11 33 12
REMARK SMILES IDX 34 13 87 14 35 15 92 16 86 17 88 18 36 19 91 20 85 21 84 22
REMARK SMILES IDX 37 24 71 25 50 26 70 27 51 28 54 29 69 30 89 31 52 32 53 33
REMARK SMILES IDX 68 35 90 36 55 37 38 38 39 39 48 40 40 41 41 42 47 43 49 44
REMARK SMILES IDX 42 45 43 46 44 47 45 48 46 49 72 50 73 51 82 52 74 53 75 54
REMARK SMILES IDX 81 55 83 56 76 57 77 58 78 59 79 60 80 61 56 62 57 63 66 64
REMARK SMILES IDX 58 65 59 66 65 67 67 68 60 69 61 70 62 71 63 72 64 73 6 74
REMARK SMILES IDX 7 75 8 76 9 77 10 78 11 79 12 80 13 81 28 82 14 83 15 84
REMARK SMILES IDX 16 85 17 86 18 87 26 88 19 89 20 90 25 91 27 92 21 93 24 94
REMARK SMILES IDX 22 95 23 96
REMARK H PARENT 88 23 54 34
REMARK Flexibility Score: inf
ROOT
ATOM      1  C   UNL A   1      31.670  28.716  26.003  1.00  0.00     0.202 C 
ENDROOT
BRANCH   1   2
ATOM      2  C   UNL A   1      32.977  29.489  25.824  1.00  0.00     0.261 C 
BRANCH   2   3
ATOM      3  O   UNL A   1      33.893  29.168  26.889  1.00  0.00    -0.460 OA
BRANCH   3   4
ATOM      4  C   UNL A   1      34.578  30.047  27.662  1.00  0.00     0.338 C 
ATOM      5  O   UNL A   1      34.005  31.030  28.124  1.00  0.00    -0.246 OA
BRANCH   4   6
ATOM      6  C   UNL A   1      36.006  29.819  27.996  1.00  0.00     0.060 A 
ATOM      7  C   UNL A   1      37.027  30.034  27.080  1.00  0.00     0.016 A 
ATOM      8  C   UNL A   1      36.351  29.412  29.288  1.00  0.00     0.016 A 
ATOM      9  C   UNL A   1      38.333  29.737  27.350  1.00  0.00     0.010 A 
ATOM     10  C   UNL A   1      37.695  29.204  29.616  1.00  0.00     0.010 A 
ATOM     11  C   UNL A   1      38.681  29.361  28.632  1.00  0.00    -0.014 A 
BRANCH  11  12
ATOM     12  C   UNL A   1      40.097  29.049  28.815  1.00  0.00     0.031 A 
ATOM     13  C   UNL A   1      40.943  30.058  29.513  1.00  0.00     0.074 A 
ATOM     14  C   UNL A   1      40.511  27.791  28.568  1.00  0.00     0.049 A 
ATOM     15  N   UNL A   1      42.222  30.035  29.745  1.00  0.00    -0.248 NA
ATOM     16  C   UNL A   1      40.251  31.252  30.037  1.00  0.00     0.031 C 
ATOM     17  C   UNL A   1      39.655  26.698  28.076  1.00  0.00     0.029 A 
ATOM     18  N   UNL A   1      41.725  27.195  28.748  1.00  0.00    -0.354 N 
ATOM     19  C   UNL A   1      42.500  31.225  30.398  1.00  0.00     0.074 A 
ATOM     20  C   UNL A   1      41.260  31.952  30.530  1.00  0.00     0.031 C 
ATOM     21  C   UNL A   1      40.371  25.566  28.020  1.00  0.00     0.029 A 
ATOM     22  C   UNL A   1      41.749  25.876  28.362  1.00  0.00     0.049 A 
ATOM     23  H   UNL A   1      42.507  27.665  29.118  1.00  0.00     0.167 HD
ATOM     24  C   UNL A   1      43.703  31.658  30.832  1.00  0.00     0.037 A 
ATOM     25  C   UNL A   1      42.796  25.042  28.241  1.00  0.00     0.037 A 
ATOM     26  C   UNL A   1      44.899  30.877  30.672  1.00  0.00     0.049 A 
ATOM     27  C   UNL A   1      44.146  25.601  28.598  1.00  0.00     0.074 A 
ATOM     28  C   UNL A   1      46.205  31.220  30.962  1.00  0.00     0.029 A 
ATOM     29  N   UNL A   1      44.921  29.577  30.177  1.00  0.00    -0.354 N 
ATOM     30  N   UNL A   1      44.440  26.782  29.095  1.00  0.00    -0.248 NA
ATOM     31  C   UNL A   1      45.304  24.736  28.362  1.00  0.00     0.031 C 
ATOM     32  C   UNL A   1      47.020  30.143  30.596  1.00  0.00     0.029 A 
ATOM     33  C   UNL A   1      46.218  29.105  30.138  1.00  0.00     0.049 A 
ATOM     34  H   UNL A   1      44.128  29.067  29.894  1.00  0.00     0.167 HD
ATOM     35  C   UNL A   1      45.817  26.796  29.252  1.00  0.00     0.074 A 
ATOM     36  C   UNL A   1      46.291  25.495  28.816  1.00  0.00     0.031 C 
ATOM     37  C   UNL A   1      46.625  27.788  29.707  1.00  0.00     0.037 A 
BRANCH  24  38
ATOM     38  C   UNL A   1      43.766  33.038  31.416  1.00  0.00     0.058 A 
ATOM     39  C   UNL A   1      43.940  34.181  30.621  1.00  0.00     0.135 A 
ATOM     40  C   UNL A   1      43.698  33.213  32.807  1.00  0.00     0.135 A 
ATOM     41  F   UNL A   1      44.057  34.068  29.287  1.00  0.00    -0.206 F 
ATOM     42  C   UNL A   1      44.066  35.447  31.185  1.00  0.00     0.059 A 
ATOM     43  C   UNL A   1      43.795  34.471  33.392  1.00  0.00     0.059 A 
ATOM     44  F   UNL A   1      43.560  32.151  33.617  1.00  0.00    -0.206 F 
ATOM     45  C   UNL A   1      43.991  35.582  32.573  1.00  0.00     0.060 A 
BRANCH  45  46
ATOM     46  S   UNL A   1      44.157  37.229  33.290  1.00  0.00     0.124 S 
ATOM     47  O   UNL A   1      45.388  37.090  34.063  1.00  0.00    -0.237 OA
ATOM     48  O   UNL A   1      44.247  38.075  32.104  1.00  0.00    -0.237 OA
ATOM     49  O   UNL A   1      42.937  37.383  34.076  1.00  0.00    -0.744 OA
ENDBRANCH  45  46
ENDBRANCH  24  38
BRANCH  25  50
ATOM     50  C   UNL A   1      42.624  23.674  27.678  1.00  0.00     0.058 A 
ATOM     51  C   UNL A   1      42.387  22.566  28.502  1.00  0.00     0.135 A 
ATOM     52  C   UNL A   1      42.715  23.441  26.294  1.00  0.00     0.135 A 
ATOM     53  F   UNL A   1      42.290  22.727  29.831  1.00  0.00    -0.206 F 
ATOM     54  C   UNL A   1      42.283  21.277  27.984  1.00  0.00     0.059 A 
ATOM     55  C   UNL A   1      42.578  22.169  25.748  1.00  0.00     0.059 A 
ATOM     56  F   UNL A   1      42.927  24.464  25.450  1.00  0.00    -0.206 F 
ATOM     57  C   UNL A   1      42.385  21.089  26.604  1.00  0.00     0.060 A 
BRANCH  57  58
ATOM     58  S   UNL A   1      42.262  19.414  25.942  1.00  0.00     0.124 S 
ATOM     59  O   UNL A   1      40.821  19.271  25.773  1.00  0.00    -0.237 OA
ATOM     60  O   UNL A   1      43.043  19.512  24.713  1.00  0.00    -0.237 OA
ATOM     61  O   UNL A   1      42.857  18.592  26.992  1.00  0.00    -0.744 OA
ENDBRANCH  57  58
ENDBRANCH  25  50
BRANCH  37  62
ATOM     62  C   UNL A   1      48.086  27.470  29.799  1.00  0.00     0.058 A 
ATOM     63  C   UNL A   1      48.974  27.772  28.757  1.00  0.00     0.135 A 
ATOM     64  C   UNL A   1      48.605  26.906  30.975  1.00  0.00     0.135 A 
ATOM     65  F   UNL A   1      48.519  28.302  27.611  1.00  0.00    -0.206 F 
ATOM     66  C   UNL A   1      50.330  27.502  28.869  1.00  0.00     0.059 A 
ATOM     67  C   UNL A   1      49.963  26.662  31.122  1.00  0.00     0.059 A 
ATOM     68  F   UNL A   1      47.792  26.612  32.002  1.00  0.00    -0.206 F 
ATOM     69  C   UNL A   1      50.816  26.952  30.058  1.00  0.00     0.060 A 
BRANCH  69  70
ATOM     70  S   UNL A   1      52.587  26.649  30.206  1.00  0.00     0.124 S 
ATOM     71  O   UNL A   1      52.930  26.250  28.845  1.00  0.00    -0.237 OA
ATOM     72  O   UNL A   1      53.090  27.951  30.632  1.00  0.00    -0.237 OA
ATOM     73  O   UNL A   1      52.668  25.593  31.211  1.00  0.00    -0.744 OA
ENDBRANCH  69  70
ENDBRANCH  37  62
ENDBRANCH  11  12
ENDBRANCH   4   6
ENDBRANCH   3   4
ENDBRANCH   2   3
ENDBRANCH   1   2
BRANCH   1  74
ATOM     74  O   UNL A   1      30.955  28.312  24.841  1.00  0.00    -0.374 OA
BRANCH  74  75
ATOM     75  C   UNL A   1      31.315  28.923  23.602  1.00  0.00     0.202 C 
BRANCH  75  76
ATOM     76  C   UNL A   1      31.394  27.852  22.517  1.00  0.00     0.261 C 
BRANCH  76  77
ATOM     77  O   UNL A   1      32.772  27.498  22.310  1.00  0.00    -0.461 OA
BRANCH  77  78
ATOM     78  C   UNL A   1      33.043  26.169  22.153  1.00  0.00     0.335 C 
ATOM     79  O   UNL A   1      33.582  25.656  21.180  1.00  0.00    -0.249 OA
BRANCH  78  80
ATOM     80  C   UNL A   1      32.651  25.382  23.413  1.00  0.00     0.228 C 
ATOM     81  C   UNL A   1      31.826  24.145  23.104  1.00  0.00     0.047 C 
ATOM     82  O   UNL A   1      33.788  24.902  24.142  1.00  0.00    -0.361 OA
ATOM     83  C   UNL A   1      32.896  23.105  22.859  1.00  0.00     0.037 C 
ATOM     84  C   UNL A   1      33.953  23.493  23.880  1.00  0.00     0.139 C 
BRANCH  84  85
ATOM     85  C   UNL A   1      33.792  22.748  25.206  1.00  0.00     0.161 C 
BRANCH  85  86
ATOM     86  N   UNL A   1      33.736  21.313  25.032  1.00  0.00    -0.270 N 
ATOM     87  C   UNL A   1      34.827  20.519  24.808  1.00  0.00     0.263 C 
ATOM     88  C   UNL A   1      32.581  20.582  25.127  1.00  0.00     0.280 C 
ATOM     89  O   UNL A   1      35.999  20.825  24.721  1.00  0.00    -0.269 OA
ATOM     90  C   UNL A   1      34.331  19.155  24.709  1.00  0.00     0.071 A 
ATOM     91  C   UNL A   1      32.972  19.185  24.904  1.00  0.00     0.141 A 
ATOM     92  O   UNL A   1      31.458  20.989  25.365  1.00  0.00    -0.267 OA
ATOM     93  C   UNL A   1      34.970  17.959  24.466  1.00  0.00     0.018 A 
ATOM     94  N   UNL A   1      32.151  18.121  24.882  1.00  0.00    -0.250 NA
ATOM     95  C   UNL A   1      34.162  16.820  24.432  1.00  0.00     0.021 A 
ATOM     96  C   UNL A   1      32.782  16.948  24.645  1.00  0.00     0.112 A 
ENDBRANCH  85  86
ENDBRANCH  84  85
ENDBRANCH  78  80
ENDBRANCH  77  78
ENDBRANCH  76  77
ENDBRANCH  75  76
ENDBRANCH  74  75
ENDBRANCH   1  74
TORSDOF 19
ENDMDL
MODEL 2
REMARK VINA RESULT:     -10.8      3.125      8.776
REMARK SMILES O=C(OCCOCCOC(=O)[C@H]1CC[C@H](CN2C(=O)c3cccnc3C2=O)O1)c1ccc(-c2c3nc(c(-c4c(F)cc(S(=O)(=O)[O-])cc4F)c4ccc([nH]4)c(-c4c(F)cc(S(=O)(=O)[O-])cc4F)c4nc(c(-c5c(F)cc(S(=O)(=O)[O-])cc5F)c5ccc2[nH]5)C=C4)C=C3)cc1
REMARK SMILES IDX 5 1 4 2 3 3 2 4 1 5 29 6 30 7 94 8 31 9 93 10 32 11 33 12
REMARK SMILES IDX 34 13 87 14 35 15 92 16 86 17 88 18 36 19 91 20 85 21 84 22
REMARK SMILES IDX 37 24 71 25 50 26 70 27 51 28 54 29 69 30 89 31 52 32 53 33
REMARK SMILES IDX 68 35 90 36 55 37 38 38 39 39 48 40 40 41 41 42 47 43 49 44
REMARK SMILES IDX 42 45 43 46 44 47 45 48 46 49 72 50 73 51 82 52 74 53 75 54
REMARK SMILES IDX 81 55 83 56 76 57 77 58 78 59 79 60 80 61 56 62 57 63 66 64
REMARK SMILES IDX 58 65 59 66 65 67 67 68 60 69 61 70 62 71 63 72 64 73 6 74
REMARK SMILES IDX 7 75 8 76 9 77 10 78 11 79 12 80 13 81 28 82 14 83 15 84
REMARK SMILES IDX 16 85 17 86 18 87 26 88 19 89 20 90 25 91 27 92 21 93 24 94
REMARK SMILES IDX 22 95 23 96
REMARK H PARENT 88 23 54 34
REMARK Flexibility Score: inf
ROOT
ATOM      1  C   UNL A   1      31.786  29.464  25.353  1.00  0.00     0.202 C 
ENDROOT
BRANCH   1   2
ATOM      2  C   UNL A   1      32.301  29.321  26.785  1.00  0.00     0.261 C 
BRANCH   2   3
ATOM      3  O   UNL A   1      33.740  29.381  26.803  1.00  0.00    -0.460 OA
BRANCH   3   4
ATOM      4  C   UNL A   1      34.505  30.334  27.391  1.00  0.00     0.338 C 
ATOM      5  O   UNL A   1      34.109  31.495  27.433  1.00  0.00    -0.246 OA
BRANCH   4   6
ATOM      6  C   UNL A   1      35.801  29.988  28.027  1.00  0.00     0.060 A 
ATOM      7  C   UNL A   1      35.878  29.386  29.276  1.00  0.00     0.016 A 
ATOM      8  C   UNL A   1      36.990  30.234  27.336  1.00  0.00     0.016 A 
ATOM      9  C   UNL A   1      37.066  29.150  29.907  1.00  0.00     0.010 A 
ATOM     10  C   UNL A   1      38.216  29.902  27.923  1.00  0.00     0.010 A 
ATOM     11  C   UNL A   1      38.243  29.367  29.218  1.00  0.00    -0.014 A 
BRANCH  11  12
ATOM     12  C   UNL A   1      39.459  29.102  29.985  1.00  0.00     0.031 A 
ATOM     13  C   UNL A   1      40.410  28.088  29.445  1.00  0.00     0.074 A 
ATOM     14  C   UNL A   1      39.775  29.940  30.991  1.00  0.00     0.049 A 
ATOM     15  N   UNL A   1      41.515  27.646  29.964  1.00  0.00    -0.248 NA
ATOM     16  C   UNL A   1      40.076  27.502  28.132  1.00  0.00     0.031 C 
ATOM     17  C   UNL A   1      38.964  31.090  31.423  1.00  0.00     0.029 A 
ATOM     18  N   UNL A   1      40.877  30.001  31.793  1.00  0.00    -0.354 N 
ATOM     19  C   UNL A   1      41.990  26.698  29.070  1.00  0.00     0.074 A 
ATOM     20  C   UNL A   1      41.055  26.627  27.972  1.00  0.00     0.031 C 
ATOM     21  C   UNL A   1      39.612  31.751  32.392  1.00  0.00     0.029 A 
ATOM     22  C   UNL A   1      40.821  31.013  32.723  1.00  0.00     0.049 A 
ATOM     23  H   UNL A   1      41.638  29.381  31.714  1.00  0.00     0.167 HD
ATOM     24  C   UNL A   1      43.110  25.955  29.185  1.00  0.00     0.037 A 
ATOM     25  C   UNL A   1      41.633  31.259  33.764  1.00  0.00     0.037 A 
ATOM     26  C   UNL A   1      44.002  26.083  30.305  1.00  0.00     0.049 A 
ATOM     27  C   UNL A   1      42.796  30.324  33.947  1.00  0.00     0.074 A 
ATOM     28  C   UNL A   1      45.117  25.331  30.617  1.00  0.00     0.029 A 
ATOM     29  N   UNL A   1      43.869  27.046  31.300  1.00  0.00    -0.354 N 
ATOM     30  N   UNL A   1      43.181  29.332  33.175  1.00  0.00    -0.248 NA
ATOM     31  C   UNL A   1      43.621  30.518  35.142  1.00  0.00     0.031 C 
ATOM     32  C   UNL A   1      45.630  25.812  31.827  1.00  0.00     0.029 A 
ATOM     33  C   UNL A   1      44.873  26.903  32.237  1.00  0.00     0.049 A 
ATOM     34  H   UNL A   1      43.163  27.731  31.332  1.00  0.00     0.167 HD
ATOM     35  C   UNL A   1      44.307  28.794  33.778  1.00  0.00     0.074 A 
ATOM     36  C   UNL A   1      44.549  29.588  34.969  1.00  0.00     0.031 C 
ATOM     37  C   UNL A   1      45.071  27.740  33.397  1.00  0.00     0.037 A 
BRANCH  24  38
ATOM     38  C   UNL A   1      43.353  24.913  28.133  1.00  0.00     0.058 A 
ATOM     39  C   UNL A   1      42.928  23.584  28.282  1.00  0.00     0.135 A 
ATOM     40  C   UNL A   1      44.069  25.245  26.972  1.00  0.00     0.135 A 
ATOM     41  F   UNL A   1      42.279  23.201  29.394  1.00  0.00    -0.206 F 
ATOM     42  C   UNL A   1      43.223  22.615  27.327  1.00  0.00     0.059 A 
ATOM     43  C   UNL A   1      44.352  24.299  25.991  1.00  0.00     0.059 A 
ATOM     44  F   UNL A   1      44.524  26.495  26.791  1.00  0.00    -0.206 F 
ATOM     45  C   UNL A   1      43.936  22.983  26.184  1.00  0.00     0.060 A 
BRANCH  45  46
ATOM     46  S   UNL A   1      44.310  21.715  24.956  1.00  0.00     0.124 S 
ATOM     47  O   UNL A   1      45.672  21.342  25.327  1.00  0.00    -0.237 OA
ATOM     48  O   UNL A   1      43.284  20.713  25.223  1.00  0.00    -0.237 OA
ATOM     49  O   UNL A   1      44.179  22.422  23.686  1.00  0.00    -0.744 OA
ENDBRANCH  45  46
ENDBRANCH  24  38
BRANCH  25  50
ATOM     50  C   UNL A   1      41.321  32.343  34.738  1.00  0.00     0.058 A 
ATOM     51  C   UNL A   1      41.850  33.632  34.596  1.00  0.00     0.135 A 
ATOM     52  C   UNL A   1      40.498  32.102  35.854  1.00  0.00     0.135 A 
ATOM     53  F   UNL A   1      42.641  33.921  33.551  1.00  0.00    -0.206 F 
ATOM     54  C   UNL A   1      41.606  34.631  35.536  1.00  0.00     0.059 A 
ATOM     55  C   UNL A   1      40.210  33.092  36.787  1.00  0.00     0.059 A 
ATOM     56  F   UNL A   1      39.950  30.890  36.039  1.00  0.00    -0.206 F 
ATOM     57  C   UNL A   1      40.788  34.349  36.631  1.00  0.00     0.060 A 
BRANCH  57  58
ATOM     58  S   UNL A   1      40.489  35.645  37.852  1.00  0.00     0.124 S 
ATOM     59  O   UNL A   1      39.837  36.666  37.042  1.00  0.00    -0.237 OA
ATOM     60  O   UNL A   1      39.640  34.961  38.823  1.00  0.00    -0.237 OA
ATOM     61  O   UNL A   1      41.829  35.978  38.326  1.00  0.00    -0.744 OA
ENDBRANCH  57  58
ENDBRANCH  25  50
BRANCH  37  62
ATOM     62  C   UNL A   1      46.262  27.434  34.253  1.00  0.00     0.058 A 
ATOM     63  C   UNL A   1      46.192  26.525  35.317  1.00  0.00     0.135 A 
ATOM     64  C   UNL A   1      47.503  28.023  33.960  1.00  0.00     0.135 A 
ATOM     65  F   UNL A   1      45.023  25.947  35.639  1.00  0.00    -0.206 F 
ATOM     66  C   UNL A   1      47.311  26.226  36.082  1.00  0.00     0.059 A 
ATOM     67  C   UNL A   1      48.641  27.710  34.688  1.00  0.00     0.059 A 
ATOM     68  F   UNL A   1      47.618  28.891  32.942  1.00  0.00    -0.206 F 
ATOM     69  C   UNL A   1      48.532  26.820  35.755  1.00  0.00     0.060 A 
BRANCH  69  70
ATOM     70  S   UNL A   1      49.987  26.387  36.729  1.00  0.00     0.124 S 
ATOM     71  O   UNL A   1      50.901  25.917  35.694  1.00  0.00    -0.237 OA
ATOM     72  O   UNL A   1      50.333  27.661  37.352  1.00  0.00    -0.237 OA
ATOM     73  O   UNL A   1      49.490  25.363  37.643  1.00  0.00    -0.744 OA
ENDBRANCH  69  70
ENDBRANCH  37  62
ENDBRANCH  11  12
ENDBRANCH   4   6
ENDBRANCH   3   4
ENDBRANCH   2   3
ENDBRANCH   1   2
BRANCH   1  74
ATOM     74  O   UNL A   1      32.553  28.899  24.295  1.00  0.00    -0.374 OA
BRANCH  74  75
ATOM     75  C   UNL A   1      31.917  28.754  23.026  1.00  0.00     0.202 C 
BRANCH  75  76
ATOM     76  C   UNL A   1      31.120  27.451  23.008  1.00  0.00     0.261 C 
BRANCH  76  77
ATOM     77  O   UNL A   1      31.410  26.743  21.792  1.00  0.00    -0.461 OA
BRANCH  77  78
ATOM     78  C   UNL A   1      32.426  25.832  21.846  1.00  0.00     0.335 C 
ATOM     79  O   UNL A   1      33.289  25.668  20.992  1.00  0.00    -0.249 OA
BRANCH  78  80
ATOM     80  C   UNL A   1      32.403  25.071  23.180  1.00  0.00     0.228 C 
ATOM     81  C   UNL A   1      31.589  23.790  23.115  1.00  0.00     0.047 C 
ATOM     82  O   UNL A   1      33.710  24.663  23.607  1.00  0.00    -0.361 OA
ATOM     83  C   UNL A   1      32.611  22.789  22.630  1.00  0.00     0.037 C 
ATOM     84  C   UNL A   1      33.871  23.253  23.342  1.00  0.00     0.139 C 
BRANCH  84  85
ATOM     85  C   UNL A   1      34.086  22.546  24.680  1.00  0.00     0.161 C 
BRANCH  85  86
ATOM     86  N   UNL A   1      35.458  22.619  25.131  1.00  0.00    -0.270 N 
ATOM     87  C   UNL A   1      36.035  23.736  25.671  1.00  0.00     0.263 C 
ATOM     88  C   UNL A   1      36.319  21.554  25.116  1.00  0.00     0.280 C 
ATOM     89  O   UNL A   1      35.552  24.829  25.882  1.00  0.00    -0.269 OA
ATOM     90  C   UNL A   1      37.406  23.374  25.999  1.00  0.00     0.071 A 
ATOM     91  C   UNL A   1      37.584  22.052  25.668  1.00  0.00     0.141 A 
ATOM     92  O   UNL A   1      36.092  20.417  24.742  1.00  0.00    -0.267 OA
ATOM     93  C   UNL A   1      38.446  24.100  26.535  1.00  0.00     0.018 A 
ATOM     94  N   UNL A   1      38.721  21.351  25.815  1.00  0.00    -0.250 NA
ATOM     95  C   UNL A   1      39.653  23.419  26.710  1.00  0.00     0.021 A 
ATOM     96  C   UNL A   1      39.740  22.068  26.344  1.00  0.00     0.112 A 
ENDBRANCH  85  86
ENDBRANCH  84  85
ENDBRANCH  78  80
ENDBRANCH  77  78
ENDBRANCH  76  77
ENDBRANCH  75  76
ENDBRANCH  74  75
ENDBRANCH   1  74
TORSDOF 19
ENDMDL
MODEL 3
REMARK VINA RESULT:     -10.8      3.438      8.021
REMARK SMILES O=C(OCCOCCOC(=O)[C@H]1CC[C@H](CN2C(=O)c3cccnc3C2=O)O1)c1ccc(-c2c3nc(c(-c4c(F)cc(S(=O)(=O)[O-])cc4F)c4ccc([nH]4)c(-c4c(F)cc(S(=O)(=O)[O-])cc4F)c4nc(c(-c5c(F)cc(S(=O)(=O)[O-])cc5F)c5ccc2[nH]5)C=C4)C=C3)cc1
REMARK SMILES IDX 5 1 4 2 3 3 2 4 1 5 29 6 30 7 94 8 31 9 93 10 32 11 33 12
REMARK SMILES IDX 34 13 87 14 35 15 92 16 86 17 88 18 36 19 91 20 85 21 84 22
REMARK SMILES IDX 37 24 71 25 50 26 70 27 51 28 54 29 69 30 89 31 52 32 53 33
REMARK SMILES IDX 68 35 90 36 55 37 38 38 39 39 48 40 40 41 41 42 47 43 49 44
REMARK SMILES IDX 42 45 43 46 44 47 45 48 46 49 72 50 73 51 82 52 74 53 75 54
REMARK SMILES IDX 81 55 83 56 76 57 77 58 78 59 79 60 80 61 56 62 57 63 66 64
REMARK SMILES IDX 58 65 59 66 65 67 67 68 60 69 61 70 62 71 63 72 64 73 6 74
REMARK SMILES IDX 7 75 8 76 9 77 10 78 11 79 12 80 13 81 28 82 14 83 15 84
REMARK SMILES IDX 16 85 17 86 18 87 26 88 19 89 20 90 25 91 27 92 21 93 24 94
REMARK SMILES IDX 22 95 23 96
REMARK H PARENT 88 23 54 34
REMARK Flexibility Score: inf
ROOT
ATOM      1  C   UNL A   1      38.258  20.427  25.319  1.00  0.00     0.202 C 
ENDROOT
BRANCH   1   2
ATOM      2  C   UNL A   1      39.333  19.344  25.417  1.00  0.00     0.261 C 
BRANCH   2   3
ATOM      3  O   UNL A   1      40.355  19.744  26.350  1.00  0.00    -0.460 OA
BRANCH   3   4
ATOM      4  C   UNL A   1      41.631  20.096  26.053  1.00  0.00     0.338 C 
ATOM      5  O   UNL A   1      42.354  19.315  25.442  1.00  0.00    -0.246 OA
BRANCH   4   6
ATOM      6  C   UNL A   1      42.158  21.434  26.419  1.00  0.00     0.060 A 
ATOM      7  C   UNL A   1      42.226  22.481  25.509  1.00  0.00     0.016 A 
ATOM      8  C   UNL A   1      42.564  21.675  27.735  1.00  0.00     0.016 A 
ATOM      9  C   UNL A   1      42.795  23.685  25.812  1.00  0.00     0.010 A 
ATOM     10  C   UNL A   1      43.052  22.936  28.092  1.00  0.00     0.010 A 
ATOM     11  C   UNL A   1      43.173  23.935  27.117  1.00  0.00    -0.014 A 
BRANCH  11  12
ATOM     12  C   UNL A   1      43.787  25.244  27.336  1.00  0.00     0.031 A 
ATOM     13  C   UNL A   1      42.944  26.309  27.949  1.00  0.00     0.074 A 
ATOM     14  C   UNL A   1      45.123  25.353  27.202  1.00  0.00     0.049 A 
ATOM     15  N   UNL A   1      43.241  27.550  28.190  1.00  0.00    -0.248 NA
ATOM     16  C   UNL A   1      41.582  25.918  28.363  1.00  0.00     0.031 C 
ATOM     17  C   UNL A   1      46.027  24.262  26.801  1.00  0.00     0.029 A 
ATOM     18  N   UNL A   1      45.964  26.399  27.441  1.00  0.00    -0.354 N 
ATOM     19  C   UNL A   1      42.095  28.105  28.740  1.00  0.00     0.074 A 
ATOM     20  C   UNL A   1      41.093  27.067  28.800  1.00  0.00     0.031 C 
ATOM     21  C   UNL A   1      47.294  24.697  26.849  1.00  0.00     0.029 A 
ATOM     22  C   UNL A   1      47.282  26.115  27.172  1.00  0.00     0.049 A 
ATOM     23  H   UNL A   1      45.657  27.274  27.774  1.00  0.00     0.167 HD
ATOM     24  C   UNL A   1      41.916  29.381  29.142  1.00  0.00     0.037 A 
ATOM     25  C   UNL A   1      48.342  26.940  27.131  1.00  0.00     0.037 A 
ATOM     26  C   UNL A   1      42.962  30.363  29.059  1.00  0.00     0.049 A 
ATOM     27  C   UNL A   1      48.081  28.386  27.447  1.00  0.00     0.074 A 
ATOM     28  C   UNL A   1      42.906  31.715  29.327  1.00  0.00     0.029 A 
ATOM     29  N   UNL A   1      44.270  30.078  28.679  1.00  0.00    -0.354 N 
ATOM     30  N   UNL A   1      46.961  28.951  27.841  1.00  0.00    -0.248 NA
ATOM     31  C   UNL A   1      49.207  29.311  27.295  1.00  0.00     0.031 C 
ATOM     32  C   UNL A   1      44.169  32.256  29.062  1.00  0.00     0.029 A 
ATOM     33  C   UNL A   1      45.030  31.230  28.690  1.00  0.00     0.049 A 
ATOM     34  H   UNL A   1      44.606  29.184  28.436  1.00  0.00     0.167 HD
ATOM     35  C   UNL A   1      47.251  30.297  28.006  1.00  0.00     0.074 A 
ATOM     36  C   UNL A   1      48.659  30.452  27.688  1.00  0.00     0.031 C 
ATOM     37  C   UNL A   1      46.437  31.317  28.378  1.00  0.00     0.037 A 
BRANCH  24  38
ATOM     38  C   UNL A   1      40.542  29.768  29.604  1.00  0.00     0.058 A 
ATOM     39  C   UNL A   1      39.466  29.914  28.716  1.00  0.00     0.135 A 
ATOM     40  C   UNL A   1      40.312  30.044  30.961  1.00  0.00     0.135 A 
ATOM     41  F   UNL A   1      39.640  29.707  27.400  1.00  0.00    -0.206 F 
ATOM     42  C   UNL A   1      38.215  30.341  29.152  1.00  0.00     0.059 A 
ATOM     43  C   UNL A   1      39.064  30.446  31.425  1.00  0.00     0.059 A 
ATOM     44  F   UNL A   1      41.314  29.947  31.850  1.00  0.00    -0.206 F 
ATOM     45  C   UNL A   1      38.024  30.605  30.511  1.00  0.00     0.060 A 
BRANCH  45  46
ATOM     46  S   UNL A   1      36.398  31.158  31.061  1.00  0.00     0.124 S 
ATOM     47  O   UNL A   1      35.660  31.195  29.801  1.00  0.00    -0.237 OA
ATOM     48  O   UNL A   1      36.009  30.103  31.990  1.00  0.00    -0.237 OA
ATOM     49  O   UNL A   1      36.667  32.458  31.668  1.00  0.00    -0.744 OA
ENDBRANCH  45  46
ENDBRANCH  24  38
BRANCH  25  50
ATOM     50  C   UNL A   1      49.677  26.449  26.688  1.00  0.00     0.058 A 
ATOM     51  C   UNL A   1      50.055  26.465  25.339  1.00  0.00     0.135 A 
ATOM     52  C   UNL A   1      50.602  25.928  27.611  1.00  0.00     0.135 A 
ATOM     53  F   UNL A   1      49.214  26.950  24.413  1.00  0.00    -0.206 F 
ATOM     54  C   UNL A   1      51.279  25.953  24.916  1.00  0.00     0.059 A 
ATOM     55  C   UNL A   1      51.845  25.444  27.219  1.00  0.00     0.059 A 
ATOM     56  F   UNL A   1      50.304  25.897  28.921  1.00  0.00    -0.206 F 
ATOM     57  C   UNL A   1      52.166  25.440  25.864  1.00  0.00     0.060 A 
BRANCH  57  58
ATOM     58  S   UNL A   1      53.746  24.767  25.306  1.00  0.00     0.124 S 
ATOM     59  O   UNL A   1      53.384  23.390  24.995  1.00  0.00    -0.237 OA
ATOM     60  O   UNL A   1      54.055  25.620  24.163  1.00  0.00    -0.237 OA
ATOM     61  O   UNL A   1      54.616  24.943  26.465  1.00  0.00    -0.744 OA
ENDBRANCH  57  58
ENDBRANCH  25  50
BRANCH  37  62
ATOM     62  C   UNL A   1      47.074  32.667  28.508  1.00  0.00     0.058 A 
ATOM     63  C   UNL A   1      47.697  33.078  29.694  1.00  0.00     0.135 A 
ATOM     64  C   UNL A   1      47.105  33.534  27.404  1.00  0.00     0.135 A 
ATOM     65  F   UNL A   1      47.681  32.285  30.778  1.00  0.00    -0.206 F 
ATOM     66  C   UNL A   1      48.311  34.318  29.790  1.00  0.00     0.059 A 
ATOM     67  C   UNL A   1      47.746  34.762  27.467  1.00  0.00     0.059 A 
ATOM     68  F   UNL A   1      46.531  33.175  26.244  1.00  0.00    -0.206 F 
ATOM     69  C   UNL A   1      48.335  35.151  28.669  1.00  0.00     0.060 A 
BRANCH  69  70
ATOM     70  S   UNL A   1      49.177  36.740  28.795  1.00  0.00     0.124 S 
ATOM     71  O   UNL A   1      50.369  36.504  27.989  1.00  0.00    -0.237 OA
ATOM     72  O   UNL A   1      48.195  37.658  28.225  1.00  0.00    -0.237 OA
ATOM     73  O   UNL A   1      49.407  36.889  30.229  1.00  0.00    -0.744 OA
ENDBRANCH  69  70
ENDBRANCH  37  62
ENDBRANCH  11  12
ENDBRANCH   4   6
ENDBRANCH   3   4
ENDBRANCH   2   3
ENDBRANCH   1   2
BRANCH   1  74
ATOM     74  O   UNL A   1      38.665  21.791  25.326  1.00  0.00    -0.374 OA
BRANCH  74  75
ATOM     75  C   UNL A   1      37.982  22.676  26.215  1.00  0.00     0.202 C 
BRANCH  75  76
ATOM     76  C   UNL A   1      37.190  23.695  25.399  1.00  0.00     0.261 C 
BRANCH  76  77
ATOM     77  O   UNL A   1      36.003  23.063  24.889  1.00  0.00    -0.461 OA
BRANCH  77  78
ATOM     78  C   UNL A   1      35.755  23.220  23.555  1.00  0.00     0.335 C 
ATOM     79  O   UNL A   1      36.457  22.805  22.641  1.00  0.00    -0.249 OA
BRANCH  78  80
ATOM     80  C   UNL A   1      34.411  23.929  23.332  1.00  0.00     0.228 C 
ATOM     81  C   UNL A   1      33.539  23.232  22.302  1.00  0.00     0.047 C 
ATOM     82  O   UNL A   1      33.612  23.987  24.522  1.00  0.00    -0.361 OA
ATOM     83  C   UNL A   1      32.799  22.220  23.147  1.00  0.00     0.037 C 
ATOM     84  C   UNL A   1      32.570  22.991  24.436  1.00  0.00     0.139 C 
BRANCH  84  85
ATOM     85  C   UNL A   1      31.226  23.718  24.457  1.00  0.00     0.161 C 
BRANCH  85  86
ATOM     86  N   UNL A   1      31.341  25.084  24.920  1.00  0.00    -0.270 N 
ATOM     87  C   UNL A   1      31.403  25.451  26.236  1.00  0.00     0.263 C 
ATOM     88  C   UNL A   1      31.458  26.161  24.082  1.00  0.00     0.280 C 
ATOM     89  O   UNL A   1      31.383  24.757  27.233  1.00  0.00    -0.269 OA
ATOM     90  C   UNL A   1      31.529  26.900  26.255  1.00  0.00     0.071 A 
ATOM     91  C   UNL A   1      31.566  27.337  24.953  1.00  0.00     0.141 A 
ATOM     92  O   UNL A   1      31.485  26.159  22.863  1.00  0.00    -0.267 OA
ATOM     93  C   UNL A   1      31.605  27.804  27.291  1.00  0.00     0.018 A 
ATOM     94  N   UNL A   1      31.672  28.617  24.555  1.00  0.00    -0.250 NA
ATOM     95  C   UNL A   1      31.715  29.150  26.934  1.00  0.00     0.021 A 
ATOM     96  C   UNL A   1      31.747  29.501  25.576  1.00  0.00     0.112 A 
ENDBRANCH  85  86
ENDBRANCH  84  85
ENDBRANCH  78  80
ENDBRANCH  77  78
ENDBRANCH  76  77
ENDBRANCH  75  76
ENDBRANCH  74  75
ENDBRANCH   1  74
TORSDOF 19
ENDMDL
