MODEL 1
REMARK VINA RESULT:     -10.5      0.000      0.000
REMARK SMILES CC[C@@H]1CCCN1c1cc(C)c(N)c(C(=O)OCCOCCOC(=O)c2ccc(-c3c4nc(c(-c5c(F)cc(S(=O)(=O)[O-])cc5F)c5ccc([nH]5)c(-c5c(F)cc(S(=O)(=O)[O-])cc5F)c5nc(c(-c6c(F)cc(S(=O)(=O)[O-])cc6F)c6ccc3[nH]6)C=C5)C=C4)cc2)c1
REMARK SMILES IDX 21 1 20 2 19 3 18 4 17 5 15 6 16 7 14 8 8 9 9 10 92 11 10 12
REMARK SMILES IDX 11 13 12 14 7 15 3 16 4 17 5 18 6 19 2 20 1 21 13 22 22 25
REMARK SMILES IDX 23 26 24 27 25 28 26 29 27 30 91 31 28 32 90 33 29 34 30 35
REMARK SMILES IDX 31 36 84 37 32 38 89 39 83 40 85 41 33 42 88 43 82 44 81 45
REMARK SMILES IDX 34 47 68 48 47 49 67 50 48 51 51 52 66 53 86 54 49 55 50 56
REMARK SMILES IDX 65 58 87 59 52 60 35 61 36 62 45 63 37 64 38 65 44 66 46 67
REMARK SMILES IDX 39 68 40 69 41 70 42 71 43 72 69 73 70 74 79 75 71 76 72 77
REMARK SMILES IDX 78 78 80 79 73 80 74 81 75 82 76 83 77 84 53 85 54 86 63 87
REMARK SMILES IDX 55 88 56 89 62 90 64 91 57 92 58 93 59 94 60 95 61 96
REMARK H PARENT 13 23 13 24 85 46 51 57
REMARK Flexibility Score: inf
ROOT
ATOM      1  C   UNL A   1      35.008  32.341  28.129  1.00  0.00     0.202 C 
ENDROOT
BRANCH   1   2
ATOM      2  O   UNL A   1      33.976  31.573  27.503  1.00  0.00    -0.374 OA
BRANCH   2   3
ATOM      3  C   UNL A   1      34.173  30.159  27.449  1.00  0.00     0.202 C 
BRANCH   3   4
ATOM      4  C   UNL A   1      33.448  29.419  26.320  1.00  0.00     0.261 C 
BRANCH   4   5
ATOM      5  O   UNL A   1      34.084  28.162  26.025  1.00  0.00    -0.460 OA
BRANCH   5   6
ATOM      6  C   UNL A   1      33.249  27.094  26.028  1.00  0.00     0.340 C 
ATOM      7  O   UNL A   1      32.260  26.955  26.735  1.00  0.00    -0.246 OA
BRANCH   6   8
ATOM      8  C   UNL A   1      33.581  26.154  24.926  1.00  0.00     0.085 A 
ATOM      9  C   UNL A   1      34.693  24.120  24.137  1.00  0.00     0.038 A 
ATOM     10  C   UNL A   1      34.066  24.342  22.906  1.00  0.00     0.031 A 
ATOM     11  C   UNL A   1      34.410  25.038  25.155  1.00  0.00     0.043 A 
ATOM     12  C   UNL A   1      33.270  25.470  22.635  1.00  0.00    -0.025 A 
ATOM     13  C   UNL A   1      32.708  25.642  21.251  1.00  0.00     0.047 C 
ATOM     14  C   UNL A   1      33.021  26.398  23.653  1.00  0.00     0.049 A 
BRANCH   9  15
ATOM     15  N   UNL A   1      35.480  23.019  24.350  1.00  0.00    -0.369 N 
ATOM     16  C   UNL A   1      35.119  21.598  24.512  1.00  0.00     0.082 C 
ATOM     17  C   UNL A   1      36.227  21.124  25.464  1.00  0.00     0.027 C 
ATOM     18  C   UNL A   1      37.459  21.823  24.910  1.00  0.00     0.024 C 
ATOM     19  C   UNL A   1      36.939  23.181  24.429  1.00  0.00     0.117 C 
BRANCH  16  20
ATOM     20  C   UNL A   1      33.743  21.213  25.049  1.00  0.00     0.021 C 
ATOM     21  C   UNL A   1      32.710  20.978  23.953  1.00  0.00     0.006 C 
ENDBRANCH  16  20
ENDBRANCH   9  15
BRANCH  14  22
ATOM     22  N   UNL A   1      32.388  27.610  23.356  1.00  0.00    -0.398 N 
ATOM     23  H   UNL A   1      31.483  27.790  23.697  1.00  0.00     0.156 HD
ATOM     24  H   UNL A   1      32.849  28.284  22.804  1.00  0.00     0.156 HD
ENDBRANCH  14  22
ENDBRANCH   6   8
ENDBRANCH   5   6
ENDBRANCH   4   5
ENDBRANCH   3   4
ENDBRANCH   2   3
ENDBRANCH   1   2
BRANCH   1  25
ATOM     25  C   UNL A   1      34.971  32.405  29.660  1.00  0.00     0.261 C 
BRANCH  25  26
ATOM     26  O   UNL A   1      35.806  31.397  30.261  1.00  0.00    -0.460 OA
BRANCH  26  27
ATOM     27  C   UNL A   1      36.955  31.859  30.805  1.00  0.00     0.338 C 
ATOM     28  O   UNL A   1      37.066  32.692  31.695  1.00  0.00    -0.246 OA
BRANCH  27  29
ATOM     29  C   UNL A   1      38.104  31.078  30.304  1.00  0.00     0.060 A 
ATOM     30  C   UNL A   1      39.118  30.770  31.220  1.00  0.00     0.016 A 
ATOM     31  C   UNL A   1      38.222  30.702  28.964  1.00  0.00     0.016 A 
ATOM     32  C   UNL A   1      40.279  30.134  30.788  1.00  0.00     0.010 A 
ATOM     33  C   UNL A   1      39.393  30.068  28.531  1.00  0.00     0.010 A 
ATOM     34  C   UNL A   1      40.442  29.814  29.434  1.00  0.00    -0.014 A 
BRANCH  34  35
ATOM     35  C   UNL A   1      41.763  29.336  28.956  1.00  0.00     0.031 A 
ATOM     36  C   UNL A   1      42.910  30.307  28.880  1.00  0.00     0.074 A 
ATOM     37  C   UNL A   1      41.949  28.042  28.636  1.00  0.00     0.049 A 
ATOM     38  N   UNL A   1      44.147  30.101  28.505  1.00  0.00    -0.248 NA
ATOM     39  C   UNL A   1      42.627  31.697  29.274  1.00  0.00     0.031 C 
ATOM     40  C   UNL A   1      40.920  27.004  28.688  1.00  0.00     0.029 A 
ATOM     41  N   UNL A   1      43.070  27.383  28.200  1.00  0.00    -0.354 N 
ATOM     42  C   UNL A   1      44.786  31.330  28.613  1.00  0.00     0.074 A 
ATOM     43  C   UNL A   1      43.796  32.284  29.062  1.00  0.00     0.031 C 
ATOM     44  C   UNL A   1      41.456  25.838  28.286  1.00  0.00     0.029 A 
ATOM     45  C   UNL A   1      42.858  26.052  27.929  1.00  0.00     0.049 A 
ATOM     46  H   UNL A   1      43.945  27.821  28.090  1.00  0.00     0.167 HD
ATOM     47  C   UNL A   1      46.084  31.633  28.371  1.00  0.00     0.037 A 
ATOM     48  C   UNL A   1      43.693  25.117  27.435  1.00  0.00     0.037 A 
ATOM     49  C   UNL A   1      47.070  30.678  27.936  1.00  0.00     0.049 A 
ATOM     50  C   UNL A   1      45.125  25.487  27.142  1.00  0.00     0.074 A 
ATOM     51  C   UNL A   1      48.419  30.881  27.701  1.00  0.00     0.029 A 
ATOM     52  N   UNL A   1      46.814  29.343  27.661  1.00  0.00    -0.354 N 
ATOM     53  N   UNL A   1      45.726  26.644  27.292  1.00  0.00    -0.248 NA
ATOM     54  C   UNL A   1      45.994  24.422  26.622  1.00  0.00     0.031 C 
ATOM     55  C   UNL A   1      48.969  29.680  27.241  1.00  0.00     0.029 A 
ATOM     56  C   UNL A   1      47.974  28.717  27.235  1.00  0.00     0.049 A 
ATOM     57  H   UNL A   1      45.937  28.906  27.755  1.00  0.00     0.167 HD
ATOM     58  C   UNL A   1      47.046  26.440  26.906  1.00  0.00     0.074 A 
ATOM     59  C   UNL A   1      47.161  25.046  26.531  1.00  0.00     0.031 C 
ATOM     60  C   UNL A   1      48.073  27.327  26.865  1.00  0.00     0.037 A 
BRANCH  47  61
ATOM     61  C   UNL A   1      46.514  33.063  28.550  1.00  0.00     0.058 A 
ATOM     62  C   UNL A   1      47.009  33.538  29.776  1.00  0.00     0.135 A 
ATOM     63  C   UNL A   1      46.479  33.955  27.467  1.00  0.00     0.135 A 
ATOM     64  F   UNL A   1      47.047  32.731  30.848  1.00  0.00    -0.206 F 
ATOM     65  C   UNL A   1      47.439  34.852  29.924  1.00  0.00     0.059 A 
ATOM     66  C   UNL A   1      46.926  35.267  27.587  1.00  0.00     0.059 A 
ATOM     67  F   UNL A   1      46.011  33.553  26.275  1.00  0.00    -0.206 F 
ATOM     68  C   UNL A   1      47.395  35.710  28.822  1.00  0.00     0.060 A 
BRANCH  68  69
ATOM     69  S   UNL A   1      47.977  37.408  29.024  1.00  0.00     0.124 S 
ATOM     70  O   UNL A   1      48.015  37.531  30.479  1.00  0.00    -0.237 OA
ATOM     71  O   UNL A   1      49.275  37.374  28.358  1.00  0.00    -0.237 OA
ATOM     72  O   UNL A   1      46.952  38.201  28.354  1.00  0.00    -0.744 OA
ENDBRANCH  68  69
ENDBRANCH  47  61
BRANCH  48  73
ATOM     73  C   UNL A   1      43.196  23.741  27.168  1.00  0.00     0.058 A 
ATOM     74  C   UNL A   1      42.842  23.331  25.874  1.00  0.00     0.135 A 
ATOM     75  C   UNL A   1      43.058  22.811  28.210  1.00  0.00     0.135 A 
ATOM     76  F   UNL A   1      42.945  24.188  24.847  1.00  0.00    -0.206 F 
ATOM     77  C   UNL A   1      42.352  22.053  25.624  1.00  0.00     0.059 A 
ATOM     78  C   UNL A   1      42.594  21.520  27.981  1.00  0.00     0.059 A 
ATOM     79  F   UNL A   1      43.394  23.150  29.464  1.00  0.00    -0.206 F 
ATOM     80  C   UNL A   1      42.232  21.153  26.686  1.00  0.00     0.060 A 
BRANCH  80  81
ATOM     81  S   UNL A   1      41.636  19.483  26.348  1.00  0.00     0.124 S 
ATOM     82  O   UNL A   1      42.049  18.774  27.554  1.00  0.00    -0.237 OA
ATOM     83  O   UNL A   1      40.200  19.694  26.191  1.00  0.00    -0.237 OA
ATOM     84  O   UNL A   1      42.344  19.116  25.125  1.00  0.00    -0.744 OA
ENDBRANCH  80  81
ENDBRANCH  48  73
BRANCH  60  85
ATOM     85  C   UNL A   1      49.415  26.810  26.424  1.00  0.00     0.058 A 
ATOM     86  C   UNL A   1      49.868  26.966  25.104  1.00  0.00     0.135 A 
ATOM     87  C   UNL A   1      50.274  26.184  27.342  1.00  0.00     0.135 A 
ATOM     88  F   UNL A   1      49.085  27.554  24.187  1.00  0.00    -0.206 F 
ATOM     89  C   UNL A   1      51.113  26.491  24.703  1.00  0.00     0.059 A 
ATOM     90  C   UNL A   1      51.534  25.726  26.970  1.00  0.00     0.059 A 
ATOM     91  F   UNL A   1      49.895  26.022  28.620  1.00  0.00    -0.206 F 
ATOM     92  C   UNL A   1      51.937  25.870  25.643  1.00  0.00     0.060 A 
BRANCH  92  93
ATOM     93  S   UNL A   1      53.557  25.270  25.115  1.00  0.00     0.124 S 
ATOM     94  O   UNL A   1      53.572  25.665  23.710  1.00  0.00    -0.237 OA
ATOM     95  O   UNL A   1      54.465  26.007  25.989  1.00  0.00    -0.237 OA
ATOM     96  O   UNL A   1      53.485  23.834  25.364  1.00  0.00    -0.744 OA
ENDBRANCH  92  93
ENDBRANCH  60  85
ENDBRANCH  34  35
ENDBRANCH  27  29
ENDBRANCH  26  27
ENDBRANCH  25  26
ENDBRANCH   1  25
TORSDOF 20
ENDMDL
MODEL 2
REMARK VINA RESULT:     -10.4      0.611      1.842
REMARK SMILES CC[C@@H]1CCCN1c1cc(C)c(N)c(C(=O)OCCOCCOC(=O)c2ccc(-c3c4nc(c(-c5c(F)cc(S(=O)(=O)[O-])cc5F)c5ccc([nH]5)c(-c5c(F)cc(S(=O)(=O)[O-])cc5F)c5nc(c(-c6c(F)cc(S(=O)(=O)[O-])cc6F)c6ccc3[nH]6)C=C5)C=C4)cc2)c1
REMARK SMILES IDX 21 1 20 2 19 3 18 4 17 5 15 6 16 7 14 8 8 9 9 10 92 11 10 12
REMARK SMILES IDX 11 13 12 14 7 15 3 16 4 17 5 18 6 19 2 20 1 21 13 22 22 25
REMARK SMILES IDX 23 26 24 27 25 28 26 29 27 30 91 31 28 32 90 33 29 34 30 35
REMARK SMILES IDX 31 36 84 37 32 38 89 39 83 40 85 41 33 42 88 43 82 44 81 45
REMARK SMILES IDX 34 47 68 48 47 49 67 50 48 51 51 52 66 53 86 54 49 55 50 56
REMARK SMILES IDX 65 58 87 59 52 60 35 61 36 62 45 63 37 64 38 65 44 66 46 67
REMARK SMILES IDX 39 68 40 69 41 70 42 71 43 72 69 73 70 74 79 75 71 76 72 77
REMARK SMILES IDX 78 78 80 79 73 80 74 81 75 82 76 83 77 84 53 85 54 86 63 87
REMARK SMILES IDX 55 88 56 89 62 90 64 91 57 92 58 93 59 94 60 95 61 96
REMARK H PARENT 13 23 13 24 85 46 51 57
REMARK Flexibility Score: inf
ROOT
ATOM      1  C   UNL A   1      34.364  32.310  28.401  1.00  0.00     0.202 C 
ENDROOT
BRANCH   1   2
ATOM      2  O   UNL A   1      33.443  31.310  27.955  1.00  0.00    -0.374 OA
BRANCH   2   3
ATOM      3  C   UNL A   1      33.845  30.525  26.831  1.00  0.00     0.202 C 
BRANCH   3   4
ATOM      4  C   UNL A   1      34.007  29.022  27.079  1.00  0.00     0.261 C 
BRANCH   4   5
ATOM      5  O   UNL A   1      33.669  28.259  25.907  1.00  0.00    -0.460 OA
BRANCH   5   6
ATOM      6  C   UNL A   1      33.087  27.062  26.164  1.00  0.00     0.340 C 
ATOM      7  O   UNL A   1      32.234  26.842  27.013  1.00  0.00    -0.246 OA
BRANCH   6   8
ATOM      8  C   UNL A   1      33.493  26.045  25.157  1.00  0.00     0.085 A 
ATOM      9  C   UNL A   1      34.565  23.913  24.610  1.00  0.00     0.038 A 
ATOM     10  C   UNL A   1      34.105  24.100  23.302  1.00  0.00     0.031 A 
ATOM     11  C   UNL A   1      34.218  24.900  25.541  1.00  0.00     0.043 A 
ATOM     12  C   UNL A   1      33.418  25.254  22.881  1.00  0.00    -0.025 A 
ATOM     13  C   UNL A   1      33.037  25.379  21.432  1.00  0.00     0.047 C 
ATOM     14  C   UNL A   1      33.105  26.249  23.815  1.00  0.00     0.049 A 
BRANCH   9  15
ATOM     15  N   UNL A   1      35.253  22.784  24.972  1.00  0.00    -0.369 N 
ATOM     16  C   UNL A   1      36.591  22.627  25.571  1.00  0.00     0.082 C 
ATOM     17  C   UNL A   1      37.022  21.282  24.970  1.00  0.00     0.027 C 
ATOM     18  C   UNL A   1      35.746  20.459  25.055  1.00  0.00     0.024 C 
ATOM     19  C   UNL A   1      34.626  21.468  24.785  1.00  0.00     0.117 C 
BRANCH  16  20
ATOM     20  C   UNL A   1      37.663  23.690  25.342  1.00  0.00     0.021 C 
ATOM     21  C   UNL A   1      38.316  24.178  26.630  1.00  0.00     0.006 C 
ENDBRANCH  16  20
ENDBRANCH   9  15
BRANCH  14  22
ATOM     22  N   UNL A   1      32.587  27.475  23.384  1.00  0.00    -0.398 N 
ATOM     23  H   UNL A   1      31.617  27.641  23.422  1.00  0.00     0.156 HD
ATOM     24  H   UNL A   1      33.193  28.173  23.043  1.00  0.00     0.156 HD
ENDBRANCH  14  22
ENDBRANCH   6   8
ENDBRANCH   5   6
ENDBRANCH   4   5
ENDBRANCH   3   4
ENDBRANCH   2   3
ENDBRANCH   1   2
BRANCH   1  25
ATOM     25  C   UNL A   1      35.156  31.983  29.672  1.00  0.00     0.261 C 
BRANCH  25  26
ATOM     26  O   UNL A   1      35.814  30.705  29.583  1.00  0.00    -0.460 OA
BRANCH  26  27
ATOM     27  C   UNL A   1      36.583  30.384  30.649  1.00  0.00     0.338 C 
ATOM     28  O   UNL A   1      36.199  30.092  31.773  1.00  0.00    -0.246 OA
BRANCH  27  29
ATOM     29  C   UNL A   1      37.994  30.247  30.234  1.00  0.00     0.060 A 
ATOM     30  C   UNL A   1      38.250  30.113  28.864  1.00  0.00     0.016 A 
ATOM     31  C   UNL A   1      39.040  30.194  31.158  1.00  0.00     0.016 A 
ATOM     32  C   UNL A   1      39.546  29.869  28.416  1.00  0.00     0.010 A 
ATOM     33  C   UNL A   1      40.342  29.941  30.706  1.00  0.00     0.010 A 
ATOM     34  C   UNL A   1      40.594  29.742  29.337  1.00  0.00    -0.014 A 
BRANCH  34  35
ATOM     35  C   UNL A   1      41.920  29.271  28.865  1.00  0.00     0.031 A 
ATOM     36  C   UNL A   1      43.062  30.249  28.794  1.00  0.00     0.074 A 
ATOM     37  C   UNL A   1      42.115  27.979  28.545  1.00  0.00     0.049 A 
ATOM     38  N   UNL A   1      44.302  30.050  28.426  1.00  0.00    -0.248 NA
ATOM     39  C   UNL A   1      42.769  31.637  29.188  1.00  0.00     0.031 C 
ATOM     40  C   UNL A   1      41.092  26.935  28.592  1.00  0.00     0.029 A 
ATOM     41  N   UNL A   1      43.242  27.326  28.115  1.00  0.00    -0.354 N 
ATOM     42  C   UNL A   1      44.933  31.283  28.538  1.00  0.00     0.074 A 
ATOM     43  C   UNL A   1      43.935  32.231  28.982  1.00  0.00     0.031 C 
ATOM     44  C   UNL A   1      41.636  25.772  28.192  1.00  0.00     0.029 A 
ATOM     45  C   UNL A   1      43.039  25.994  27.842  1.00  0.00     0.049 A 
ATOM     46  H   UNL A   1      44.115  27.769  28.010  1.00  0.00     0.167 HD
ATOM     47  C   UNL A   1      46.231  31.594  28.302  1.00  0.00     0.037 A 
ATOM     48  C   UNL A   1      43.882  25.064  27.352  1.00  0.00     0.037 A 
ATOM     49  C   UNL A   1      47.224  30.644  27.871  1.00  0.00     0.049 A 
ATOM     50  C   UNL A   1      45.313  25.443  27.067  1.00  0.00     0.074 A 
ATOM     51  C   UNL A   1      48.573  30.855  27.643  1.00  0.00     0.029 A 
ATOM     52  N   UNL A   1      46.978  29.308  27.595  1.00  0.00    -0.354 N 
ATOM     53  N   UNL A   1      45.906  26.603  27.220  1.00  0.00    -0.248 NA
ATOM     54  C   UNL A   1      46.190  24.383  26.550  1.00  0.00     0.031 C 
ATOM     55  C   UNL A   1      49.133  29.658  27.185  1.00  0.00     0.029 A 
ATOM     56  C   UNL A   1      48.143  28.688  27.175  1.00  0.00     0.049 A 
ATOM     57  H   UNL A   1      46.103  28.865  27.685  1.00  0.00     0.167 HD
ATOM     58  C   UNL A   1      47.230  26.407  26.840  1.00  0.00     0.074 A 
ATOM     59  C   UNL A   1      47.354  25.013  26.466  1.00  0.00     0.031 C 
ATOM     60  C   UNL A   1      48.252  27.299  26.805  1.00  0.00     0.037 A 
BRANCH  47  61
ATOM     61  C   UNL A   1      46.652  33.026  28.484  1.00  0.00     0.058 A 
ATOM     62  C   UNL A   1      46.516  33.972  27.455  1.00  0.00     0.135 A 
ATOM     63  C   UNL A   1      47.150  33.467  29.720  1.00  0.00     0.135 A 
ATOM     64  F   UNL A   1      46.062  33.599  26.248  1.00  0.00    -0.206 F 
ATOM     65  C   UNL A   1      46.874  35.303  27.642  1.00  0.00     0.059 A 
ATOM     66  C   UNL A   1      47.492  34.799  29.935  1.00  0.00     0.059 A 
ATOM     67  F   UNL A   1      47.304  32.602  30.734  1.00  0.00    -0.206 F 
ATOM     68  C   UNL A   1      47.361  35.708  28.887  1.00  0.00     0.060 A 
BRANCH  68  69
ATOM     69  S   UNL A   1      47.801  37.443  29.122  1.00  0.00     0.124 S 
ATOM     70  O   UNL A   1      47.825  37.926  27.744  1.00  0.00    -0.237 OA
ATOM     71  O   UNL A   1      46.702  37.936  29.946  1.00  0.00    -0.237 OA
ATOM     72  O   UNL A   1      49.098  37.379  29.786  1.00  0.00    -0.744 OA
ENDBRANCH  68  69
ENDBRANCH  47  61
BRANCH  48  73
ATOM     73  C   UNL A   1      43.394  23.686  27.082  1.00  0.00     0.058 A 
ATOM     74  C   UNL A   1      43.090  23.260  25.781  1.00  0.00     0.135 A 
ATOM     75  C   UNL A   1      43.215  22.768  28.129  1.00  0.00     0.135 A 
ATOM     76  F   UNL A   1      43.233  24.105  24.749  1.00  0.00    -0.206 F 
ATOM     77  C   UNL A   1      42.608  21.979  25.527  1.00  0.00     0.059 A 
ATOM     78  C   UNL A   1      42.759  21.474  27.898  1.00  0.00     0.059 A 
ATOM     79  F   UNL A   1      43.504  23.121  29.391  1.00  0.00    -0.206 F 
ATOM     80  C   UNL A   1      42.446  21.092  26.594  1.00  0.00     0.060 A 
BRANCH  80  81
ATOM     81  S   UNL A   1      41.862  19.419  26.253  1.00  0.00     0.124 S 
ATOM     82  O   UNL A   1      42.604  19.089  25.042  1.00  0.00    -0.237 OA
ATOM     83  O   UNL A   1      42.259  18.702  27.461  1.00  0.00    -0.237 OA
ATOM     84  O   UNL A   1      40.423  19.595  26.084  1.00  0.00    -0.744 OA
ENDBRANCH  80  81
ENDBRANCH  48  73
BRANCH  60  85
ATOM     85  C   UNL A   1      49.599  26.790  26.370  1.00  0.00     0.058 A 
ATOM     86  C   UNL A   1      50.484  26.181  27.273  1.00  0.00     0.135 A 
ATOM     87  C   UNL A   1      49.993  26.880  25.025  1.00  0.00     0.135 A 
ATOM     88  F   UNL A   1      50.158  26.074  28.570  1.00  0.00    -0.206 F 
ATOM     89  C   UNL A   1      51.727  25.708  26.864  1.00  0.00     0.059 A 
ATOM     90  C   UNL A   1      51.220  26.389  24.588  1.00  0.00     0.059 A 
ATOM     91  F   UNL A   1      49.179  27.441  24.117  1.00  0.00    -0.206 F 
ATOM     92  C   UNL A   1      52.087  25.819  25.520  1.00  0.00     0.060 A 
BRANCH  92  93
ATOM     93  S   UNL A   1      53.696  25.188  24.996  1.00  0.00     0.124 S 
ATOM     94  O   UNL A   1      53.843  25.811  23.685  1.00  0.00    -0.237 OA
ATOM     95  O   UNL A   1      54.585  25.691  26.039  1.00  0.00    -0.237 OA
ATOM     96  O   UNL A   1      53.507  23.740  24.987  1.00  0.00    -0.744 OA
ENDBRANCH  92  93
ENDBRANCH  60  85
ENDBRANCH  34  35
ENDBRANCH  27  29
ENDBRANCH  26  27
ENDBRANCH  25  26
ENDBRANCH   1  25
TORSDOF 20
ENDMDL
MODEL 3
REMARK VINA RESULT:     -10.4      6.445     12.032
REMARK SMILES CC[C@@H]1CCCN1c1cc(C)c(N)c(C(=O)OCCOCCOC(=O)c2ccc(-c3c4nc(c(-c5c(F)cc(S(=O)(=O)[O-])cc5F)c5ccc([nH]5)c(-c5c(F)cc(S(=O)(=O)[O-])cc5F)c5nc(c(-c6c(F)cc(S(=O)(=O)[O-])cc6F)c6ccc3[nH]6)C=C5)C=C4)cc2)c1
REMARK SMILES IDX 21 1 20 2 19 3 18 4 17 5 15 6 16 7 14 8 8 9 9 10 92 11 10 12
REMARK SMILES IDX 11 13 12 14 7 15 3 16 4 17 5 18 6 19 2 20 1 21 13 22 22 25
REMARK SMILES IDX 23 26 24 27 25 28 26 29 27 30 91 31 28 32 90 33 29 34 30 35
REMARK SMILES IDX 31 36 84 37 32 38 89 39 83 40 85 41 33 42 88 43 82 44 81 45
REMARK SMILES IDX 34 47 68 48 47 49 67 50 48 51 51 52 66 53 86 54 49 55 50 56
REMARK SMILES IDX 65 58 87 59 52 60 35 61 36 62 45 63 37 64 38 65 44 66 46 67
REMARK SMILES IDX 39 68 40 69 41 70 42 71 43 72 69 73 70 74 79 75 71 76 72 77
REMARK SMILES IDX 78 78 80 79 73 80 74 81 75 82 76 83 77 84 53 85 54 86 63 87
REMARK SMILES IDX 55 88 56 89 62 90 64 91 57 92 58 93 59 94 60 95 61 96
REMARK H PARENT 13 23 13 24 85 46 51 57
REMARK Flexibility Score: inf
ROOT
ATOM      1  C   UNL A   1      39.117  22.555  26.167  1.00  0.00     0.202 C 
ENDROOT
BRANCH   1   2
ATOM      2  O   UNL A   1      38.366  21.430  25.702  1.00  0.00    -0.374 OA
BRANCH   2   3
ATOM      3  C   UNL A   1      37.204  21.714  24.921  1.00  0.00     0.202 C 
BRANCH   3   4
ATOM      4  C   UNL A   1      36.012  22.310  25.676  1.00  0.00     0.261 C 
BRANCH   4   5
ATOM      5  O   UNL A   1      34.763  21.832  25.145  1.00  0.00    -0.460 OA
BRANCH   5   6
ATOM      6  C   UNL A   1      34.136  22.700  24.314  1.00  0.00     0.340 C 
ATOM      7  O   UNL A   1      34.245  22.737  23.096  1.00  0.00    -0.246 OA
BRANCH   6   8
ATOM      8  C   UNL A   1      33.143  23.522  25.053  1.00  0.00     0.085 A 
ATOM      9  C   UNL A   1      32.298  25.715  25.742  1.00  0.00     0.038 A 
ATOM     10  C   UNL A   1      31.209  25.039  26.303  1.00  0.00     0.031 A 
ATOM     11  C   UNL A   1      33.253  24.926  25.088  1.00  0.00     0.043 A 
ATOM     12  C   UNL A   1      31.095  23.636  26.320  1.00  0.00    -0.025 A 
ATOM     13  C   UNL A   1      29.916  23.017  27.018  1.00  0.00     0.047 C 
ATOM     14  C   UNL A   1      32.074  22.857  25.691  1.00  0.00     0.049 A 
BRANCH   9  15
ATOM     15  N   UNL A   1      32.382  27.083  25.768  1.00  0.00    -0.369 N 
ATOM     16  C   UNL A   1      31.477  28.110  25.217  1.00  0.00     0.082 C 
ATOM     17  C   UNL A   1      32.478  29.224  24.876  1.00  0.00     0.027 C 
ATOM     18  C   UNL A   1      33.415  29.203  26.074  1.00  0.00     0.024 C 
ATOM     19  C   UNL A   1      33.515  27.722  26.451  1.00  0.00     0.117 C 
BRANCH  16  20
ATOM     20  C   UNL A   1      30.595  27.788  24.013  1.00  0.00     0.021 C 
ATOM     21  C   UNL A   1      31.033  28.496  22.736  1.00  0.00     0.006 C 
ENDBRANCH  16  20
ENDBRANCH   9  15
BRANCH  14  22
ATOM     22  N   UNL A   1      32.073  21.467  25.854  1.00  0.00    -0.398 N 
ATOM     23  H   UNL A   1      32.493  21.064  26.647  1.00  0.00     0.156 HD
ATOM     24  H   UNL A   1      31.651  20.892  25.174  1.00  0.00     0.156 HD
ENDBRANCH  14  22
ENDBRANCH   6   8
ENDBRANCH   5   6
ENDBRANCH   4   5
ENDBRANCH   3   4
ENDBRANCH   2   3
ENDBRANCH   1   2
BRANCH   1  25
ATOM     25  C   UNL A   1      40.605  22.309  26.444  1.00  0.00     0.261 C 
BRANCH  25  26
ATOM     26  O   UNL A   1      41.122  23.207  27.445  1.00  0.00    -0.460 OA
BRANCH  26  27
ATOM     27  C   UNL A   1      41.657  24.351  26.961  1.00  0.00     0.338 C 
ATOM     28  O   UNL A   1      42.249  24.497  25.901  1.00  0.00    -0.246 OA
BRANCH  27  29
ATOM     29  C   UNL A   1      41.271  25.493  27.815  1.00  0.00     0.060 A 
ATOM     30  C   UNL A   1      42.222  26.505  28.002  1.00  0.00     0.016 A 
ATOM     31  C   UNL A   1      40.037  25.553  28.466  1.00  0.00     0.016 A 
ATOM     32  C   UNL A   1      41.963  27.552  28.883  1.00  0.00     0.010 A 
ATOM     33  C   UNL A   1      39.782  26.604  29.357  1.00  0.00     0.010 A 
ATOM     34  C   UNL A   1      40.758  27.587  29.596  1.00  0.00    -0.014 A 
BRANCH  34  35
ATOM     35  C   UNL A   1      40.589  28.584  30.682  1.00  0.00     0.031 A 
ATOM     36  C   UNL A   1      41.456  28.487  31.908  1.00  0.00     0.074 A 
ATOM     37  C   UNL A   1      39.703  29.590  30.558  1.00  0.00     0.049 A 
ATOM     38  N   UNL A   1      41.485  29.256  32.966  1.00  0.00    -0.248 NA
ATOM     39  C   UNL A   1      42.418  27.372  31.950  1.00  0.00     0.031 C 
ATOM     40  C   UNL A   1      38.821  29.800  29.411  1.00  0.00     0.029 A 
ATOM     41  N   UNL A   1      39.397  30.620  31.410  1.00  0.00    -0.354 N 
ATOM     42  C   UNL A   1      42.459  28.719  33.799  1.00  0.00     0.074 A 
ATOM     43  C   UNL A   1      42.980  27.543  33.138  1.00  0.00     0.031 C 
ATOM     44  C   UNL A   1      38.063  30.888  29.636  1.00  0.00     0.029 A 
ATOM     45  C   UNL A   1      38.391  31.437  30.951  1.00  0.00     0.049 A 
ATOM     46  H   UNL A   1      39.855  30.762  32.270  1.00  0.00     0.167 HD
ATOM     47  C   UNL A   1      42.888  29.172  35.002  1.00  0.00     0.037 A 
ATOM     48  C   UNL A   1      37.793  32.495  31.531  1.00  0.00     0.037 A 
ATOM     49  C   UNL A   1      42.374  30.350  35.652  1.00  0.00     0.049 A 
ATOM     50  C   UNL A   1      38.265  32.961  32.885  1.00  0.00     0.074 A 
ATOM     51  C   UNL A   1      42.772  30.911  36.853  1.00  0.00     0.029 A 
ATOM     52  N   UNL A   1      41.348  31.144  35.162  1.00  0.00    -0.354 N 
ATOM     53  N   UNL A   1      39.218  32.469  33.640  1.00  0.00    -0.248 NA
ATOM     54  C   UNL A   1      37.587  34.131  33.460  1.00  0.00     0.031 C 
ATOM     55  C   UNL A   1      41.955  32.018  37.112  1.00  0.00     0.029 A 
ATOM     56  C   UNL A   1      41.082  32.175  36.048  1.00  0.00     0.049 A 
ATOM     57  H   UNL A   1      40.879  30.996  34.309  1.00  0.00     0.167 HD
ATOM     58  C   UNL A   1      39.268  33.281  34.768  1.00  0.00     0.074 A 
ATOM     59  C   UNL A   1      38.261  34.306  34.589  1.00  0.00     0.031 C 
ATOM     60  C   UNL A   1      40.075  33.189  35.855  1.00  0.00     0.037 A 
BRANCH  47  61
ATOM     61  C   UNL A   1      43.953  28.381  35.710  1.00  0.00     0.058 A 
ATOM     62  C   UNL A   1      43.633  27.358  36.617  1.00  0.00     0.135 A 
ATOM     63  C   UNL A   1      45.310  28.615  35.436  1.00  0.00     0.135 A 
ATOM     64  F   UNL A   1      42.352  27.105  36.928  1.00  0.00    -0.206 F 
ATOM     65  C   UNL A   1      44.624  26.606  37.241  1.00  0.00     0.059 A 
ATOM     66  C   UNL A   1      46.315  27.859  36.031  1.00  0.00     0.059 A 
ATOM     67  F   UNL A   1      45.669  29.584  34.580  1.00  0.00    -0.206 F 
ATOM     68  C   UNL A   1      45.963  26.863  36.939  1.00  0.00     0.060 A 
BRANCH  68  69
ATOM     69  S   UNL A   1      47.237  25.863  37.740  1.00  0.00     0.124 S 
ATOM     70  O   UNL A   1      46.922  26.067  39.151  1.00  0.00    -0.237 OA
ATOM     71  O   UNL A   1      46.962  24.529  37.216  1.00  0.00    -0.237 OA
ATOM     72  O   UNL A   1      48.483  26.469  37.281  1.00  0.00    -0.744 OA
ENDBRANCH  68  69
ENDBRANCH  47  61
BRANCH  48  73
ATOM     73  C   UNL A   1      36.666  33.182  30.844  1.00  0.00     0.058 A 
ATOM     74  C   UNL A   1      36.885  34.017  29.739  1.00  0.00     0.135 A 
ATOM     75  C   UNL A   1      35.345  33.018  31.288  1.00  0.00     0.135 A 
ATOM     76  F   UNL A   1      38.132  34.214  29.284  1.00  0.00    -0.206 F 
ATOM     77  C   UNL A   1      35.837  34.682  29.109  1.00  0.00     0.059 A 
ATOM     78  C   UNL A   1      34.278  33.651  30.660  1.00  0.00     0.059 A 
ATOM     79  F   UNL A   1      35.081  32.219  32.334  1.00  0.00    -0.206 F 
ATOM     80  C   UNL A   1      34.535  34.492  29.577  1.00  0.00     0.060 A 
BRANCH  80  81
ATOM     81  S   UNL A   1      33.175  35.323  28.729  1.00  0.00     0.124 S 
ATOM     82  O   UNL A   1      32.408  35.849  29.852  1.00  0.00    -0.237 OA
ATOM     83  O   UNL A   1      33.877  36.311  27.916  1.00  0.00    -0.237 OA
ATOM     84  O   UNL A   1      32.540  34.244  27.979  1.00  0.00    -0.744 OA
ENDBRANCH  80  81
ENDBRANCH  48  73
BRANCH  60  85
ATOM     85  C   UNL A   1      39.920  34.237  36.923  1.00  0.00     0.058 A 
ATOM     86  C   UNL A   1      40.606  35.460  36.861  1.00  0.00     0.135 A 
ATOM     87  C   UNL A   1      39.045  34.030  38.002  1.00  0.00     0.135 A 
ATOM     88  F   UNL A   1      41.457  35.706  35.854  1.00  0.00    -0.206 F 
ATOM     89  C   UNL A   1      40.454  36.428  37.849  1.00  0.00     0.059 A 
ATOM     90  C   UNL A   1      38.857  34.995  38.986  1.00  0.00     0.059 A 
ATOM     91  F   UNL A   1      38.353  32.883  38.102  1.00  0.00    -0.206 F 
ATOM     92  C   UNL A   1      39.579  36.185  38.909  1.00  0.00     0.060 A 
BRANCH  92  93
ATOM     93  S   UNL A   1      39.378  37.454  40.178  1.00  0.00     0.124 S 
ATOM     94  O   UNL A   1      38.864  36.671  41.297  1.00  0.00    -0.237 OA
ATOM     95  O   UNL A   1      40.739  37.961  40.333  1.00  0.00    -0.237 OA
ATOM     96  O   UNL A   1      38.432  38.389  39.577  1.00  0.00    -0.744 OA
ENDBRANCH  92  93
ENDBRANCH  60  85
ENDBRANCH  34  35
ENDBRANCH  27  29
ENDBRANCH  26  27
ENDBRANCH  25  26
ENDBRANCH   1  25
TORSDOF 20
ENDMDL
