MODEL 1
REMARK VINA RESULT:     -10.0      0.000      0.000
REMARK SMILES O=C(Cc1ccn(-c2ccccc2F)c1)OCCOCCOC(=O)c1ccc(-c2c3nc(c(-c4c(F)cc(S(=O)(=O)[O-])cc4F)c4ccc([nH]4)c(-c4c(F)cc(S(=O)(=O)[O-])cc4F)c4nc(c(-c5c(F)cc(S(=O)(=O)[O-])cc5F)c5ccc2[nH]5)C=C4)C=C3)cc1
REMARK SMILES IDX 20 1 19 2 18 3 17 4 16 5 2 6 1 7 3 8 4 9 5 10 15 11 6 12
REMARK SMILES IDX 7 13 8 14 9 15 13 16 10 17 12 18 14 19 11 20 21 21 22 22
REMARK SMILES IDX 23 23 24 24 25 25 26 26 90 27 27 28 89 29 28 30 29 31 30 32
REMARK SMILES IDX 83 33 31 34 88 35 82 36 84 37 32 38 87 39 81 40 80 41 33 43
REMARK SMILES IDX 67 44 46 45 66 46 47 47 50 48 65 49 85 50 48 51 49 52 64 54
REMARK SMILES IDX 86 55 51 56 34 57 35 58 44 59 36 60 37 61 43 62 45 63 38 64
REMARK SMILES IDX 39 65 40 66 41 67 42 68 68 69 69 70 78 71 70 72 71 73 77 74
REMARK SMILES IDX 79 75 72 76 73 77 74 78 75 79 76 80 52 81 53 82 62 83 54 84
REMARK SMILES IDX 55 85 61 86 63 87 56 88 57 89 58 90 59 91 60 92
REMARK H PARENT 84 42 50 53
REMARK Flexibility Score: inf
ROOT
ATOM      1  C   UNL A   1      34.780  34.620  27.990  1.00  0.00     0.202 C 
ENDROOT
BRANCH   1   2
ATOM      2  O   UNL A   1      33.458  35.054  28.333  1.00  0.00    -0.374 OA
BRANCH   2   3
ATOM      3  C   UNL A   1      33.026  34.956  29.690  1.00  0.00     0.202 C 
BRANCH   3   4
ATOM      4  C   UNL A   1      32.534  36.220  30.385  1.00  0.00     0.261 C 
BRANCH   4   5
ATOM      5  O   UNL A   1      33.493  36.837  31.256  1.00  0.00    -0.463 OA
BRANCH   5   6
ATOM      6  C   UNL A   1      33.598  36.634  32.590  1.00  0.00     0.310 C 
ATOM      7  O   UNL A   1      34.027  37.547  33.299  1.00  0.00    -0.252 OA
BRANCH   6   8
ATOM      8  C   UNL A   1      33.309  35.274  33.201  1.00  0.00     0.159 C 
BRANCH   8   9
ATOM      9  C   UNL A   1      34.383  34.283  33.014  1.00  0.00    -0.019 A 
ATOM     10  C   UNL A   1      34.371  33.063  32.283  1.00  0.00     0.024 A 
ATOM     11  C   UNL A   1      35.621  34.391  33.593  1.00  0.00     0.095 A 
ATOM     12  C   UNL A   1      35.623  32.499  32.417  1.00  0.00     0.091 A 
ATOM     13  N   UNL A   1      36.386  33.321  33.220  1.00  0.00    -0.321 N 
BRANCH  13  14
ATOM     14  C   UNL A   1      37.757  33.239  33.501  1.00  0.00     0.081 A 
ATOM     15  C   UNL A   1      38.515  34.410  33.525  1.00  0.00     0.030 A 
ATOM     16  C   UNL A   1      38.290  32.032  33.961  1.00  0.00     0.147 A 
ATOM     17  C   UNL A   1      39.787  34.368  34.093  1.00  0.00     0.002 A 
ATOM     18  C   UNL A   1      39.567  31.988  34.494  1.00  0.00     0.041 A 
ATOM     19  F   UNL A   1      37.588  30.890  33.892  1.00  0.00    -0.205 F 
ATOM     20  C   UNL A   1      40.308  33.165  34.584  1.00  0.00     0.003 A 
ENDBRANCH  13  14
ENDBRANCH   8   9
ENDBRANCH   6   8
ENDBRANCH   5   6
ENDBRANCH   4   5
ENDBRANCH   3   4
ENDBRANCH   2   3
ENDBRANCH   1   2
BRANCH   1  21
ATOM     21  C   UNL A   1      35.321  33.372  28.636  1.00  0.00     0.261 C 
BRANCH  21  22
ATOM     22  O   UNL A   1      35.480  32.377  27.653  1.00  0.00    -0.460 OA
BRANCH  22  23
ATOM     23  C   UNL A   1      34.813  31.246  27.967  1.00  0.00     0.338 C 
ATOM     24  O   UNL A   1      33.622  31.107  28.173  1.00  0.00    -0.246 OA
BRANCH  23  25
ATOM     25  C   UNL A   1      35.811  30.229  28.251  1.00  0.00     0.060 A 
ATOM     26  C   UNL A   1      36.030  30.019  29.610  1.00  0.00     0.016 A 
ATOM     27  C   UNL A   1      36.786  30.030  27.259  1.00  0.00     0.016 A 
ATOM     28  C   UNL A   1      37.327  29.849  30.004  1.00  0.00     0.010 A 
ATOM     29  C   UNL A   1      38.088  29.961  27.658  1.00  0.00     0.010 A 
ATOM     30  C   UNL A   1      38.336  29.882  29.026  1.00  0.00    -0.014 A 
BRANCH  30  31
ATOM     31  C   UNL A   1      39.665  29.505  29.470  1.00  0.00     0.031 A 
ATOM     32  C   UNL A   1      40.380  30.826  29.839  1.00  0.00     0.074 A 
ATOM     33  C   UNL A   1      39.973  28.182  29.298  1.00  0.00     0.049 A 
ATOM     34  N   UNL A   1      41.547  31.245  29.479  1.00  0.00    -0.248 NA
ATOM     35  C   UNL A   1      39.630  31.927  30.530  1.00  0.00     0.031 C 
ATOM     36  C   UNL A   1      39.012  27.094  28.974  1.00  0.00     0.029 A 
ATOM     37  N   UNL A   1      41.147  27.470  29.349  1.00  0.00    -0.354 N 
ATOM     38  C   UNL A   1      41.762  32.490  30.111  1.00  0.00     0.074 A 
ATOM     39  C   UNL A   1      40.489  32.947  30.556  1.00  0.00     0.031 C 
ATOM     40  C   UNL A   1      39.653  25.919  28.758  1.00  0.00     0.029 A 
ATOM     41  C   UNL A   1      41.082  26.112  28.920  1.00  0.00     0.049 A 
ATOM     42  H   UNL A   1      41.987  27.874  29.664  1.00  0.00     0.167 HD
ATOM     43  C   UNL A   1      43.012  32.953  30.398  1.00  0.00     0.037 A 
ATOM     44  C   UNL A   1      42.124  25.254  28.657  1.00  0.00     0.037 A 
ATOM     45  C   UNL A   1      43.962  31.983  29.961  1.00  0.00     0.049 A 
ATOM     46  C   UNL A   1      43.313  26.030  29.040  1.00  0.00     0.074 A 
ATOM     47  C   UNL A   1      44.347  31.607  28.700  1.00  0.00     0.029 A 
ATOM     48  N   UNL A   1      44.243  30.971  30.853  1.00  0.00    -0.354 N 
ATOM     49  N   UNL A   1      43.656  26.315  30.262  1.00  0.00    -0.248 NA
ATOM     50  C   UNL A   1      44.082  26.685  27.972  1.00  0.00     0.031 C 
ATOM     51  C   UNL A   1      44.366  30.202  28.792  1.00  0.00     0.029 A 
ATOM     52  C   UNL A   1      44.334  29.805  30.136  1.00  0.00     0.049 A 
ATOM     53  H   UNL A   1      44.357  31.066  31.827  1.00  0.00     0.167 HD
ATOM     54  C   UNL A   1      44.436  27.432  30.089  1.00  0.00     0.074 A 
ATOM     55  C   UNL A   1      44.917  27.396  28.723  1.00  0.00     0.031 C 
ATOM     56  C   UNL A   1      44.197  28.546  30.830  1.00  0.00     0.037 A 
BRANCH  43  57
ATOM     57  C   UNL A   1      43.520  34.051  31.282  1.00  0.00     0.058 A 
ATOM     58  C   UNL A   1      43.808  35.354  30.857  1.00  0.00     0.135 A 
ATOM     59  C   UNL A   1      43.379  33.865  32.680  1.00  0.00     0.135 A 
ATOM     60  F   UNL A   1      43.982  35.641  29.560  1.00  0.00    -0.206 F 
ATOM     61  C   UNL A   1      43.852  36.425  31.754  1.00  0.00     0.059 A 
ATOM     62  C   UNL A   1      43.369  34.920  33.582  1.00  0.00     0.059 A 
ATOM     63  F   UNL A   1      43.175  32.640  33.195  1.00  0.00    -0.206 F 
ATOM     64  C   UNL A   1      43.587  36.204  33.106  1.00  0.00     0.060 A 
BRANCH  64  65
ATOM     65  S   UNL A   1      43.469  37.609  34.231  1.00  0.00     0.124 S 
ATOM     66  O   UNL A   1      42.468  37.136  35.182  1.00  0.00    -0.237 OA
ATOM     67  O   UNL A   1      44.832  37.716  34.738  1.00  0.00    -0.237 OA
ATOM     68  O   UNL A   1      43.039  38.702  33.364  1.00  0.00    -0.744 OA
ENDBRANCH  64  65
ENDBRANCH  43  57
BRANCH  44  69
ATOM     69  C   UNL A   1      42.391  23.920  27.970  1.00  0.00     0.058 A 
ATOM     70  C   UNL A   1      41.759  23.642  26.719  1.00  0.00     0.135 A 
ATOM     71  C   UNL A   1      43.132  22.842  28.471  1.00  0.00     0.135 A 
ATOM     72  F   UNL A   1      41.193  24.605  25.979  1.00  0.00    -0.206 F 
ATOM     73  C   UNL A   1      41.641  22.374  26.163  1.00  0.00     0.059 A 
ATOM     74  C   UNL A   1      43.088  21.554  27.886  1.00  0.00     0.059 A 
ATOM     75  F   UNL A   1      43.923  22.999  29.541  1.00  0.00    -0.206 F 
ATOM     76  C   UNL A   1      42.263  21.315  26.784  1.00  0.00     0.060 A 
BRANCH  76  77
ATOM     77  S   UNL A   1      41.923  19.658  26.148  1.00  0.00     0.124 S 
ATOM     78  O   UNL A   1      40.500  19.756  25.839  1.00  0.00    -0.237 OA
ATOM     79  O   UNL A   1      42.810  19.567  24.992  1.00  0.00    -0.237 OA
ATOM     80  O   UNL A   1      42.265  18.789  27.268  1.00  0.00    -0.744 OA
ENDBRANCH  76  77
ENDBRANCH  44  69
BRANCH  56  81
ATOM     81  C   UNL A   1      43.528  28.311  32.174  1.00  0.00     0.058 A 
ATOM     82  C   UNL A   1      42.245  28.766  32.531  1.00  0.00     0.135 A 
ATOM     83  C   UNL A   1      44.179  27.527  33.139  1.00  0.00     0.135 A 
ATOM     84  F   UNL A   1      41.540  29.523  31.692  1.00  0.00    -0.206 F 
ATOM     85  C   UNL A   1      41.640  28.472  33.759  1.00  0.00     0.059 A 
ATOM     86  C   UNL A   1      43.602  27.220  34.377  1.00  0.00     0.059 A 
ATOM     87  F   UNL A   1      45.412  27.058  32.892  1.00  0.00    -0.206 F 
ATOM     88  C   UNL A   1      42.331  27.698  34.683  1.00  0.00     0.060 A 
BRANCH  88  89
ATOM     89  S   UNL A   1      41.584  27.387  36.301  1.00  0.00     0.124 S 
ATOM     90  O   UNL A   1      40.776  28.586  36.505  1.00  0.00    -0.237 OA
ATOM     91  O   UNL A   1      40.831  26.158  36.068  1.00  0.00    -0.237 OA
ATOM     92  O   UNL A   1      42.735  27.255  37.190  1.00  0.00    -0.744 OA
ENDBRANCH  88  89
ENDBRANCH  56  81
ENDBRANCH  30  31
ENDBRANCH  23  25
ENDBRANCH  22  23
ENDBRANCH  21  22
ENDBRANCH   1  21
TORSDOF 19
ENDMDL
MODEL 2
REMARK VINA RESULT:      -9.9      3.917     10.953
REMARK SMILES O=C(Cc1ccn(-c2ccccc2F)c1)OCCOCCOC(=O)c1ccc(-c2c3nc(c(-c4c(F)cc(S(=O)(=O)[O-])cc4F)c4ccc([nH]4)c(-c4c(F)cc(S(=O)(=O)[O-])cc4F)c4nc(c(-c5c(F)cc(S(=O)(=O)[O-])cc5F)c5ccc2[nH]5)C=C4)C=C3)cc1
REMARK SMILES IDX 20 1 19 2 18 3 17 4 16 5 2 6 1 7 3 8 4 9 5 10 15 11 6 12
REMARK SMILES IDX 7 13 8 14 9 15 13 16 10 17 12 18 14 19 11 20 21 21 22 22
REMARK SMILES IDX 23 23 24 24 25 25 26 26 90 27 27 28 89 29 28 30 29 31 30 32
REMARK SMILES IDX 83 33 31 34 88 35 82 36 84 37 32 38 87 39 81 40 80 41 33 43
REMARK SMILES IDX 67 44 46 45 66 46 47 47 50 48 65 49 85 50 48 51 49 52 64 54
REMARK SMILES IDX 86 55 51 56 34 57 35 58 44 59 36 60 37 61 43 62 45 63 38 64
REMARK SMILES IDX 39 65 40 66 41 67 42 68 68 69 69 70 78 71 70 72 71 73 77 74
REMARK SMILES IDX 79 75 72 76 73 77 74 78 75 79 76 80 52 81 53 82 62 83 54 84
REMARK SMILES IDX 55 85 61 86 63 87 56 88 57 89 58 90 59 91 60 92
REMARK H PARENT 84 42 50 53
REMARK Flexibility Score: inf
ROOT
ATOM      1  C   UNL A   1      31.930  31.253  26.865  1.00  0.00     0.202 C 
ENDROOT
BRANCH   1   2
ATOM      2  O   UNL A   1      31.403  30.715  25.647  1.00  0.00    -0.374 OA
BRANCH   2   3
ATOM      3  C   UNL A   1      32.109  29.663  24.990  1.00  0.00     0.202 C 
BRANCH   3   4
ATOM      4  C   UNL A   1      31.336  28.411  24.592  1.00  0.00     0.261 C 
BRANCH   4   5
ATOM      5  O   UNL A   1      30.882  27.612  25.694  1.00  0.00    -0.463 OA
BRANCH   5   6
ATOM      6  C   UNL A   1      31.528  26.544  26.217  1.00  0.00     0.310 C 
ATOM      7  O   UNL A   1      30.863  25.604  26.659  1.00  0.00    -0.252 OA
BRANCH   6   8
ATOM      8  C   UNL A   1      33.039  26.540  26.373  1.00  0.00     0.159 C 
BRANCH   8   9
ATOM      9  C   UNL A   1      33.736  25.566  25.514  1.00  0.00    -0.019 A 
ATOM     10  C   UNL A   1      33.921  25.574  24.104  1.00  0.00     0.024 A 
ATOM     11  C   UNL A   1      34.311  24.416  25.987  1.00  0.00     0.095 A 
ATOM     12  C   UNL A   1      34.640  24.441  23.785  1.00  0.00     0.091 A 
ATOM     13  N   UNL A   1      34.878  23.736  24.946  1.00  0.00    -0.321 N 
BRANCH  13  14
ATOM     14  C   UNL A   1      35.699  22.616  25.134  1.00  0.00     0.081 A 
ATOM     15  C   UNL A   1      35.140  21.342  25.040  1.00  0.00     0.030 A 
ATOM     16  C   UNL A   1      37.085  22.786  25.194  1.00  0.00     0.147 A 
ATOM     17  C   UNL A   1      35.994  20.246  24.924  1.00  0.00     0.002 A 
ATOM     18  C   UNL A   1      37.930  21.692  25.112  1.00  0.00     0.041 A 
ATOM     19  F   UNL A   1      37.632  24.004  25.339  1.00  0.00    -0.205 F 
ATOM     20  C   UNL A   1      37.382  20.420  24.952  1.00  0.00     0.003 A 
ENDBRANCH  13  14
ENDBRANCH   8   9
ENDBRANCH   6   8
ENDBRANCH   5   6
ENDBRANCH   4   5
ENDBRANCH   3   4
ENDBRANCH   2   3
ENDBRANCH   1   2
BRANCH   1  21
ATOM     21  C   UNL A   1      32.068  32.746  26.996  1.00  0.00     0.261 C 
BRANCH  21  22
ATOM     22  O   UNL A   1      33.243  33.038  27.717  1.00  0.00    -0.460 OA
BRANCH  22  23
ATOM     23  C   UNL A   1      33.127  34.179  28.429  1.00  0.00     0.338 C 
ATOM     24  O   UNL A   1      32.356  35.103  28.252  1.00  0.00    -0.246 OA
BRANCH  23  25
ATOM     25  C   UNL A   1      34.261  34.229  29.337  1.00  0.00     0.060 A 
ATOM     26  C   UNL A   1      35.472  34.507  28.709  1.00  0.00     0.016 A 
ATOM     27  C   UNL A   1      34.143  33.469  30.512  1.00  0.00     0.016 A 
ATOM     28  C   UNL A   1      36.560  33.796  29.130  1.00  0.00     0.010 A 
ATOM     29  C   UNL A   1      35.202  32.686  30.867  1.00  0.00     0.010 A 
ATOM     30  C   UNL A   1      36.390  32.857  30.161  1.00  0.00    -0.014 A 
BRANCH  30  31
ATOM     31  C   UNL A   1      37.605  32.274  30.698  1.00  0.00     0.031 A 
ATOM     32  C   UNL A   1      37.847  30.977  29.890  1.00  0.00     0.074 A 
ATOM     33  C   UNL A   1      38.095  32.896  31.816  1.00  0.00     0.049 A 
ATOM     34  N   UNL A   1      38.101  29.787  30.323  1.00  0.00    -0.248 NA
ATOM     35  C   UNL A   1      37.571  30.939  28.416  1.00  0.00     0.031 C 
ATOM     36  C   UNL A   1      37.669  34.223  32.337  1.00  0.00     0.029 A 
ATOM     37  N   UNL A   1      39.039  32.552  32.753  1.00  0.00    -0.354 N 
ATOM     38  C   UNL A   1      38.281  28.957  29.194  1.00  0.00     0.074 A 
ATOM     39  C   UNL A   1      37.737  29.659  28.080  1.00  0.00     0.031 C 
ATOM     40  C   UNL A   1      38.265  34.499  33.522  1.00  0.00     0.029 A 
ATOM     41  C   UNL A   1      39.135  33.400  33.894  1.00  0.00     0.049 A 
ATOM     42  H   UNL A   1      39.618  31.764  32.642  1.00  0.00     0.167 HD
ATOM     43  C   UNL A   1      39.052  27.834  29.234  1.00  0.00     0.037 A 
ATOM     44  C   UNL A   1      39.817  33.171  35.067  1.00  0.00     0.037 A 
ATOM     45  C   UNL A   1      39.589  27.703  30.549  1.00  0.00     0.049 A 
ATOM     46  C   UNL A   1      40.522  31.905  34.813  1.00  0.00     0.074 A 
ATOM     47  C   UNL A   1      38.987  27.381  31.737  1.00  0.00     0.029 A 
ATOM     48  N   UNL A   1      40.758  28.392  30.793  1.00  0.00    -0.354 N 
ATOM     49  N   UNL A   1      41.539  31.765  34.015  1.00  0.00    -0.248 NA
ATOM     50  C   UNL A   1      39.938  30.671  35.356  1.00  0.00     0.031 C 
ATOM     51  C   UNL A   1      39.537  28.325  32.625  1.00  0.00     0.029 A 
ATOM     52  C   UNL A   1      40.661  28.932  32.050  1.00  0.00     0.049 A 
ATOM     53  H   UNL A   1      41.523  28.479  30.178  1.00  0.00     0.167 HD
ATOM     54  C   UNL A   1      41.479  30.429  33.704  1.00  0.00     0.074 A 
ATOM     55  C   UNL A   1      40.738  29.786  34.771  1.00  0.00     0.031 C 
ATOM     56  C   UNL A   1      41.527  30.033  32.405  1.00  0.00     0.037 A 
BRANCH  43  57
ATOM     57  C   UNL A   1      39.638  26.955  28.171  1.00  0.00     0.058 A 
ATOM     58  C   UNL A   1      40.510  27.387  27.164  1.00  0.00     0.135 A 
ATOM     59  C   UNL A   1      39.581  25.556  28.393  1.00  0.00     0.135 A 
ATOM     60  F   UNL A   1      40.628  28.685  26.855  1.00  0.00    -0.206 F 
ATOM     61  C   UNL A   1      41.350  26.496  26.490  1.00  0.00     0.059 A 
ATOM     62  C   UNL A   1      40.440  24.661  27.772  1.00  0.00     0.059 A 
ATOM     63  F   UNL A   1      38.721  25.035  29.286  1.00  0.00    -0.206 F 
ATOM     64  C   UNL A   1      41.338  25.143  26.832  1.00  0.00     0.060 A 
BRANCH  64  65
ATOM     65  S   UNL A   1      42.544  24.027  26.089  1.00  0.00     0.124 S 
ATOM     66  O   UNL A   1      41.761  22.803  25.950  1.00  0.00    -0.237 OA
ATOM     67  O   UNL A   1      42.881  24.714  24.848  1.00  0.00    -0.237 OA
ATOM     68  O   UNL A   1      43.614  23.973  27.082  1.00  0.00    -0.744 OA
ENDBRANCH  64  65
ENDBRANCH  43  57
BRANCH  44  69
ATOM     69  C   UNL A   1      39.900  33.707  36.491  1.00  0.00     0.058 A 
ATOM     70  C   UNL A   1      38.701  33.828  37.260  1.00  0.00     0.135 A 
ATOM     71  C   UNL A   1      41.033  34.208  37.143  1.00  0.00     0.135 A 
ATOM     72  F   UNL A   1      37.564  33.216  36.905  1.00  0.00    -0.206 F 
ATOM     73  C   UNL A   1      38.581  34.597  38.411  1.00  0.00     0.059 A 
ATOM     74  C   UNL A   1      40.951  34.935  38.355  1.00  0.00     0.059 A 
ATOM     75  F   UNL A   1      42.256  34.010  36.632  1.00  0.00    -0.206 F 
ATOM     76  C   UNL A   1      39.706  35.200  38.928  1.00  0.00     0.060 A 
BRANCH  76  77
ATOM     77  S   UNL A   1      39.478  36.349  40.304  1.00  0.00     0.124 S 
ATOM     78  O   UNL A   1      38.720  37.419  39.662  1.00  0.00    -0.237 OA
ATOM     79  O   UNL A   1      38.734  35.550  41.273  1.00  0.00    -0.237 OA
ATOM     80  O   UNL A   1      40.842  36.690  40.691  1.00  0.00    -0.744 OA
ENDBRANCH  76  77
ENDBRANCH  44  69
BRANCH  56  81
ATOM     81  C   UNL A   1      42.234  30.983  31.453  1.00  0.00     0.058 A 
ATOM     82  C   UNL A   1      41.617  31.686  30.401  1.00  0.00     0.135 A 
ATOM     83  C   UNL A   1      43.596  31.261  31.645  1.00  0.00     0.135 A 
ATOM     84  F   UNL A   1      40.328  31.494  30.127  1.00  0.00    -0.206 F 
ATOM     85  C   UNL A   1      42.295  32.602  29.588  1.00  0.00     0.059 A 
ATOM     86  C   UNL A   1      44.303  32.167  30.845  1.00  0.00     0.059 A 
ATOM     87  F   UNL A   1      44.273  30.629  32.617  1.00  0.00    -0.206 F 
ATOM     88  C   UNL A   1      43.645  32.834  29.815  1.00  0.00     0.060 A 
BRANCH  88  89
ATOM     89  S   UNL A   1      44.540  33.954  28.712  1.00  0.00     0.124 S 
ATOM     90  O   UNL A   1      44.663  33.159  27.494  1.00  0.00    -0.237 OA
ATOM     91  O   UNL A   1      43.635  35.097  28.623  1.00  0.00    -0.237 OA
ATOM     92  O   UNL A   1      45.793  34.204  29.419  1.00  0.00    -0.744 OA
ENDBRANCH  88  89
ENDBRANCH  56  81
ENDBRANCH  30  31
ENDBRANCH  23  25
ENDBRANCH  22  23
ENDBRANCH  21  22
ENDBRANCH   1  21
TORSDOF 19
ENDMDL
MODEL 3
REMARK VINA RESULT:      -9.9      5.681     10.601
REMARK SMILES O=C(Cc1ccn(-c2ccccc2F)c1)OCCOCCOC(=O)c1ccc(-c2c3nc(c(-c4c(F)cc(S(=O)(=O)[O-])cc4F)c4ccc([nH]4)c(-c4c(F)cc(S(=O)(=O)[O-])cc4F)c4nc(c(-c5c(F)cc(S(=O)(=O)[O-])cc5F)c5ccc2[nH]5)C=C4)C=C3)cc1
REMARK SMILES IDX 20 1 19 2 18 3 17 4 16 5 2 6 1 7 3 8 4 9 5 10 15 11 6 12
REMARK SMILES IDX 7 13 8 14 9 15 13 16 10 17 12 18 14 19 11 20 21 21 22 22
REMARK SMILES IDX 23 23 24 24 25 25 26 26 90 27 27 28 89 29 28 30 29 31 30 32
REMARK SMILES IDX 83 33 31 34 88 35 82 36 84 37 32 38 87 39 81 40 80 41 33 43
REMARK SMILES IDX 67 44 46 45 66 46 47 47 50 48 65 49 85 50 48 51 49 52 64 54
REMARK SMILES IDX 86 55 51 56 34 57 35 58 44 59 36 60 37 61 43 62 45 63 38 64
REMARK SMILES IDX 39 65 40 66 41 67 42 68 68 69 69 70 78 71 70 72 71 73 77 74
REMARK SMILES IDX 79 75 72 76 73 77 74 78 75 79 76 80 52 81 53 82 62 83 54 84
REMARK SMILES IDX 55 85 61 86 63 87 56 88 57 89 58 90 59 91 60 92
REMARK H PARENT 84 42 50 53
REMARK Flexibility Score: inf
ROOT
ATOM      1  C   UNL A   1      39.001  22.078  26.000  1.00  0.00     0.202 C 
ENDROOT
BRANCH   1   2
ATOM      2  O   UNL A   1      37.643  22.481  26.213  1.00  0.00    -0.374 OA
BRANCH   2   3
ATOM      3  C   UNL A   1      36.965  23.206  25.186  1.00  0.00     0.202 C 
BRANCH   3   4
ATOM      4  C   UNL A   1      35.694  23.961  25.554  1.00  0.00     0.261 C 
BRANCH   4   5
ATOM      5  O   UNL A   1      34.652  23.147  26.110  1.00  0.00    -0.463 OA
BRANCH   5   6
ATOM      6  C   UNL A   1      33.340  23.206  25.781  1.00  0.00     0.310 C 
ATOM      7  O   UNL A   1      32.509  23.374  26.677  1.00  0.00    -0.252 OA
BRANCH   6   8
ATOM      8  C   UNL A   1      32.876  22.953  24.357  1.00  0.00     0.159 C 
BRANCH   8   9
ATOM      9  C   UNL A   1      32.719  21.529  24.013  1.00  0.00    -0.019 A 
ATOM     10  C   UNL A   1      32.192  20.936  22.832  1.00  0.00     0.024 A 
ATOM     11  C   UNL A   1      33.051  20.505  24.862  1.00  0.00     0.095 A 
ATOM     12  C   UNL A   1      32.264  19.569  23.000  1.00  0.00     0.091 A 
ATOM     13  N   UNL A   1      32.794  19.311  24.247  1.00  0.00    -0.321 N 
BRANCH  13  14
ATOM     14  C   UNL A   1      33.198  18.082  24.787  1.00  0.00     0.081 A 
ATOM     15  C   UNL A   1      32.229  17.203  25.271  1.00  0.00     0.030 A 
ATOM     16  C   UNL A   1      34.525  17.670  24.633  1.00  0.00     0.147 A 
ATOM     17  C   UNL A   1      32.595  15.881  25.521  1.00  0.00     0.002 A 
ATOM     18  C   UNL A   1      34.891  16.366  24.914  1.00  0.00     0.041 A 
ATOM     19  F   UNL A   1      35.475  18.524  24.220  1.00  0.00    -0.205 F 
ATOM     20  C   UNL A   1      33.917  15.461  25.336  1.00  0.00     0.003 A 
ENDBRANCH  13  14
ENDBRANCH   8   9
ENDBRANCH   6   8
ENDBRANCH   5   6
ENDBRANCH   4   5
ENDBRANCH   3   4
ENDBRANCH   2   3
ENDBRANCH   1   2
BRANCH   1  21
ATOM     21  C   UNL A   1      39.290  20.627  25.723  1.00  0.00     0.261 C 
BRANCH  21  22
ATOM     22  O   UNL A   1      40.164  20.135  26.711  1.00  0.00    -0.460 OA
BRANCH  22  23
ATOM     23  C   UNL A   1      41.327  19.697  26.184  1.00  0.00     0.338 C 
ATOM     24  O   UNL A   1      41.561  18.623  25.663  1.00  0.00    -0.246 OA
BRANCH  23  25
ATOM     25  C   UNL A   1      42.350  20.662  26.552  1.00  0.00     0.060 A 
ATOM     26  C   UNL A   1      42.382  20.956  27.913  1.00  0.00     0.016 A 
ATOM     27  C   UNL A   1      42.738  21.561  25.546  1.00  0.00     0.016 A 
ATOM     28  C   UNL A   1      42.569  22.265  28.254  1.00  0.00     0.010 A 
ATOM     29  C   UNL A   1      42.825  22.881  25.878  1.00  0.00     0.010 A 
ATOM     30  C   UNL A   1      42.728  23.210  27.227  1.00  0.00    -0.014 A 
BRANCH  30  31
ATOM     31  C   UNL A   1      43.114  24.545  27.645  1.00  0.00     0.031 A 
ATOM     32  C   UNL A   1      41.798  25.348  27.771  1.00  0.00     0.074 A 
ATOM     33  C   UNL A   1      44.464  24.775  27.655  1.00  0.00     0.049 A 
ATOM     34  N   UNL A   1      41.506  26.509  27.286  1.00  0.00    -0.248 NA
ATOM     35  C   UNL A   1      40.566  24.701  28.332  1.00  0.00     0.031 C 
ATOM     36  C   UNL A   1      45.529  23.741  27.552  1.00  0.00     0.029 A 
ATOM     37  N   UNL A   1      45.230  25.912  27.743  1.00  0.00    -0.354 N 
ATOM     38  C   UNL A   1      40.197  26.827  27.712  1.00  0.00     0.074 A 
ATOM     39  C   UNL A   1      39.605  25.610  28.156  1.00  0.00     0.031 C 
ATOM     40  C   UNL A   1      46.758  24.307  27.477  1.00  0.00     0.029 A 
ATOM     41  C   UNL A   1      46.629  25.751  27.527  1.00  0.00     0.049 A 
ATOM     42  H   UNL A   1      44.834  26.791  27.946  1.00  0.00     0.167 HD
ATOM     43  C   UNL A   1      39.772  28.114  27.854  1.00  0.00     0.037 A 
ATOM     44  C   UNL A   1      47.577  26.730  27.334  1.00  0.00     0.037 A 
ATOM     45  C   UNL A   1      40.850  28.984  27.513  1.00  0.00     0.049 A 
ATOM     46  C   UNL A   1      46.824  27.979  27.529  1.00  0.00     0.074 A 
ATOM     47  C   UNL A   1      41.427  29.266  26.302  1.00  0.00     0.029 A 
ATOM     48  N   UNL A   1      41.736  29.272  28.529  1.00  0.00    -0.354 N 
ATOM     49  N   UNL A   1      46.385  28.415  28.672  1.00  0.00    -0.248 NA
ATOM     50  C   UNL A   1      46.379  28.708  26.333  1.00  0.00     0.031 C 
ATOM     51  C   UNL A   1      42.803  29.220  26.601  1.00  0.00     0.029 A 
ATOM     52  C   UNL A   1      42.997  29.257  27.989  1.00  0.00     0.049 A 
ATOM     53  H   UNL A   1      41.507  29.454  29.468  1.00  0.00     0.167 HD
ATOM     54  C   UNL A   1      45.354  29.237  28.291  1.00  0.00     0.074 A 
ATOM     55  C   UNL A   1      45.617  29.625  26.919  1.00  0.00     0.031 C 
ATOM     56  C   UNL A   1      44.132  29.103  28.870  1.00  0.00     0.037 A 
BRANCH  43  57
ATOM     57  C   UNL A   1      38.589  28.733  28.534  1.00  0.00     0.058 A 
ATOM     58  C   UNL A   1      38.289  28.605  29.896  1.00  0.00     0.135 A 
ATOM     59  C   UNL A   1      37.927  29.779  27.842  1.00  0.00     0.135 A 
ATOM     60  F   UNL A   1      38.841  27.639  30.643  1.00  0.00    -0.206 F 
ATOM     61  C   UNL A   1      37.463  29.521  30.554  1.00  0.00     0.059 A 
ATOM     62  C   UNL A   1      37.145  30.727  28.485  1.00  0.00     0.059 A 
ATOM     63  F   UNL A   1      38.090  29.940  26.518  1.00  0.00    -0.206 F 
ATOM     64  C   UNL A   1      36.933  30.602  29.849  1.00  0.00     0.060 A 
BRANCH  64  65
ATOM     65  S   UNL A   1      36.016  31.878  30.735  1.00  0.00     0.124 S 
ATOM     66  O   UNL A   1      36.984  32.969  30.758  1.00  0.00    -0.237 OA
ATOM     67  O   UNL A   1      34.852  32.075  29.879  1.00  0.00    -0.237 OA
ATOM     68  O   UNL A   1      35.740  31.261  32.030  1.00  0.00    -0.744 OA
ENDBRANCH  64  65
ENDBRANCH  43  57
BRANCH  44  69
ATOM     69  C   UNL A   1      49.010  26.884  26.840  1.00  0.00     0.058 A 
ATOM     70  C   UNL A   1      49.383  26.296  25.592  1.00  0.00     0.135 A 
ATOM     71  C   UNL A   1      50.083  27.470  27.523  1.00  0.00     0.135 A 
ATOM     72  F   UNL A   1      48.472  25.885  24.700  1.00  0.00    -0.206 F 
ATOM     73  C   UNL A   1      50.694  26.068  25.192  1.00  0.00     0.059 A 
ATOM     74  C   UNL A   1      51.425  27.315  27.101  1.00  0.00     0.059 A 
ATOM     75  F   UNL A   1      49.870  28.212  28.618  1.00  0.00    -0.206 F 
ATOM     76  C   UNL A   1      51.721  26.532  25.983  1.00  0.00     0.060 A 
BRANCH  76  77
ATOM     77  S   UNL A   1      53.402  26.045  25.537  1.00  0.00     0.124 S 
ATOM     78  O   UNL A   1      53.204  24.652  25.146  1.00  0.00    -0.237 OA
ATOM     79  O   UNL A   1      53.726  26.961  24.446  1.00  0.00    -0.237 OA
ATOM     80  O   UNL A   1      54.154  26.251  26.769  1.00  0.00    -0.744 OA
ENDBRANCH  76  77
ENDBRANCH  44  69
BRANCH  56  81
ATOM     81  C   UNL A   1      44.128  28.513  30.270  1.00  0.00     0.058 A 
ATOM     82  C   UNL A   1      43.560  27.275  30.626  1.00  0.00     0.135 A 
ATOM     83  C   UNL A   1      44.790  29.191  31.304  1.00  0.00     0.135 A 
ATOM     84  F   UNL A   1      42.903  26.550  29.723  1.00  0.00    -0.206 F 
ATOM     85  C   UNL A   1      43.636  26.739  31.917  1.00  0.00     0.059 A 
ATOM     86  C   UNL A   1      44.879  28.684  32.606  1.00  0.00     0.059 A 
ATOM     87  F   UNL A   1      45.353  30.386  31.062  1.00  0.00    -0.206 F 
ATOM     88  C   UNL A   1      44.296  27.455  32.907  1.00  0.00     0.060 A 
BRANCH  88  89
ATOM     89  S   UNL A   1      44.323  26.802  34.594  1.00  0.00     0.124 S 
ATOM     90  O   UNL A   1      45.692  26.309  34.715  1.00  0.00    -0.237 OA
ATOM     91  O   UNL A   1      44.011  27.984  35.393  1.00  0.00    -0.237 OA
ATOM     92  O   UNL A   1      43.290  25.769  34.578  1.00  0.00    -0.744 OA
ENDBRANCH  88  89
ENDBRANCH  56  81
ENDBRANCH  30  31
ENDBRANCH  23  25
ENDBRANCH  22  23
ENDBRANCH  21  22
ENDBRANCH   1  21
TORSDOF 19
ENDMDL
