MODEL 1
REMARK VINA RESULT:     -10.4      0.000      0.000
REMARK SMILES O=C(NCc1ccsc1)NC[C@H]1CC[C@@H](C(=O)OCCOCCOC(=O)c2ccc(-c3c4nc(c(-c5c(F)cc(S(=O)(=O)[O-])cc5F)c5ccc([nH]5)c(-c5c(F)cc(S(=O)(=O)[O-])cc5F)c5nc(c(-c6c(F)cc(S(=O)(=O)[O-])cc6F)c6ccc3[nH]6)C=C5)C=C4)cc2)CC1
REMARK SMILES IDX 20 1 19 2 18 3 16 4 17 5 15 6 12 7 13 8 94 9 14 10 93 11
REMARK SMILES IDX 11 12 10 13 1 14 2 15 3 16 4 19 5 20 6 21 9 22 7 23 8 24
REMARK SMILES IDX 21 25 22 26 23 27 24 28 25 29 26 30 27 31 28 32 92 33 29 34
REMARK SMILES IDX 91 35 30 36 31 37 32 38 85 39 33 40 90 41 84 42 86 43 34 44
REMARK SMILES IDX 89 45 83 46 82 47 35 49 69 50 48 51 68 52 49 53 52 54 67 55
REMARK SMILES IDX 87 56 50 57 51 58 66 60 88 61 53 62 36 63 37 64 46 65 38 66
REMARK SMILES IDX 39 67 45 68 47 69 40 70 41 71 42 72 43 73 44 74 70 75 71 76
REMARK SMILES IDX 80 77 72 78 73 79 79 80 81 81 74 82 75 83 76 84 77 85 78 86
REMARK SMILES IDX 54 87 55 88 64 89 56 90 57 91 63 92 65 93 58 94 59 95 60 96
REMARK SMILES IDX 61 97 62 98
REMARK H PARENT 3 17 10 18 86 48 52 59
REMARK Flexibility Score: inf
ROOT
ATOM      1  C   UNL A   1      34.868  32.780  28.004  1.00  0.00     0.202 C 
ENDROOT
BRANCH   1   2
ATOM      2  C   UNL A   1      33.925  31.579  28.117  1.00  0.00     0.261 C 
BRANCH   2   3
ATOM      3  O   UNL A   1      32.753  31.771  27.306  1.00  0.00    -0.463 OA
BRANCH   3   4
ATOM      4  C   UNL A   1      32.265  30.680  26.665  1.00  0.00     0.309 C 
ATOM      5  O   UNL A   1      31.435  30.707  25.764  1.00  0.00    -0.252 OA
BRANCH   4   6
ATOM      6  C   UNL A   1      32.834  29.377  27.213  1.00  0.00     0.099 C 
ATOM      7  C   UNL A   1      32.762  27.175  25.190  1.00  0.00     0.008 C 
ATOM      8  C   UNL A   1      33.730  28.365  25.073  1.00  0.00     0.006 C 
ATOM      9  C   UNL A   1      31.516  27.514  26.020  1.00  0.00     0.006 C 
ATOM     10  C   UNL A   1      34.080  28.974  26.427  1.00  0.00     0.015 C 
ATOM     11  C   UNL A   1      31.854  28.205  27.341  1.00  0.00     0.015 C 
BRANCH   7  12
ATOM     12  C   UNL A   1      32.365  26.606  23.812  1.00  0.00     0.121 C 
BRANCH  12  13
ATOM     13  N   UNL A   1      32.762  25.221  23.624  1.00  0.00    -0.338 N 
ATOM     14  O   UNL A   1      33.422  25.524  21.468  1.00  0.00    -0.249 OA
ATOM     15  C   UNL A   1      33.259  24.785  22.436  1.00  0.00     0.315 C 
ATOM     16  N   UNL A   1      33.562  23.477  22.310  1.00  0.00    -0.334 N 
ATOM     17  H   UNL A   1      33.892  23.232  21.416  1.00  0.00     0.165 HD
ATOM     18  H   UNL A   1      32.669  24.585  24.370  1.00  0.00     0.165 HD
BRANCH  16  19
ATOM     19  C   UNL A   1      33.499  22.369  23.230  1.00  0.00     0.154 C 
BRANCH  19  20
ATOM     20  C   UNL A   1      34.778  22.195  23.992  1.00  0.00    -0.018 A 
ATOM     21  C   UNL A   1      34.851  21.499  25.250  1.00  0.00     0.017 A 
ATOM     22  C   UNL A   1      36.019  22.713  23.663  1.00  0.00     0.070 A 
ATOM     23  C   UNL A   1      36.118  21.494  25.789  1.00  0.00     0.065 A 
ATOM     24  S   UNL A   1      37.232  22.332  24.806  1.00  0.00    -0.152 S 
ENDBRANCH  19  20
ENDBRANCH  16  19
ENDBRANCH  12  13
ENDBRANCH   7  12
ENDBRANCH   4   6
ENDBRANCH   3   4
ENDBRANCH   2   3
ENDBRANCH   1   2
BRANCH   1  25
ATOM     25  O   UNL A   1      35.602  33.100  29.189  1.00  0.00    -0.374 OA
BRANCH  25  26
ATOM     26  C   UNL A   1      34.845  33.415  30.354  1.00  0.00     0.202 C 
BRANCH  26  27
ATOM     27  C   UNL A   1      35.072  32.514  31.575  1.00  0.00     0.261 C 
BRANCH  27  28
ATOM     28  O   UNL A   1      35.940  31.397  31.307  1.00  0.00    -0.460 OA
BRANCH  28  29
ATOM     29  C   UNL A   1      37.177  31.518  31.848  1.00  0.00     0.338 C 
ATOM     30  O   UNL A   1      37.465  32.082  32.897  1.00  0.00    -0.246 OA
BRANCH  29  31
ATOM     31  C   UNL A   1      38.182  30.760  31.078  1.00  0.00     0.060 A 
ATOM     32  C   UNL A   1      39.173  30.096  31.811  1.00  0.00     0.016 A 
ATOM     33  C   UNL A   1      38.248  30.799  29.680  1.00  0.00     0.016 A 
ATOM     34  C   UNL A   1      40.270  29.538  31.158  1.00  0.00     0.010 A 
ATOM     35  C   UNL A   1      39.357  30.241  29.026  1.00  0.00     0.010 A 
ATOM     36  C   UNL A   1      40.397  29.650  29.766  1.00  0.00    -0.014 A 
BRANCH  36  37
ATOM     37  C   UNL A   1      41.694  29.276  29.142  1.00  0.00     0.031 A 
ATOM     38  C   UNL A   1      42.819  30.269  29.130  1.00  0.00     0.074 A 
ATOM     39  C   UNL A   1      41.901  28.029  28.683  1.00  0.00     0.049 A 
ATOM     40  N   UNL A   1      44.052  30.109  28.730  1.00  0.00    -0.248 NA
ATOM     41  C   UNL A   1      42.512  31.619  29.625  1.00  0.00     0.031 C 
ATOM     42  C   UNL A   1      40.879  26.997  28.632  1.00  0.00     0.029 A 
ATOM     43  N   UNL A   1      43.024  27.410  28.196  1.00  0.00    -0.354 N 
ATOM     44  C   UNL A   1      44.671  31.337  28.915  1.00  0.00     0.074 A 
ATOM     45  C   UNL A   1      43.669  32.240  29.443  1.00  0.00     0.031 C 
ATOM     46  C   UNL A   1      41.423  25.848  28.199  1.00  0.00     0.029 A 
ATOM     47  C   UNL A   1      42.831  26.081  27.888  1.00  0.00     0.049 A 
ATOM     48  H   UNL A   1      43.885  27.871  28.078  1.00  0.00     0.167 HD
ATOM     49  C   UNL A   1      45.959  31.679  28.671  1.00  0.00     0.037 A 
ATOM     50  C   UNL A   1      43.688  25.164  27.401  1.00  0.00     0.037 A 
ATOM     51  C   UNL A   1      46.948  30.779  28.139  1.00  0.00     0.049 A 
ATOM     52  C   UNL A   1      45.109  25.576  27.118  1.00  0.00     0.074 A 
ATOM     53  C   UNL A   1      48.279  31.032  27.857  1.00  0.00     0.029 A 
ATOM     54  N   UNL A   1      46.714  29.453  27.804  1.00  0.00    -0.354 N 
ATOM     55  N   UNL A   1      45.683  26.739  27.318  1.00  0.00    -0.248 NA
ATOM     56  C   UNL A   1      45.994  24.560  26.531  1.00  0.00     0.031 C 
ATOM     57  C   UNL A   1      48.840  29.871  27.314  1.00  0.00     0.029 A 
ATOM     58  C   UNL A   1      47.870  28.880  27.299  1.00  0.00     0.049 A 
ATOM     59  H   UNL A   1      45.854  28.988  27.907  1.00  0.00     0.167 HD
ATOM     60  C   UNL A   1      46.997  26.593  26.887  1.00  0.00     0.074 A 
ATOM     61  C   UNL A   1      47.140  25.222  26.441  1.00  0.00     0.031 C 
ATOM     62  C   UNL A   1      47.993  27.513  26.857  1.00  0.00     0.037 A 
BRANCH  49  63
ATOM     63  C   UNL A   1      46.354  33.101  28.951  1.00  0.00     0.058 A 
ATOM     64  C   UNL A   1      46.867  33.491  30.198  1.00  0.00     0.135 A 
ATOM     65  C   UNL A   1      46.222  34.084  27.957  1.00  0.00     0.135 A 
ATOM     66  F   UNL A   1      46.991  32.594  31.189  1.00  0.00    -0.206 F 
ATOM     67  C   UNL A   1      47.209  34.814  30.459  1.00  0.00     0.059 A 
ATOM     68  C   UNL A   1      46.580  35.408  28.189  1.00  0.00     0.059 A 
ATOM     69  F   UNL A   1      45.731  33.762  26.750  1.00  0.00    -0.206 F 
ATOM     70  C   UNL A   1      47.058  35.766  29.449  1.00  0.00     0.060 A 
BRANCH  70  71
ATOM     71  S   UNL A   1      47.493  37.480  29.807  1.00  0.00     0.124 S 
ATOM     72  O   UNL A   1      48.222  37.853  28.599  1.00  0.00    -0.237 OA
ATOM     73  O   UNL A   1      46.186  38.106  29.977  1.00  0.00    -0.237 OA
ATOM     74  O   UNL A   1      48.299  37.380  31.020  1.00  0.00    -0.744 OA
ENDBRANCH  70  71
ENDBRANCH  49  63
BRANCH  50  75
ATOM     75  C   UNL A   1      43.233  23.772  27.134  1.00  0.00     0.058 A 
ATOM     76  C   UNL A   1      42.925  23.345  25.833  1.00  0.00     0.135 A 
ATOM     77  C   UNL A   1      43.091  22.842  28.176  1.00  0.00     0.135 A 
ATOM     78  F   UNL A   1      43.034  24.198  24.803  1.00  0.00    -0.206 F 
ATOM     79  C   UNL A   1      42.478  22.052  25.576  1.00  0.00     0.059 A 
ATOM     80  C   UNL A   1      42.672  21.536  27.940  1.00  0.00     0.059 A 
ATOM     81  F   UNL A   1      43.384  23.196  29.436  1.00  0.00    -0.206 F 
ATOM     82  C   UNL A   1      42.356  21.154  26.637  1.00  0.00     0.060 A 
BRANCH  82  83
ATOM     83  S   UNL A   1      41.819  19.464  26.291  1.00  0.00     0.124 S 
ATOM     84  O   UNL A   1      42.227  18.772  27.507  1.00  0.00    -0.237 OA
ATOM     85  O   UNL A   1      40.381  19.632  26.103  1.00  0.00    -0.237 OA
ATOM     86  O   UNL A   1      42.564  19.119  25.084  1.00  0.00    -0.744 OA
ENDBRANCH  82  83
ENDBRANCH  50  75
BRANCH  62  87
ATOM     87  C   UNL A   1      49.328  27.061  26.336  1.00  0.00     0.058 A 
ATOM     88  C   UNL A   1      50.325  26.570  27.193  1.00  0.00     0.135 A 
ATOM     89  C   UNL A   1      49.599  27.084  24.958  1.00  0.00     0.135 A 
ATOM     90  F   UNL A   1      50.117  26.535  28.519  1.00  0.00    -0.206 F 
ATOM     91  C   UNL A   1      51.554  26.141  26.705  1.00  0.00     0.059 A 
ATOM     92  C   UNL A   1      50.812  26.636  24.446  1.00  0.00     0.059 A 
ATOM     93  F   UNL A   1      48.675  27.535  24.094  1.00  0.00    -0.206 F 
ATOM     94  C   UNL A   1      51.789  26.179  25.330  1.00  0.00     0.060 A 
BRANCH  94  95
ATOM     95  S   UNL A   1      53.380  25.595  24.704  1.00  0.00     0.124 S 
ATOM     96  O   UNL A   1      53.339  24.185  25.072  1.00  0.00    -0.237 OA
ATOM     97  O   UNL A   1      53.279  25.881  23.275  1.00  0.00    -0.237 OA
ATOM     98  O   UNL A   1      54.349  26.408  25.432  1.00  0.00    -0.744 OA
ENDBRANCH  94  95
ENDBRANCH  62  87
ENDBRANCH  36  37
ENDBRANCH  29  31
ENDBRANCH  28  29
ENDBRANCH  27  28
ENDBRANCH  26  27
ENDBRANCH  25  26
ENDBRANCH   1  25
TORSDOF 21
ENDMDL
MODEL 2
REMARK VINA RESULT:     -10.2      2.702      9.398
REMARK SMILES O=C(NCc1ccsc1)NC[C@H]1CC[C@@H](C(=O)OCCOCCOC(=O)c2ccc(-c3c4nc(c(-c5c(F)cc(S(=O)(=O)[O-])cc5F)c5ccc([nH]5)c(-c5c(F)cc(S(=O)(=O)[O-])cc5F)c5nc(c(-c6c(F)cc(S(=O)(=O)[O-])cc6F)c6ccc3[nH]6)C=C5)C=C4)cc2)CC1
REMARK SMILES IDX 20 1 19 2 18 3 16 4 17 5 15 6 12 7 13 8 94 9 14 10 93 11
REMARK SMILES IDX 11 12 10 13 1 14 2 15 3 16 4 19 5 20 6 21 9 22 7 23 8 24
REMARK SMILES IDX 21 25 22 26 23 27 24 28 25 29 26 30 27 31 28 32 92 33 29 34
REMARK SMILES IDX 91 35 30 36 31 37 32 38 85 39 33 40 90 41 84 42 86 43 34 44
REMARK SMILES IDX 89 45 83 46 82 47 35 49 69 50 48 51 68 52 49 53 52 54 67 55
REMARK SMILES IDX 87 56 50 57 51 58 66 60 88 61 53 62 36 63 37 64 46 65 38 66
REMARK SMILES IDX 39 67 45 68 47 69 40 70 41 71 42 72 43 73 44 74 70 75 71 76
REMARK SMILES IDX 80 77 72 78 73 79 79 80 81 81 74 82 75 83 76 84 77 85 78 86
REMARK SMILES IDX 54 87 55 88 64 89 56 90 57 91 63 92 65 93 58 94 59 95 60 96
REMARK SMILES IDX 61 97 62 98
REMARK H PARENT 3 17 10 18 86 48 52 59
REMARK Flexibility Score: inf
ROOT
ATOM      1  C   UNL A   1      37.748  22.312  25.632  1.00  0.00     0.202 C 
ENDROOT
BRANCH   1   2
ATOM      2  C   UNL A   1      37.016  21.647  24.462  1.00  0.00     0.261 C 
BRANCH   2   3
ATOM      3  O   UNL A   1      36.095  22.566  23.848  1.00  0.00    -0.463 OA
BRANCH   3   4
ATOM      4  C   UNL A   1      35.006  22.919  24.574  1.00  0.00     0.309 C 
ATOM      5  O   UNL A   1      34.729  24.063  24.916  1.00  0.00    -0.252 OA
BRANCH   4   6
ATOM      6  C   UNL A   1      34.153  21.720  24.970  1.00  0.00     0.099 C 
ATOM      7  C   UNL A   1      31.484  22.537  26.045  1.00  0.00     0.008 C 
ATOM      8  C   UNL A   1      31.847  22.676  24.557  1.00  0.00     0.006 C 
ATOM      9  C   UNL A   1      32.724  22.535  26.951  1.00  0.00     0.006 C 
ATOM     10  C   UNL A   1      32.893  21.661  24.109  1.00  0.00     0.015 C 
ATOM     11  C   UNL A   1      33.815  21.584  26.460  1.00  0.00     0.015 C 
BRANCH   7  12
ATOM     12  C   UNL A   1      30.473  23.607  26.504  1.00  0.00     0.121 C 
BRANCH  12  13
ATOM     13  N   UNL A   1      30.271  24.667  25.530  1.00  0.00    -0.338 N 
ATOM     14  O   UNL A   1      31.205  26.279  26.835  1.00  0.00    -0.249 OA
ATOM     15  C   UNL A   1      30.654  25.945  25.789  1.00  0.00     0.315 C 
ATOM     16  N   UNL A   1      30.395  26.891  24.864  1.00  0.00    -0.334 N 
ATOM     17  H   UNL A   1      30.678  27.795  25.132  1.00  0.00     0.165 HD
ATOM     18  H   UNL A   1      29.849  24.456  24.666  1.00  0.00     0.165 HD
BRANCH  16  19
ATOM     19  C   UNL A   1      29.784  26.837  23.558  1.00  0.00     0.154 C 
BRANCH  19  20
ATOM     20  C   UNL A   1      29.332  28.187  23.091  1.00  0.00    -0.018 A 
ATOM     21  C   UNL A   1      27.951  28.596  23.102  1.00  0.00     0.017 A 
ATOM     22  C   UNL A   1      30.117  29.182  22.535  1.00  0.00     0.070 A 
ATOM     23  C   UNL A   1      27.761  29.861  22.594  1.00  0.00     0.065 A 
ATOM     24  S   UNL A   1      29.227  30.571  22.086  1.00  0.00    -0.152 S 
ENDBRANCH  19  20
ENDBRANCH  16  19
ENDBRANCH  12  13
ENDBRANCH   7  12
ENDBRANCH   4   6
ENDBRANCH   3   4
ENDBRANCH   2   3
ENDBRANCH   1   2
BRANCH   1  25
ATOM     25  O   UNL A   1      39.037  21.772  25.937  1.00  0.00    -0.374 OA
BRANCH  25  26
ATOM     26  C   UNL A   1      39.227  20.380  25.704  1.00  0.00     0.202 C 
BRANCH  26  27
ATOM     27  C   UNL A   1      40.399  19.721  26.443  1.00  0.00     0.261 C 
BRANCH  27  28
ATOM     28  O   UNL A   1      41.418  19.215  25.560  1.00  0.00    -0.460 OA
BRANCH  28  29
ATOM     29  C   UNL A   1      42.673  19.615  25.879  1.00  0.00     0.338 C 
ATOM     30  O   UNL A   1      43.707  18.980  25.714  1.00  0.00    -0.246 OA
BRANCH  29  31
ATOM     31  C   UNL A   1      42.692  21.012  26.354  1.00  0.00     0.060 A 
ATOM     32  C   UNL A   1      42.739  22.013  25.377  1.00  0.00     0.016 A 
ATOM     33  C   UNL A   1      42.801  21.346  27.709  1.00  0.00     0.016 A 
ATOM     34  C   UNL A   1      42.970  23.338  25.742  1.00  0.00     0.010 A 
ATOM     35  C   UNL A   1      43.039  22.680  28.074  1.00  0.00     0.010 A 
ATOM     36  C   UNL A   1      43.173  23.674  27.089  1.00  0.00    -0.014 A 
BRANCH  36  37
ATOM     37  C   UNL A   1      43.671  25.038  27.409  1.00  0.00     0.031 A 
ATOM     38  C   UNL A   1      45.105  25.382  27.132  1.00  0.00     0.074 A 
ATOM     39  C   UNL A   1      42.830  25.992  27.846  1.00  0.00     0.049 A 
ATOM     40  N   UNL A   1      45.710  26.535  27.243  1.00  0.00    -0.248 NA
ATOM     41  C   UNL A   1      45.972  24.284  26.680  1.00  0.00     0.031 C 
ATOM     42  C   UNL A   1      41.429  25.764  28.161  1.00  0.00     0.029 A 
ATOM     43  N   UNL A   1      43.009  27.331  28.080  1.00  0.00    -0.354 N 
ATOM     44  C   UNL A   1      47.030  26.304  26.883  1.00  0.00     0.074 A 
ATOM     45  C   UNL A   1      47.143  24.895  26.573  1.00  0.00     0.031 C 
ATOM     46  C   UNL A   1      40.848  26.928  28.492  1.00  0.00     0.029 A 
ATOM     47  C   UNL A   1      41.858  27.983  28.464  1.00  0.00     0.049 A 
ATOM     48  H   UNL A   1      43.877  27.784  27.983  1.00  0.00     0.167 HD
ATOM     49  C   UNL A   1      48.053  27.190  26.815  1.00  0.00     0.037 A 
ATOM     50  C   UNL A   1      41.647  29.278  28.769  1.00  0.00     0.037 A 
ATOM     51  C   UNL A   1      47.936  28.589  27.132  1.00  0.00     0.049 A 
ATOM     52  C   UNL A   1      42.807  30.237  28.705  1.00  0.00     0.074 A 
ATOM     53  C   UNL A   1      48.915  29.565  27.093  1.00  0.00     0.029 A 
ATOM     54  N   UNL A   1      46.769  29.211  27.552  1.00  0.00    -0.354 N 
ATOM     55  N   UNL A   1      44.047  30.004  28.343  1.00  0.00    -0.248 NA
ATOM     56  C   UNL A   1      42.546  31.628  29.103  1.00  0.00     0.031 C 
ATOM     57  C   UNL A   1      48.351  30.770  27.527  1.00  0.00     0.029 A 
ATOM     58  C   UNL A   1      47.008  30.554  27.794  1.00  0.00     0.049 A 
ATOM     59  H   UNL A   1      45.899  28.764  27.663  1.00  0.00     0.167 HD
ATOM     60  C   UNL A   1      44.712  31.220  28.464  1.00  0.00     0.074 A 
ATOM     61  C   UNL A   1      43.731  32.190  28.907  1.00  0.00     0.031 C 
ATOM     62  C   UNL A   1      46.018  31.505  28.237  1.00  0.00     0.037 A 
BRANCH  49  63
ATOM     63  C   UNL A   1      49.396  26.653  26.408  1.00  0.00     0.058 A 
ATOM     64  C   UNL A   1      50.248  26.024  27.329  1.00  0.00     0.135 A 
ATOM     65  C   UNL A   1      49.832  26.765  25.078  1.00  0.00     0.135 A 
ATOM     66  F   UNL A   1      49.887  25.912  28.616  1.00  0.00    -0.206 F 
ATOM     67  C   UNL A   1      51.500  25.550  26.951  1.00  0.00     0.059 A 
ATOM     68  C   UNL A   1      51.070  26.278  24.673  1.00  0.00     0.059 A 
ATOM     69  F   UNL A   1      49.056  27.365  24.160  1.00  0.00    -0.206 F 
ATOM     70  C   UNL A   1      51.904  25.686  25.621  1.00  0.00     0.060 A 
BRANCH  70  71
ATOM     71  S   UNL A   1      53.536  25.079  25.149  1.00  0.00     0.124 S 
ATOM     72  O   UNL A   1      54.376  25.662  26.190  1.00  0.00    -0.237 OA
ATOM     73  O   UNL A   1      53.363  23.632  25.211  1.00  0.00    -0.237 OA
ATOM     74  O   UNL A   1      53.728  25.627  23.809  1.00  0.00    -0.744 OA
ENDBRANCH  70  71
ENDBRANCH  49  63
BRANCH  50  75
ATOM     75  C   UNL A   1      40.294  29.748  29.175  1.00  0.00     0.058 A 
ATOM     76  C   UNL A   1      39.276  29.939  28.229  1.00  0.00     0.135 A 
ATOM     77  C   UNL A   1      39.994  30.021  30.520  1.00  0.00     0.135 A 
ATOM     78  F   UNL A   1      39.514  29.702  26.930  1.00  0.00    -0.206 F 
ATOM     79  C   UNL A   1      38.014  30.398  28.597  1.00  0.00     0.059 A 
ATOM     80  C   UNL A   1      38.733  30.455  30.915  1.00  0.00     0.059 A 
ATOM     81  F   UNL A   1      40.929  29.844  31.465  1.00  0.00    -0.206 F 
ATOM     82  C   UNL A   1      37.752  30.652  29.944  1.00  0.00     0.060 A 
BRANCH  82  83
ATOM     83  S   UNL A   1      36.100  31.204  30.420  1.00  0.00     0.124 S 
ATOM     84  O   UNL A   1      35.901  30.488  31.674  1.00  0.00    -0.237 OA
ATOM     85  O   UNL A   1      36.279  32.648  30.530  1.00  0.00    -0.237 OA
ATOM     86  O   UNL A   1      35.268  30.768  29.302  1.00  0.00    -0.744 OA
ENDBRANCH  82  83
ENDBRANCH  50  75
BRANCH  62  87
ATOM     87  C   UNL A   1      46.457  32.926  28.451  1.00  0.00     0.058 A 
ATOM     88  C   UNL A   1      46.394  33.879  27.422  1.00  0.00     0.135 A 
ATOM     89  C   UNL A   1      46.910  33.349  29.711  1.00  0.00     0.135 A 
ATOM     90  F   UNL A   1      45.975  33.522  26.198  1.00  0.00    -0.206 F 
ATOM     91  C   UNL A   1      46.789  35.196  27.628  1.00  0.00     0.059 A 
ATOM     92  C   UNL A   1      47.286  34.667  29.946  1.00  0.00     0.059 A 
ATOM     93  F   UNL A   1      46.980  32.479  30.732  1.00  0.00    -0.206 F 
ATOM     94  C   UNL A   1      47.235  35.581  28.893  1.00  0.00     0.060 A 
BRANCH  94  95
ATOM     95  S   UNL A   1      47.721  37.300  29.157  1.00  0.00     0.124 S 
ATOM     96  O   UNL A   1      46.519  38.011  28.739  1.00  0.00    -0.237 OA
ATOM     97  O   UNL A   1      48.011  37.329  30.588  1.00  0.00    -0.237 OA
ATOM     98  O   UNL A   1      48.882  37.461  28.286  1.00  0.00    -0.744 OA
ENDBRANCH  94  95
ENDBRANCH  62  87
ENDBRANCH  36  37
ENDBRANCH  29  31
ENDBRANCH  28  29
ENDBRANCH  27  28
ENDBRANCH  26  27
ENDBRANCH  25  26
ENDBRANCH   1  25
TORSDOF 21
ENDMDL
MODEL 3
REMARK VINA RESULT:      -9.9      5.719      8.286
REMARK SMILES O=C(NCc1ccsc1)NC[C@H]1CC[C@@H](C(=O)OCCOCCOC(=O)c2ccc(-c3c4nc(c(-c5c(F)cc(S(=O)(=O)[O-])cc5F)c5ccc([nH]5)c(-c5c(F)cc(S(=O)(=O)[O-])cc5F)c5nc(c(-c6c(F)cc(S(=O)(=O)[O-])cc6F)c6ccc3[nH]6)C=C5)C=C4)cc2)CC1
REMARK SMILES IDX 20 1 19 2 18 3 16 4 17 5 15 6 12 7 13 8 94 9 14 10 93 11
REMARK SMILES IDX 11 12 10 13 1 14 2 15 3 16 4 19 5 20 6 21 9 22 7 23 8 24
REMARK SMILES IDX 21 25 22 26 23 27 24 28 25 29 26 30 27 31 28 32 92 33 29 34
REMARK SMILES IDX 91 35 30 36 31 37 32 38 85 39 33 40 90 41 84 42 86 43 34 44
REMARK SMILES IDX 89 45 83 46 82 47 35 49 69 50 48 51 68 52 49 53 52 54 67 55
REMARK SMILES IDX 87 56 50 57 51 58 66 60 88 61 53 62 36 63 37 64 46 65 38 66
REMARK SMILES IDX 39 67 45 68 47 69 40 70 41 71 42 72 43 73 44 74 70 75 71 76
REMARK SMILES IDX 80 77 72 78 73 79 79 80 81 81 74 82 75 83 76 84 77 85 78 86
REMARK SMILES IDX 54 87 55 88 64 89 56 90 57 91 63 92 65 93 58 94 59 95 60 96
REMARK SMILES IDX 61 97 62 98
REMARK H PARENT 3 17 10 18 86 48 52 59
REMARK Flexibility Score: inf
ROOT
ATOM      1  C   UNL A   1      33.981  28.809  26.336  1.00  0.00     0.202 C 
ENDROOT
BRANCH   1   2
ATOM      2  C   UNL A   1      33.458  28.817  24.896  1.00  0.00     0.261 C 
BRANCH   2   3
ATOM      3  O   UNL A   1      33.907  27.652  24.183  1.00  0.00    -0.463 OA
BRANCH   3   4
ATOM      4  C   UNL A   1      33.425  26.455  24.599  1.00  0.00     0.309 C 
ATOM      5  O   UNL A   1      34.108  25.533  25.030  1.00  0.00    -0.252 OA
BRANCH   4   6
ATOM      6  C   UNL A   1      31.913  26.346  24.440  1.00  0.00     0.099 C 
ATOM      7  C   UNL A   1      30.833  23.818  25.617  1.00  0.00     0.008 C 
ATOM      8  C   UNL A   1      31.362  24.968  26.489  1.00  0.00     0.006 C 
ATOM      9  C   UNL A   1      31.441  23.825  24.207  1.00  0.00     0.006 C 
ATOM     10  C   UNL A   1      31.238  26.328  25.810  1.00  0.00     0.015 C 
ATOM     11  C   UNL A   1      31.401  25.206  23.552  1.00  0.00     0.015 C 
BRANCH   7  12
ATOM     12  C   UNL A   1      31.019  22.441  26.286  1.00  0.00     0.121 C 
BRANCH  12  13
ATOM     13  N   UNL A   1      32.148  21.691  25.761  1.00  0.00    -0.338 N 
ATOM     14  O   UNL A   1      33.411  21.947  27.635  1.00  0.00    -0.249 OA
ATOM     15  C   UNL A   1      33.278  21.512  26.494  1.00  0.00     0.315 C 
ATOM     16  N   UNL A   1      34.308  20.849  25.931  1.00  0.00    -0.334 N 
ATOM     17  H   UNL A   1      35.100  20.781  26.511  1.00  0.00     0.165 HD
ATOM     18  H   UNL A   1      32.092  21.304  24.857  1.00  0.00     0.165 HD
BRANCH  16  19
ATOM     19  C   UNL A   1      34.475  20.218  24.644  1.00  0.00     0.154 C 
BRANCH  19  20
ATOM     20  C   UNL A   1      34.141  18.757  24.686  1.00  0.00    -0.018 A 
ATOM     21  C   UNL A   1      35.143  17.724  24.616  1.00  0.00     0.017 A 
ATOM     22  C   UNL A   1      32.878  18.193  24.721  1.00  0.00     0.070 A 
ATOM     23  C   UNL A   1      34.608  16.456  24.633  1.00  0.00     0.065 A 
ATOM     24  S   UNL A   1      32.905  16.483  24.718  1.00  0.00    -0.152 S 
ENDBRANCH  19  20
ENDBRANCH  16  19
ENDBRANCH  12  13
ENDBRANCH   7  12
ENDBRANCH   4   6
ENDBRANCH   3   4
ENDBRANCH   2   3
ENDBRANCH   1   2
BRANCH   1  25
ATOM     25  O   UNL A   1      33.172  29.503  27.289  1.00  0.00    -0.374 OA
BRANCH  25  26
ATOM     26  C   UNL A   1      32.931  30.886  27.047  1.00  0.00     0.202 C 
BRANCH  26  27
ATOM     27  C   UNL A   1      33.767  31.876  27.868  1.00  0.00     0.261 C 
BRANCH  27  28
ATOM     28  O   UNL A   1      33.579  33.248  27.475  1.00  0.00    -0.460 OA
BRANCH  28  29
ATOM     29  C   UNL A   1      33.512  34.116  28.514  1.00  0.00     0.338 C 
ATOM     30  O   UNL A   1      32.611  34.914  28.744  1.00  0.00    -0.246 OA
BRANCH  29  31
ATOM     31  C   UNL A   1      34.625  33.914  29.462  1.00  0.00     0.060 A 
ATOM     32  C   UNL A   1      35.915  34.187  28.992  1.00  0.00     0.016 A 
ATOM     33  C   UNL A   1      34.443  33.346  30.728  1.00  0.00     0.016 A 
ATOM     34  C   UNL A   1      37.027  33.825  29.749  1.00  0.00     0.010 A 
ATOM     35  C   UNL A   1      35.565  32.977  31.486  1.00  0.00     0.010 A 
ATOM     36  C   UNL A   1      36.862  33.171  30.978  1.00  0.00    -0.014 A 
BRANCH  36  37
ATOM     37  C   UNL A   1      38.059  32.573  31.627  1.00  0.00     0.031 A 
ATOM     38  C   UNL A   1      38.461  33.032  32.998  1.00  0.00     0.074 A 
ATOM     39  C   UNL A   1      38.722  31.558  31.043  1.00  0.00     0.049 A 
ATOM     40  N   UNL A   1      39.405  32.571  33.775  1.00  0.00    -0.248 NA
ATOM     41  C   UNL A   1      37.708  34.161  33.562  1.00  0.00     0.031 C 
ATOM     42  C   UNL A   1      38.428  31.047  29.714  1.00  0.00     0.029 A 
ATOM     43  N   UNL A   1      39.750  30.765  31.485  1.00  0.00    -0.354 N 
ATOM     44  C   UNL A   1      39.367  33.357  34.919  1.00  0.00     0.074 A 
ATOM     45  C   UNL A   1      38.322  34.339  34.723  1.00  0.00     0.031 C 
ATOM     46  C   UNL A   1      39.210  29.986  29.458  1.00  0.00     0.029 A 
ATOM     47  C   UNL A   1      40.105  29.776  30.594  1.00  0.00     0.049 A 
ATOM     48  H   UNL A   1      40.192  30.890  32.355  1.00  0.00     0.167 HD
ATOM     49  C   UNL A   1      40.134  33.263  36.032  1.00  0.00     0.037 A 
ATOM     50  C   UNL A   1      41.050  28.820  30.680  1.00  0.00     0.037 A 
ATOM     51  C   UNL A   1      41.177  32.289  36.217  1.00  0.00     0.049 A 
ATOM     52  C   UNL A   1      41.902  28.753  31.920  1.00  0.00     0.074 A 
ATOM     53  C   UNL A   1      42.008  32.115  37.309  1.00  0.00     0.029 A 
ATOM     54  N   UNL A   1      41.536  31.326  35.284  1.00  0.00    -0.354 N 
ATOM     55  N   UNL A   1      41.840  29.492  33.002  1.00  0.00    -0.248 NA
ATOM     56  C   UNL A   1      42.961  27.733  31.947  1.00  0.00     0.031 C 
ATOM     57  C   UNL A   1      42.896  31.072  37.023  1.00  0.00     0.029 A 
ATOM     58  C   UNL A   1      42.590  30.568  35.768  1.00  0.00     0.049 A 
ATOM     59  H   UNL A   1      41.108  31.201  34.408  1.00  0.00     0.167 HD
ATOM     60  C   UNL A   1      42.847  29.025  33.841  1.00  0.00     0.074 A 
ATOM     61  C   UNL A   1      43.484  27.921  33.151  1.00  0.00     0.031 C 
ATOM     62  C   UNL A   1      43.214  29.473  35.066  1.00  0.00     0.037 A 
BRANCH  49  63
ATOM     63  C   UNL A   1      39.884  34.268  37.120  1.00  0.00     0.058 A 
ATOM     64  C   UNL A   1      39.012  33.999  38.186  1.00  0.00     0.135 A 
ATOM     65  C   UNL A   1      40.531  35.514  37.097  1.00  0.00     0.135 A 
ATOM     66  F   UNL A   1      38.352  32.832  38.241  1.00  0.00    -0.206 F 
ATOM     67  C   UNL A   1      38.767  34.943  39.178  1.00  0.00     0.059 A 
ATOM     68  C   UNL A   1      40.319  36.464  38.091  1.00  0.00     0.059 A 
ATOM     69  F   UNL A   1      41.371  35.822  36.096  1.00  0.00    -0.206 F 
ATOM     70  C   UNL A   1      39.423  36.174  39.119  1.00  0.00     0.060 A 
BRANCH  70  71
ATOM     71  S   UNL A   1      39.085  37.394  40.405  1.00  0.00     0.124 S 
ATOM     72  O   UNL A   1      38.506  36.559  41.453  1.00  0.00    -0.237 OA
ATOM     73  O   UNL A   1      40.411  37.931  40.685  1.00  0.00    -0.237 OA
ATOM     74  O   UNL A   1      38.159  38.321  39.760  1.00  0.00    -0.744 OA
ENDBRANCH  70  71
ENDBRANCH  49  63
BRANCH  50  75
ATOM     75  C   UNL A   1      41.256  27.859  29.563  1.00  0.00     0.058 A 
ATOM     76  C   UNL A   1      42.360  27.968  28.704  1.00  0.00     0.135 A 
ATOM     77  C   UNL A   1      40.348  26.814  29.327  1.00  0.00     0.135 A 
ATOM     78  F   UNL A   1      43.252  28.955  28.879  1.00  0.00    -0.206 F 
ATOM     79  C   UNL A   1      42.550  27.087  27.643  1.00  0.00     0.059 A 
ATOM     80  C   UNL A   1      40.531  25.905  28.290  1.00  0.00     0.059 A 
ATOM     81  F   UNL A   1      39.282  26.658  30.126  1.00  0.00    -0.206 F 
ATOM     82  C   UNL A   1      41.629  26.057  27.445  1.00  0.00     0.060 A 
BRANCH  82  83
ATOM     83  S   UNL A   1      41.905  24.890  26.094  1.00  0.00     0.124 S 
ATOM     84  O   UNL A   1      41.171  25.522  25.005  1.00  0.00    -0.237 OA
ATOM     85  O   UNL A   1      43.360  24.899  25.974  1.00  0.00    -0.237 OA
ATOM     86  O   UNL A   1      41.335  23.647  26.606  1.00  0.00    -0.744 OA
ENDBRANCH  82  83
ENDBRANCH  50  75
BRANCH  62  87
ATOM     87  C   UNL A   1      44.349  28.760  35.745  1.00  0.00     0.058 A 
ATOM     88  C   UNL A   1      44.130  27.648  36.573  1.00  0.00     0.135 A 
ATOM     89  C   UNL A   1      45.675  29.170  35.535  1.00  0.00     0.135 A 
ATOM     90  F   UNL A   1      42.879  27.220  36.811  1.00  0.00    -0.206 F 
ATOM     91  C   UNL A   1      45.184  26.982  37.189  1.00  0.00     0.059 A 
ATOM     92  C   UNL A   1      46.746  28.505  36.121  1.00  0.00     0.059 A 
ATOM     93  F   UNL A   1      45.940  30.223  34.744  1.00  0.00    -0.206 F 
ATOM     94  C   UNL A   1      46.489  27.419  36.958  1.00  0.00     0.060 A 
BRANCH  94  95
ATOM     95  S   UNL A   1      47.853  26.533  37.742  1.00  0.00     0.124 S 
ATOM     96  O   UNL A   1      48.862  27.580  37.845  1.00  0.00    -0.237 OA
ATOM     97  O   UNL A   1      47.261  26.097  39.004  1.00  0.00    -0.237 OA
ATOM     98  O   UNL A   1      48.150  25.462  36.795  1.00  0.00    -0.744 OA
ENDBRANCH  94  95
ENDBRANCH  62  87
ENDBRANCH  36  37
ENDBRANCH  29  31
ENDBRANCH  28  29
ENDBRANCH  27  28
ENDBRANCH  26  27
ENDBRANCH  25  26
ENDBRANCH   1  25
TORSDOF 21
ENDMDL
