MODEL 1
REMARK VINA RESULT:     -11.1      0.000      0.000
REMARK SMILES CCOc1cc2c(cc1OCC)[C@@H](C(=O)OCCOCCOC(=O)c1ccc(-c3c4nc(c(-c5c(F)cc(S(=O)(=O)[O-])cc5F)c5ccc([nH]5)c(-c5c(F)cc(S(=O)(=O)[O-])cc5F)c5nc(c(-c6c(F)cc(S(=O)(=O)[O-])cc6F)c6ccc3[nH]6)C=C5)C=C4)cc1)[C@H](c1ccc(F)cc1Cl)N(C)C2=O
REMARK SMILES IDX 20 1 19 2 18 3 17 4 16 5 14 6 15 7 13 8 4 9 5 10 9 11 6 12
REMARK SMILES IDX 8 13 7 14 102 15 100 16 103 17 91 18 101 19 3 20 2 21 1 22
REMARK SMILES IDX 10 23 11 24 12 25 92 26 93 27 98 28 94 29 97 30 99 31 95 32
REMARK SMILES IDX 96 33 21 34 22 35 23 36 24 37 25 38 26 39 90 40 27 41 89 42
REMARK SMILES IDX 28 43 29 44 30 45 83 46 31 47 88 48 82 49 84 50 32 51 87 52
REMARK SMILES IDX 81 53 80 54 33 56 67 57 46 58 66 59 47 60 50 61 65 62 85 63
REMARK SMILES IDX 48 64 49 65 64 67 86 68 51 69 34 70 35 71 44 72 36 73 37 74
REMARK SMILES IDX 43 75 45 76 38 77 39 78 40 79 41 80 42 81 68 82 69 83 78 84
REMARK SMILES IDX 70 85 71 86 77 87 79 88 72 89 73 90 74 91 75 92 76 93 52 94
REMARK SMILES IDX 53 95 62 96 54 97 55 98 61 99 63 100 56 101 57 102 58 103
REMARK SMILES IDX 59 104 60 105
REMARK H PARENT 84 55 50 66
REMARK Flexibility Score: inf
ROOT
ATOM      1  C   UNL A   1      39.457  21.925  26.204  1.00  0.00     0.202 C 
ENDROOT
BRANCH   1   2
ATOM      2  O   UNL A   1      38.173  21.406  25.868  1.00  0.00    -0.374 OA
BRANCH   2   3
ATOM      3  C   UNL A   1      37.469  22.032  24.796  1.00  0.00     0.202 C 
BRANCH   3   4
ATOM      4  C   UNL A   1      35.997  22.366  25.043  1.00  0.00     0.261 C 
BRANCH   4   5
ATOM      5  O   UNL A   1      35.806  23.092  26.268  1.00  0.00    -0.463 OA
BRANCH   5   6
ATOM      6  C   UNL A   1      34.530  23.445  26.559  1.00  0.00     0.316 C 
ATOM      7  O   UNL A   1      33.949  23.172  27.606  1.00  0.00    -0.251 OA
BRANCH   6   8
ATOM      8  C   UNL A   1      33.836  24.178  25.425  1.00  0.00     0.157 C 
ATOM      9  C   UNL A   1      32.336  27.961  26.773  1.00  0.00     0.161 A 
ATOM     10  C   UNL A   1      31.504  26.831  26.735  1.00  0.00     0.064 A 
ATOM     11  C   UNL A   1      33.682  27.853  26.389  1.00  0.00     0.161 A 
ATOM     12  C   UNL A   1      32.002  25.596  26.345  1.00  0.00     0.048 A 
ATOM     13  C   UNL A   1      34.162  26.611  25.964  1.00  0.00     0.056 A 
ATOM     14  C   UNL A   1      33.325  25.497  25.919  1.00  0.00    -0.015 A 
ATOM     15  C   UNL A   1      31.124  24.392  26.370  1.00  0.00     0.254 C 
ATOM     16  N   UNL A   1      31.513  23.327  25.557  1.00  0.00    -0.333 N 
ATOM     17  O   UNL A   1      30.125  24.376  27.080  1.00  0.00    -0.269 OA
ATOM     18  C   UNL A   1      32.683  23.427  24.685  1.00  0.00     0.135 C 
ATOM     19  C   UNL A   1      30.697  22.126  25.554  1.00  0.00     0.147 C 
BRANCH   9  20
ATOM     20  O   UNL A   1      31.779  29.174  27.076  1.00  0.00    -0.490 OA
BRANCH  20  21
ATOM     21  C   UNL A   1      31.691  30.077  25.963  1.00  0.00     0.226 C 
ATOM     22  C   UNL A   1      31.360  31.496  26.402  1.00  0.00     0.049 C 
ENDBRANCH  20  21
ENDBRANCH   9  20
BRANCH  11  23
ATOM     23  O   UNL A   1      34.670  28.793  26.345  1.00  0.00    -0.490 OA
BRANCH  23  24
ATOM     24  C   UNL A   1      35.260  29.279  27.541  1.00  0.00     0.226 C 
ATOM     25  C   UNL A   1      35.017  30.771  27.672  1.00  0.00     0.049 C 
ENDBRANCH  23  24
ENDBRANCH  11  23
BRANCH  18  26
ATOM     26  C   UNL A   1      32.429  24.078  23.293  1.00  0.00    -0.005 A 
ATOM     27  C   UNL A   1      33.398  23.779  22.297  1.00  0.00     0.010 A 
ATOM     28  C   UNL A   1      31.408  24.984  22.919  1.00  0.00     0.049 A 
ATOM     29  C   UNL A   1      33.416  24.424  21.058  1.00  0.00     0.040 A 
ATOM     30  C   UNL A   1      31.431  25.622  21.669  1.00  0.00     0.060 A 
ATOM     31  Cl  UNL A   1      30.028  25.408  23.863  1.00  0.00    -0.084 Cl
ATOM     32  C   UNL A   1      32.440  25.356  20.764  1.00  0.00     0.124 A 
ATOM     33  F   UNL A   1      32.464  25.997  19.588  1.00  0.00    -0.207 F 
ENDBRANCH  18  26
ENDBRANCH   6   8
ENDBRANCH   5   6
ENDBRANCH   4   5
ENDBRANCH   3   4
ENDBRANCH   2   3
ENDBRANCH   1   2
BRANCH   1  34
ATOM     34  C   UNL A   1      39.531  23.405  26.596  1.00  0.00     0.261 C 
BRANCH  34  35
ATOM     35  O   UNL A   1      40.888  23.862  26.735  1.00  0.00    -0.460 OA
BRANCH  35  36
ATOM     36  C   UNL A   1      41.089  25.154  26.381  1.00  0.00     0.338 C 
ATOM     37  O   UNL A   1      41.065  25.613  25.245  1.00  0.00    -0.246 OA
BRANCH  36  38
ATOM     38  C   UNL A   1      41.156  26.010  27.578  1.00  0.00     0.060 A 
ATOM     39  C   UNL A   1      40.113  25.903  28.508  1.00  0.00     0.016 A 
ATOM     40  C   UNL A   1      42.178  26.943  27.767  1.00  0.00     0.016 A 
ATOM     41  C   UNL A   1      40.065  26.758  29.606  1.00  0.00     0.010 A 
ATOM     42  C   UNL A   1      42.127  27.801  28.871  1.00  0.00     0.010 A 
ATOM     43  C   UNL A   1      41.053  27.735  29.778  1.00  0.00    -0.014 A 
BRANCH  43  44
ATOM     44  C   UNL A   1      40.894  28.764  30.836  1.00  0.00     0.031 A 
ATOM     45  C   UNL A   1      41.796  28.726  32.040  1.00  0.00     0.074 A 
ATOM     46  C   UNL A   1      39.974  29.738  30.712  1.00  0.00     0.049 A 
ATOM     47  N   UNL A   1      41.799  29.493  33.099  1.00  0.00    -0.248 NA
ATOM     48  C   UNL A   1      42.836  27.683  32.051  1.00  0.00     0.031 C 
ATOM     49  C   UNL A   1      39.067  29.901  29.577  1.00  0.00     0.029 A 
ATOM     50  N   UNL A   1      39.644  30.768  31.557  1.00  0.00    -0.354 N 
ATOM     51  C   UNL A   1      42.827  29.021  33.908  1.00  0.00     0.074 A 
ATOM     52  C   UNL A   1      43.411  27.885  33.228  1.00  0.00     0.031 C 
ATOM     53  C   UNL A   1      38.275  30.963  29.801  1.00  0.00     0.029 A 
ATOM     54  C   UNL A   1      38.588  31.528  31.112  1.00  0.00     0.049 A 
ATOM     55  H   UNL A   1      40.119  30.946  32.401  1.00  0.00     0.167 HD
ATOM     56  C   UNL A   1      43.248  29.496  35.104  1.00  0.00     0.037 A 
ATOM     57  C   UNL A   1      37.929  32.541  31.708  1.00  0.00     0.037 A 
ATOM     58  C   UNL A   1      42.663  30.630  35.773  1.00  0.00     0.049 A 
ATOM     59  C   UNL A   1      38.367  33.004  33.074  1.00  0.00     0.074 A 
ATOM     60  C   UNL A   1      43.039  31.209  36.974  1.00  0.00     0.029 A 
ATOM     61  N   UNL A   1      41.571  31.349  35.310  1.00  0.00    -0.354 N 
ATOM     62  N   UNL A   1      39.360  32.570  33.814  1.00  0.00    -0.248 NA
ATOM     63  C   UNL A   1      37.593  34.092  33.688  1.00  0.00     0.031 C 
ATOM     64  C   UNL A   1      42.140  32.240  37.263  1.00  0.00     0.029 A 
ATOM     65  C   UNL A   1      41.237  32.343  36.217  1.00  0.00     0.049 A 
ATOM     66  H   UNL A   1      41.103  31.180  34.460  1.00  0.00     0.167 HD
ATOM     67  C   UNL A   1      39.337  33.340  34.973  1.00  0.00     0.074 A 
ATOM     68  C   UNL A   1      38.247  34.282  34.825  1.00  0.00     0.031 C 
ATOM     69  C   UNL A   1      40.144  33.271  36.061  1.00  0.00     0.037 A 
BRANCH  56  70
ATOM     70  C   UNL A   1      44.379  28.773  35.786  1.00  0.00     0.058 A 
ATOM     71  C   UNL A   1      45.720  29.134  35.582  1.00  0.00     0.135 A 
ATOM     72  C   UNL A   1      44.113  27.730  36.689  1.00  0.00     0.135 A 
ATOM     73  F   UNL A   1      46.034  30.113  34.718  1.00  0.00    -0.206 F 
ATOM     74  C   UNL A   1      46.758  28.470  36.229  1.00  0.00     0.059 A 
ATOM     75  C   UNL A   1      45.133  27.072  37.368  1.00  0.00     0.059 A 
ATOM     76  F   UNL A   1      42.849  27.343  36.920  1.00  0.00    -0.206 F 
ATOM     77  C   UNL A   1      46.454  27.441  37.122  1.00  0.00     0.060 A 
BRANCH  77  78
ATOM     78  S   UNL A   1      47.812  26.595  37.958  1.00  0.00     0.124 S 
ATOM     79  O   UNL A   1      47.977  27.420  39.153  1.00  0.00    -0.237 OA
ATOM     80  O   UNL A   1      47.261  25.263  38.179  1.00  0.00    -0.237 OA
ATOM     81  O   UNL A   1      48.906  26.667  36.994  1.00  0.00    -0.744 OA
ENDBRANCH  77  78
ENDBRANCH  56  70
BRANCH  57  82
ATOM     82  C   UNL A   1      36.764  33.168  31.028  1.00  0.00     0.058 A 
ATOM     83  C   UNL A   1      35.452  32.927  31.460  1.00  0.00     0.135 A 
ATOM     84  C   UNL A   1      36.942  34.029  29.932  1.00  0.00     0.135 A 
ATOM     85  F   UNL A   1      35.226  32.099  32.492  1.00  0.00    -0.206 F 
ATOM     86  C   UNL A   1      34.357  33.510  30.828  1.00  0.00     0.059 A 
ATOM     87  C   UNL A   1      35.866  34.645  29.303  1.00  0.00     0.059 A 
ATOM     88  F   UNL A   1      38.177  34.296  29.481  1.00  0.00    -0.206 F 
ATOM     89  C   UNL A   1      34.576  34.374  29.753  1.00  0.00     0.060 A 
BRANCH  89  90
ATOM     90  S   UNL A   1      33.153  35.176  28.981  1.00  0.00     0.124 S 
ATOM     91  O   UNL A   1      33.755  36.389  28.440  1.00  0.00    -0.237 OA
ATOM     92  O   UNL A   1      32.736  34.178  28.001  1.00  0.00    -0.237 OA
ATOM     93  O   UNL A   1      32.231  35.370  30.096  1.00  0.00    -0.744 OA
ENDBRANCH  89  90
ENDBRANCH  57  82
BRANCH  69  94
ATOM     94  C   UNL A   1      39.891  34.249  37.178  1.00  0.00     0.058 A 
ATOM     95  C   UNL A   1      39.045  33.934  38.253  1.00  0.00     0.135 A 
ATOM     96  C   UNL A   1      40.542  35.494  37.200  1.00  0.00     0.135 A 
ATOM     97  F   UNL A   1      38.392  32.762  38.279  1.00  0.00    -0.206 F 
ATOM     98  C   UNL A   1      38.836  34.827  39.300  1.00  0.00     0.059 A 
ATOM     99  C   UNL A   1      40.372  36.390  38.252  1.00  0.00     0.059 A 
ATOM    100  F   UNL A   1      41.370  35.841  36.203  1.00  0.00    -0.206 F 
ATOM    101  C   UNL A   1      39.507  36.052  39.292  1.00  0.00     0.060 A 
BRANCH 101 102
ATOM    102  S   UNL A   1      39.254  37.186  40.674  1.00  0.00     0.124 S 
ATOM    103  O   UNL A   1      40.610  37.669  40.911  1.00  0.00    -0.237 OA
ATOM    104  O   UNL A   1      38.324  38.160  40.112  1.00  0.00    -0.237 OA
ATOM    105  O   UNL A   1      38.701  36.331  41.720  1.00  0.00    -0.744 OA
ENDBRANCH 101 102
ENDBRANCH  69  94
ENDBRANCH  43  44
ENDBRANCH  36  38
ENDBRANCH  35  36
ENDBRANCH  34  35
ENDBRANCH   1  34
TORSDOF 22
ENDMDL
MODEL 2
REMARK VINA RESULT:     -10.7      0.459      7.853
REMARK SMILES CCOc1cc2c(cc1OCC)[C@@H](C(=O)OCCOCCOC(=O)c1ccc(-c3c4nc(c(-c5c(F)cc(S(=O)(=O)[O-])cc5F)c5ccc([nH]5)c(-c5c(F)cc(S(=O)(=O)[O-])cc5F)c5nc(c(-c6c(F)cc(S(=O)(=O)[O-])cc6F)c6ccc3[nH]6)C=C5)C=C4)cc1)[C@H](c1ccc(F)cc1Cl)N(C)C2=O
REMARK SMILES IDX 20 1 19 2 18 3 17 4 16 5 14 6 15 7 13 8 4 9 5 10 9 11 6 12
REMARK SMILES IDX 8 13 7 14 102 15 100 16 103 17 91 18 101 19 3 20 2 21 1 22
REMARK SMILES IDX 10 23 11 24 12 25 92 26 93 27 98 28 94 29 97 30 99 31 95 32
REMARK SMILES IDX 96 33 21 34 22 35 23 36 24 37 25 38 26 39 90 40 27 41 89 42
REMARK SMILES IDX 28 43 29 44 30 45 83 46 31 47 88 48 82 49 84 50 32 51 87 52
REMARK SMILES IDX 81 53 80 54 33 56 67 57 46 58 66 59 47 60 50 61 65 62 85 63
REMARK SMILES IDX 48 64 49 65 64 67 86 68 51 69 34 70 35 71 44 72 36 73 37 74
REMARK SMILES IDX 43 75 45 76 38 77 39 78 40 79 41 80 42 81 68 82 69 83 78 84
REMARK SMILES IDX 70 85 71 86 77 87 79 88 72 89 73 90 74 91 75 92 76 93 52 94
REMARK SMILES IDX 53 95 62 96 54 97 55 98 61 99 63 100 56 101 57 102 58 103
REMARK SMILES IDX 59 104 60 105
REMARK H PARENT 84 55 50 66
REMARK Flexibility Score: inf
ROOT
ATOM      1  C   UNL A   1      39.708  22.204  26.261  1.00  0.00     0.202 C 
ENDROOT
BRANCH   1   2
ATOM      2  O   UNL A   1      38.343  22.260  25.855  1.00  0.00    -0.374 OA
BRANCH   2   3
ATOM      3  C   UNL A   1      37.772  23.549  25.636  1.00  0.00     0.202 C 
BRANCH   3   4
ATOM      4  C   UNL A   1      36.249  23.614  25.514  1.00  0.00     0.261 C 
BRANCH   4   5
ATOM      5  O   UNL A   1      35.601  23.516  26.793  1.00  0.00    -0.463 OA
BRANCH   5   6
ATOM      6  C   UNL A   1      34.245  23.503  26.775  1.00  0.00     0.316 C 
ATOM      7  O   UNL A   1      33.538  22.931  27.599  1.00  0.00    -0.251 OA
BRANCH   6   8
ATOM      8  C   UNL A   1      33.654  24.229  25.579  1.00  0.00     0.157 C 
ATOM      9  C   UNL A   1      32.270  28.124  26.717  1.00  0.00     0.161 A 
ATOM     10  C   UNL A   1      31.386  27.035  26.666  1.00  0.00     0.064 A 
ATOM     11  C   UNL A   1      33.628  27.938  26.416  1.00  0.00     0.161 A 
ATOM     12  C   UNL A   1      31.843  25.765  26.345  1.00  0.00     0.048 A 
ATOM     13  C   UNL A   1      34.069  26.661  26.060  1.00  0.00     0.056 A 
ATOM     14  C   UNL A   1      33.182  25.588  26.000  1.00  0.00    -0.015 A 
ATOM     15  C   UNL A   1      30.907  24.606  26.356  1.00  0.00     0.254 C 
ATOM     16  N   UNL A   1      31.288  23.496  25.601  1.00  0.00    -0.333 N 
ATOM     17  O   UNL A   1      29.869  24.662  27.006  1.00  0.00    -0.269 OA
ATOM     18  C   UNL A   1      32.509  23.510  24.796  1.00  0.00     0.135 C 
ATOM     19  C   UNL A   1      30.414  22.336  25.589  1.00  0.00     0.147 C 
BRANCH   9  20
ATOM     20  O   UNL A   1      31.758  29.372  26.948  1.00  0.00    -0.490 OA
BRANCH  20  21
ATOM     21  C   UNL A   1      31.857  30.267  25.830  1.00  0.00     0.226 C 
ATOM     22  C   UNL A   1      31.010  31.517  26.020  1.00  0.00     0.049 C 
ENDBRANCH  20  21
ENDBRANCH   9  20
BRANCH  11  23
ATOM     23  O   UNL A   1      34.663  28.828  26.401  1.00  0.00    -0.490 OA
BRANCH  23  24
ATOM     24  C   UNL A   1      35.216  29.316  27.613  1.00  0.00     0.226 C 
ATOM     25  C   UNL A   1      35.013  30.816  27.712  1.00  0.00     0.049 C 
ENDBRANCH  23  24
ENDBRANCH  11  23
BRANCH  18  26
ATOM     26  C   UNL A   1      32.367  24.123  23.373  1.00  0.00    -0.005 A 
ATOM     27  C   UNL A   1      33.396  23.775  22.456  1.00  0.00     0.010 A 
ATOM     28  C   UNL A   1      31.396  25.039  22.902  1.00  0.00     0.049 A 
ATOM     29  C   UNL A   1      33.515  24.382  21.203  1.00  0.00     0.040 A 
ATOM     30  C   UNL A   1      31.520  25.640  21.640  1.00  0.00     0.060 A 
ATOM     31  Cl  UNL A   1      29.964  25.521  23.735  1.00  0.00    -0.084 Cl
ATOM     32  C   UNL A   1      32.584  25.326  20.815  1.00  0.00     0.124 A 
ATOM     33  F   UNL A   1      32.704  25.930  19.627  1.00  0.00    -0.207 F 
ENDBRANCH  18  26
ENDBRANCH   6   8
ENDBRANCH   5   6
ENDBRANCH   4   5
ENDBRANCH   3   4
ENDBRANCH   2   3
ENDBRANCH   1   2
BRANCH   1  34
ATOM     34  C   UNL A   1      40.224  23.353  27.134  1.00  0.00     0.261 C 
BRANCH  34  35
ATOM     35  O   UNL A   1      41.335  24.039  26.528  1.00  0.00    -0.460 OA
BRANCH  35  36
ATOM     36  C   UNL A   1      41.143  25.365  26.336  1.00  0.00     0.338 C 
ATOM     37  O   UNL A   1      40.836  25.915  25.285  1.00  0.00    -0.246 OA
BRANCH  36  38
ATOM     38  C   UNL A   1      41.164  26.079  27.625  1.00  0.00     0.060 A 
ATOM     39  C   UNL A   1      39.994  26.054  28.396  1.00  0.00     0.016 A 
ATOM     40  C   UNL A   1      42.276  26.810  28.050  1.00  0.00     0.016 A 
ATOM     41  C   UNL A   1      39.916  26.795  29.572  1.00  0.00     0.010 A 
ATOM     42  C   UNL A   1      42.195  27.553  29.232  1.00  0.00     0.010 A 
ATOM     43  C   UNL A   1      41.004  27.576  29.982  1.00  0.00    -0.014 A 
BRANCH  43  44
ATOM     44  C   UNL A   1      40.849  28.510  31.126  1.00  0.00     0.031 A 
ATOM     45  C   UNL A   1      39.802  29.588  31.059  1.00  0.00     0.074 A 
ATOM     46  C   UNL A   1      41.616  28.380  32.225  1.00  0.00     0.049 A 
ATOM     47  N   UNL A   1      39.530  30.535  31.919  1.00  0.00    -0.248 NA
ATOM     48  C   UNL A   1      38.946  29.600  29.861  1.00  0.00     0.031 C 
ATOM     49  C   UNL A   1      42.639  27.353  32.423  1.00  0.00     0.029 A 
ATOM     50  N   UNL A   1      41.659  29.124  33.377  1.00  0.00    -0.354 N 
ATOM     51  C   UNL A   1      38.484  31.263  31.364  1.00  0.00     0.074 A 
ATOM     52  C   UNL A   1      38.186  30.663  30.082  1.00  0.00     0.031 C 
ATOM     53  C   UNL A   1      43.217  27.540  33.621  1.00  0.00     0.029 A 
ATOM     54  C   UNL A   1      42.637  28.721  34.256  1.00  0.00     0.049 A 
ATOM     55  H   UNL A   1      41.047  29.874  33.557  1.00  0.00     0.167 HD
ATOM     56  C   UNL A   1      37.828  32.330  31.881  1.00  0.00     0.037 A 
ATOM     57  C   UNL A   1      43.039  29.264  35.422  1.00  0.00     0.037 A 
ATOM     58  C   UNL A   1      38.130  32.920  33.161  1.00  0.00     0.049 A 
ATOM     59  C   UNL A   1      42.346  30.497  35.941  1.00  0.00     0.074 A 
ATOM     60  C   UNL A   1      37.502  33.983  33.787  1.00  0.00     0.029 A 
ATOM     61  N   UNL A   1      39.151  32.508  34.004  1.00  0.00    -0.354 N 
ATOM     62  N   UNL A   1      41.337  31.157  35.423  1.00  0.00    -0.248 NA
ATOM     63  C   UNL A   1      42.846  31.061  37.203  1.00  0.00     0.031 C 
ATOM     64  C   UNL A   1      38.180  34.250  34.980  1.00  0.00     0.029 A 
ATOM     65  C   UNL A   1      39.195  33.319  35.128  1.00  0.00     0.049 A 
ATOM     66  H   UNL A   1      39.756  31.751  33.830  1.00  0.00     0.167 HD
ATOM     67  C   UNL A   1      41.075  32.205  36.301  1.00  0.00     0.074 A 
ATOM     68  C   UNL A   1      42.016  32.077  37.394  1.00  0.00     0.031 C 
ATOM     69  C   UNL A   1      40.142  33.185  36.207  1.00  0.00     0.037 A 
BRANCH  56  70
ATOM     70  C   UNL A   1      36.737  32.951  31.050  1.00  0.00     0.058 A 
ATOM     71  C   UNL A   1      35.380  32.694  31.295  1.00  0.00     0.135 A 
ATOM     72  C   UNL A   1      37.056  33.851  30.019  1.00  0.00     0.135 A 
ATOM     73  F   UNL A   1      35.018  31.830  32.258  1.00  0.00    -0.206 F 
ATOM     74  C   UNL A   1      34.378  33.285  30.532  1.00  0.00     0.059 A 
ATOM     75  C   UNL A   1      36.071  34.476  29.262  1.00  0.00     0.059 A 
ATOM     76  F   UNL A   1      38.339  34.132  29.741  1.00  0.00    -0.206 F 
ATOM     77  C   UNL A   1      34.734  34.177  29.518  1.00  0.00     0.060 A 
BRANCH  77  78
ATOM     78  S   UNL A   1      33.421  34.941  28.542  1.00  0.00     0.124 S 
ATOM     79  O   UNL A   1      32.510  35.401  29.588  1.00  0.00    -0.237 OA
ATOM     80  O   UNL A   1      34.138  35.988  27.822  1.00  0.00    -0.237 OA
ATOM     81  O   UNL A   1      32.924  33.844  27.718  1.00  0.00    -0.744 OA
ENDBRANCH  77  78
ENDBRANCH  56  70
BRANCH  57  82
ATOM     82  C   UNL A   1      44.178  28.660  36.166  1.00  0.00     0.058 A 
ATOM     83  C   UNL A   1      45.482  29.158  36.031  1.00  0.00     0.135 A 
ATOM     84  C   UNL A   1      43.982  27.572  37.032  1.00  0.00     0.135 A 
ATOM     85  F   UNL A   1      45.726  30.186  35.203  1.00  0.00    -0.206 F 
ATOM     86  C   UNL A   1      46.551  28.598  36.724  1.00  0.00     0.059 A 
ATOM     87  C   UNL A   1      45.030  27.013  37.756  1.00  0.00     0.059 A 
ATOM     88  F   UNL A   1      42.753  27.058  37.199  1.00  0.00    -0.206 F 
ATOM     89  C   UNL A   1      46.313  27.528  37.590  1.00  0.00     0.060 A 
BRANCH  89  90
ATOM     90  S   UNL A   1      47.697  26.850  38.531  1.00  0.00     0.124 S 
ATOM     91  O   UNL A   1      48.723  26.728  37.502  1.00  0.00    -0.237 OA
ATOM     92  O   UNL A   1      47.920  27.885  39.536  1.00  0.00    -0.237 OA
ATOM     93  O   UNL A   1      47.167  25.591  39.048  1.00  0.00    -0.744 OA
ENDBRANCH  89  90
ENDBRANCH  57  82
BRANCH  69  94
ATOM     94  C   UNL A   1      40.079  34.194  37.323  1.00  0.00     0.058 A 
ATOM     95  C   UNL A   1      40.739  35.430  37.235  1.00  0.00     0.135 A 
ATOM     96  C   UNL A   1      39.308  33.945  38.471  1.00  0.00     0.135 A 
ATOM     97  F   UNL A   1      41.496  35.718  36.165  1.00  0.00    -0.206 F 
ATOM     98  C   UNL A   1      40.655  36.374  38.254  1.00  0.00     0.059 A 
ATOM     99  C   UNL A   1      39.185  34.886  39.489  1.00  0.00     0.059 A 
ATOM    100  F   UNL A   1      38.648  32.783  38.602  1.00  0.00    -0.206 F 
ATOM    101  C   UNL A   1      39.872  36.094  39.377  1.00  0.00     0.060 A 
BRANCH 101 102
ATOM    102  S   UNL A   1      39.744  37.342  40.675  1.00  0.00     0.124 S 
ATOM    103  O   UNL A   1      41.139  37.500  41.071  1.00  0.00    -0.237 OA
ATOM    104  O   UNL A   1      39.156  38.473  39.963  1.00  0.00    -0.237 OA
ATOM    105  O   UNL A   1      38.877  36.714  41.667  1.00  0.00    -0.744 OA
ENDBRANCH 101 102
ENDBRANCH  69  94
ENDBRANCH  43  44
ENDBRANCH  36  38
ENDBRANCH  35  36
ENDBRANCH  34  35
ENDBRANCH   1  34
TORSDOF 22
ENDMDL
MODEL 3
REMARK VINA RESULT:     -10.0      6.267     11.334
REMARK SMILES CCOc1cc2c(cc1OCC)[C@@H](C(=O)OCCOCCOC(=O)c1ccc(-c3c4nc(c(-c5c(F)cc(S(=O)(=O)[O-])cc5F)c5ccc([nH]5)c(-c5c(F)cc(S(=O)(=O)[O-])cc5F)c5nc(c(-c6c(F)cc(S(=O)(=O)[O-])cc6F)c6ccc3[nH]6)C=C5)C=C4)cc1)[C@H](c1ccc(F)cc1Cl)N(C)C2=O
REMARK SMILES IDX 20 1 19 2 18 3 17 4 16 5 14 6 15 7 13 8 4 9 5 10 9 11 6 12
REMARK SMILES IDX 8 13 7 14 102 15 100 16 103 17 91 18 101 19 3 20 2 21 1 22
REMARK SMILES IDX 10 23 11 24 12 25 92 26 93 27 98 28 94 29 97 30 99 31 95 32
REMARK SMILES IDX 96 33 21 34 22 35 23 36 24 37 25 38 26 39 90 40 27 41 89 42
REMARK SMILES IDX 28 43 29 44 30 45 83 46 31 47 88 48 82 49 84 50 32 51 87 52
REMARK SMILES IDX 81 53 80 54 33 56 67 57 46 58 66 59 47 60 50 61 65 62 85 63
REMARK SMILES IDX 48 64 49 65 64 67 86 68 51 69 34 70 35 71 44 72 36 73 37 74
REMARK SMILES IDX 43 75 45 76 38 77 39 78 40 79 41 80 42 81 68 82 69 83 78 84
REMARK SMILES IDX 70 85 71 86 77 87 79 88 72 89 73 90 74 91 75 92 76 93 52 94
REMARK SMILES IDX 53 95 62 96 54 97 55 98 61 99 63 100 56 101 57 102 58 103
REMARK SMILES IDX 59 104 60 105
REMARK H PARENT 84 55 50 66
REMARK Flexibility Score: inf
ROOT
ATOM      1  C   UNL A   1      34.873  31.710  29.312  1.00  0.00     0.202 C 
ENDROOT
BRANCH   1   2
ATOM      2  O   UNL A   1      35.487  31.645  28.028  1.00  0.00    -0.374 OA
BRANCH   2   3
ATOM      3  C   UNL A   1      35.362  30.425  27.298  1.00  0.00     0.202 C 
BRANCH   3   4
ATOM      4  C   UNL A   1      33.981  29.768  27.290  1.00  0.00     0.261 C 
BRANCH   4   5
ATOM      5  O   UNL A   1      34.048  28.376  26.942  1.00  0.00    -0.463 OA
BRANCH   5   6
ATOM      6  C   UNL A   1      32.860  27.735  26.813  1.00  0.00     0.316 C 
ATOM      7  O   UNL A   1      31.959  27.753  27.646  1.00  0.00    -0.251 OA
BRANCH   6   8
ATOM      8  C   UNL A   1      32.754  26.918  25.537  1.00  0.00     0.157 C 
ATOM      9  C   UNL A   1      29.063  27.747  23.521  1.00  0.00     0.161 A 
ATOM     10  C   UNL A   1      29.179  26.643  24.381  1.00  0.00     0.064 A 
ATOM     11  C   UNL A   1      30.157  28.606  23.333  1.00  0.00     0.161 A 
ATOM     12  C   UNL A   1      30.358  26.403  25.071  1.00  0.00     0.048 A 
ATOM     13  C   UNL A   1      31.350  28.333  24.006  1.00  0.00     0.056 A 
ATOM     14  C   UNL A   1      31.460  27.228  24.849  1.00  0.00    -0.015 A 
ATOM     15  C   UNL A   1      30.448  25.265  26.028  1.00  0.00     0.254 C 
ATOM     16  N   UNL A   1      31.732  24.802  26.319  1.00  0.00    -0.333 N 
ATOM     17  O   UNL A   1      29.428  24.790  26.513  1.00  0.00    -0.269 OA
ATOM     18  C   UNL A   1      32.909  25.369  25.662  1.00  0.00     0.135 C 
ATOM     19  C   UNL A   1      31.873  23.701  27.256  1.00  0.00     0.147 C 
BRANCH   9  20
ATOM     20  O   UNL A   1      27.913  27.891  22.793  1.00  0.00    -0.490 OA
BRANCH  20  21
ATOM     21  C   UNL A   1      26.854  28.568  23.489  1.00  0.00     0.226 C 
ATOM     22  C   UNL A   1      25.781  27.606  23.976  1.00  0.00     0.049 C 
ENDBRANCH  20  21
ENDBRANCH   9  20
BRANCH  11  23
ATOM     23  O   UNL A   1      30.282  29.727  22.564  1.00  0.00    -0.490 OA
BRANCH  23  24
ATOM     24  C   UNL A   1      29.441  30.849  22.777  1.00  0.00     0.226 C 
ATOM     25  C   UNL A   1      28.670  31.172  21.510  1.00  0.00     0.049 C 
ENDBRANCH  23  24
ENDBRANCH  11  23
BRANCH  18  26
ATOM     26  C   UNL A   1      33.266  24.753  24.277  1.00  0.00    -0.005 A 
ATOM     27  C   UNL A   1      32.562  25.301  23.170  1.00  0.00     0.010 A 
ATOM     28  C   UNL A   1      34.136  23.674  23.992  1.00  0.00     0.049 A 
ATOM     29  C   UNL A   1      32.630  24.739  21.893  1.00  0.00     0.040 A 
ATOM     30  C   UNL A   1      34.203  23.121  22.704  1.00  0.00     0.060 A 
ATOM     31  Cl  UNL A   1      35.220  22.920  25.102  1.00  0.00    -0.084 Cl
ATOM     32  C   UNL A   1      33.437  23.640  21.677  1.00  0.00     0.124 A 
ATOM     33  F   UNL A   1      33.491  23.081  20.461  1.00  0.00    -0.207 F 
ENDBRANCH  18  26
ENDBRANCH   6   8
ENDBRANCH   5   6
ENDBRANCH   4   5
ENDBRANCH   3   4
ENDBRANCH   2   3
ENDBRANCH   1   2
BRANCH   1  34
ATOM     34  C   UNL A   1      35.357  32.809  30.263  1.00  0.00     0.261 C 
BRANCH  34  35
ATOM     35  O   UNL A   1      36.759  32.688  30.564  1.00  0.00    -0.460 OA
BRANCH  35  36
ATOM     36  C   UNL A   1      37.081  31.621  31.334  1.00  0.00     0.338 C 
ATOM     37  O   UNL A   1      36.441  31.183  32.282  1.00  0.00    -0.246 OA
BRANCH  36  38
ATOM     38  C   UNL A   1      38.236  30.906  30.763  1.00  0.00     0.060 A 
ATOM     39  C   UNL A   1      39.160  30.352  31.659  1.00  0.00     0.016 A 
ATOM     40  C   UNL A   1      38.453  30.828  29.385  1.00  0.00     0.016 A 
ATOM     41  C   UNL A   1      40.325  29.756  31.183  1.00  0.00     0.010 A 
ATOM     42  C   UNL A   1      39.624  30.228  28.910  1.00  0.00     0.010 A 
ATOM     43  C   UNL A   1      40.582  29.719  29.807  1.00  0.00    -0.014 A 
BRANCH  43  44
ATOM     44  C   UNL A   1      41.906  29.259  29.318  1.00  0.00     0.031 A 
ATOM     45  C   UNL A   1      43.050  30.235  29.264  1.00  0.00     0.074 A 
ATOM     46  C   UNL A   1      42.094  27.978  28.952  1.00  0.00     0.049 A 
ATOM     47  N   UNL A   1      44.270  30.060  28.828  1.00  0.00    -0.248 NA
ATOM     48  C   UNL A   1      42.781  31.592  29.770  1.00  0.00     0.031 C 
ATOM     49  C   UNL A   1      41.074  26.931  28.994  1.00  0.00     0.029 A 
ATOM     50  N   UNL A   1      43.208  27.342  28.462  1.00  0.00    -0.354 N 
ATOM     51  C   UNL A   1      44.912  31.283  28.993  1.00  0.00     0.074 A 
ATOM     52  C   UNL A   1      43.938  32.198  29.547  1.00  0.00     0.031 C 
ATOM     53  C   UNL A   1      41.606  25.785  28.537  1.00  0.00     0.029 A 
ATOM     54  C   UNL A   1      42.990  26.026  28.132  1.00  0.00     0.049 A 
ATOM     55  H   UNL A   1      44.080  27.788  28.358  1.00  0.00     0.167 HD
ATOM     56  C   UNL A   1      46.197  31.608  28.715  1.00  0.00     0.037 A 
ATOM     57  C   UNL A   1      43.802  25.129  27.539  1.00  0.00     0.037 A 
ATOM     58  C   UNL A   1      47.161  30.688  28.165  1.00  0.00     0.049 A 
ATOM     59  C   UNL A   1      45.205  25.535  27.168  1.00  0.00     0.074 A 
ATOM     60  C   UNL A   1      48.496  30.913  27.877  1.00  0.00     0.029 A 
ATOM     61  N   UNL A   1      46.892  29.376  27.809  1.00  0.00    -0.354 N 
ATOM     62  N   UNL A   1      45.809  26.684  27.358  1.00  0.00    -0.248 NA
ATOM     63  C   UNL A   1      46.035  24.525  26.497  1.00  0.00     0.031 C 
ATOM     64  C   UNL A   1      49.018  29.755  27.293  1.00  0.00     0.029 A 
ATOM     65  C   UNL A   1      48.026  28.788  27.269  1.00  0.00     0.049 A 
ATOM     66  H   UNL A   1      46.023  28.926  27.922  1.00  0.00     0.167 HD
ATOM     67  C   UNL A   1      47.093  26.530  26.844  1.00  0.00     0.074 A 
ATOM     68  C   UNL A   1      47.185  25.170  26.355  1.00  0.00     0.031 C 
ATOM     69  C   UNL A   1      48.103  27.434  26.780  1.00  0.00     0.037 A 
BRANCH  56  70
ATOM     70  C   UNL A   1      46.631  33.026  28.970  1.00  0.00     0.058 A 
ATOM     71  C   UNL A   1      47.177  33.426  30.199  1.00  0.00     0.135 A 
ATOM     72  C   UNL A   1      46.536  33.991  27.952  1.00  0.00     0.135 A 
ATOM     73  F   UNL A   1      47.277  32.550  31.212  1.00  0.00    -0.206 F 
ATOM     74  C   UNL A   1      47.591  34.736  30.420  1.00  0.00     0.059 A 
ATOM     75  C   UNL A   1      46.970  35.300  28.141  1.00  0.00     0.059 A 
ATOM     76  F   UNL A   1      46.020  33.664  26.757  1.00  0.00    -0.206 F 
ATOM     77  C   UNL A   1      47.484  35.666  29.384  1.00  0.00     0.060 A 
BRANCH  77  78
ATOM     78  S   UNL A   1      48.032  37.360  29.685  1.00  0.00     0.124 S 
ATOM     79  O   UNL A   1      49.440  37.156  30.016  1.00  0.00    -0.237 OA
ATOM     80  O   UNL A   1      47.771  38.004  28.403  1.00  0.00    -0.237 OA
ATOM     81  O   UNL A   1      47.187  37.801  30.790  1.00  0.00    -0.744 OA
ENDBRANCH  77  78
ENDBRANCH  56  70
BRANCH  57  82
ATOM     82  C   UNL A   1      43.298  23.762  27.233  1.00  0.00     0.058 A 
ATOM     83  C   UNL A   1      42.973  23.383  25.923  1.00  0.00     0.135 A 
ATOM     84  C   UNL A   1      43.137  22.805  28.248  1.00  0.00     0.135 A 
ATOM     85  F   UNL A   1      43.093  24.265  24.919  1.00  0.00    -0.206 F 
ATOM     86  C   UNL A   1      42.501  22.107  25.629  1.00  0.00     0.059 A 
ATOM     87  C   UNL A   1      42.694  21.516  27.976  1.00  0.00     0.059 A 
ATOM     88  F   UNL A   1      43.436  23.116  29.519  1.00  0.00    -0.206 F 
ATOM     89  C   UNL A   1      42.371  21.177  26.663  1.00  0.00     0.060 A 
BRANCH  89  90
ATOM     90  S   UNL A   1      41.818  19.505  26.263  1.00  0.00     0.124 S 
ATOM     91  O   UNL A   1      42.313  18.749  27.407  1.00  0.00    -0.237 OA
ATOM     92  O   UNL A   1      40.370  19.672  26.185  1.00  0.00    -0.237 OA
ATOM     93  O   UNL A   1      42.477  19.229  24.989  1.00  0.00    -0.744 OA
ENDBRANCH  89  90
ENDBRANCH  57  82
BRANCH  69  94
ATOM     94  C   UNL A   1      49.404  26.981  26.171  1.00  0.00     0.058 A 
ATOM     95  C   UNL A   1      49.645  27.084  24.792  1.00  0.00     0.135 A 
ATOM     96  C   UNL A   1      50.440  26.489  26.982  1.00  0.00     0.135 A 
ATOM     97  F   UNL A   1      48.688  27.541  23.970  1.00  0.00    -0.206 F 
ATOM     98  C   UNL A   1      50.859  26.694  24.235  1.00  0.00     0.059 A 
ATOM     99  C   UNL A   1      51.673  26.121  26.450  1.00  0.00     0.059 A 
ATOM    100  F   UNL A   1      50.267  26.379  28.308  1.00  0.00    -0.206 F 
ATOM    101  C   UNL A   1      51.869  26.216  25.073  1.00  0.00     0.060 A 
BRANCH 101 102
ATOM    102  S   UNL A   1      53.452  25.747  24.341  1.00  0.00     0.124 S 
ATOM    103  O   UNL A   1      54.360  26.702  24.968  1.00  0.00    -0.237 OA
ATOM    104  O   UNL A   1      53.595  24.360  24.772  1.00  0.00    -0.237 OA
ATOM    105  O   UNL A   1      53.234  25.934  22.910  1.00  0.00    -0.744 OA
ENDBRANCH 101 102
ENDBRANCH  69  94
ENDBRANCH  43  44
ENDBRANCH  36  38
ENDBRANCH  35  36
ENDBRANCH  34  35
ENDBRANCH   1  34
TORSDOF 22
ENDMDL
