MODEL 1
REMARK VINA RESULT:     -11.6      0.000      0.000
REMARK SMILES O=C(OCCOCCOC(=O)c1nccnc1C(=O)Nc1ccc2c(c1)OCO2)c1ccc(-c2c3nc(c(-c4c(F)cc(S(=O)(=O)[O-])cc4F)c4ccc([nH]4)c(-c4c(F)cc(S(=O)(=O)[O-])cc4F)c4nc(c(-c5c(F)cc(S(=O)(=O)[O-])cc5F)c5ccc2[nH]5)C=C4)C=C3)cc1
REMARK SMILES IDX 5 1 4 2 3 3 2 4 1 5 30 6 31 7 95 8 32 9 94 10 33 11 34 12
REMARK SMILES IDX 35 13 88 14 36 15 93 16 87 17 89 18 37 19 92 20 86 21 85 22
REMARK SMILES IDX 38 24 72 25 51 26 71 27 52 28 55 29 70 30 90 31 53 32 54 33
REMARK SMILES IDX 69 35 91 36 56 37 39 38 40 39 49 40 41 41 42 42 48 43 50 44
REMARK SMILES IDX 43 45 44 46 45 47 46 48 47 49 73 50 74 51 83 52 75 53 76 54
REMARK SMILES IDX 82 55 84 56 77 57 78 58 79 59 80 60 81 61 57 62 58 63 67 64
REMARK SMILES IDX 59 65 60 66 66 67 68 68 61 69 62 70 63 71 64 72 65 73 6 74
REMARK SMILES IDX 7 75 8 76 9 77 10 78 11 79 12 80 13 81 17 82 14 83 16 84
REMARK SMILES IDX 15 85 18 86 19 87 20 88 21 90 22 91 26 92 23 93 25 94 24 95
REMARK SMILES IDX 27 96 29 97 28 98
REMARK H PARENT 89 23 55 34 20 89
REMARK Flexibility Score: inf
ROOT
ATOM      1  C   UNL A   1      31.901  28.586  27.387  1.00  0.00     0.202 C 
ENDROOT
BRANCH   1   2
ATOM      2  C   UNL A   1      32.429  29.968  26.992  1.00  0.00     0.261 C 
BRANCH   2   3
ATOM      3  O   UNL A   1      33.854  30.169  27.089  1.00  0.00    -0.460 OA
BRANCH   3   4
ATOM      4  C   UNL A   1      34.586  30.721  28.077  1.00  0.00     0.338 C 
ATOM      5  O   UNL A   1      34.129  31.635  28.756  1.00  0.00    -0.246 OA
BRANCH   4   6
ATOM      6  C   UNL A   1      35.944  30.230  28.367  1.00  0.00     0.060 A 
ATOM      7  C   UNL A   1      36.301  29.675  29.598  1.00  0.00     0.016 A 
ATOM      8  C   UNL A   1      36.842  30.187  27.301  1.00  0.00     0.016 A 
ATOM      9  C   UNL A   1      37.605  29.242  29.824  1.00  0.00     0.010 A 
ATOM     10  C   UNL A   1      38.113  29.660  27.497  1.00  0.00     0.010 A 
ATOM     11  C   UNL A   1      38.520  29.229  28.771  1.00  0.00    -0.014 A 
BRANCH  11  12
ATOM     12  C   UNL A   1      39.932  28.833  28.968  1.00  0.00     0.031 A 
ATOM     13  C   UNL A   1      40.904  29.894  29.387  1.00  0.00     0.074 A 
ATOM     14  C   UNL A   1      40.345  27.579  28.710  1.00  0.00     0.049 A 
ATOM     15  N   UNL A   1      42.202  29.926  29.271  1.00  0.00    -0.248 NA
ATOM     16  C   UNL A   1      40.317  31.106  29.983  1.00  0.00     0.031 C 
ATOM     17  C   UNL A   1      39.480  26.448  28.374  1.00  0.00     0.029 A 
ATOM     18  N   UNL A   1      41.612  27.056  28.664  1.00  0.00    -0.354 N 
ATOM     19  C   UNL A   1      42.581  31.193  29.696  1.00  0.00     0.074 A 
ATOM     20  C   UNL A   1      41.377  31.891  30.089  1.00  0.00     0.031 C 
ATOM     21  C   UNL A   1      40.240  25.365  28.151  1.00  0.00     0.029 A 
ATOM     22  C   UNL A   1      41.644  25.749  28.237  1.00  0.00     0.049 A 
ATOM     23  H   UNL A   1      42.417  27.564  28.911  1.00  0.00     0.167 HD
ATOM     24  C   UNL A   1      43.825  31.725  29.722  1.00  0.00     0.037 A 
ATOM     25  C   UNL A   1      42.691  24.974  27.891  1.00  0.00     0.037 A 
ATOM     26  C   UNL A   1      45.001  30.983  29.356  1.00  0.00     0.049 A 
ATOM     27  C   UNL A   1      44.070  25.571  27.937  1.00  0.00     0.074 A 
ATOM     28  C   UNL A   1      46.317  31.403  29.313  1.00  0.00     0.029 A 
ATOM     29  N   UNL A   1      44.993  29.643  28.983  1.00  0.00    -0.354 N 
ATOM     30  N   UNL A   1      44.422  26.797  28.251  1.00  0.00    -0.248 NA
ATOM     31  C   UNL A   1      45.189  24.697  27.565  1.00  0.00     0.031 C 
ATOM     32  C   UNL A   1      47.102  30.321  28.898  1.00  0.00     0.029 A 
ATOM     33  C   UNL A   1      46.280  29.218  28.715  1.00  0.00     0.049 A 
ATOM     34  H   UNL A   1      44.187  29.080  28.917  1.00  0.00     0.167 HD
ATOM     35  C   UNL A   1      45.806  26.839  28.128  1.00  0.00     0.074 A 
ATOM     36  C   UNL A   1      46.226  25.513  27.717  1.00  0.00     0.031 C 
ATOM     37  C   UNL A   1      46.653  27.878  28.332  1.00  0.00     0.037 A 
BRANCH  24  38
ATOM     38  C   UNL A   1      43.940  33.177  30.089  1.00  0.00     0.058 A 
ATOM     39  C   UNL A   1      43.898  34.197  29.126  1.00  0.00     0.135 A 
ATOM     40  C   UNL A   1      44.167  33.549  31.425  1.00  0.00     0.135 A 
ATOM     41  F   UNL A   1      43.709  33.896  27.831  1.00  0.00    -0.206 F 
ATOM     42  C   UNL A   1      44.135  35.527  29.464  1.00  0.00     0.059 A 
ATOM     43  C   UNL A   1      44.380  34.875  31.790  1.00  0.00     0.059 A 
ATOM     44  F   UNL A   1      44.219  32.615  32.388  1.00  0.00    -0.206 F 
ATOM     45  C   UNL A   1      44.393  35.853  30.797  1.00  0.00     0.060 A 
BRANCH  45  46
ATOM     46  S   UNL A   1      44.776  37.567  31.215  1.00  0.00     0.124 S 
ATOM     47  O   UNL A   1      44.693  37.532  32.672  1.00  0.00    -0.237 OA
ATOM     48  O   UNL A   1      46.115  37.737  30.662  1.00  0.00    -0.237 OA
ATOM     49  O   UNL A   1      43.723  38.322  30.544  1.00  0.00    -0.744 OA
ENDBRANCH  45  46
ENDBRANCH  24  38
BRANCH  25  50
ATOM     50  C   UNL A   1      42.450  23.579  27.438  1.00  0.00     0.058 A 
ATOM     51  C   UNL A   1      42.407  23.263  26.073  1.00  0.00     0.135 A 
ATOM     52  C   UNL A   1      42.346  22.521  28.357  1.00  0.00     0.135 A 
ATOM     53  F   UNL A   1      42.494  24.239  25.156  1.00  0.00    -0.206 F 
ATOM     54  C   UNL A   1      42.286  21.949  25.632  1.00  0.00     0.059 A 
ATOM     55  C   UNL A   1      42.246  21.197  27.940  1.00  0.00     0.059 A 
ATOM     56  F   UNL A   1      42.398  22.768  29.675  1.00  0.00    -0.206 F 
ATOM     57  C   UNL A   1      42.218  20.920  26.575  1.00  0.00     0.060 A 
BRANCH  57  58
ATOM     58  S   UNL A   1      42.179  19.210  25.992  1.00  0.00     0.124 S 
ATOM     59  O   UNL A   1      43.083  19.268  24.850  1.00  0.00    -0.237 OA
ATOM     60  O   UNL A   1      42.666  18.479  27.157  1.00  0.00    -0.237 OA
ATOM     61  O   UNL A   1      40.769  18.998  25.674  1.00  0.00    -0.744 OA
ENDBRANCH  57  58
ENDBRANCH  25  50
BRANCH  37  62
ATOM     62  C   UNL A   1      48.119  27.613  28.164  1.00  0.00     0.058 A 
ATOM     63  C   UNL A   1      48.883  27.046  29.194  1.00  0.00     0.135 A 
ATOM     64  C   UNL A   1      48.734  27.829  26.922  1.00  0.00     0.135 A 
ATOM     65  F   UNL A   1      48.337  26.827  30.400  1.00  0.00    -0.206 F 
ATOM     66  C   UNL A   1      50.213  26.695  28.993  1.00  0.00     0.059 A 
ATOM     67  C   UNL A   1      50.057  27.470  26.695  1.00  0.00     0.059 A 
ATOM     68  F   UNL A   1      48.036  28.363  25.907  1.00  0.00    -0.206 F 
ATOM     69  C   UNL A   1      50.788  26.903  27.737  1.00  0.00     0.060 A 
BRANCH  69  70
ATOM     70  S   UNL A   1      52.490  26.367  27.462  1.00  0.00     0.124 S 
ATOM     71  O   UNL A   1      53.009  26.330  28.825  1.00  0.00    -0.237 OA
ATOM     72  O   UNL A   1      52.310  25.071  26.815  1.00  0.00    -0.237 OA
ATOM     73  O   UNL A   1      53.040  27.415  26.608  1.00  0.00    -0.744 OA
ENDBRANCH  69  70
ENDBRANCH  37  62
ENDBRANCH  11  12
ENDBRANCH   4   6
ENDBRANCH   3   4
ENDBRANCH   2   3
ENDBRANCH   1   2
BRANCH   1  74
ATOM     74  O   UNL A   1      31.935  27.492  26.481  1.00  0.00    -0.374 OA
BRANCH  74  75
ATOM     75  C   UNL A   1      33.157  26.805  26.223  1.00  0.00     0.202 C 
BRANCH  75  76
ATOM     76  C   UNL A   1      32.852  25.325  26.102  1.00  0.00     0.261 C 
BRANCH  76  77
ATOM     77  O   UNL A   1      34.125  24.699  25.916  1.00  0.00    -0.458 OA
BRANCH  77  78
ATOM     78  C   UNL A   1      34.215  23.485  26.479  1.00  0.00     0.359 C 
ATOM     79  O   UNL A   1      33.505  23.037  27.370  1.00  0.00    -0.244 OA
BRANCH  78  80
ATOM     80  C   UNL A   1      35.426  22.830  25.989  1.00  0.00     0.179 A 
ATOM     81  N   UNL A   1      36.546  23.595  26.240  1.00  0.00    -0.245 NA
ATOM     82  C   UNL A   1      35.485  21.604  25.336  1.00  0.00     0.161 A 
ATOM     83  C   UNL A   1      37.715  23.121  25.775  1.00  0.00     0.132 A 
ATOM     84  N   UNL A   1      36.719  21.123  24.943  1.00  0.00    -0.247 NA
ATOM     85  C   UNL A   1      37.802  21.902  25.145  1.00  0.00     0.132 A 
BRANCH  82  86
ATOM     86  C   UNL A   1      34.407  20.825  24.659  1.00  0.00     0.276 C 
ATOM     87  O   UNL A   1      34.497  19.589  24.778  1.00  0.00    -0.267 OA
ATOM     88  N   UNL A   1      33.292  21.210  23.965  1.00  0.00    -0.320 N 
ATOM     89  H   UNL A   1      32.735  20.423  23.766  1.00  0.00     0.170 HD
BRANCH  88  90
ATOM     90  C   UNL A   1      32.689  22.355  23.448  1.00  0.00     0.045 A 
ATOM     91  C   UNL A   1      31.378  22.760  23.683  1.00  0.00     0.030 A 
ATOM     92  C   UNL A   1      33.534  23.182  22.680  1.00  0.00     0.076 A 
ATOM     93  C   UNL A   1      30.952  24.049  23.319  1.00  0.00     0.053 A 
ATOM     94  C   UNL A   1      33.084  24.428  22.303  1.00  0.00     0.167 A 
ATOM     95  C   UNL A   1      31.833  24.866  22.643  1.00  0.00     0.165 A 
ATOM     96  O   UNL A   1      33.799  25.361  21.621  1.00  0.00    -0.454 OA
ATOM     97  O   UNL A   1      31.604  26.142  22.239  1.00  0.00    -0.454 OA
ATOM     98  C   UNL A   1      32.837  26.438  21.543  1.00  0.00     0.468 C 
ENDBRANCH  88  90
ENDBRANCH  82  86
ENDBRANCH  78  80
ENDBRANCH  77  78
ENDBRANCH  76  77
ENDBRANCH  75  76
ENDBRANCH  74  75
ENDBRANCH   1  74
TORSDOF 19
ENDMDL
MODEL 2
REMARK VINA RESULT:     -11.4      3.791      6.935
REMARK SMILES O=C(OCCOCCOC(=O)c1nccnc1C(=O)Nc1ccc2c(c1)OCO2)c1ccc(-c2c3nc(c(-c4c(F)cc(S(=O)(=O)[O-])cc4F)c4ccc([nH]4)c(-c4c(F)cc(S(=O)(=O)[O-])cc4F)c4nc(c(-c5c(F)cc(S(=O)(=O)[O-])cc5F)c5ccc2[nH]5)C=C4)C=C3)cc1
REMARK SMILES IDX 5 1 4 2 3 3 2 4 1 5 30 6 31 7 95 8 32 9 94 10 33 11 34 12
REMARK SMILES IDX 35 13 88 14 36 15 93 16 87 17 89 18 37 19 92 20 86 21 85 22
REMARK SMILES IDX 38 24 72 25 51 26 71 27 52 28 55 29 70 30 90 31 53 32 54 33
REMARK SMILES IDX 69 35 91 36 56 37 39 38 40 39 49 40 41 41 42 42 48 43 50 44
REMARK SMILES IDX 43 45 44 46 45 47 46 48 47 49 73 50 74 51 83 52 75 53 76 54
REMARK SMILES IDX 82 55 84 56 77 57 78 58 79 59 80 60 81 61 57 62 58 63 67 64
REMARK SMILES IDX 59 65 60 66 66 67 68 68 61 69 62 70 63 71 64 72 65 73 6 74
REMARK SMILES IDX 7 75 8 76 9 77 10 78 11 79 12 80 13 81 17 82 14 83 16 84
REMARK SMILES IDX 15 85 18 86 19 87 20 88 21 90 22 91 26 92 23 93 25 94 24 95
REMARK SMILES IDX 27 96 29 97 28 98
REMARK H PARENT 89 23 55 34 20 89
REMARK Flexibility Score: inf
ROOT
ATOM      1  C   UNL A   1      35.991  33.964  28.903  1.00  0.00     0.202 C 
ENDROOT
BRANCH   1   2
ATOM      2  C   UNL A   1      34.985  33.234  28.011  1.00  0.00     0.261 C 
BRANCH   2   3
ATOM      3  O   UNL A   1      34.438  32.002  28.524  1.00  0.00    -0.460 OA
BRANCH   3   4
ATOM      4  C   UNL A   1      34.762  30.725  28.238  1.00  0.00     0.338 C 
ATOM      5  O   UNL A   1      33.929  29.962  27.759  1.00  0.00    -0.246 OA
BRANCH   4   6
ATOM      6  C   UNL A   1      36.124  30.225  28.488  1.00  0.00     0.060 A 
ATOM      7  C   UNL A   1      36.507  29.643  29.699  1.00  0.00     0.016 A 
ATOM      8  C   UNL A   1      36.998  30.202  27.401  1.00  0.00     0.016 A 
ATOM      9  C   UNL A   1      37.814  29.203  29.887  1.00  0.00     0.010 A 
ATOM     10  C   UNL A   1      38.272  29.667  27.558  1.00  0.00     0.010 A 
ATOM     11  C   UNL A   1      38.706  29.209  28.814  1.00  0.00    -0.014 A 
BRANCH  11  12
ATOM     12  C   UNL A   1      40.121  28.805  28.971  1.00  0.00     0.031 A 
ATOM     13  C   UNL A   1      41.110  29.862  29.358  1.00  0.00     0.074 A 
ATOM     14  C   UNL A   1      40.519  27.548  28.705  1.00  0.00     0.049 A 
ATOM     15  N   UNL A   1      42.404  29.886  29.205  1.00  0.00    -0.248 NA
ATOM     16  C   UNL A   1      40.547  31.079  29.967  1.00  0.00     0.031 C 
ATOM     17  C   UNL A   1      39.638  26.421  28.398  1.00  0.00     0.029 A 
ATOM     18  N   UNL A   1      41.781  27.018  28.624  1.00  0.00    -0.354 N 
ATOM     19  C   UNL A   1      42.802  31.152  29.614  1.00  0.00     0.074 A 
ATOM     20  C   UNL A   1      41.615  31.859  30.040  1.00  0.00     0.031 C 
ATOM     21  C   UNL A   1      40.385  25.333  28.156  1.00  0.00     0.029 A 
ATOM     22  C   UNL A   1      41.793  25.710  28.200  1.00  0.00     0.049 A 
ATOM     23  H   UNL A   1      42.596  27.522  28.846  1.00  0.00     0.167 HD
ATOM     24  C   UNL A   1      44.050  31.677  29.604  1.00  0.00     0.037 A 
ATOM     25  C   UNL A   1      42.825  24.927  27.826  1.00  0.00     0.037 A 
ATOM     26  C   UNL A   1      45.211  30.927  29.206  1.00  0.00     0.049 A 
ATOM     27  C   UNL A   1      44.208  25.516  27.830  1.00  0.00     0.074 A 
ATOM     28  C   UNL A   1      46.527  31.339  29.123  1.00  0.00     0.029 A 
ATOM     29  N   UNL A   1      45.184  29.586  28.837  1.00  0.00    -0.354 N 
ATOM     30  N   UNL A   1      44.577  26.741  28.131  1.00  0.00    -0.248 NA
ATOM     31  C   UNL A   1      45.311  24.635  27.429  1.00  0.00     0.031 C 
ATOM     32  C   UNL A   1      47.294  30.252  28.689  1.00  0.00     0.029 A 
ATOM     33  C   UNL A   1      46.461  29.153  28.533  1.00  0.00     0.049 A 
ATOM     34  H   UNL A   1      44.374  29.028  28.796  1.00  0.00     0.167 HD
ATOM     35  C   UNL A   1      45.956  26.775  27.968  1.00  0.00     0.074 A 
ATOM     36  C   UNL A   1      46.356  25.445  27.549  1.00  0.00     0.031 C 
ATOM     37  C   UNL A   1      46.815  27.809  28.143  1.00  0.00     0.037 A 
BRANCH  24  38
ATOM     38  C   UNL A   1      44.184  33.130  29.962  1.00  0.00     0.058 A 
ATOM     39  C   UNL A   1      44.056  34.150  29.008  1.00  0.00     0.135 A 
ATOM     40  C   UNL A   1      44.517  33.501  31.276  1.00  0.00     0.135 A 
ATOM     41  F   UNL A   1      43.764  33.849  27.732  1.00  0.00    -0.206 F 
ATOM     42  C   UNL A   1      44.310  35.482  29.328  1.00  0.00     0.059 A 
ATOM     43  C   UNL A   1      44.749  34.829  31.625  1.00  0.00     0.059 A 
ATOM     44  F   UNL A   1      44.654  32.566  32.229  1.00  0.00    -0.206 F 
ATOM     45  C   UNL A   1      44.673  35.808  30.635  1.00  0.00     0.060 A 
BRANCH  45  46
ATOM     46  S   UNL A   1      45.076  37.524  31.024  1.00  0.00     0.124 S 
ATOM     47  O   UNL A   1      43.747  38.122  31.094  1.00  0.00    -0.237 OA
ATOM     48  O   UNL A   1      45.783  37.404  32.296  1.00  0.00    -0.237 OA
ATOM     49  O   UNL A   1      45.896  37.943  29.892  1.00  0.00    -0.744 OA
ENDBRANCH  45  46
ENDBRANCH  24  38
BRANCH  25  50
ATOM     50  C   UNL A   1      42.563  23.532  27.385  1.00  0.00     0.058 A 
ATOM     51  C   UNL A   1      42.481  23.212  26.022  1.00  0.00     0.135 A 
ATOM     52  C   UNL A   1      42.478  22.478  28.310  1.00  0.00     0.135 A 
ATOM     53  F   UNL A   1      42.549  24.185  25.101  1.00  0.00    -0.206 F 
ATOM     54  C   UNL A   1      42.339  21.898  25.590  1.00  0.00     0.059 A 
ATOM     55  C   UNL A   1      42.359  21.153  27.901  1.00  0.00     0.059 A 
ATOM     56  F   UNL A   1      42.568  22.729  29.625  1.00  0.00    -0.206 F 
ATOM     57  C   UNL A   1      42.291  20.873  26.537  1.00  0.00     0.060 A 
BRANCH  57  58
ATOM     58  S   UNL A   1      42.226  19.161  25.962  1.00  0.00     0.124 S 
ATOM     59  O   UNL A   1      42.682  18.436  27.141  1.00  0.00    -0.237 OA
ATOM     60  O   UNL A   1      40.815  19.007  25.622  1.00  0.00    -0.237 OA
ATOM     61  O   UNL A   1      43.139  19.157  24.822  1.00  0.00    -0.744 OA
ENDBRANCH  57  58
ENDBRANCH  25  50
BRANCH  37  62
ATOM     62  C   UNL A   1      48.274  27.535  27.934  1.00  0.00     0.058 A 
ATOM     63  C   UNL A   1      49.076  27.017  28.961  1.00  0.00     0.135 A 
ATOM     64  C   UNL A   1      48.842  27.692  26.661  1.00  0.00     0.135 A 
ATOM     65  F   UNL A   1      48.576  26.856  30.196  1.00  0.00    -0.206 F 
ATOM     66  C   UNL A   1      50.398  26.657  28.728  1.00  0.00     0.059 A 
ATOM     67  C   UNL A   1      50.155  27.321  26.402  1.00  0.00     0.059 A 
ATOM     68  F   UNL A   1      48.106  28.178  25.649  1.00  0.00    -0.206 F 
ATOM     69  C   UNL A   1      50.926  26.804  27.443  1.00  0.00     0.060 A 
BRANCH  69  70
ATOM     70  S   UNL A   1      52.617  26.254  27.131  1.00  0.00     0.124 S 
ATOM     71  O   UNL A   1      53.213  26.371  28.457  1.00  0.00    -0.237 OA
ATOM     72  O   UNL A   1      52.418  24.893  26.641  1.00  0.00    -0.237 OA
ATOM     73  O   UNL A   1      53.103  27.205  26.136  1.00  0.00    -0.744 OA
ENDBRANCH  69  70
ENDBRANCH  37  62
ENDBRANCH  11  12
ENDBRANCH   4   6
ENDBRANCH   3   4
ENDBRANCH   2   3
ENDBRANCH   1   2
BRANCH   1  74
ATOM     74  O   UNL A   1      37.347  33.546  28.989  1.00  0.00    -0.374 OA
BRANCH  74  75
ATOM     75  C   UNL A   1      37.866  33.025  30.210  1.00  0.00     0.202 C 
BRANCH  75  76
ATOM     76  C   UNL A   1      38.151  34.191  31.138  1.00  0.00     0.261 C 
BRANCH  76  77
ATOM     77  O   UNL A   1      39.128  33.698  32.060  1.00  0.00    -0.458 OA
BRANCH  77  78
ATOM     78  C   UNL A   1      38.899  34.059  33.331  1.00  0.00     0.359 C 
ATOM     79  O   UNL A   1      38.568  35.169  33.727  1.00  0.00    -0.244 OA
BRANCH  78  80
ATOM     80  C   UNL A   1      39.288  32.957  34.209  1.00  0.00     0.179 A 
ATOM     81  N   UNL A   1      40.500  33.207  34.819  1.00  0.00    -0.245 NA
ATOM     82  C   UNL A   1      38.569  31.786  34.418  1.00  0.00     0.161 A 
ATOM     83  C   UNL A   1      40.991  32.232  35.603  1.00  0.00     0.132 A 
ATOM     84  N   UNL A   1      39.079  30.845  35.291  1.00  0.00    -0.247 NA
ATOM     85  C   UNL A   1      40.289  31.074  35.842  1.00  0.00     0.132 A 
BRANCH  82  86
ATOM     86  C   UNL A   1      37.474  31.176  33.609  1.00  0.00     0.276 C 
ATOM     87  O   UNL A   1      37.689  30.009  33.227  1.00  0.00    -0.267 OA
ATOM     88  N   UNL A   1      36.237  31.633  33.240  1.00  0.00    -0.320 N 
ATOM     89  H   UNL A   1      35.729  30.908  32.810  1.00  0.00     0.170 HD
BRANCH  88  90
ATOM     90  C   UNL A   1      35.466  32.793  33.276  1.00  0.00     0.045 A 
ATOM     91  C   UNL A   1      35.481  33.748  34.288  1.00  0.00     0.030 A 
ATOM     92  C   UNL A   1      34.662  33.012  32.138  1.00  0.00     0.076 A 
ATOM     93  C   UNL A   1      34.853  34.992  34.105  1.00  0.00     0.053 A 
ATOM     94  C   UNL A   1      34.026  34.226  31.996  1.00  0.00     0.167 A 
ATOM     95  C   UNL A   1      34.145  35.207  32.942  1.00  0.00     0.165 A 
ATOM     96  O   UNL A   1      33.274  34.612  30.931  1.00  0.00    -0.454 OA
ATOM     97  O   UNL A   1      33.502  36.349  32.587  1.00  0.00    -0.454 OA
ATOM     98  C   UNL A   1      32.905  35.951  31.331  1.00  0.00     0.468 C 
ENDBRANCH  88  90
ENDBRANCH  82  86
ENDBRANCH  78  80
ENDBRANCH  77  78
ENDBRANCH  76  77
ENDBRANCH  75  76
ENDBRANCH  74  75
ENDBRANCH   1  74
TORSDOF 19
ENDMDL
MODEL 3
REMARK VINA RESULT:     -11.2      4.721     10.241
REMARK SMILES O=C(OCCOCCOC(=O)c1nccnc1C(=O)Nc1ccc2c(c1)OCO2)c1ccc(-c2c3nc(c(-c4c(F)cc(S(=O)(=O)[O-])cc4F)c4ccc([nH]4)c(-c4c(F)cc(S(=O)(=O)[O-])cc4F)c4nc(c(-c5c(F)cc(S(=O)(=O)[O-])cc5F)c5ccc2[nH]5)C=C4)C=C3)cc1
REMARK SMILES IDX 5 1 4 2 3 3 2 4 1 5 30 6 31 7 95 8 32 9 94 10 33 11 34 12
REMARK SMILES IDX 35 13 88 14 36 15 93 16 87 17 89 18 37 19 92 20 86 21 85 22
REMARK SMILES IDX 38 24 72 25 51 26 71 27 52 28 55 29 70 30 90 31 53 32 54 33
REMARK SMILES IDX 69 35 91 36 56 37 39 38 40 39 49 40 41 41 42 42 48 43 50 44
REMARK SMILES IDX 43 45 44 46 45 47 46 48 47 49 73 50 74 51 83 52 75 53 76 54
REMARK SMILES IDX 82 55 84 56 77 57 78 58 79 59 80 60 81 61 57 62 58 63 67 64
REMARK SMILES IDX 59 65 60 66 66 67 68 68 61 69 62 70 63 71 64 72 65 73 6 74
REMARK SMILES IDX 7 75 8 76 9 77 10 78 11 79 12 80 13 81 17 82 14 83 16 84
REMARK SMILES IDX 15 85 18 86 19 87 20 88 21 90 22 91 26 92 23 93 25 94 24 95
REMARK SMILES IDX 27 96 29 97 28 98
REMARK H PARENT 89 23 55 34 20 89
REMARK Flexibility Score: inf
ROOT
ATOM      1  C   UNL A   1      35.825  23.193  26.149  1.00  0.00     0.202 C 
ENDROOT
BRANCH   1   2
ATOM      2  C   UNL A   1      37.130  23.722  25.547  1.00  0.00     0.261 C 
BRANCH   2   3
ATOM      3  O   UNL A   1      38.280  22.855  25.632  1.00  0.00    -0.460 OA
BRANCH   3   4
ATOM      4  C   UNL A   1      39.482  23.064  26.206  1.00  0.00     0.338 C 
ATOM      5  O   UNL A   1      40.366  22.218  26.128  1.00  0.00    -0.246 OA
BRANCH   4   6
ATOM      6  C   UNL A   1      39.757  24.316  26.931  1.00  0.00     0.060 A 
ATOM      7  C   UNL A   1      40.444  25.388  26.355  1.00  0.00     0.016 A 
ATOM      8  C   UNL A   1      39.161  24.467  28.182  1.00  0.00     0.016 A 
ATOM      9  C   UNL A   1      40.693  26.542  27.091  1.00  0.00     0.010 A 
ATOM     10  C   UNL A   1      39.322  25.660  28.878  1.00  0.00     0.010 A 
ATOM     11  C   UNL A   1      40.129  26.687  28.360  1.00  0.00    -0.014 A 
BRANCH  11  12
ATOM     12  C   UNL A   1      40.406  27.867  29.208  1.00  0.00     0.031 A 
ATOM     13  C   UNL A   1      41.593  27.809  30.121  1.00  0.00     0.074 A 
ATOM     14  C   UNL A   1      39.580  28.929  29.214  1.00  0.00     0.049 A 
ATOM     15  N   UNL A   1      41.849  28.498  31.197  1.00  0.00    -0.248 NA
ATOM     16  C   UNL A   1      42.612  26.799  29.789  1.00  0.00     0.031 C 
ATOM     17  C   UNL A   1      38.443  29.130  28.315  1.00  0.00     0.029 A 
ATOM     18  N   UNL A   1      39.559  30.030  30.032  1.00  0.00    -0.354 N 
ATOM     19  C   UNL A   1      43.012  27.946  31.722  1.00  0.00     0.074 A 
ATOM     20  C   UNL A   1      43.419  26.880  30.835  1.00  0.00     0.031 C 
ATOM     21  C   UNL A   1      37.831  30.282  28.632  1.00  0.00     0.029 A 
ATOM     22  C   UNL A   1      38.476  30.848  29.812  1.00  0.00     0.049 A 
ATOM     23  H   UNL A   1      40.249  30.216  30.707  1.00  0.00     0.167 HD
ATOM     24  C   UNL A   1      43.656  28.291  32.861  1.00  0.00     0.037 A 
ATOM     25  C   UNL A   1      38.020  31.896  30.526  1.00  0.00     0.037 A 
ATOM     26  C   UNL A   1      43.237  29.383  33.697  1.00  0.00     0.049 A 
ATOM     27  C   UNL A   1      38.751  32.278  31.783  1.00  0.00     0.074 A 
ATOM     28  C   UNL A   1      43.780  29.826  34.888  1.00  0.00     0.029 A 
ATOM     29  N   UNL A   1      42.166  30.221  33.407  1.00  0.00    -0.354 N 
ATOM     30  N   UNL A   1      39.797  31.702  32.330  1.00  0.00    -0.248 NA
ATOM     31  C   UNL A   1      38.237  33.431  32.530  1.00  0.00     0.031 C 
ATOM     32  C   UNL A   1      43.027  30.921  35.327  1.00  0.00     0.029 A 
ATOM     33  C   UNL A   1      42.035  31.182  34.391  1.00  0.00     0.049 A 
ATOM     34  H   UNL A   1      41.584  30.140  32.616  1.00  0.00     0.167 HD
ATOM     35  C   UNL A   1      40.075  32.431  33.480  1.00  0.00     0.074 A 
ATOM     36  C   UNL A   1      39.091  33.494  33.545  1.00  0.00     0.031 C 
ATOM     37  C   UNL A   1      41.052  32.238  34.401  1.00  0.00     0.037 A 
BRANCH  24  38
ATOM     38  C   UNL A   1      44.815  27.430  33.278  1.00  0.00     0.058 A 
ATOM     39  C   UNL A   1      46.129  27.694  32.863  1.00  0.00     0.135 A 
ATOM     40  C   UNL A   1      44.592  26.278  34.051  1.00  0.00     0.135 A 
ATOM     41  F   UNL A   1      46.395  28.768  32.102  1.00  0.00    -0.206 F 
ATOM     42  C   UNL A   1      47.172  26.816  33.148  1.00  0.00     0.059 A 
ATOM     43  C   UNL A   1      45.624  25.400  34.371  1.00  0.00     0.059 A 
ATOM     44  F   UNL A   1      43.354  25.976  34.473  1.00  0.00    -0.206 F 
ATOM     45  C   UNL A   1      46.905  25.663  33.888  1.00  0.00     0.060 A 
BRANCH  45  46
ATOM     46  S   UNL A   1      48.245  24.492  34.188  1.00  0.00     0.124 S 
ATOM     47  O   UNL A   1      49.094  24.722  33.023  1.00  0.00    -0.237 OA
ATOM     48  O   UNL A   1      48.786  24.948  35.465  1.00  0.00    -0.237 OA
ATOM     49  O   UNL A   1      47.565  23.201  34.225  1.00  0.00    -0.744 OA
ENDBRANCH  45  46
ENDBRANCH  24  38
BRANCH  25  50
ATOM     50  C   UNL A   1      36.797  32.611  30.077  1.00  0.00     0.058 A 
ATOM     51  C   UNL A   1      35.569  32.413  30.725  1.00  0.00     0.135 A 
ATOM     52  C   UNL A   1      36.846  33.570  29.051  1.00  0.00     0.135 A 
ATOM     53  F   UNL A   1      35.468  31.502  31.705  1.00  0.00    -0.206 F 
ATOM     54  C   UNL A   1      34.438  33.148  30.385  1.00  0.00     0.059 A 
ATOM     55  C   UNL A   1      35.734  34.334  28.709  1.00  0.00     0.059 A 
ATOM     56  F   UNL A   1      38.001  33.810  28.411  1.00  0.00    -0.206 F 
ATOM     57  C   UNL A   1      34.534  34.116  29.383  1.00  0.00     0.060 A 
BRANCH  57  58
ATOM     58  S   UNL A   1      33.092  35.147  29.030  1.00  0.00     0.124 S 
ATOM     59  O   UNL A   1      32.494  35.278  30.353  1.00  0.00    -0.237 OA
ATOM     60  O   UNL A   1      33.704  36.352  28.482  1.00  0.00    -0.237 OA
ATOM     61  O   UNL A   1      32.337  34.346  28.070  1.00  0.00    -0.744 OA
ENDBRANCH  57  58
ENDBRANCH  25  50
BRANCH  37  62
ATOM     62  C   UNL A   1      41.137  33.223  35.528  1.00  0.00     0.058 A 
ATOM     63  C   UNL A   1      41.906  34.391  35.424  1.00  0.00     0.135 A 
ATOM     64  C   UNL A   1      40.353  33.044  36.677  1.00  0.00     0.135 A 
ATOM     65  F   UNL A   1      42.676  34.600  34.345  1.00  0.00    -0.206 F 
ATOM     66  C   UNL A   1      41.890  35.355  36.425  1.00  0.00     0.059 A 
ATOM     67  C   UNL A   1      40.308  34.002  37.682  1.00  0.00     0.059 A 
ATOM     68  F   UNL A   1      39.597  31.943  36.814  1.00  0.00    -0.206 F 
ATOM     69  C   UNL A   1      41.080  35.155  37.546  1.00  0.00     0.060 A 
BRANCH  69  70
ATOM     70  S   UNL A   1      41.000  36.451  38.801  1.00  0.00     0.124 S 
ATOM     71  O   UNL A   1      39.820  37.197  38.376  1.00  0.00    -0.237 OA
ATOM     72  O   UNL A   1      40.856  35.684  40.034  1.00  0.00    -0.237 OA
ATOM     73  O   UNL A   1      42.273  37.148  38.649  1.00  0.00    -0.744 OA
ENDBRANCH  69  70
ENDBRANCH  37  62
ENDBRANCH  11  12
ENDBRANCH   4   6
ENDBRANCH   3   4
ENDBRANCH   2   3
ENDBRANCH   1   2
BRANCH   1  74
ATOM     74  O   UNL A   1      34.570  23.437  25.529  1.00  0.00    -0.374 OA
BRANCH  74  75
ATOM     75  C   UNL A   1      33.460  22.580  25.784  1.00  0.00     0.202 C 
BRANCH  75  76
ATOM     76  C   UNL A   1      32.316  23.429  26.303  1.00  0.00     0.261 C 
BRANCH  76  77
ATOM     77  O   UNL A   1      32.425  24.668  25.595  1.00  0.00    -0.458 OA
BRANCH  77  78
ATOM     78  C   UNL A   1      31.590  25.618  26.041  1.00  0.00     0.359 C 
ATOM     79  O   UNL A   1      30.468  25.449  26.500  1.00  0.00    -0.244 OA
BRANCH  78  80
ATOM     80  C   UNL A   1      32.158  26.927  25.724  1.00  0.00     0.179 A 
ATOM     81  N   UNL A   1      32.490  27.620  26.869  1.00  0.00    -0.245 NA
ATOM     82  C   UNL A   1      32.342  27.450  24.448  1.00  0.00     0.161 A 
ATOM     83  C   UNL A   1      32.963  28.866  26.702  1.00  0.00     0.132 A 
ATOM     84  N   UNL A   1      32.902  28.707  24.325  1.00  0.00    -0.247 NA
ATOM     85  C   UNL A   1      33.174  29.398  25.451  1.00  0.00     0.132 A 
BRANCH  82  86
ATOM     86  C   UNL A   1      31.734  27.045  23.148  1.00  0.00     0.276 C 
ATOM     87  O   UNL A   1      32.344  26.146  22.539  1.00  0.00    -0.267 OA
ATOM     88  N   UNL A   1      30.589  27.436  22.506  1.00  0.00    -0.320 N 
ATOM     89  H   UNL A   1      30.435  26.863  21.721  1.00  0.00     0.170 HD
BRANCH  88  90
ATOM     90  C   UNL A   1      29.572  28.383  22.604  1.00  0.00     0.045 A 
ATOM     91  C   UNL A   1      28.292  28.152  23.101  1.00  0.00     0.030 A 
ATOM     92  C   UNL A   1      29.931  29.690  22.218  1.00  0.00     0.076 A 
ATOM     93  C   UNL A   1      27.432  29.227  23.384  1.00  0.00     0.053 A 
ATOM     94  C   UNL A   1      29.058  30.725  22.473  1.00  0.00     0.167 A 
ATOM     95  C   UNL A   1      27.848  30.503  23.074  1.00  0.00     0.165 A 
ATOM     96  O   UNL A   1      29.286  32.041  22.222  1.00  0.00    -0.454 OA
ATOM     97  O   UNL A   1      27.165  31.655  23.300  1.00  0.00    -0.454 OA
ATOM     98  C   UNL A   1      28.058  32.627  22.711  1.00  0.00     0.468 C 
ENDBRANCH  88  90
ENDBRANCH  82  86
ENDBRANCH  78  80
ENDBRANCH  77  78
ENDBRANCH  76  77
ENDBRANCH  75  76
ENDBRANCH  74  75
ENDBRANCH   1  74
TORSDOF 19
ENDMDL
