MODEL 1
REMARK VINA RESULT:     -11.8      0.000      0.000
REMARK SMILES Cc1ccc(-c2csc(NC(=O)[C@H]3[C@@H](C(=O)OCCOCCOC(=O)c4ccc(-c5c6nc(c(-c7c(F)cc(S(=O)(=O)[O-])cc7F)c7ccc([nH]7)c(-c7c(F)cc(S(=O)(=O)[O-])cc7F)c7nc(c(-c8c(F)cc(S(=O)(=O)[O-])cc8F)c8ccc5[nH]8)C=C7)C=C6)cc4)[C@H]4C=C[C@@H]3C4)c2C(=O)NC2CC2)cc1
REMARK SMILES IDX 19 1 18 2 17 3 15 4 16 5 14 6 13 7 95 8 92 9 94 10 96 11
REMARK SMILES IDX 93 12 11 13 10 14 12 16 9 17 6 18 7 19 97 20 8 21 5 22 1 23
REMARK SMILES IDX 2 24 3 25 105 26 4 27 104 28 98 29 99 30 100 31 101 33
REMARK SMILES IDX 102 34 103 35 20 36 21 37 22 38 23 39 24 40 25 41 26 42
REMARK SMILES IDX 27 43 91 44 28 45 90 46 29 47 30 48 31 49 84 50 32 51 89 52
REMARK SMILES IDX 83 53 85 54 33 55 88 56 82 57 81 58 34 60 68 61 47 62 67 63
REMARK SMILES IDX 48 64 51 65 66 66 86 67 49 68 50 69 65 71 87 72 52 73 35 74
REMARK SMILES IDX 36 75 45 76 37 77 38 78 44 79 46 80 39 81 40 82 41 83 42 84
REMARK SMILES IDX 43 85 69 86 70 87 79 88 71 89 72 90 78 91 80 92 73 93 74 94
REMARK SMILES IDX 75 95 76 96 77 97 53 98 54 99 63 100 55 101 56 102 62 103
REMARK SMILES IDX 64 104 57 105 58 106 59 107 60 108 61 109
REMARK H PARENT 10 15 100 32 85 59 51 70
REMARK Flexibility Score: inf
ROOT
ATOM      1  C   UNL A   1      35.497  23.965  24.290  1.00  0.00     0.202 C 
ENDROOT
BRANCH   1   2
ATOM      2  C   UNL A   1      34.693  25.129  24.756  1.00  0.00     0.261 C 
BRANCH   2   3
ATOM      3  O   UNL A   1      34.527  26.172  23.764  1.00  0.00    -0.463 OA
BRANCH   3   4
ATOM      4  C   UNL A   1      34.055  27.402  24.141  1.00  0.00     0.310 C 
ATOM      5  O   UNL A   1      34.473  28.476  23.770  1.00  0.00    -0.252 OA
BRANCH   4   6
ATOM      6  C   UNL A   1      32.966  27.223  25.186  1.00  0.00     0.119 C 
ATOM      7  C   UNL A   1      31.584  27.830  24.778  1.00  0.00     0.100 C 
ATOM      8  C   UNL A   1      31.360  28.877  25.907  1.00  0.00     0.025 C 
ATOM      9  C   UNL A   1      33.277  27.940  26.531  1.00  0.00     0.027 C 
ATOM     10  C   UNL A   1      32.401  29.964  25.892  1.00  0.00    -0.027 C 
ATOM     11  C   UNL A   1      31.872  28.079  27.112  1.00  0.00     0.017 C 
ATOM     12  C   UNL A   1      33.546  29.410  26.312  1.00  0.00    -0.027 C 
BRANCH   7  13
ATOM     13  C   UNL A   1      31.526  28.194  23.292  1.00  0.00     0.229 C 
ATOM     14  N   UNL A   1      31.050  27.299  22.383  1.00  0.00    -0.317 N 
ATOM     15  H   UNL A   1      30.356  27.609  21.759  1.00  0.00     0.170 HD
ATOM     16  O   UNL A   1      31.904  29.304  22.911  1.00  0.00    -0.274 OA
BRANCH  14  17
ATOM     17  C   UNL A   1      31.471  25.993  22.273  1.00  0.00     0.108 A 
ATOM     18  C   UNL A   1      32.064  23.812  22.691  1.00  0.00     0.007 A 
ATOM     19  C   UNL A   1      32.942  24.200  21.686  1.00  0.00     0.076 A 
ATOM     20  C   UNL A   1      31.126  24.886  23.053  1.00  0.00     0.082 A 
ATOM     21  S   UNL A   1      32.386  25.582  20.896  1.00  0.00    -0.125 S 
BRANCH  18  22
ATOM     22  C   UNL A   1      32.181  22.401  23.018  1.00  0.00    -0.017 A 
ATOM     23  C   UNL A   1      33.406  18.459  24.104  1.00  0.00     0.044 C 
ATOM     24  C   UNL A   1      32.771  19.781  23.794  1.00  0.00    -0.051 A 
ATOM     25  C   UNL A   1      32.922  20.820  24.710  1.00  0.00     0.004 A 
ATOM     26  C   UNL A   1      32.178  20.042  22.545  1.00  0.00     0.004 A 
ATOM     27  C   UNL A   1      32.602  22.112  24.331  1.00  0.00     0.009 A 
ATOM     28  C   UNL A   1      31.873  21.355  22.153  1.00  0.00     0.009 A 
ENDBRANCH  18  22
BRANCH  20  29
ATOM     29  C   UNL A   1      30.082  25.095  24.084  1.00  0.00     0.255 C 
ATOM     30  O   UNL A   1      29.132  25.851  23.832  1.00  0.00    -0.269 OA
ATOM     31  N   UNL A   1      29.916  24.432  25.279  1.00  0.00    -0.349 N 
ATOM     32  H   UNL A   1      29.126  24.766  25.762  1.00  0.00     0.164 HD
BRANCH  31  33
ATOM     33  C   UNL A   1      30.563  23.404  26.010  1.00  0.00     0.082 C 
ATOM     34  C   UNL A   1      31.144  23.557  27.366  1.00  0.00     0.027 C 
ATOM     35  C   UNL A   1      29.870  22.769  27.162  1.00  0.00     0.027 C 
ENDBRANCH  31  33
ENDBRANCH  20  29
ENDBRANCH  14  17
ENDBRANCH   7  13
ENDBRANCH   4   6
ENDBRANCH   3   4
ENDBRANCH   2   3
ENDBRANCH   1   2
BRANCH   1  36
ATOM     36  O   UNL A   1      35.748  23.268  25.497  1.00  0.00    -0.374 OA
BRANCH  36  37
ATOM     37  C   UNL A   1      37.077  22.915  25.743  1.00  0.00     0.202 C 
BRANCH  37  38
ATOM     38  C   UNL A   1      37.783  24.017  26.516  1.00  0.00     0.261 C 
BRANCH  38  39
ATOM     39  O   UNL A   1      39.221  23.977  26.326  1.00  0.00    -0.460 OA
BRANCH  39  40
ATOM     40  C   UNL A   1      39.992  24.380  27.384  1.00  0.00     0.338 C 
ATOM     41  O   UNL A   1      40.840  23.679  27.913  1.00  0.00    -0.246 OA
BRANCH  40  42
ATOM     42  C   UNL A   1      39.725  25.800  27.755  1.00  0.00     0.060 A 
ATOM     43  C   UNL A   1      40.077  26.859  26.893  1.00  0.00     0.016 A 
ATOM     44  C   UNL A   1      39.352  26.070  29.066  1.00  0.00     0.016 A 
ATOM     45  C   UNL A   1      40.202  28.167  27.396  1.00  0.00     0.010 A 
ATOM     46  C   UNL A   1      39.633  27.317  29.582  1.00  0.00     0.010 A 
ATOM     47  C   UNL A   1      40.049  28.380  28.767  1.00  0.00    -0.014 A 
BRANCH  47  48
ATOM     48  C   UNL A   1      40.259  29.642  29.481  1.00  0.00     0.031 A 
ATOM     49  C   UNL A   1      39.117  30.587  29.469  1.00  0.00     0.074 A 
ATOM     50  C   UNL A   1      41.356  29.960  30.214  1.00  0.00     0.049 A 
ATOM     51  N   UNL A   1      39.261  31.867  29.387  1.00  0.00    -0.248 NA
ATOM     52  C   UNL A   1      37.710  30.173  29.465  1.00  0.00     0.031 C 
ATOM     53  C   UNL A   1      41.441  30.996  31.239  1.00  0.00     0.029 A 
ATOM     54  N   UNL A   1      42.636  29.403  30.228  1.00  0.00    -0.354 N 
ATOM     55  C   UNL A   1      38.030  32.411  29.665  1.00  0.00     0.074 A 
ATOM     56  C   UNL A   1      37.076  31.345  29.517  1.00  0.00     0.031 C 
ATOM     57  C   UNL A   1      42.715  31.129  31.650  1.00  0.00     0.029 A 
ATOM     58  C   UNL A   1      43.551  30.240  30.859  1.00  0.00     0.049 A 
ATOM     59  H   UNL A   1      42.862  28.526  29.840  1.00  0.00     0.167 HD
ATOM     60  C   UNL A   1      37.932  33.633  30.254  1.00  0.00     0.037 A 
ATOM     61  C   UNL A   1      44.761  30.521  30.305  1.00  0.00     0.037 A 
ATOM     62  C   UNL A   1      39.257  34.110  30.661  1.00  0.00     0.049 A 
ATOM     63  C   UNL A   1      44.688  31.953  29.852  1.00  0.00     0.074 A 
ATOM     64  C   UNL A   1      39.894  34.128  31.893  1.00  0.00     0.029 A 
ATOM     65  N   UNL A   1      40.264  34.287  29.711  1.00  0.00    -0.354 N 
ATOM     66  N   UNL A   1      43.539  32.558  29.706  1.00  0.00    -0.248 NA
ATOM     67  C   UNL A   1      45.816  32.855  29.660  1.00  0.00     0.031 C 
ATOM     68  C   UNL A   1      41.284  34.318  31.677  1.00  0.00     0.029 A 
ATOM     69  C   UNL A   1      41.506  34.412  30.311  1.00  0.00     0.049 A 
ATOM     70  H   UNL A   1      40.111  34.318  28.739  1.00  0.00     0.167 HD
ATOM     71  C   UNL A   1      43.733  33.888  29.548  1.00  0.00     0.074 A 
ATOM     72  C   UNL A   1      45.179  34.025  29.460  1.00  0.00     0.031 C 
ATOM     73  C   UNL A   1      42.691  34.766  29.535  1.00  0.00     0.037 A 
BRANCH  60  74
ATOM     74  C   UNL A   1      36.600  34.153  30.756  1.00  0.00     0.058 A 
ATOM     75  C   UNL A   1      35.577  34.557  29.878  1.00  0.00     0.135 A 
ATOM     76  C   UNL A   1      36.284  34.271  32.130  1.00  0.00     0.135 A 
ATOM     77  F   UNL A   1      35.705  34.445  28.551  1.00  0.00    -0.206 F 
ATOM     78  C   UNL A   1      34.367  35.097  30.323  1.00  0.00     0.059 A 
ATOM     79  C   UNL A   1      35.107  34.863  32.599  1.00  0.00     0.059 A 
ATOM     80  F   UNL A   1      37.111  33.789  33.072  1.00  0.00    -0.206 F 
ATOM     81  C   UNL A   1      34.143  35.261  31.683  1.00  0.00     0.060 A 
BRANCH  81  82
ATOM     82  S   UNL A   1      32.567  35.947  32.228  1.00  0.00     0.124 S 
ATOM     83  O   UNL A   1      32.982  36.941  33.214  1.00  0.00    -0.237 OA
ATOM     84  O   UNL A   1      32.027  36.479  30.981  1.00  0.00    -0.237 OA
ATOM     85  O   UNL A   1      31.862  34.793  32.775  1.00  0.00    -0.744 OA
ENDBRANCH  81  82
ENDBRANCH  60  74
BRANCH  61  86
ATOM     86  C   UNL A   1      45.482  29.344  29.725  1.00  0.00     0.058 A 
ATOM     87  C   UNL A   1      45.864  28.315  30.622  1.00  0.00     0.135 A 
ATOM     88  C   UNL A   1      45.479  29.006  28.365  1.00  0.00     0.135 A 
ATOM     89  F   UNL A   1      45.874  28.559  31.946  1.00  0.00    -0.206 F 
ATOM     90  C   UNL A   1      46.107  26.998  30.214  1.00  0.00     0.059 A 
ATOM     91  C   UNL A   1      45.712  27.687  27.928  1.00  0.00     0.059 A 
ATOM     92  F   UNL A   1      45.124  29.917  27.448  1.00  0.00    -0.206 F 
ATOM     93  C   UNL A   1      45.976  26.677  28.864  1.00  0.00     0.060 A 
BRANCH  93  94
ATOM     94  S   UNL A   1      45.675  24.925  28.405  1.00  0.00     0.124 S 
ATOM     95  O   UNL A   1      45.190  24.352  29.653  1.00  0.00    -0.237 OA
ATOM     96  O   UNL A   1      44.690  25.034  27.332  1.00  0.00    -0.237 OA
ATOM     97  O   UNL A   1      46.994  24.482  27.962  1.00  0.00    -0.744 OA
ENDBRANCH  93  94
ENDBRANCH  61  86
BRANCH  73  98
ATOM     98  C   UNL A   1      42.744  36.106  28.873  1.00  0.00     0.058 A 
ATOM     99  C   UNL A   1      42.130  36.366  27.638  1.00  0.00     0.135 A 
ATOM    100  C   UNL A   1      43.255  37.232  29.563  1.00  0.00     0.135 A 
ATOM    101  F   UNL A   1      41.494  35.407  26.949  1.00  0.00    -0.206 F 
ATOM    102  C   UNL A   1      42.107  37.635  27.079  1.00  0.00     0.059 A 
ATOM    103  C   UNL A   1      43.168  38.519  29.060  1.00  0.00     0.059 A 
ATOM    104  F   UNL A   1      43.841  37.126  30.764  1.00  0.00    -0.206 F 
ATOM    105  C   UNL A   1      42.631  38.703  27.798  1.00  0.00     0.060 A 
BRANCH 105 106
ATOM    106  S   UNL A   1      42.586  40.342  27.071  1.00  0.00     0.124 S 
ATOM    107  O   UNL A   1      43.668  40.246  26.096  1.00  0.00    -0.237 OA
ATOM    108  O   UNL A   1      41.237  40.404  26.515  1.00  0.00    -0.237 OA
ATOM    109  O   UNL A   1      42.832  41.223  28.207  1.00  0.00    -0.744 OA
ENDBRANCH 105 106
ENDBRANCH  73  98
ENDBRANCH  47  48
ENDBRANCH  40  42
ENDBRANCH  39  40
ENDBRANCH  38  39
ENDBRANCH  37  38
ENDBRANCH  36  37
ENDBRANCH   1  36
TORSDOF 22
ENDMDL
MODEL 2
REMARK VINA RESULT:     -11.5      1.365      2.407
REMARK SMILES Cc1ccc(-c2csc(NC(=O)[C@H]3[C@@H](C(=O)OCCOCCOC(=O)c4ccc(-c5c6nc(c(-c7c(F)cc(S(=O)(=O)[O-])cc7F)c7ccc([nH]7)c(-c7c(F)cc(S(=O)(=O)[O-])cc7F)c7nc(c(-c8c(F)cc(S(=O)(=O)[O-])cc8F)c8ccc5[nH]8)C=C7)C=C6)cc4)[C@H]4C=C[C@@H]3C4)c2C(=O)NC2CC2)cc1
REMARK SMILES IDX 19 1 18 2 17 3 15 4 16 5 14 6 13 7 95 8 92 9 94 10 96 11
REMARK SMILES IDX 93 12 11 13 10 14 12 16 9 17 6 18 7 19 97 20 8 21 5 22 1 23
REMARK SMILES IDX 2 24 3 25 105 26 4 27 104 28 98 29 99 30 100 31 101 33
REMARK SMILES IDX 102 34 103 35 20 36 21 37 22 38 23 39 24 40 25 41 26 42
REMARK SMILES IDX 27 43 91 44 28 45 90 46 29 47 30 48 31 49 84 50 32 51 89 52
REMARK SMILES IDX 83 53 85 54 33 55 88 56 82 57 81 58 34 60 68 61 47 62 67 63
REMARK SMILES IDX 48 64 51 65 66 66 86 67 49 68 50 69 65 71 87 72 52 73 35 74
REMARK SMILES IDX 36 75 45 76 37 77 38 78 44 79 46 80 39 81 40 82 41 83 42 84
REMARK SMILES IDX 43 85 69 86 70 87 79 88 71 89 72 90 78 91 80 92 73 93 74 94
REMARK SMILES IDX 75 95 76 96 77 97 53 98 54 99 63 100 55 101 56 102 62 103
REMARK SMILES IDX 64 104 57 105 58 106 59 107 60 108 61 109
REMARK H PARENT 10 15 100 32 85 59 51 70
REMARK Flexibility Score: inf
ROOT
ATOM      1  C   UNL A   1      35.195  23.791  24.362  1.00  0.00     0.202 C 
ENDROOT
BRANCH   1   2
ATOM      2  C   UNL A   1      34.549  25.003  24.938  1.00  0.00     0.261 C 
BRANCH   2   3
ATOM      3  O   UNL A   1      33.730  25.742  23.999  1.00  0.00    -0.463 OA
BRANCH   3   4
ATOM      4  C   UNL A   1      33.233  26.971  24.347  1.00  0.00     0.310 C 
ATOM      5  O   UNL A   1      32.823  27.821  23.589  1.00  0.00    -0.252 OA
BRANCH   4   6
ATOM      6  C   UNL A   1      33.360  27.155  25.851  1.00  0.00     0.119 C 
ATOM      7  C   UNL A   1      31.991  27.225  26.603  1.00  0.00     0.100 C 
ATOM      8  C   UNL A   1      32.063  28.640  27.245  1.00  0.00     0.025 C 
ATOM      9  C   UNL A   1      34.046  28.492  26.253  1.00  0.00     0.027 C 
ATOM     10  C   UNL A   1      32.116  29.734  26.213  1.00  0.00    -0.027 C 
ATOM     11  C   UNL A   1      33.533  28.658  27.681  1.00  0.00     0.017 C 
ATOM     12  C   UNL A   1      33.327  29.674  25.646  1.00  0.00    -0.027 C 
BRANCH   7  13
ATOM     13  C   UNL A   1      30.822  26.776  25.722  1.00  0.00     0.229 C 
ATOM     14  N   UNL A   1      30.317  25.518  25.839  1.00  0.00    -0.317 N 
ATOM     15  H   UNL A   1      29.344  25.426  25.951  1.00  0.00     0.170 HD
ATOM     16  O   UNL A   1      30.327  27.556  24.907  1.00  0.00    -0.274 OA
BRANCH  14  17
ATOM     17  C   UNL A   1      31.068  24.365  25.811  1.00  0.00     0.108 A 
ATOM     18  C   UNL A   1      31.930  22.290  25.322  1.00  0.00     0.007 A 
ATOM     19  C   UNL A   1      32.118  22.404  26.693  1.00  0.00     0.076 A 
ATOM     20  C   UNL A   1      31.312  23.496  24.745  1.00  0.00     0.082 A 
ATOM     21  S   UNL A   1      32.005  24.012  27.190  1.00  0.00    -0.125 S 
BRANCH  18  22
ATOM     22  C   UNL A   1      32.534  21.088  24.775  1.00  0.00    -0.017 A 
ATOM     23  C   UNL A   1      33.461  17.222  23.221  1.00  0.00     0.044 C 
ATOM     24  C   UNL A   1      33.318  18.650  23.654  1.00  0.00    -0.051 A 
ATOM     25  C   UNL A   1      32.414  19.462  22.970  1.00  0.00     0.004 A 
ATOM     26  C   UNL A   1      33.941  19.136  24.818  1.00  0.00     0.004 A 
ATOM     27  C   UNL A   1      32.051  20.682  23.515  1.00  0.00     0.009 A 
ATOM     28  C   UNL A   1      33.555  20.363  25.382  1.00  0.00     0.009 A 
ENDBRANCH  18  22
BRANCH  20  29
ATOM     29  C   UNL A   1      30.789  23.902  23.420  1.00  0.00     0.255 C 
ATOM     30  O   UNL A   1      29.620  24.308  23.334  1.00  0.00    -0.269 OA
ATOM     31  N   UNL A   1      31.478  24.050  22.237  1.00  0.00    -0.349 N 
ATOM     32  H   UNL A   1      30.880  24.348  21.514  1.00  0.00     0.164 HD
BRANCH  31  33
ATOM     33  C   UNL A   1      32.806  23.892  21.766  1.00  0.00     0.082 C 
ATOM     34  C   UNL A   1      33.203  23.088  20.585  1.00  0.00     0.027 C 
ATOM     35  C   UNL A   1      33.241  24.599  20.533  1.00  0.00     0.027 C 
ENDBRANCH  31  33
ENDBRANCH  20  29
ENDBRANCH  14  17
ENDBRANCH   7  13
ENDBRANCH   4   6
ENDBRANCH   3   4
ENDBRANCH   2   3
ENDBRANCH   1   2
BRANCH   1  36
ATOM     36  O   UNL A   1      35.613  23.093  25.521  1.00  0.00    -0.374 OA
BRANCH  36  37
ATOM     37  C   UNL A   1      36.989  22.893  25.660  1.00  0.00     0.202 C 
BRANCH  37  38
ATOM     38  C   UNL A   1      37.621  24.060  26.401  1.00  0.00     0.261 C 
BRANCH  38  39
ATOM     39  O   UNL A   1      39.058  24.115  26.201  1.00  0.00    -0.460 OA
BRANCH  39  40
ATOM     40  C   UNL A   1      39.814  24.490  27.280  1.00  0.00     0.338 C 
ATOM     41  O   UNL A   1      40.590  23.746  27.857  1.00  0.00    -0.246 OA
BRANCH  40  42
ATOM     42  C   UNL A   1      39.631  25.934  27.610  1.00  0.00     0.060 A 
ATOM     43  C   UNL A   1      40.234  26.943  26.832  1.00  0.00     0.016 A 
ATOM     44  C   UNL A   1      39.062  26.253  28.837  1.00  0.00     0.016 A 
ATOM     45  C   UNL A   1      40.400  28.237  27.359  1.00  0.00     0.010 A 
ATOM     46  C   UNL A   1      39.374  27.469  29.405  1.00  0.00     0.010 A 
ATOM     47  C   UNL A   1      40.031  28.477  28.684  1.00  0.00    -0.014 A 
BRANCH  47  48
ATOM     48  C   UNL A   1      40.239  29.718  29.434  1.00  0.00     0.031 A 
ATOM     49  C   UNL A   1      39.095  30.661  29.451  1.00  0.00     0.074 A 
ATOM     50  C   UNL A   1      41.336  30.018  30.174  1.00  0.00     0.049 A 
ATOM     51  N   UNL A   1      39.235  31.942  29.406  1.00  0.00    -0.248 NA
ATOM     52  C   UNL A   1      37.689  30.244  29.437  1.00  0.00     0.031 C 
ATOM     53  C   UNL A   1      41.421  31.024  31.228  1.00  0.00     0.029 A 
ATOM     54  N   UNL A   1      42.618  29.464  30.170  1.00  0.00    -0.354 N 
ATOM     55  C   UNL A   1      38.003  32.475  29.702  1.00  0.00     0.074 A 
ATOM     56  C   UNL A   1      37.053  31.411  29.524  1.00  0.00     0.031 C 
ATOM     57  C   UNL A   1      42.695  31.148  31.641  1.00  0.00     0.029 A 
ATOM     58  C   UNL A   1      43.533  30.285  30.824  1.00  0.00     0.049 A 
ATOM     59  H   UNL A   1      42.846  28.600  29.757  1.00  0.00     0.167 HD
ATOM     60  C   UNL A   1      37.903  33.680  30.326  1.00  0.00     0.037 A 
ATOM     61  C   UNL A   1      44.741  30.585  30.276  1.00  0.00     0.037 A 
ATOM     62  C   UNL A   1      39.228  34.148  30.744  1.00  0.00     0.049 A 
ATOM     63  C   UNL A   1      44.663  32.030  29.865  1.00  0.00     0.074 A 
ATOM     64  C   UNL A   1      39.867  34.132  31.976  1.00  0.00     0.029 A 
ATOM     65  N   UNL A   1      40.233  34.355  29.798  1.00  0.00    -0.354 N 
ATOM     66  N   UNL A   1      43.513  32.635  29.738  1.00  0.00    -0.248 NA
ATOM     67  C   UNL A   1      45.789  32.940  29.697  1.00  0.00     0.031 C 
ATOM     68  C   UNL A   1      41.256  34.332  31.762  1.00  0.00     0.029 A 
ATOM     69  C   UNL A   1      41.475  34.466  30.400  1.00  0.00     0.049 A 
ATOM     70  H   UNL A   1      40.078  34.413  28.827  1.00  0.00     0.167 HD
ATOM     71  C   UNL A   1      43.703  33.970  29.618  1.00  0.00     0.074 A 
ATOM     72  C   UNL A   1      45.148  34.113  29.532  1.00  0.00     0.031 C 
ATOM     73  C   UNL A   1      42.658  34.845  29.633  1.00  0.00     0.037 A 
BRANCH  60  74
ATOM     74  C   UNL A   1      36.571  34.181  30.845  1.00  0.00     0.058 A 
ATOM     75  C   UNL A   1      35.494  34.468  29.985  1.00  0.00     0.135 A 
ATOM     76  C   UNL A   1      36.307  34.398  32.218  1.00  0.00     0.135 A 
ATOM     77  F   UNL A   1      35.571  34.253  28.666  1.00  0.00    -0.206 F 
ATOM     78  C   UNL A   1      34.281  34.990  30.439  1.00  0.00     0.059 A 
ATOM     79  C   UNL A   1      35.125  34.975  32.691  1.00  0.00     0.059 A 
ATOM     80  F   UNL A   1      37.195  34.031  33.157  1.00  0.00    -0.206 F 
ATOM     81  C   UNL A   1      34.107  35.255  31.791  1.00  0.00     0.060 A 
BRANCH  81  82
ATOM     82  S   UNL A   1      32.524  35.915  32.351  1.00  0.00     0.124 S 
ATOM     83  O   UNL A   1      31.838  34.720  32.831  1.00  0.00    -0.237 OA
ATOM     84  O   UNL A   1      32.944  36.862  33.379  1.00  0.00    -0.237 OA
ATOM     85  O   UNL A   1      31.956  36.510  31.145  1.00  0.00    -0.744 OA
ENDBRANCH  81  82
ENDBRANCH  60  74
BRANCH  61  86
ATOM     86  C   UNL A   1      45.464  29.428  29.661  1.00  0.00     0.058 A 
ATOM     87  C   UNL A   1      45.412  29.310  28.250  1.00  0.00     0.135 A 
ATOM     88  C   UNL A   1      46.468  28.690  30.305  1.00  0.00     0.135 A 
ATOM     89  F   UNL A   1      44.487  30.003  27.560  1.00  0.00    -0.206 F 
ATOM     90  C   UNL A   1      46.368  28.608  27.506  1.00  0.00     0.059 A 
ATOM     91  C   UNL A   1      47.447  27.982  29.579  1.00  0.00     0.059 A 
ATOM     92  F   UNL A   1      46.594  28.747  31.638  1.00  0.00    -0.206 F 
ATOM     93  C   UNL A   1      47.420  27.987  28.178  1.00  0.00     0.060 A 
BRANCH  93  94
ATOM     94  S   UNL A   1      48.960  27.621  27.247  1.00  0.00     0.124 S 
ATOM     95  O   UNL A   1      48.500  26.679  26.237  1.00  0.00    -0.237 OA
ATOM     96  O   UNL A   1      49.362  28.935  26.754  1.00  0.00    -0.237 OA
ATOM     97  O   UNL A   1      49.835  27.080  28.284  1.00  0.00    -0.744 OA
ENDBRANCH  93  94
ENDBRANCH  61  86
BRANCH  73  98
ATOM     98  C   UNL A   1      42.707  36.204  29.009  1.00  0.00     0.058 A 
ATOM     99  C   UNL A   1      43.220  37.326  29.678  1.00  0.00     0.135 A 
ATOM    100  C   UNL A   1      42.415  36.378  27.635  1.00  0.00     0.135 A 
ATOM    101  F   UNL A   1      43.657  37.257  30.944  1.00  0.00    -0.206 F 
ATOM    102  C   UNL A   1      43.346  38.560  29.057  1.00  0.00     0.059 A 
ATOM    103  C   UNL A   1      42.612  37.580  26.976  1.00  0.00     0.059 A 
ATOM    104  F   UNL A   1      41.947  35.379  26.874  1.00  0.00    -0.206 F 
ATOM    105  C   UNL A   1      43.038  38.675  27.707  1.00  0.00     0.060 A 
BRANCH 105 106
ATOM    106  S   UNL A   1      43.215  40.272  26.911  1.00  0.00     0.124 S 
ATOM    107  O   UNL A   1      44.039  39.921  25.758  1.00  0.00    -0.237 OA
ATOM    108  O   UNL A   1      41.831  40.631  26.613  1.00  0.00    -0.237 OA
ATOM    109  O   UNL A   1      43.864  41.089  27.929  1.00  0.00    -0.744 OA
ENDBRANCH 105 106
ENDBRANCH  73  98
ENDBRANCH  47  48
ENDBRANCH  40  42
ENDBRANCH  39  40
ENDBRANCH  38  39
ENDBRANCH  37  38
ENDBRANCH  36  37
ENDBRANCH   1  36
TORSDOF 22
ENDMDL
MODEL 3
REMARK VINA RESULT:     -11.3      4.214     10.371
REMARK SMILES Cc1ccc(-c2csc(NC(=O)[C@H]3[C@@H](C(=O)OCCOCCOC(=O)c4ccc(-c5c6nc(c(-c7c(F)cc(S(=O)(=O)[O-])cc7F)c7ccc([nH]7)c(-c7c(F)cc(S(=O)(=O)[O-])cc7F)c7nc(c(-c8c(F)cc(S(=O)(=O)[O-])cc8F)c8ccc5[nH]8)C=C7)C=C6)cc4)[C@H]4C=C[C@@H]3C4)c2C(=O)NC2CC2)cc1
REMARK SMILES IDX 19 1 18 2 17 3 15 4 16 5 14 6 13 7 95 8 92 9 94 10 96 11
REMARK SMILES IDX 93 12 11 13 10 14 12 16 9 17 6 18 7 19 97 20 8 21 5 22 1 23
REMARK SMILES IDX 2 24 3 25 105 26 4 27 104 28 98 29 99 30 100 31 101 33
REMARK SMILES IDX 102 34 103 35 20 36 21 37 22 38 23 39 24 40 25 41 26 42
REMARK SMILES IDX 27 43 91 44 28 45 90 46 29 47 30 48 31 49 84 50 32 51 89 52
REMARK SMILES IDX 83 53 85 54 33 55 88 56 82 57 81 58 34 60 68 61 47 62 67 63
REMARK SMILES IDX 48 64 51 65 66 66 86 67 49 68 50 69 65 71 87 72 52 73 35 74
REMARK SMILES IDX 36 75 45 76 37 77 38 78 44 79 46 80 39 81 40 82 41 83 42 84
REMARK SMILES IDX 43 85 69 86 70 87 79 88 71 89 72 90 78 91 80 92 73 93 74 94
REMARK SMILES IDX 75 95 76 96 77 97 53 98 54 99 63 100 55 101 56 102 62 103
REMARK SMILES IDX 64 104 57 105 58 106 59 107 60 108 61 109
REMARK H PARENT 10 15 100 32 85 59 51 70
REMARK Flexibility Score: inf
ROOT
ATOM      1  C   UNL A   1      34.115  30.324  27.158  1.00  0.00     0.202 C 
ENDROOT
BRANCH   1   2
ATOM      2  C   UNL A   1      32.869  30.973  26.664  1.00  0.00     0.261 C 
BRANCH   2   3
ATOM      3  O   UNL A   1      31.842  30.042  26.241  1.00  0.00    -0.463 OA
BRANCH   3   4
ATOM      4  C   UNL A   1      32.039  29.272  25.125  1.00  0.00     0.310 C 
ATOM      5  O   UNL A   1      32.913  29.412  24.299  1.00  0.00    -0.252 OA
BRANCH   4   6
ATOM      6  C   UNL A   1      30.921  28.246  25.020  1.00  0.00     0.119 C 
ATOM      7  C   UNL A   1      31.413  26.794  24.715  1.00  0.00     0.100 C 
ATOM      8  C   UNL A   1      30.700  26.504  23.363  1.00  0.00     0.025 C 
ATOM      9  C   UNL A   1      29.931  28.530  23.855  1.00  0.00     0.027 C 
ATOM     10  C   UNL A   1      31.162  27.424  22.264  1.00  0.00    -0.027 C 
ATOM     11  C   UNL A   1      29.334  27.141  23.643  1.00  0.00     0.017 C 
ATOM     12  C   UNL A   1      30.660  28.635  22.536  1.00  0.00    -0.027 C 
BRANCH   7  13
ATOM     13  C   UNL A   1      32.925  26.644  24.899  1.00  0.00     0.229 C 
ATOM     14  N   UNL A   1      33.656  25.909  24.016  1.00  0.00    -0.317 N 
ATOM     15  H   UNL A   1      34.459  26.325  23.630  1.00  0.00     0.170 HD
ATOM     16  O   UNL A   1      33.492  27.194  25.845  1.00  0.00    -0.274 OA
BRANCH  14  17
ATOM     17  C   UNL A   1      33.352  24.624  23.625  1.00  0.00     0.108 A 
ATOM     18  C   UNL A   1      33.231  22.337  23.423  1.00  0.00     0.007 A 
ATOM     19  C   UNL A   1      33.120  22.784  22.113  1.00  0.00     0.076 A 
ATOM     20  C   UNL A   1      33.344  23.449  24.381  1.00  0.00     0.082 A 
ATOM     21  S   UNL A   1      32.704  24.418  22.062  1.00  0.00    -0.125 S 
BRANCH  18  22
ATOM     22  C   UNL A   1      33.042  20.902  23.539  1.00  0.00    -0.017 A 
ATOM     23  C   UNL A   1      33.374  16.648  23.660  1.00  0.00     0.044 C 
ATOM     24  C   UNL A   1      33.084  18.115  23.759  1.00  0.00    -0.051 A 
ATOM     25  C   UNL A   1      33.851  18.885  24.631  1.00  0.00     0.004 A 
ATOM     26  C   UNL A   1      32.182  18.751  22.886  1.00  0.00     0.004 A 
ATOM     27  C   UNL A   1      33.805  20.265  24.539  1.00  0.00     0.009 A 
ATOM     28  C   UNL A   1      32.153  20.151  22.776  1.00  0.00     0.009 A 
ENDBRANCH  18  22
BRANCH  20  29
ATOM     29  C   UNL A   1      33.591  23.590  25.835  1.00  0.00     0.255 C 
ATOM     30  O   UNL A   1      32.638  23.853  26.583  1.00  0.00    -0.269 OA
ATOM     31  N   UNL A   1      34.743  23.312  26.538  1.00  0.00    -0.349 N 
ATOM     32  H   UNL A   1      34.620  23.483  27.500  1.00  0.00     0.164 HD
BRANCH  31  33
ATOM     33  C   UNL A   1      36.055  22.851  26.266  1.00  0.00     0.082 C 
ATOM     34  C   UNL A   1      36.598  22.569  24.916  1.00  0.00     0.027 C 
ATOM     35  C   UNL A   1      37.061  23.782  25.691  1.00  0.00     0.027 C 
ENDBRANCH  31  33
ENDBRANCH  20  29
ENDBRANCH  14  17
ENDBRANCH   7  13
ENDBRANCH   4   6
ENDBRANCH   3   4
ENDBRANCH   2   3
ENDBRANCH   1   2
BRANCH   1  36
ATOM     36  O   UNL A   1      34.397  31.066  28.331  1.00  0.00    -0.374 OA
BRANCH  36  37
ATOM     37  C   UNL A   1      34.124  32.436  28.277  1.00  0.00     0.202 C 
BRANCH  37  38
ATOM     38  C   UNL A   1      34.755  33.148  29.463  1.00  0.00     0.261 C 
BRANCH  38  39
ATOM     39  O   UNL A   1      36.142  32.766  29.651  1.00  0.00    -0.460 OA
BRANCH  39  40
ATOM     40  C   UNL A   1      36.421  31.986  30.741  1.00  0.00     0.338 C 
ATOM     41  O   UNL A   1      35.772  32.005  31.775  1.00  0.00    -0.246 OA
BRANCH  40  42
ATOM     42  C   UNL A   1      37.561  31.058  30.482  1.00  0.00     0.060 A 
ATOM     43  C   UNL A   1      37.529  29.720  30.926  1.00  0.00     0.016 A 
ATOM     44  C   UNL A   1      38.750  31.604  30.015  1.00  0.00     0.016 A 
ATOM     45  C   UNL A   1      38.724  28.987  31.044  1.00  0.00     0.010 A 
ATOM     46  C   UNL A   1      39.926  30.939  30.286  1.00  0.00     0.010 A 
ATOM     47  C   UNL A   1      39.937  29.630  30.790  1.00  0.00    -0.014 A 
BRANCH  47  48
ATOM     48  C   UNL A   1      41.277  29.066  30.976  1.00  0.00     0.031 A 
ATOM     49  C   UNL A   1      41.612  27.905  30.117  1.00  0.00     0.074 A 
ATOM     50  C   UNL A   1      42.241  29.573  31.784  1.00  0.00     0.049 A 
ATOM     51  N   UNL A   1      42.319  26.906  30.525  1.00  0.00    -0.248 NA
ATOM     52  C   UNL A   1      41.113  27.726  28.749  1.00  0.00     0.031 C 
ATOM     53  C   UNL A   1      43.672  29.298  31.703  1.00  0.00     0.029 A 
ATOM     54  N   UNL A   1      42.158  30.479  32.844  1.00  0.00    -0.354 N 
ATOM     55  C   UNL A   1      42.634  26.175  29.404  1.00  0.00     0.074 A 
ATOM     56  C   UNL A   1      41.723  26.601  28.377  1.00  0.00     0.031 C 
ATOM     57  C   UNL A   1      44.305  29.855  32.751  1.00  0.00     0.029 A 
ATOM     58  C   UNL A   1      43.312  30.461  33.623  1.00  0.00     0.049 A 
ATOM     59  H   UNL A   1      41.381  31.057  33.018  1.00  0.00     0.167 HD
ATOM     60  C   UNL A   1      43.796  25.469  29.344  1.00  0.00     0.037 A 
ATOM     61  C   UNL A   1      43.256  30.396  34.980  1.00  0.00     0.037 A 
ATOM     62  C   UNL A   1      44.635  25.771  30.507  1.00  0.00     0.049 A 
ATOM     63  C   UNL A   1      43.719  29.013  35.349  1.00  0.00     0.074 A 
ATOM     64  C   UNL A   1      45.738  26.600  30.662  1.00  0.00     0.029 A 
ATOM     65  N   UNL A   1      44.169  25.517  31.798  1.00  0.00    -0.354 N 
ATOM     66  N   UNL A   1      43.748  28.052  34.466  1.00  0.00    -0.248 NA
ATOM     67  C   UNL A   1      44.297  28.610  36.625  1.00  0.00     0.031 C 
ATOM     68  C   UNL A   1      45.928  26.839  32.048  1.00  0.00     0.029 A 
ATOM     69  C   UNL A   1      44.941  26.163  32.749  1.00  0.00     0.049 A 
ATOM     70  H   UNL A   1      43.389  24.953  32.005  1.00  0.00     0.167 HD
ATOM     71  C   UNL A   1      44.434  26.993  34.956  1.00  0.00     0.074 A 
ATOM     72  C   UNL A   1      44.706  27.358  36.338  1.00  0.00     0.031 C 
ATOM     73  C   UNL A   1      44.747  25.920  34.175  1.00  0.00     0.037 A 
BRANCH  60  74
ATOM     74  C   UNL A   1      44.256  24.833  28.049  1.00  0.00     0.058 A 
ATOM     75  C   UNL A   1      43.850  23.541  27.665  1.00  0.00     0.135 A 
ATOM     76  C   UNL A   1      45.119  25.480  27.132  1.00  0.00     0.135 A 
ATOM     77  F   UNL A   1      42.985  22.829  28.398  1.00  0.00    -0.206 F 
ATOM     78  C   UNL A   1      44.314  22.914  26.505  1.00  0.00     0.059 A 
ATOM     79  C   UNL A   1      45.643  24.853  25.998  1.00  0.00     0.059 A 
ATOM     80  F   UNL A   1      45.467  26.766  27.303  1.00  0.00    -0.206 F 
ATOM     81  C   UNL A   1      45.221  23.569  25.683  1.00  0.00     0.060 A 
BRANCH  81  82
ATOM     82  S   UNL A   1      45.791  22.742  24.186  1.00  0.00     0.124 S 
ATOM     83  O   UNL A   1      46.396  21.522  24.712  1.00  0.00    -0.237 OA
ATOM     84  O   UNL A   1      44.543  22.563  23.451  1.00  0.00    -0.237 OA
ATOM     85  O   UNL A   1      46.730  23.696  23.604  1.00  0.00    -0.744 OA
ENDBRANCH  81  82
ENDBRANCH  60  74
BRANCH  61  86
ATOM     86  C   UNL A   1      42.241  31.293  35.617  1.00  0.00     0.058 A 
ATOM     87  C   UNL A   1      42.535  32.679  35.649  1.00  0.00     0.135 A 
ATOM     88  C   UNL A   1      40.902  30.941  35.838  1.00  0.00     0.135 A 
ATOM     89  F   UNL A   1      43.794  33.096  35.428  1.00  0.00    -0.206 F 
ATOM     90  C   UNL A   1      41.548  33.666  35.767  1.00  0.00     0.059 A 
ATOM     91  C   UNL A   1      39.889  31.914  35.952  1.00  0.00     0.059 A 
ATOM     92  F   UNL A   1      40.534  29.652  35.819  1.00  0.00    -0.206 F 
ATOM     93  C   UNL A   1      40.213  33.275  35.866  1.00  0.00     0.060 A 
BRANCH  93  94
ATOM     94  S   UNL A   1      38.910  34.482  35.401  1.00  0.00     0.124 S 
ATOM     95  O   UNL A   1      39.076  34.585  33.959  1.00  0.00    -0.237 OA
ATOM     96  O   UNL A   1      37.685  33.830  35.854  1.00  0.00    -0.237 OA
ATOM     97  O   UNL A   1      39.280  35.661  36.179  1.00  0.00    -0.744 OA
ENDBRANCH  93  94
ENDBRANCH  61  86
BRANCH  73  98
ATOM     98  C   UNL A   1      45.014  24.551  34.716  1.00  0.00     0.058 A 
ATOM     99  C   UNL A   1      44.048  23.533  34.709  1.00  0.00     0.135 A 
ATOM    100  C   UNL A   1      46.325  24.164  35.084  1.00  0.00     0.135 A 
ATOM    101  F   UNL A   1      42.803  23.741  34.257  1.00  0.00    -0.206 F 
ATOM    102  C   UNL A   1      44.336  22.243  35.127  1.00  0.00     0.059 A 
ATOM    103  C   UNL A   1      46.651  22.862  35.425  1.00  0.00     0.059 A 
ATOM    104  F   UNL A   1      47.346  25.033  35.104  1.00  0.00    -0.206 F 
ATOM    105  C   UNL A   1      45.640  21.919  35.484  1.00  0.00     0.060 A 
BRANCH 105 106
ATOM    106  S   UNL A   1      46.004  20.244  36.013  1.00  0.00     0.124 S 
ATOM    107  O   UNL A   1      45.653  20.315  37.428  1.00  0.00    -0.237 OA
ATOM    108  O   UNL A   1      45.108  19.449  35.178  1.00  0.00    -0.237 OA
ATOM    109  O   UNL A   1      47.424  20.097  35.718  1.00  0.00    -0.744 OA
ENDBRANCH 105 106
ENDBRANCH  73  98
ENDBRANCH  47  48
ENDBRANCH  40  42
ENDBRANCH  39  40
ENDBRANCH  38  39
ENDBRANCH  37  38
ENDBRANCH  36  37
ENDBRANCH   1  36
TORSDOF 22
ENDMDL
