MODEL 1
REMARK VINA RESULT:     -10.9      0.000      0.000
REMARK SMILES CC1(C)CCC[C@@H]1NC(=O)CC1(C(=O)OCCOCCOC(=O)c2ccc(-c3c4nc(c(-c5c(F)cc(S(=O)(=O)[O-])cc5F)c5ccc([nH]5)c(-c5c(F)cc(S(=O)(=O)[O-])cc5F)c5nc(c(-c6c(F)cc(S(=O)(=O)[O-])cc6F)c6ccc3[nH]6)C=C5)C=C4)cc2)CCCCC1
REMARK SMILES IDX 18 1 17 2 16 3 15 4 13 5 14 6 12 7 90 8 94 9 91 10 93 11
REMARK SMILES IDX 92 12 11 13 9 14 8 15 10 17 7 18 1 19 2 20 3 21 4 22 5 23
REMARK SMILES IDX 6 24 19 25 20 26 21 27 22 28 23 29 24 30 25 31 89 32 26 33
REMARK SMILES IDX 88 34 27 35 28 36 29 37 82 38 30 39 87 40 81 41 83 42 31 43
REMARK SMILES IDX 86 44 80 45 79 46 32 48 66 49 45 50 65 51 46 52 49 53 64 54
REMARK SMILES IDX 84 55 47 56 48 57 63 59 85 60 50 61 33 62 34 63 43 64 35 65
REMARK SMILES IDX 36 66 42 67 44 68 37 69 38 70 39 71 40 72 41 73 67 74 68 75
REMARK SMILES IDX 77 76 69 77 70 78 76 79 78 80 71 81 72 82 73 83 74 84 75 85
REMARK SMILES IDX 51 86 52 87 61 88 53 89 54 90 60 91 62 92 55 93 56 94 57 95
REMARK SMILES IDX 58 96 59 97
REMARK H PARENT 8 16 83 47 49 58
REMARK Flexibility Score: inf
ROOT
ATOM      1  O   UNL A   1      34.407  31.204  27.890  1.00  0.00    -0.374 OA
ENDROOT
BRANCH   1   2
ATOM      2  C   UNL A   1      33.277  30.707  27.172  1.00  0.00     0.202 C 
BRANCH   2   3
ATOM      3  C   UNL A   1      33.510  29.414  26.385  1.00  0.00     0.261 C 
BRANCH   3   4
ATOM      4  O   UNL A   1      32.561  29.244  25.318  1.00  0.00    -0.463 OA
BRANCH   4   5
ATOM      5  C   UNL A   1      31.971  28.024  25.212  1.00  0.00     0.312 C 
ATOM      6  O   UNL A   1      31.532  27.384  26.162  1.00  0.00    -0.252 OA
BRANCH   5   7
ATOM      7  C   UNL A   1      31.866  27.527  23.757  1.00  0.00     0.077 C 
ATOM      8  C   UNL A   1      31.615  28.777  22.880  1.00  0.00     0.019 C 
ATOM      9  C   UNL A   1      30.743  26.497  23.537  1.00  0.00     0.019 C 
ATOM     10  C   UNL A   1      30.190  29.321  23.038  1.00  0.00     0.001 C 
ATOM     11  C   UNL A   1      29.312  27.028  23.546  1.00  0.00     0.001 C 
ATOM     12  C   UNL A   1      29.156  28.264  22.676  1.00  0.00     0.000 C 
BRANCH   7  13
ATOM     13  C   UNL A   1      33.255  26.877  23.470  1.00  0.00     0.118 C 
BRANCH  13  14
ATOM     14  C   UNL A   1      33.347  25.964  22.260  1.00  0.00     0.221 C 
ATOM     15  N   UNL A   1      33.364  24.606  22.382  1.00  0.00    -0.353 N 
ATOM     16  H   UNL A   1      33.536  24.135  21.534  1.00  0.00     0.163 HD
ATOM     17  O   UNL A   1      33.427  26.438  21.124  1.00  0.00    -0.275 OA
BRANCH  15  18
ATOM     18  C   UNL A   1      33.177  23.712  23.523  1.00  0.00     0.087 C 
ATOM     19  C   UNL A   1      35.016  24.420  25.169  1.00  0.00     0.013 C 
ATOM     20  C   UNL A   1      34.493  23.315  24.249  1.00  0.00    -0.015 C 
ATOM     21  C   UNL A   1      35.624  22.885  23.290  1.00  0.00     0.013 C 
ATOM     22  C   UNL A   1      34.033  22.096  25.072  1.00  0.00     0.008 C 
ATOM     23  C   UNL A   1      33.045  21.353  24.181  1.00  0.00     0.003 C 
ATOM     24  C   UNL A   1      32.611  22.343  23.105  1.00  0.00     0.025 C 
ENDBRANCH  15  18
ENDBRANCH  13  14
ENDBRANCH   7  13
ENDBRANCH   5   7
ENDBRANCH   4   5
ENDBRANCH   3   4
ENDBRANCH   2   3
ENDBRANCH   1   2
BRANCH   1  25
ATOM     25  C   UNL A   1      34.283  32.496  28.487  1.00  0.00     0.202 C 
BRANCH  25  26
ATOM     26  C   UNL A   1      35.013  32.667  29.817  1.00  0.00     0.261 C 
BRANCH  26  27
ATOM     27  O   UNL A   1      35.623  31.430  30.215  1.00  0.00    -0.460 OA
BRANCH  27  28
ATOM     28  C   UNL A   1      36.655  31.593  31.072  1.00  0.00     0.338 C 
ATOM     29  O   UNL A   1      36.634  32.186  32.140  1.00  0.00    -0.246 OA
BRANCH  28  30
ATOM     30  C   UNL A   1      37.814  30.836  30.580  1.00  0.00     0.060 A 
ATOM     31  C   UNL A   1      38.743  30.350  31.506  1.00  0.00     0.016 A 
ATOM     32  C   UNL A   1      38.043  30.720  29.208  1.00  0.00     0.016 A 
ATOM     33  C   UNL A   1      39.937  29.784  31.055  1.00  0.00     0.010 A 
ATOM     34  C   UNL A   1      39.234  30.139  28.760  1.00  0.00     0.010 A 
ATOM     35  C   UNL A   1      40.205  29.704  29.680  1.00  0.00    -0.014 A 
BRANCH  35  36
ATOM     36  C   UNL A   1      41.545  29.268  29.210  1.00  0.00     0.031 A 
ATOM     37  C   UNL A   1      42.673  30.264  29.163  1.00  0.00     0.074 A 
ATOM     38  C   UNL A   1      41.756  27.991  28.842  1.00  0.00     0.049 A 
ATOM     39  N   UNL A   1      43.915  30.091  28.786  1.00  0.00    -0.248 NA
ATOM     40  C   UNL A   1      42.363  31.637  29.593  1.00  0.00     0.031 C 
ATOM     41  C   UNL A   1      40.746  26.934  28.850  1.00  0.00     0.029 A 
ATOM     42  N   UNL A   1      42.890  27.370  28.382  1.00  0.00    -0.354 N 
ATOM     43  C   UNL A   1      44.533  31.328  28.930  1.00  0.00     0.074 A 
ATOM     44  C   UNL A   1      43.522  32.251  29.401  1.00  0.00     0.031 C 
ATOM     45  C   UNL A   1      41.304  25.795  28.404  1.00  0.00     0.029 A 
ATOM     46  C   UNL A   1      42.703  26.047  28.061  1.00  0.00     0.049 A 
ATOM     47  H   UNL A   1      43.756  27.830  28.290  1.00  0.00     0.167 HD
ATOM     48  C   UNL A   1      45.825  31.661  28.700  1.00  0.00     0.037 A 
ATOM     49  C   UNL A   1      43.557  25.145  27.538  1.00  0.00     0.037 A 
ATOM     50  C   UNL A   1      46.830  30.741  28.238  1.00  0.00     0.049 A 
ATOM     51  C   UNL A   1      44.980  25.548  27.258  1.00  0.00     0.074 A 
ATOM     52  C   UNL A   1      48.177  30.975  28.020  1.00  0.00     0.029 A 
ATOM     53  N   UNL A   1      46.598  29.413  27.913  1.00  0.00    -0.354 N 
ATOM     54  N   UNL A   1      45.561  26.709  27.450  1.00  0.00    -0.248 NA
ATOM     55  C   UNL A   1      45.866  24.520  26.692  1.00  0.00     0.031 C 
ATOM     56  C   UNL A   1      48.751  29.799  27.522  1.00  0.00     0.029 A 
ATOM     57  C   UNL A   1      47.770  28.821  27.470  1.00  0.00     0.049 A 
ATOM     58  H   UNL A   1      45.729  28.957  27.986  1.00  0.00     0.167 HD
ATOM     59  C   UNL A   1      46.882  26.545  27.046  1.00  0.00     0.074 A 
ATOM     60  C   UNL A   1      47.019  25.170  26.611  1.00  0.00     0.031 C 
ATOM     61  C   UNL A   1      47.890  27.451  27.038  1.00  0.00     0.037 A 
BRANCH  48  62
ATOM     62  C   UNL A   1      46.227  33.091  28.932  1.00  0.00     0.058 A 
ATOM     63  C   UNL A   1      46.716  33.526  30.174  1.00  0.00     0.135 A 
ATOM     64  C   UNL A   1      46.161  34.028  27.888  1.00  0.00     0.135 A 
ATOM     65  F   UNL A   1      46.786  32.674  31.209  1.00  0.00    -0.206 F 
ATOM     66  C   UNL A   1      47.106  34.846  30.379  1.00  0.00     0.059 A 
ATOM     67  C   UNL A   1      46.565  35.348  28.066  1.00  0.00     0.059 A 
ATOM     68  F   UNL A   1      45.700  33.664  26.681  1.00  0.00    -0.206 F 
ATOM     69  C   UNL A   1      47.024  35.751  29.320  1.00  0.00     0.060 A 
BRANCH  69  70
ATOM     70  S   UNL A   1      47.536  37.460  29.598  1.00  0.00     0.124 S 
ATOM     71  O   UNL A   1      46.998  38.121  28.413  1.00  0.00    -0.237 OA
ATOM     72  O   UNL A   1      46.875  37.783  30.859  1.00  0.00    -0.237 OA
ATOM     73  O   UNL A   1      48.992  37.372  29.661  1.00  0.00    -0.744 OA
ENDBRANCH  69  70
ENDBRANCH  48  62
BRANCH  49  74
ATOM     74  C   UNL A   1      43.084  23.769  27.237  1.00  0.00     0.058 A 
ATOM     75  C   UNL A   1      42.818  23.363  25.921  1.00  0.00     0.135 A 
ATOM     76  C   UNL A   1      42.901  22.828  28.263  1.00  0.00     0.135 A 
ATOM     77  F   UNL A   1      42.969  24.230  24.909  1.00  0.00    -0.206 F 
ATOM     78  C   UNL A   1      42.380  22.074  25.632  1.00  0.00     0.059 A 
ATOM     79  C   UNL A   1      42.484  21.528  27.996  1.00  0.00     0.059 A 
ATOM     80  F   UNL A   1      43.152  23.166  29.537  1.00  0.00    -0.206 F 
ATOM     81  C   UNL A   1      42.219  21.163  26.677  1.00  0.00     0.060 A 
BRANCH  81  82
ATOM     82  S   UNL A   1      41.710  19.474  26.288  1.00  0.00     0.124 S 
ATOM     83  O   UNL A   1      42.063  18.773  27.516  1.00  0.00    -0.237 OA
ATOM     84  O   UNL A   1      40.282  19.634  26.030  1.00  0.00    -0.237 OA
ATOM     85  O   UNL A   1      42.517  19.145  25.116  1.00  0.00    -0.744 OA
ENDBRANCH  81  82
ENDBRANCH  49  74
BRANCH  61  86
ATOM     86  C   UNL A   1      49.236  26.986  26.558  1.00  0.00     0.058 A 
ATOM     87  C   UNL A   1      50.154  26.378  27.429  1.00  0.00     0.135 A 
ATOM     88  C   UNL A   1      49.589  27.098  25.204  1.00  0.00     0.135 A 
ATOM     89  F   UNL A   1      49.867  26.254  28.733  1.00  0.00    -0.206 F 
ATOM     90  C   UNL A   1      51.384  25.913  26.976  1.00  0.00     0.059 A 
ATOM     91  C   UNL A   1      50.805  26.619  24.725  1.00  0.00     0.059 A 
ATOM     92  F   UNL A   1      48.742  27.663  24.329  1.00  0.00    -0.206 F 
ATOM     93  C   UNL A   1      51.701  26.037  25.622  1.00  0.00     0.060 A 
BRANCH  93  94
ATOM     94  S   UNL A   1      53.284  25.395  25.036  1.00  0.00     0.124 S 
ATOM     95  O   UNL A   1      53.196  25.658  23.604  1.00  0.00    -0.237 OA
ATOM     96  O   UNL A   1      54.246  26.209  25.773  1.00  0.00    -0.237 OA
ATOM     97  O   UNL A   1      53.241  23.987  25.420  1.00  0.00    -0.744 OA
ENDBRANCH  93  94
ENDBRANCH  61  86
ENDBRANCH  35  36
ENDBRANCH  28  30
ENDBRANCH  27  28
ENDBRANCH  26  27
ENDBRANCH  25  26
ENDBRANCH   1  25
TORSDOF 20
ENDMDL
MODEL 2
REMARK VINA RESULT:     -10.9      6.414     11.809
REMARK SMILES CC1(C)CCC[C@@H]1NC(=O)CC1(C(=O)OCCOCCOC(=O)c2ccc(-c3c4nc(c(-c5c(F)cc(S(=O)(=O)[O-])cc5F)c5ccc([nH]5)c(-c5c(F)cc(S(=O)(=O)[O-])cc5F)c5nc(c(-c6c(F)cc(S(=O)(=O)[O-])cc6F)c6ccc3[nH]6)C=C5)C=C4)cc2)CCCCC1
REMARK SMILES IDX 18 1 17 2 16 3 15 4 13 5 14 6 12 7 90 8 94 9 91 10 93 11
REMARK SMILES IDX 92 12 11 13 9 14 8 15 10 17 7 18 1 19 2 20 3 21 4 22 5 23
REMARK SMILES IDX 6 24 19 25 20 26 21 27 22 28 23 29 24 30 25 31 89 32 26 33
REMARK SMILES IDX 88 34 27 35 28 36 29 37 82 38 30 39 87 40 81 41 83 42 31 43
REMARK SMILES IDX 86 44 80 45 79 46 32 48 66 49 45 50 65 51 46 52 49 53 64 54
REMARK SMILES IDX 84 55 47 56 48 57 63 59 85 60 50 61 33 62 34 63 43 64 35 65
REMARK SMILES IDX 36 66 42 67 44 68 37 69 38 70 39 71 40 72 41 73 67 74 68 75
REMARK SMILES IDX 77 76 69 77 70 78 76 79 78 80 71 81 72 82 73 83 74 84 75 85
REMARK SMILES IDX 51 86 52 87 61 88 53 89 54 90 60 91 62 92 55 93 56 94 57 95
REMARK SMILES IDX 58 96 59 97
REMARK H PARENT 8 16 83 47 49 58
REMARK Flexibility Score: inf
ROOT
ATOM      1  O   UNL A   1      38.636  22.769  25.909  1.00  0.00    -0.374 OA
ENDROOT
BRANCH   1   2
ATOM      2  C   UNL A   1      37.257  22.425  25.764  1.00  0.00     0.202 C 
BRANCH   2   3
ATOM      3  C   UNL A   1      36.261  23.548  26.070  1.00  0.00     0.261 C 
BRANCH   3   4
ATOM      4  O   UNL A   1      35.040  23.414  25.324  1.00  0.00    -0.463 OA
BRANCH   4   5
ATOM      5  C   UNL A   1      34.010  22.779  25.944  1.00  0.00     0.312 C 
ATOM      6  O   UNL A   1      33.940  22.595  27.154  1.00  0.00    -0.252 OA
BRANCH   5   7
ATOM      7  C   UNL A   1      32.898  22.339  24.972  1.00  0.00     0.077 C 
ATOM      8  C   UNL A   1      32.628  23.540  24.034  1.00  0.00     0.019 C 
ATOM      9  C   UNL A   1      31.594  21.920  25.676  1.00  0.00     0.019 C 
ATOM     10  C   UNL A   1      31.876  24.673  24.743  1.00  0.00     0.001 C 
ATOM     11  C   UNL A   1      30.745  23.039  26.271  1.00  0.00     0.001 C 
ATOM     12  C   UNL A   1      30.544  24.186  25.294  1.00  0.00     0.000 C 
BRANCH   7  13
ATOM     13  C   UNL A   1      33.511  21.123  24.209  1.00  0.00     0.118 C 
BRANCH  13  14
ATOM     14  C   UNL A   1      32.546  20.246  23.430  1.00  0.00     0.221 C 
ATOM     15  N   UNL A   1      32.407  18.916  23.696  1.00  0.00    -0.353 N 
ATOM     16  H   UNL A   1      31.833  18.441  23.051  1.00  0.00     0.163 HD
ATOM     17  O   UNL A   1      31.869  20.721  22.515  1.00  0.00    -0.275 OA
BRANCH  15  18
ATOM     18  C   UNL A   1      32.942  18.056  24.749  1.00  0.00     0.087 C 
ATOM     19  C   UNL A   1      35.487  18.242  24.464  1.00  0.00     0.013 C 
ATOM     20  C   UNL A   1      34.263  17.328  24.373  1.00  0.00    -0.015 C 
ATOM     21  C   UNL A   1      34.233  16.670  22.977  1.00  0.00     0.013 C 
ATOM     22  C   UNL A   1      34.325  16.229  25.452  1.00  0.00     0.008 C 
ATOM     23  C   UNL A   1      32.884  15.777  25.657  1.00  0.00     0.003 C 
ATOM     24  C   UNL A   1      32.005  16.879  25.074  1.00  0.00     0.025 C 
ENDBRANCH  15  18
ENDBRANCH  13  14
ENDBRANCH   7  13
ENDBRANCH   5   7
ENDBRANCH   4   5
ENDBRANCH   3   4
ENDBRANCH   2   3
ENDBRANCH   1   2
BRANCH   1  25
ATOM     25  C   UNL A   1      39.554  21.697  26.130  1.00  0.00     0.202 C 
BRANCH  25  26
ATOM     26  C   UNL A   1      40.923  22.116  26.661  1.00  0.00     0.261 C 
BRANCH  26  27
ATOM     27  O   UNL A   1      40.802  23.286  27.484  1.00  0.00    -0.460 OA
BRANCH  27  28
ATOM     28  C   UNL A   1      41.433  24.367  26.975  1.00  0.00     0.338 C 
ATOM     29  O   UNL A   1      42.089  24.416  25.946  1.00  0.00    -0.246 OA
BRANCH  28  30
ATOM     30  C   UNL A   1      41.114  25.542  27.797  1.00  0.00     0.060 A 
ATOM     31  C   UNL A   1      42.075  26.550  27.930  1.00  0.00     0.016 A 
ATOM     32  C   UNL A   1      39.928  25.584  28.529  1.00  0.00     0.016 A 
ATOM     33  C   UNL A   1      41.867  27.587  28.843  1.00  0.00     0.010 A 
ATOM     34  C   UNL A   1      39.717  26.632  29.432  1.00  0.00     0.010 A 
ATOM     35  C   UNL A   1      40.701  27.617  29.622  1.00  0.00    -0.014 A 
BRANCH  35  36
ATOM     36  C   UNL A   1      40.565  28.617  30.713  1.00  0.00     0.031 A 
ATOM     37  C   UNL A   1      41.436  28.502  31.936  1.00  0.00     0.074 A 
ATOM     38  C   UNL A   1      39.680  29.625  30.607  1.00  0.00     0.049 A 
ATOM     39  N   UNL A   1      41.477  29.265  32.998  1.00  0.00    -0.248 NA
ATOM     40  C   UNL A   1      42.385  27.377  31.969  1.00  0.00     0.031 C 
ATOM     41  C   UNL A   1      38.787  29.846  29.472  1.00  0.00     0.029 A 
ATOM     42  N   UNL A   1      39.384  30.647  31.473  1.00  0.00    -0.354 N 
ATOM     43  C   UNL A   1      42.449  28.716  33.826  1.00  0.00     0.074 A 
ATOM     44  C   UNL A   1      42.955  27.536  33.155  1.00  0.00     0.031 C 
ATOM     45  C   UNL A   1      38.033  30.932  29.715  1.00  0.00     0.029 A 
ATOM     46  C   UNL A   1      38.376  31.471  31.031  1.00  0.00     0.049 A 
ATOM     47  H   UNL A   1      39.850  30.779  32.330  1.00  0.00     0.167 HD
ATOM     48  C   UNL A   1      42.887  29.158  35.028  1.00  0.00     0.037 A 
ATOM     49  C   UNL A   1      37.787  32.528  31.624  1.00  0.00     0.037 A 
ATOM     50  C   UNL A   1      42.388  30.335  35.690  1.00  0.00     0.049 A 
ATOM     51  C   UNL A   1      38.267  32.981  32.976  1.00  0.00     0.074 A 
ATOM     52  C   UNL A   1      42.802  30.889  36.890  1.00  0.00     0.029 A 
ATOM     53  N   UNL A   1      41.359  31.134  35.215  1.00  0.00    -0.354 N 
ATOM     54  N   UNL A   1      39.225  32.480  33.721  1.00  0.00    -0.248 NA
ATOM     55  C   UNL A   1      37.590  34.144  33.570  1.00  0.00     0.031 C 
ATOM     56  C   UNL A   1      41.994  31.999  37.161  1.00  0.00     0.029 A 
ATOM     57  C   UNL A   1      41.104  32.160  36.110  1.00  0.00     0.049 A 
ATOM     58  H   UNL A   1      40.880  30.992  34.368  1.00  0.00     0.167 HD
ATOM     59  C   UNL A   1      39.276  33.277  34.861  1.00  0.00     0.074 A 
ATOM     60  C   UNL A   1      38.263  34.300  34.703  1.00  0.00     0.031 C 
ATOM     61  C   UNL A   1      40.090  33.171  35.940  1.00  0.00     0.037 A 
BRANCH  48  62
ATOM     62  C   UNL A   1      43.956  28.356  35.718  1.00  0.00     0.058 A 
ATOM     63  C   UNL A   1      43.638  27.323  36.613  1.00  0.00     0.135 A 
ATOM     64  C   UNL A   1      45.313  28.596  35.447  1.00  0.00     0.135 A 
ATOM     65  F   UNL A   1      42.357  27.062  36.918  1.00  0.00    -0.206 F 
ATOM     66  C   UNL A   1      44.629  26.570  37.235  1.00  0.00     0.059 A 
ATOM     67  C   UNL A   1      46.320  27.841  36.042  1.00  0.00     0.059 A 
ATOM     68  F   UNL A   1      45.670  29.572  34.599  1.00  0.00    -0.206 F 
ATOM     69  C   UNL A   1      45.968  26.838  36.945  1.00  0.00     0.060 A 
BRANCH  69  70
ATOM     70  S   UNL A   1      47.245  25.851  37.755  1.00  0.00     0.124 S 
ATOM     71  O   UNL A   1      48.305  25.869  36.752  1.00  0.00    -0.237 OA
ATOM     72  O   UNL A   1      47.509  26.617  38.969  1.00  0.00    -0.237 OA
ATOM     73  O   UNL A   1      46.596  24.560  37.961  1.00  0.00    -0.744 OA
ENDBRANCH  69  70
ENDBRANCH  48  62
BRANCH  49  74
ATOM     74  C   UNL A   1      36.669  33.229  30.940  1.00  0.00     0.058 A 
ATOM     75  C   UNL A   1      36.901  34.073  29.846  1.00  0.00     0.135 A 
ATOM     76  C   UNL A   1      35.342  33.055  31.365  1.00  0.00     0.135 A 
ATOM     77  F   UNL A   1      38.154  34.278  29.411  1.00  0.00    -0.206 F 
ATOM     78  C   UNL A   1      35.858  34.728  29.198  1.00  0.00     0.059 A 
ATOM     79  C   UNL A   1      34.282  33.682  30.720  1.00  0.00     0.059 A 
ATOM     80  F   UNL A   1      35.068  32.248  32.401  1.00  0.00    -0.206 F 
ATOM     81  C   UNL A   1      34.551  34.524  29.642  1.00  0.00     0.060 A 
BRANCH  81  82
ATOM     82  S   UNL A   1      33.196  35.328  28.758  1.00  0.00     0.124 S 
ATOM     83  O   UNL A   1      33.916  36.292  27.935  1.00  0.00    -0.237 OA
ATOM     84  O   UNL A   1      32.585  34.209  28.046  1.00  0.00    -0.237 OA
ATOM     85  O   UNL A   1      32.386  35.893  29.834  1.00  0.00    -0.744 OA
ENDBRANCH  81  82
ENDBRANCH  49  74
BRANCH  61  86
ATOM     86  C   UNL A   1      39.933  34.193  37.030  1.00  0.00     0.058 A 
ATOM     87  C   UNL A   1      40.512  35.468  36.927  1.00  0.00     0.135 A 
ATOM     88  C   UNL A   1      39.150  33.915  38.161  1.00  0.00     0.135 A 
ATOM     89  F   UNL A   1      41.275  35.780  35.869  1.00  0.00    -0.206 F 
ATOM     90  C   UNL A   1      40.333  36.427  37.919  1.00  0.00     0.059 A 
ATOM     91  C   UNL A   1      38.940  34.867  39.154  1.00  0.00     0.059 A 
ATOM     92  F   UNL A   1      38.567  32.714  38.302  1.00  0.00    -0.206 F 
ATOM     93  C   UNL A   1      39.545  36.117  39.029  1.00  0.00     0.060 A 
BRANCH  93  94
ATOM     94  S   UNL A   1      39.287  37.382  40.292  1.00  0.00     0.124 S 
ATOM     95  O   UNL A   1      38.496  38.368  39.563  1.00  0.00    -0.237 OA
ATOM     96  O   UNL A   1      38.579  36.646  41.335  1.00  0.00    -0.237 OA
ATOM     97  O   UNL A   1      40.643  37.796  40.638  1.00  0.00    -0.744 OA
ENDBRANCH  93  94
ENDBRANCH  61  86
ENDBRANCH  35  36
ENDBRANCH  28  30
ENDBRANCH  27  28
ENDBRANCH  26  27
ENDBRANCH  25  26
ENDBRANCH   1  25
TORSDOF 20
ENDMDL
MODEL 3
REMARK VINA RESULT:     -10.8      6.183     11.828
REMARK SMILES CC1(C)CCC[C@@H]1NC(=O)CC1(C(=O)OCCOCCOC(=O)c2ccc(-c3c4nc(c(-c5c(F)cc(S(=O)(=O)[O-])cc5F)c5ccc([nH]5)c(-c5c(F)cc(S(=O)(=O)[O-])cc5F)c5nc(c(-c6c(F)cc(S(=O)(=O)[O-])cc6F)c6ccc3[nH]6)C=C5)C=C4)cc2)CCCCC1
REMARK SMILES IDX 18 1 17 2 16 3 15 4 13 5 14 6 12 7 90 8 94 9 91 10 93 11
REMARK SMILES IDX 92 12 11 13 9 14 8 15 10 17 7 18 1 19 2 20 3 21 4 22 5 23
REMARK SMILES IDX 6 24 19 25 20 26 21 27 22 28 23 29 24 30 25 31 89 32 26 33
REMARK SMILES IDX 88 34 27 35 28 36 29 37 82 38 30 39 87 40 81 41 83 42 31 43
REMARK SMILES IDX 86 44 80 45 79 46 32 48 66 49 45 50 65 51 46 52 49 53 64 54
REMARK SMILES IDX 84 55 47 56 48 57 63 59 85 60 50 61 33 62 34 63 43 64 35 65
REMARK SMILES IDX 36 66 42 67 44 68 37 69 38 70 39 71 40 72 41 73 67 74 68 75
REMARK SMILES IDX 77 76 69 77 70 78 76 79 78 80 71 81 72 82 73 83 74 84 75 85
REMARK SMILES IDX 51 86 52 87 61 88 53 89 54 90 60 91 62 92 55 93 56 94 57 95
REMARK SMILES IDX 58 96 59 97
REMARK H PARENT 8 16 83 47 49 58
REMARK Flexibility Score: inf
ROOT
ATOM      1  O   UNL A   1      38.936  23.041  26.080  1.00  0.00    -0.374 OA
ENDROOT
BRANCH   1   2
ATOM      2  C   UNL A   1      37.549  22.836  25.802  1.00  0.00     0.202 C 
BRANCH   2   3
ATOM      3  C   UNL A   1      37.242  22.034  24.533  1.00  0.00     0.261 C 
BRANCH   3   4
ATOM      4  O   UNL A   1      35.873  21.597  24.481  1.00  0.00    -0.463 OA
BRANCH   4   5
ATOM      5  C   UNL A   1      34.940  22.539  24.185  1.00  0.00     0.312 C 
ATOM      6  O   UNL A   1      35.114  23.458  23.390  1.00  0.00    -0.252 OA
BRANCH   5   7
ATOM      7  C   UNL A   1      33.605  22.322  24.923  1.00  0.00     0.077 C 
ATOM      8  C   UNL A   1      33.685  20.924  25.580  1.00  0.00     0.019 C 
ATOM      9  C   UNL A   1      32.372  22.399  24.004  1.00  0.00     0.019 C 
ATOM     10  C   UNL A   1      33.565  19.792  24.554  1.00  0.00     0.001 C 
ATOM     11  C   UNL A   1      32.140  21.219  23.065  1.00  0.00     0.001 C 
ATOM     12  C   UNL A   1      32.255  19.886  23.784  1.00  0.00     0.000 C 
BRANCH   7  13
ATOM     13  C   UNL A   1      33.558  23.468  25.982  1.00  0.00     0.118 C 
BRANCH  13  14
ATOM     14  C   UNL A   1      32.223  23.720  26.660  1.00  0.00     0.221 C 
ATOM     15  N   UNL A   1      31.443  24.793  26.340  1.00  0.00    -0.353 N 
ATOM     16  H   UNL A   1      30.659  24.901  26.925  1.00  0.00     0.163 HD
ATOM     17  O   UNL A   1      31.814  22.958  27.540  1.00  0.00    -0.275 OA
BRANCH  15  18
ATOM     18  C   UNL A   1      31.544  25.813  25.298  1.00  0.00     0.087 C 
ATOM     19  C   UNL A   1      33.710  27.068  25.871  1.00  0.00     0.013 C 
ATOM     20  C   UNL A   1      32.186  27.149  25.769  1.00  0.00    -0.015 C 
ATOM     21  C   UNL A   1      31.623  27.668  27.109  1.00  0.00     0.013 C 
ATOM     22  C   UNL A   1      31.768  28.106  24.636  1.00  0.00     0.008 C 
ATOM     23  C   UNL A   1      30.356  27.684  24.247  1.00  0.00     0.003 C 
ATOM     24  C   UNL A   1      30.164  26.276  24.799  1.00  0.00     0.025 C 
ENDBRANCH  15  18
ENDBRANCH  13  14
ENDBRANCH   7  13
ENDBRANCH   5   7
ENDBRANCH   4   5
ENDBRANCH   3   4
ENDBRANCH   2   3
ENDBRANCH   1   2
BRANCH   1  25
ATOM     25  C   UNL A   1      39.738  21.876  26.282  1.00  0.00     0.202 C 
BRANCH  25  26
ATOM     26  C   UNL A   1      41.194  22.150  26.652  1.00  0.00     0.261 C 
BRANCH  26  27
ATOM     27  O   UNL A   1      41.281  23.276  27.539  1.00  0.00    -0.460 OA
BRANCH  27  28
ATOM     28  C   UNL A   1      41.755  24.391  26.942  1.00  0.00     0.338 C 
ATOM     29  O   UNL A   1      42.300  24.465  25.852  1.00  0.00    -0.246 OA
BRANCH  28  30
ATOM     30  C   UNL A   1      41.409  25.560  27.764  1.00  0.00     0.060 A 
ATOM     31  C   UNL A   1      42.350  26.586  27.903  1.00  0.00     0.016 A 
ATOM     32  C   UNL A   1      40.217  25.579  28.487  1.00  0.00     0.016 A 
ATOM     33  C   UNL A   1      42.117  27.617  28.815  1.00  0.00     0.010 A 
ATOM     34  C   UNL A   1      39.981  26.622  29.389  1.00  0.00     0.010 A 
ATOM     35  C   UNL A   1      40.945  27.625  29.587  1.00  0.00    -0.014 A 
BRANCH  35  36
ATOM     36  C   UNL A   1      40.784  28.621  30.677  1.00  0.00     0.031 A 
ATOM     37  C   UNL A   1      41.654  28.526  31.903  1.00  0.00     0.074 A 
ATOM     38  C   UNL A   1      39.877  29.610  30.569  1.00  0.00     0.049 A 
ATOM     39  N   UNL A   1      41.674  29.290  32.965  1.00  0.00    -0.248 NA
ATOM     40  C   UNL A   1      42.627  27.423  31.938  1.00  0.00     0.031 C 
ATOM     41  C   UNL A   1      38.982  29.811  29.431  1.00  0.00     0.029 A 
ATOM     42  N   UNL A   1      39.556  30.625  31.434  1.00  0.00    -0.354 N 
ATOM     43  C   UNL A   1      42.656  28.762  33.796  1.00  0.00     0.074 A 
ATOM     44  C   UNL A   1      43.190  27.594  33.127  1.00  0.00     0.031 C 
ATOM     45  C   UNL A   1      38.203  30.880  29.672  1.00  0.00     0.029 A 
ATOM     46  C   UNL A   1      38.531  31.426  30.989  1.00  0.00     0.049 A 
ATOM     47  H   UNL A   1      40.016  30.767  32.293  1.00  0.00     0.167 HD
ATOM     48  C   UNL A   1      43.080  29.214  34.999  1.00  0.00     0.037 A 
ATOM     49  C   UNL A   1      37.916  32.469  31.580  1.00  0.00     0.037 A 
ATOM     50  C   UNL A   1      42.553  30.379  35.660  1.00  0.00     0.049 A 
ATOM     51  C   UNL A   1      38.382  32.933  32.934  1.00  0.00     0.074 A 
ATOM     52  C   UNL A   1      42.951  30.942  36.861  1.00  0.00     0.029 A 
ATOM     53  N   UNL A   1      41.508  31.155  35.182  1.00  0.00    -0.354 N 
ATOM     54  N   UNL A   1      39.348  32.454  33.682  1.00  0.00    -0.248 NA
ATOM     55  C   UNL A   1      37.677  34.080  33.526  1.00  0.00     0.031 C 
ATOM     56  C   UNL A   1      42.117  32.034  37.130  1.00  0.00     0.029 A 
ATOM     57  C   UNL A   1      41.227  32.175  36.077  1.00  0.00     0.049 A 
ATOM     58  H   UNL A   1      41.034  31.003  34.333  1.00  0.00     0.167 HD
ATOM     59  C   UNL A   1      39.378  33.251  34.822  1.00  0.00     0.074 A 
ATOM     60  C   UNL A   1      38.343  34.251  34.661  1.00  0.00     0.031 C 
ATOM     61  C   UNL A   1      40.191  33.163  35.903  1.00  0.00     0.037 A 
BRANCH  48  62
ATOM     62  C   UNL A   1      44.164  28.436  35.692  1.00  0.00     0.058 A 
ATOM     63  C   UNL A   1      43.888  27.251  36.391  1.00  0.00     0.135 A 
ATOM     64  C   UNL A   1      45.502  28.859  35.621  1.00  0.00     0.135 A 
ATOM     65  F   UNL A   1      42.625  26.810  36.502  1.00  0.00    -0.206 F 
ATOM     66  C   UNL A   1      44.897  26.523  37.014  1.00  0.00     0.059 A 
ATOM     67  C   UNL A   1      46.529  28.136  36.219  1.00  0.00     0.059 A 
ATOM     68  F   UNL A   1      45.819  29.986  34.965  1.00  0.00    -0.206 F 
ATOM     69  C   UNL A   1      46.215  26.975  36.925  1.00  0.00     0.060 A 
BRANCH  69  70
ATOM     70  S   UNL A   1      47.515  26.019  37.736  1.00  0.00     0.124 S 
ATOM     71  O   UNL A   1      47.479  26.570  39.087  1.00  0.00    -0.237 OA
ATOM     72  O   UNL A   1      47.030  24.650  37.597  1.00  0.00    -0.237 OA
ATOM     73  O   UNL A   1      48.707  26.341  36.958  1.00  0.00    -0.744 OA
ENDBRANCH  69  70
ENDBRANCH  48  62
BRANCH  49  74
ATOM     74  C   UNL A   1      36.785  33.145  30.894  1.00  0.00     0.058 A 
ATOM     75  C   UNL A   1      37.008  34.076  29.869  1.00  0.00     0.135 A 
ATOM     76  C   UNL A   1      35.455  32.861  31.243  1.00  0.00     0.135 A 
ATOM     77  F   UNL A   1      38.262  34.387  29.508  1.00  0.00    -0.206 F 
ATOM     78  C   UNL A   1      35.952  34.708  29.219  1.00  0.00     0.059 A 
ATOM     79  C   UNL A   1      34.384  33.464  30.593  1.00  0.00     0.059 A 
ATOM     80  F   UNL A   1      35.190  31.969  32.210  1.00  0.00    -0.206 F 
ATOM     81  C   UNL A   1      34.644  34.393  29.587  1.00  0.00     0.060 A 
BRANCH  81  82
ATOM     82  S   UNL A   1      33.278  35.171  28.696  1.00  0.00     0.124 S 
ATOM     83  O   UNL A   1      32.607  34.012  28.121  1.00  0.00    -0.237 OA
ATOM     84  O   UNL A   1      32.563  35.859  29.767  1.00  0.00    -0.237 OA
ATOM     85  O   UNL A   1      33.957  36.047  27.745  1.00  0.00    -0.744 OA
ENDBRANCH  81  82
ENDBRANCH  49  74
BRANCH  61  86
ATOM     86  C   UNL A   1      40.008  34.181  36.993  1.00  0.00     0.058 A 
ATOM     87  C   UNL A   1      40.613  35.446  36.923  1.00  0.00     0.135 A 
ATOM     88  C   UNL A   1      39.175  33.910  38.090  1.00  0.00     0.135 A 
ATOM     89  F   UNL A   1      41.424  35.750  35.898  1.00  0.00    -0.206 F 
ATOM     90  C   UNL A   1      40.411  36.402  37.913  1.00  0.00     0.059 A 
ATOM     91  C   UNL A   1      38.941  34.860  39.080  1.00  0.00     0.059 A 
ATOM     92  F   UNL A   1      38.565  32.720  38.198  1.00  0.00    -0.206 F 
ATOM     93  C   UNL A   1      39.573  36.100  38.988  1.00  0.00     0.060 A 
BRANCH  93  94
ATOM     94  S   UNL A   1      39.286  37.362  40.248  1.00  0.00     0.124 S 
ATOM     95  O   UNL A   1      40.646  37.809  40.529  1.00  0.00    -0.237 OA
ATOM     96  O   UNL A   1      38.436  38.319  39.547  1.00  0.00    -0.237 OA
ATOM     97  O   UNL A   1      38.632  36.624  41.324  1.00  0.00    -0.744 OA
ENDBRANCH  93  94
ENDBRANCH  61  86
ENDBRANCH  35  36
ENDBRANCH  28  30
ENDBRANCH  27  28
ENDBRANCH  26  27
ENDBRANCH  25  26
ENDBRANCH   1  25
TORSDOF 20
ENDMDL
