MODEL 1
REMARK VINA RESULT:     -12.0      0.000      0.000
REMARK SMILES CCOC(=O)c1c(NC(=O)c2ncccc2C(=O)OCCOCCOC(=O)c2ccc(-c3c4nc(c(-c5c(F)cc(S(=O)(=O)[O-])cc5F)c5ccc([nH]5)c(-c5c(F)cc(S(=O)(=O)[O-])cc5F)c5nc(c(-c6c(F)cc(S(=O)(=O)[O-])cc6F)c6ccc3[nH]6)C=C5)C=C4)cc2)sc2c1CC[C@H](C)C2
REMARK SMILES IDX 21 1 20 2 19 3 17 4 18 5 16 6 11 7 12 8 13 9 15 10 14 11
REMARK SMILES IDX 9 12 8 13 10 15 7 16 6 17 96 18 94 19 95 20 97 21 101 22
REMARK SMILES IDX 98 23 99 24 100 25 4 26 5 27 3 28 2 29 1 30 22 31 23 32
REMARK SMILES IDX 24 33 25 34 26 35 27 36 28 37 29 38 93 39 30 40 92 41 31 42
REMARK SMILES IDX 32 43 33 44 86 45 34 46 91 47 85 48 87 49 35 50 90 51 84 52
REMARK SMILES IDX 83 53 36 55 70 56 49 57 69 58 50 59 53 60 68 61 88 62 51 63
REMARK SMILES IDX 52 64 67 66 89 67 54 68 37 69 38 70 47 71 39 72 40 73 46 74
REMARK SMILES IDX 48 75 41 76 42 77 43 78 44 79 45 80 71 81 72 82 81 83 73 84
REMARK SMILES IDX 74 85 80 86 82 87 75 88 76 89 77 90 78 91 79 92 55 93 56 94
REMARK SMILES IDX 65 95 57 96 58 97 64 98 66 99 59 100 60 101 61 102 62 103
REMARK SMILES IDX 63 104
REMARK H PARENT 8 14 87 54 53 65
REMARK Flexibility Score: inf
ROOT
ATOM      1  C   UNL A   1      35.592  21.539  26.092  1.00  0.00     0.202 C 
ENDROOT
BRANCH   1   2
ATOM      2  C   UNL A   1      35.493  22.947  26.701  1.00  0.00     0.261 C 
BRANCH   2   3
ATOM      3  O   UNL A   1      34.199  23.579  26.726  1.00  0.00    -0.460 OA
BRANCH   3   4
ATOM      4  C   UNL A   1      33.996  24.483  25.731  1.00  0.00     0.340 C 
ATOM      5  O   UNL A   1      34.378  25.633  25.716  1.00  0.00    -0.246 OA
BRANCH   4   6
ATOM      6  C   UNL A   1      33.100  23.947  24.699  1.00  0.00     0.091 A 
ATOM      7  C   UNL A   1      31.743  23.732  24.914  1.00  0.00     0.142 A 
ATOM      8  N   UNL A   1      31.000  22.864  24.166  1.00  0.00    -0.250 NA
ATOM      9  C   UNL A   1      31.642  22.207  23.180  1.00  0.00     0.112 A 
ATOM     10  C   UNL A   1      33.691  23.355  23.576  1.00  0.00     0.020 A 
ATOM     11  C   UNL A   1      32.950  22.464  22.806  1.00  0.00     0.021 A 
BRANCH   7  12
ATOM     12  C   UNL A   1      30.998  24.268  26.066  1.00  0.00     0.275 C 
ATOM     13  N   UNL A   1      30.520  25.553  26.135  1.00  0.00    -0.311 N 
ATOM     14  H   UNL A   1      29.833  25.672  26.831  1.00  0.00     0.171 HD
ATOM     15  O   UNL A   1      30.738  23.505  27.001  1.00  0.00    -0.267 OA
BRANCH  13  16
ATOM     16  C   UNL A   1      30.787  26.707  25.445  1.00  0.00     0.110 A 
ATOM     17  C   UNL A   1      31.367  27.950  25.616  1.00  0.00     0.098 A 
ATOM     18  C   UNL A   1      30.831  28.857  24.616  1.00  0.00    -0.017 A 
ATOM     19  S   UNL A   1      30.063  26.550  23.888  1.00  0.00    -0.122 S 
ATOM     20  C   UNL A   1      30.007  28.228  23.700  1.00  0.00     0.011 A 
ATOM     21  C   UNL A   1      30.948  30.338  24.627  1.00  0.00     0.038 C 
ATOM     22  C   UNL A   1      29.042  28.878  22.743  1.00  0.00     0.050 C 
ATOM     23  C   UNL A   1      29.654  30.926  24.086  1.00  0.00     0.008 C 
ATOM     24  C   UNL A   1      29.178  30.405  22.726  1.00  0.00    -0.009 C 
ATOM     25  C   UNL A   1      27.830  31.069  22.364  1.00  0.00     0.008 C 
BRANCH  17  26
ATOM     26  C   UNL A   1      32.234  28.383  26.697  1.00  0.00     0.341 C 
ATOM     27  O   UNL A   1      31.948  28.203  27.883  1.00  0.00    -0.246 OA
BRANCH  26  28
ATOM     28  O   UNL A   1      33.319  29.055  26.243  1.00  0.00    -0.462 OA
BRANCH  28  29
ATOM     29  C   UNL A   1      33.912  30.081  27.058  1.00  0.00     0.230 C 
ATOM     30  C   UNL A   1      35.132  29.668  27.859  1.00  0.00     0.049 C 
ENDBRANCH  28  29
ENDBRANCH  26  28
ENDBRANCH  17  26
ENDBRANCH  13  16
ENDBRANCH   7  12
ENDBRANCH   4   6
ENDBRANCH   3   4
ENDBRANCH   2   3
ENDBRANCH   1   2
BRANCH   1  31
ATOM     31  O   UNL A   1      36.324  21.330  24.899  1.00  0.00    -0.374 OA
BRANCH  31  32
ATOM     32  C   UNL A   1      37.418  20.436  24.924  1.00  0.00     0.202 C 
BRANCH  32  33
ATOM     33  C   UNL A   1      38.761  20.858  25.514  1.00  0.00     0.261 C 
BRANCH  33  34
ATOM     34  O   UNL A   1      38.913  22.170  26.050  1.00  0.00    -0.460 OA
BRANCH  34  35
ATOM     35  C   UNL A   1      39.986  22.273  26.874  1.00  0.00     0.338 C 
ATOM     36  O   UNL A   1      40.358  21.413  27.656  1.00  0.00    -0.246 OA
BRANCH  35  37
ATOM     37  C   UNL A   1      40.439  23.680  26.936  1.00  0.00     0.060 A 
ATOM     38  C   UNL A   1      41.553  23.911  27.750  1.00  0.00     0.016 A 
ATOM     39  C   UNL A   1      39.582  24.728  26.577  1.00  0.00     0.016 A 
ATOM     40  C   UNL A   1      41.661  25.116  28.424  1.00  0.00     0.010 A 
ATOM     41  C   UNL A   1      39.691  25.929  27.264  1.00  0.00     0.010 A 
ATOM     42  C   UNL A   1      40.663  26.081  28.267  1.00  0.00    -0.014 A 
BRANCH  42  43
ATOM     43  C   UNL A   1      40.800  27.362  28.966  1.00  0.00     0.031 A 
ATOM     44  C   UNL A   1      41.961  28.078  28.396  1.00  0.00     0.074 A 
ATOM     45  C   UNL A   1      40.030  27.914  29.934  1.00  0.00     0.049 A 
ATOM     46  N   UNL A   1      43.116  28.210  28.957  1.00  0.00    -0.248 NA
ATOM     47  C   UNL A   1      41.940  28.415  26.962  1.00  0.00     0.031 C 
ATOM     48  C   UNL A   1      38.812  27.438  30.573  1.00  0.00     0.029 A 
ATOM     49  N   UNL A   1      40.177  29.129  30.545  1.00  0.00    -0.354 N 
ATOM     50  C   UNL A   1      43.892  28.864  28.017  1.00  0.00     0.074 A 
ATOM     51  C   UNL A   1      43.220  28.722  26.757  1.00  0.00     0.031 C 
ATOM     52  C   UNL A   1      38.172  28.421  31.235  1.00  0.00     0.029 A 
ATOM     53  C   UNL A   1      39.053  29.560  31.256  1.00  0.00     0.049 A 
ATOM     54  H   UNL A   1      41.006  29.656  30.490  1.00  0.00     0.167 HD
ATOM     55  C   UNL A   1      44.858  29.736  28.402  1.00  0.00     0.037 A 
ATOM     56  C   UNL A   1      38.858  30.723  31.924  1.00  0.00     0.037 A 
ATOM     57  C   UNL A   1      45.265  29.494  29.765  1.00  0.00     0.049 A 
ATOM     58  C   UNL A   1      40.208  31.253  32.225  1.00  0.00     0.074 A 
ATOM     59  C   UNL A   1      45.824  28.413  30.421  1.00  0.00     0.029 A 
ATOM     60  N   UNL A   1      44.737  30.296  30.748  1.00  0.00    -0.354 N 
ATOM     61  N   UNL A   1      41.031  30.665  33.054  1.00  0.00    -0.248 NA
ATOM     62  C   UNL A   1      40.832  32.093  31.215  1.00  0.00     0.031 C 
ATOM     63  C   UNL A   1      45.204  28.390  31.704  1.00  0.00     0.029 A 
ATOM     64  C   UNL A   1      44.350  29.492  31.793  1.00  0.00     0.049 A 
ATOM     65  H   UNL A   1      44.651  31.275  30.710  1.00  0.00     0.167 HD
ATOM     66  C   UNL A   1      42.268  30.711  32.425  1.00  0.00     0.074 A 
ATOM     67  C   UNL A   1      42.089  31.654  31.319  1.00  0.00     0.031 C 
ATOM     68  C   UNL A   1      43.234  29.778  32.674  1.00  0.00     0.037 A 
BRANCH  55  69
ATOM     69  C   UNL A   1      45.116  31.022  27.663  1.00  0.00     0.058 A 
ATOM     70  C   UNL A   1      46.348  31.202  27.013  1.00  0.00     0.135 A 
ATOM     71  C   UNL A   1      44.310  32.184  27.777  1.00  0.00     0.135 A 
ATOM     72  F   UNL A   1      47.196  30.173  26.862  1.00  0.00    -0.206 F 
ATOM     73  C   UNL A   1      46.777  32.453  26.570  1.00  0.00     0.059 A 
ATOM     74  C   UNL A   1      44.691  33.423  27.288  1.00  0.00     0.059 A 
ATOM     75  F   UNL A   1      43.158  32.209  28.455  1.00  0.00    -0.206 F 
ATOM     76  C   UNL A   1      45.944  33.559  26.726  1.00  0.00     0.060 A 
BRANCH  76  77
ATOM     77  S   UNL A   1      46.534  35.192  26.264  1.00  0.00     0.124 S 
ATOM     78  O   UNL A   1      47.517  35.450  27.310  1.00  0.00    -0.237 OA
ATOM     79  O   UNL A   1      47.064  34.952  24.927  1.00  0.00    -0.237 OA
ATOM     80  O   UNL A   1      45.327  36.012  26.316  1.00  0.00    -0.744 OA
ENDBRANCH  76  77
ENDBRANCH  55  69
BRANCH  56  81
ATOM     81  C   UNL A   1      37.602  31.524  31.942  1.00  0.00     0.058 A 
ATOM     82  C   UNL A   1      36.940  31.843  33.141  1.00  0.00     0.135 A 
ATOM     83  C   UNL A   1      37.158  32.213  30.792  1.00  0.00     0.135 A 
ATOM     84  F   UNL A   1      37.301  31.246  34.287  1.00  0.00    -0.206 F 
ATOM     85  C   UNL A   1      35.937  32.821  33.205  1.00  0.00     0.059 A 
ATOM     86  C   UNL A   1      36.158  33.184  30.829  1.00  0.00     0.059 A 
ATOM     87  F   UNL A   1      37.746  32.023  29.600  1.00  0.00    -0.206 F 
ATOM     88  C   UNL A   1      35.570  33.504  32.045  1.00  0.00     0.060 A 
BRANCH  88  89
ATOM     89  S   UNL A   1      34.413  34.893  32.148  1.00  0.00     0.124 S 
ATOM     90  O   UNL A   1      34.195  35.211  30.742  1.00  0.00    -0.237 OA
ATOM     91  O   UNL A   1      33.282  34.299  32.851  1.00  0.00    -0.237 OA
ATOM     92  O   UNL A   1      35.157  35.897  32.905  1.00  0.00    -0.744 OA
ENDBRANCH  88  89
ENDBRANCH  56  81
BRANCH  68  93
ATOM     93  C   UNL A   1      43.038  28.831  33.838  1.00  0.00     0.058 A 
ATOM     94  C   UNL A   1      43.332  29.144  35.180  1.00  0.00     0.135 A 
ATOM     95  C   UNL A   1      42.353  27.629  33.603  1.00  0.00     0.135 A 
ATOM     96  F   UNL A   1      43.904  30.313  35.504  1.00  0.00    -0.206 F 
ATOM     97  C   UNL A   1      42.979  28.291  36.231  1.00  0.00     0.059 A 
ATOM     98  C   UNL A   1      41.968  26.779  34.636  1.00  0.00     0.059 A 
ATOM     99  F   UNL A   1      41.990  27.300  32.352  1.00  0.00    -0.206 F 
ATOM    100  C   UNL A   1      42.290  27.111  35.950  1.00  0.00     0.060 A 
BRANCH 100 101
ATOM    101  S   UNL A   1      41.749  26.051  37.312  1.00  0.00     0.124 S 
ATOM    102  O   UNL A   1      40.468  26.648  37.674  1.00  0.00    -0.237 OA
ATOM    103  O   UNL A   1      41.681  24.736  36.684  1.00  0.00    -0.237 OA
ATOM    104  O   UNL A   1      42.811  26.204  38.305  1.00  0.00    -0.744 OA
ENDBRANCH 100 101
ENDBRANCH  68  93
ENDBRANCH  42  43
ENDBRANCH  35  37
ENDBRANCH  34  35
ENDBRANCH  33  34
ENDBRANCH  32  33
ENDBRANCH  31  32
ENDBRANCH   1  31
TORSDOF 22
ENDMDL
MODEL 2
REMARK VINA RESULT:     -11.1      1.825      2.883
REMARK SMILES CCOC(=O)c1c(NC(=O)c2ncccc2C(=O)OCCOCCOC(=O)c2ccc(-c3c4nc(c(-c5c(F)cc(S(=O)(=O)[O-])cc5F)c5ccc([nH]5)c(-c5c(F)cc(S(=O)(=O)[O-])cc5F)c5nc(c(-c6c(F)cc(S(=O)(=O)[O-])cc6F)c6ccc3[nH]6)C=C5)C=C4)cc2)sc2c1CC[C@H](C)C2
REMARK SMILES IDX 21 1 20 2 19 3 17 4 18 5 16 6 11 7 12 8 13 9 15 10 14 11
REMARK SMILES IDX 9 12 8 13 10 15 7 16 6 17 96 18 94 19 95 20 97 21 101 22
REMARK SMILES IDX 98 23 99 24 100 25 4 26 5 27 3 28 2 29 1 30 22 31 23 32
REMARK SMILES IDX 24 33 25 34 26 35 27 36 28 37 29 38 93 39 30 40 92 41 31 42
REMARK SMILES IDX 32 43 33 44 86 45 34 46 91 47 85 48 87 49 35 50 90 51 84 52
REMARK SMILES IDX 83 53 36 55 70 56 49 57 69 58 50 59 53 60 68 61 88 62 51 63
REMARK SMILES IDX 52 64 67 66 89 67 54 68 37 69 38 70 47 71 39 72 40 73 46 74
REMARK SMILES IDX 48 75 41 76 42 77 43 78 44 79 45 80 71 81 72 82 81 83 73 84
REMARK SMILES IDX 74 85 80 86 82 87 75 88 76 89 77 90 78 91 79 92 55 93 56 94
REMARK SMILES IDX 65 95 57 96 58 97 64 98 66 99 59 100 60 101 61 102 62 103
REMARK SMILES IDX 63 104
REMARK H PARENT 8 14 87 54 53 65
REMARK Flexibility Score: inf
ROOT
ATOM      1  C   UNL A   1      37.901  21.836  25.385  1.00  0.00     0.202 C 
ENDROOT
BRANCH   1   2
ATOM      2  C   UNL A   1      37.409  23.291  25.318  1.00  0.00     0.261 C 
BRANCH   2   3
ATOM      3  O   UNL A   1      36.038  23.521  24.944  1.00  0.00    -0.460 OA
BRANCH   3   4
ATOM      4  C   UNL A   1      35.663  22.912  23.788  1.00  0.00     0.340 C 
ATOM      5  O   UNL A   1      36.227  22.992  22.718  1.00  0.00    -0.246 OA
BRANCH   4   6
ATOM      6  C   UNL A   1      34.364  22.243  23.936  1.00  0.00     0.091 A 
ATOM      7  C   UNL A   1      33.163  22.833  23.561  1.00  0.00     0.142 A 
ATOM      8  N   UNL A   1      31.955  22.445  24.065  1.00  0.00    -0.250 NA
ATOM      9  C   UNL A   1      31.964  21.438  24.961  1.00  0.00     0.112 A 
ATOM     10  C   UNL A   1      34.314  21.109  24.756  1.00  0.00     0.020 A 
ATOM     11  C   UNL A   1      33.092  20.703  25.282  1.00  0.00     0.021 A 
BRANCH   7  12
ATOM     12  C   UNL A   1      33.065  24.044  22.728  1.00  0.00     0.275 C 
ATOM     13  N   UNL A   1      33.054  25.320  23.235  1.00  0.00    -0.311 N 
ATOM     14  H   UNL A   1      33.250  26.006  22.556  1.00  0.00     0.171 HD
ATOM     15  O   UNL A   1      33.050  23.911  21.502  1.00  0.00    -0.267 OA
BRANCH  13  16
ATOM     16  C   UNL A   1      32.832  25.848  24.481  1.00  0.00     0.110 A 
ATOM     17  C   UNL A   1      31.807  26.095  25.375  1.00  0.00     0.098 A 
ATOM     18  C   UNL A   1      32.220  27.154  26.279  1.00  0.00    -0.017 A 
ATOM     19  S   UNL A   1      34.332  26.488  25.039  1.00  0.00    -0.122 S 
ATOM     20  C   UNL A   1      33.537  27.536  26.099  1.00  0.00     0.011 A 
ATOM     21  C   UNL A   1      31.331  27.928  27.183  1.00  0.00     0.038 C 
ATOM     22  C   UNL A   1      34.204  28.785  26.614  1.00  0.00     0.050 C 
ATOM     23  C   UNL A   1      31.826  29.366  27.228  1.00  0.00     0.008 C 
ATOM     24  C   UNL A   1      33.304  29.573  27.573  1.00  0.00    -0.009 C 
ATOM     25  C   UNL A   1      33.638  31.081  27.519  1.00  0.00     0.008 C 
BRANCH  17  26
ATOM     26  C   UNL A   1      30.462  25.547  25.355  1.00  0.00     0.341 C 
ATOM     27  O   UNL A   1      29.969  24.975  26.330  1.00  0.00    -0.246 OA
BRANCH  26  28
ATOM     28  O   UNL A   1      29.877  25.675  24.139  1.00  0.00    -0.462 OA
BRANCH  28  29
ATOM     29  C   UNL A   1      29.252  26.920  23.779  1.00  0.00     0.230 C 
ATOM     30  C   UNL A   1      30.001  27.770  22.771  1.00  0.00     0.049 C 
ENDBRANCH  28  29
ENDBRANCH  26  28
ENDBRANCH  17  26
ENDBRANCH  13  16
ENDBRANCH   7  12
ENDBRANCH   4   6
ENDBRANCH   3   4
ENDBRANCH   2   3
ENDBRANCH   1   2
BRANCH   1  31
ATOM     31  O   UNL A   1      38.906  21.467  26.310  1.00  0.00    -0.374 OA
BRANCH  31  32
ATOM     32  C   UNL A   1      40.042  22.297  26.443  1.00  0.00     0.202 C 
BRANCH  32  33
ATOM     33  C   UNL A   1      41.448  21.741  26.231  1.00  0.00     0.261 C 
BRANCH  33  34
ATOM     34  O   UNL A   1      42.578  22.580  26.459  1.00  0.00    -0.460 OA
BRANCH  34  35
ATOM     35  C   UNL A   1      42.933  23.282  25.353  1.00  0.00     0.338 C 
ATOM     36  O   UNL A   1      43.356  22.796  24.317  1.00  0.00    -0.246 OA
BRANCH  35  37
ATOM     37  C   UNL A   1      43.054  24.718  25.688  1.00  0.00     0.060 A 
ATOM     38  C   UNL A   1      44.044  25.028  26.628  1.00  0.00     0.016 A 
ATOM     39  C   UNL A   1      42.005  25.608  25.430  1.00  0.00     0.016 A 
ATOM     40  C   UNL A   1      43.842  26.086  27.499  1.00  0.00     0.010 A 
ATOM     41  C   UNL A   1      41.805  26.660  26.314  1.00  0.00     0.010 A 
ATOM     42  C   UNL A   1      42.664  26.830  27.413  1.00  0.00    -0.014 A 
BRANCH  42  43
ATOM     43  C   UNL A   1      42.473  27.963  28.323  1.00  0.00     0.031 A 
ATOM     44  C   UNL A   1      43.590  28.909  28.124  1.00  0.00     0.074 A 
ATOM     45  C   UNL A   1      41.466  28.224  29.190  1.00  0.00     0.049 A 
ATOM     46  N   UNL A   1      44.592  29.072  28.923  1.00  0.00    -0.248 NA
ATOM     47  C   UNL A   1      43.774  29.506  26.790  1.00  0.00     0.031 C 
ATOM     48  C   UNL A   1      40.242  27.492  29.483  1.00  0.00     0.029 A 
ATOM     49  N   UNL A   1      41.311  29.310  30.007  1.00  0.00    -0.354 N 
ATOM     50  C   UNL A   1      45.413  29.981  28.279  1.00  0.00     0.074 A 
ATOM     51  C   UNL A   1      45.006  29.999  26.902  1.00  0.00     0.031 C 
ATOM     52  C   UNL A   1      39.349  28.246  30.151  1.00  0.00     0.029 A 
ATOM     53  C   UNL A   1      40.025  29.460  30.535  1.00  0.00     0.049 A 
ATOM     54  H   UNL A   1      42.044  29.935  30.208  1.00  0.00     0.167 HD
ATOM     55  C   UNL A   1      46.146  30.875  28.989  1.00  0.00     0.037 A 
ATOM     56  C   UNL A   1      39.535  30.442  31.329  1.00  0.00     0.037 A 
ATOM     57  C   UNL A   1      46.336  30.430  30.348  1.00  0.00     0.049 A 
ATOM     58  C   UNL A   1      40.711  31.066  31.980  1.00  0.00     0.074 A 
ATOM     59  C   UNL A   1      46.930  29.320  30.920  1.00  0.00     0.029 A 
ATOM     60  N   UNL A   1      45.523  30.961  31.320  1.00  0.00    -0.354 N 
ATOM     61  N   UNL A   1      41.453  30.435  32.853  1.00  0.00    -0.248 NA
ATOM     62  C   UNL A   1      41.366  32.150  31.268  1.00  0.00     0.031 C 
ATOM     63  C   UNL A   1      46.102  28.981  32.029  1.00  0.00     0.029 A 
ATOM     64  C   UNL A   1      45.085  29.934  32.120  1.00  0.00     0.049 A 
ATOM     65  H   UNL A   1      45.294  31.913  31.425  1.00  0.00     0.167 HD
ATOM     66  C   UNL A   1      42.760  30.750  32.504  1.00  0.00     0.074 A 
ATOM     67  C   UNL A   1      42.637  31.856  31.553  1.00  0.00     0.031 C 
ATOM     68  C   UNL A   1      43.800  29.910  32.790  1.00  0.00     0.037 A 
BRANCH  55  69
ATOM     69  C   UNL A   1      46.329  32.299  28.536  1.00  0.00     0.058 A 
ATOM     70  C   UNL A   1      47.629  32.818  28.417  1.00  0.00     0.135 A 
ATOM     71  C   UNL A   1      45.282  33.252  28.458  1.00  0.00     0.135 A 
ATOM     72  F   UNL A   1      48.696  32.007  28.490  1.00  0.00    -0.206 F 
ATOM     73  C   UNL A   1      47.873  34.185  28.298  1.00  0.00     0.059 A 
ATOM     74  C   UNL A   1      45.501  34.608  28.277  1.00  0.00     0.059 A 
ATOM     75  F   UNL A   1      43.996  32.942  28.654  1.00  0.00    -0.206 F 
ATOM     76  C   UNL A   1      46.800  35.072  28.243  1.00  0.00     0.060 A 
BRANCH  76  77
ATOM     77  S   UNL A   1      47.107  36.843  28.206  1.00  0.00     0.124 S 
ATOM     78  O   UNL A   1      46.832  37.153  26.808  1.00  0.00    -0.237 OA
ATOM     79  O   UNL A   1      46.138  37.335  29.177  1.00  0.00    -0.237 OA
ATOM     80  O   UNL A   1      48.505  36.950  28.613  1.00  0.00    -0.744 OA
ENDBRANCH  76  77
ENDBRANCH  55  69
BRANCH  56  81
ATOM     81  C   UNL A   1      38.186  31.067  31.221  1.00  0.00     0.058 A 
ATOM     82  C   UNL A   1      37.146  30.749  32.111  1.00  0.00     0.135 A 
ATOM     83  C   UNL A   1      37.965  32.187  30.390  1.00  0.00     0.135 A 
ATOM     84  F   UNL A   1      37.272  29.707  32.947  1.00  0.00    -0.206 F 
ATOM     85  C   UNL A   1      35.980  31.523  32.207  1.00  0.00     0.059 A 
ATOM     86  C   UNL A   1      36.812  32.968  30.462  1.00  0.00     0.059 A 
ATOM     87  F   UNL A   1      38.907  32.612  29.533  1.00  0.00    -0.206 F 
ATOM     88  C   UNL A   1      35.834  32.647  31.393  1.00  0.00     0.060 A 
BRANCH  88  89
ATOM     89  S   UNL A   1      34.424  33.756  31.638  1.00  0.00     0.124 S 
ATOM     90  O   UNL A   1      33.851  33.817  30.299  1.00  0.00    -0.237 OA
ATOM     91  O   UNL A   1      33.639  33.040  32.637  1.00  0.00    -0.237 OA
ATOM     92  O   UNL A   1      35.044  34.993  32.107  1.00  0.00    -0.744 OA
ENDBRANCH  88  89
ENDBRANCH  56  81
BRANCH  68  93
ATOM     93  C   UNL A   1      43.549  28.744  33.721  1.00  0.00     0.058 A 
ATOM     94  C   UNL A   1      43.587  28.821  35.127  1.00  0.00     0.135 A 
ATOM     95  C   UNL A   1      43.070  27.547  33.165  1.00  0.00     0.135 A 
ATOM     96  F   UNL A   1      43.944  29.957  35.743  1.00  0.00    -0.206 F 
ATOM     97  C   UNL A   1      43.187  27.753  35.937  1.00  0.00     0.059 A 
ATOM     98  C   UNL A   1      42.642  26.481  33.952  1.00  0.00     0.059 A 
ATOM     99  F   UNL A   1      42.953  27.429  31.832  1.00  0.00    -0.206 F 
ATOM    100  C   UNL A   1      42.710  26.586  35.339  1.00  0.00     0.060 A 
BRANCH 100 101
ATOM    101  S   UNL A   1      42.105  25.237  36.381  1.00  0.00     0.124 S 
ATOM    102  O   UNL A   1      43.155  25.134  37.389  1.00  0.00    -0.237 OA
ATOM    103  O   UNL A   1      40.822  25.751  36.853  1.00  0.00    -0.237 OA
ATOM    104  O   UNL A   1      42.012  24.108  35.459  1.00  0.00    -0.744 OA
ENDBRANCH 100 101
ENDBRANCH  68  93
ENDBRANCH  42  43
ENDBRANCH  35  37
ENDBRANCH  34  35
ENDBRANCH  33  34
ENDBRANCH  32  33
ENDBRANCH  31  32
ENDBRANCH   1  31
TORSDOF 22
ENDMDL
MODEL 3
REMARK VINA RESULT:     -11.1      1.521      3.402
REMARK SMILES CCOC(=O)c1c(NC(=O)c2ncccc2C(=O)OCCOCCOC(=O)c2ccc(-c3c4nc(c(-c5c(F)cc(S(=O)(=O)[O-])cc5F)c5ccc([nH]5)c(-c5c(F)cc(S(=O)(=O)[O-])cc5F)c5nc(c(-c6c(F)cc(S(=O)(=O)[O-])cc6F)c6ccc3[nH]6)C=C5)C=C4)cc2)sc2c1CC[C@H](C)C2
REMARK SMILES IDX 21 1 20 2 19 3 17 4 18 5 16 6 11 7 12 8 13 9 15 10 14 11
REMARK SMILES IDX 9 12 8 13 10 15 7 16 6 17 96 18 94 19 95 20 97 21 101 22
REMARK SMILES IDX 98 23 99 24 100 25 4 26 5 27 3 28 2 29 1 30 22 31 23 32
REMARK SMILES IDX 24 33 25 34 26 35 27 36 28 37 29 38 93 39 30 40 92 41 31 42
REMARK SMILES IDX 32 43 33 44 86 45 34 46 91 47 85 48 87 49 35 50 90 51 84 52
REMARK SMILES IDX 83 53 36 55 70 56 49 57 69 58 50 59 53 60 68 61 88 62 51 63
REMARK SMILES IDX 52 64 67 66 89 67 54 68 37 69 38 70 47 71 39 72 40 73 46 74
REMARK SMILES IDX 48 75 41 76 42 77 43 78 44 79 45 80 71 81 72 82 81 83 73 84
REMARK SMILES IDX 74 85 80 86 82 87 75 88 76 89 77 90 78 91 79 92 55 93 56 94
REMARK SMILES IDX 65 95 57 96 58 97 64 98 66 99 59 100 60 101 61 102 62 103
REMARK SMILES IDX 63 104
REMARK H PARENT 8 14 87 54 53 65
REMARK Flexibility Score: inf
ROOT
ATOM      1  C   UNL A   1      35.758  22.771  26.464  1.00  0.00     0.202 C 
ENDROOT
BRANCH   1   2
ATOM      2  C   UNL A   1      34.471  23.480  26.014  1.00  0.00     0.261 C 
BRANCH   2   3
ATOM      3  O   UNL A   1      34.418  24.914  26.131  1.00  0.00    -0.460 OA
BRANCH   3   4
ATOM      4  C   UNL A   1      34.395  25.573  24.941  1.00  0.00     0.340 C 
ATOM      5  O   UNL A   1      34.995  25.263  23.935  1.00  0.00    -0.246 OA
BRANCH   4   6
ATOM      6  C   UNL A   1      33.657  26.838  25.049  1.00  0.00     0.091 A 
ATOM      7  C   UNL A   1      33.339  27.624  23.947  1.00  0.00     0.142 A 
ATOM      8  N   UNL A   1      33.059  28.957  24.041  1.00  0.00    -0.250 NA
ATOM      9  C   UNL A   1      33.095  29.502  25.273  1.00  0.00     0.112 A 
ATOM     10  C   UNL A   1      33.541  27.410  26.322  1.00  0.00     0.020 A 
ATOM     11  C   UNL A   1      33.261  28.768  26.435  1.00  0.00     0.021 A 
BRANCH   7  12
ATOM     12  C   UNL A   1      33.442  27.164  22.551  1.00  0.00     0.275 C 
ATOM     13  N   UNL A   1      32.734  26.102  22.044  1.00  0.00    -0.311 N 
ATOM     14  H   UNL A   1      32.711  26.090  21.060  1.00  0.00     0.171 HD
ATOM     15  O   UNL A   1      34.161  27.800  21.777  1.00  0.00    -0.267 OA
BRANCH  13  16
ATOM     16  C   UNL A   1      32.049  25.057  22.608  1.00  0.00     0.110 A 
ATOM     17  C   UNL A   1      31.089  24.795  23.567  1.00  0.00     0.098 A 
ATOM     18  C   UNL A   1      31.225  23.416  24.000  1.00  0.00    -0.017 A 
ATOM     19  S   UNL A   1      32.696  23.605  21.941  1.00  0.00    -0.122 S 
ATOM     20  C   UNL A   1      32.164  22.709  23.270  1.00  0.00     0.011 A 
ATOM     21  C   UNL A   1      30.609  22.815  25.211  1.00  0.00     0.038 C 
ATOM     22  C   UNL A   1      32.793  21.387  23.627  1.00  0.00     0.050 C 
ATOM     23  C   UNL A   1      31.591  21.817  25.806  1.00  0.00     0.008 C 
ATOM     24  C   UNL A   1      32.141  20.746  24.858  1.00  0.00    -0.009 C 
ATOM     25  C   UNL A   1      33.157  19.862  25.615  1.00  0.00     0.008 C 
BRANCH  17  26
ATOM     26  C   UNL A   1      30.187  25.741  24.200  1.00  0.00     0.341 C 
ATOM     27  O   UNL A   1      30.247  26.006  25.403  1.00  0.00    -0.246 OA
BRANCH  26  28
ATOM     28  O   UNL A   1      29.256  26.213  23.336  1.00  0.00    -0.462 OA
BRANCH  28  29
ATOM     29  C   UNL A   1      28.080  26.867  23.846  1.00  0.00     0.230 C 
ATOM     30  C   UNL A   1      27.782  28.238  23.269  1.00  0.00     0.049 C 
ENDBRANCH  28  29
ENDBRANCH  26  28
ENDBRANCH  17  26
ENDBRANCH  13  16
ENDBRANCH   7  12
ENDBRANCH   4   6
ENDBRANCH   3   4
ENDBRANCH   2   3
ENDBRANCH   1   2
BRANCH   1  31
ATOM     31  O   UNL A   1      36.327  21.752  25.663  1.00  0.00    -0.374 OA
BRANCH  31  32
ATOM     32  C   UNL A   1      37.587  21.984  25.066  1.00  0.00     0.202 C 
BRANCH  32  33
ATOM     33  C   UNL A   1      38.877  21.609  25.791  1.00  0.00     0.261 C 
BRANCH  33  34
ATOM     34  O   UNL A   1      39.422  22.500  26.761  1.00  0.00    -0.460 OA
BRANCH  34  35
ATOM     35  C   UNL A   1      40.744  22.736  26.563  1.00  0.00     0.338 C 
ATOM     36  O   UNL A   1      41.618  21.884  26.558  1.00  0.00    -0.246 OA
BRANCH  35  37
ATOM     37  C   UNL A   1      41.019  24.185  26.688  1.00  0.00     0.060 A 
ATOM     38  C   UNL A   1      42.133  24.513  27.469  1.00  0.00     0.016 A 
ATOM     39  C   UNL A   1      40.023  25.132  26.423  1.00  0.00     0.016 A 
ATOM     40  C   UNL A   1      42.120  25.685  28.206  1.00  0.00     0.010 A 
ATOM     41  C   UNL A   1      40.013  26.300  27.173  1.00  0.00     0.010 A 
ATOM     42  C   UNL A   1      41.004  26.522  28.144  1.00  0.00    -0.014 A 
BRANCH  42  43
ATOM     43  C   UNL A   1      41.012  27.772  28.908  1.00  0.00     0.031 A 
ATOM     44  C   UNL A   1      42.137  28.601  28.428  1.00  0.00     0.074 A 
ATOM     45  C   UNL A   1      40.160  28.215  29.864  1.00  0.00     0.049 A 
ATOM     46  N   UNL A   1      43.254  28.790  29.048  1.00  0.00    -0.248 NA
ATOM     47  C   UNL A   1      42.153  29.009  27.013  1.00  0.00     0.031 C 
ATOM     48  C   UNL A   1      38.956  27.618  30.423  1.00  0.00     0.029 A 
ATOM     49  N   UNL A   1      40.188  29.405  30.539  1.00  0.00    -0.354 N 
ATOM     50  C   UNL A   1      44.018  29.547  28.178  1.00  0.00     0.074 A 
ATOM     51  C   UNL A   1      43.413  29.420  26.882  1.00  0.00     0.031 C 
ATOM     52  C   UNL A   1      38.215  28.515  31.100  1.00  0.00     0.029 A 
ATOM     53  C   UNL A   1      39.005  29.715  31.216  1.00  0.00     0.049 A 
ATOM     54  H   UNL A   1      40.976  29.995  30.548  1.00  0.00     0.167 HD
ATOM     55  C   UNL A   1      44.896  30.468  28.649  1.00  0.00     0.037 A 
ATOM     56  C   UNL A   1      38.692  30.824  31.930  1.00  0.00     0.037 A 
ATOM     57  C   UNL A   1      45.262  30.187  30.016  1.00  0.00     0.049 A 
ATOM     58  C   UNL A   1      39.984  31.437  32.318  1.00  0.00     0.074 A 
ATOM     59  C   UNL A   1      45.873  29.118  30.645  1.00  0.00     0.029 A 
ATOM     60  N   UNL A   1      44.632  30.896  31.011  1.00  0.00    -0.354 N 
ATOM     61  N   UNL A   1      40.813  30.870  33.156  1.00  0.00    -0.248 NA
ATOM     62  C   UNL A   1      40.584  32.371  31.380  1.00  0.00     0.031 C 
ATOM     63  C   UNL A   1      45.202  28.984  31.895  1.00  0.00     0.029 A 
ATOM     64  C   UNL A   1      44.263  30.013  31.997  1.00  0.00     0.049 A 
ATOM     65  H   UNL A   1      44.473  31.867  31.016  1.00  0.00     0.167 HD
ATOM     66  C   UNL A   1      42.068  31.041  32.588  1.00  0.00     0.074 A 
ATOM     67  C   UNL A   1      41.866  32.022  31.521  1.00  0.00     0.031 C 
ATOM     68  C   UNL A   1      43.092  30.170  32.837  1.00  0.00     0.037 A 
BRANCH  55  69
ATOM     69  C   UNL A   1      45.086  31.806  27.985  1.00  0.00     0.058 A 
ATOM     70  C   UNL A   1      46.324  32.104  27.391  1.00  0.00     0.135 A 
ATOM     71  C   UNL A   1      44.197  32.900  28.126  1.00  0.00     0.135 A 
ATOM     72  F   UNL A   1      47.248  31.146  27.220  1.00  0.00    -0.206 F 
ATOM     73  C   UNL A   1      46.677  33.403  27.027  1.00  0.00     0.059 A 
ATOM     74  C   UNL A   1      44.504  34.187  27.714  1.00  0.00     0.059 A 
ATOM     75  F   UNL A   1      43.023  32.810  28.762  1.00  0.00    -0.206 F 
ATOM     76  C   UNL A   1      45.763  34.439  27.207  1.00  0.00     0.060 A 
BRANCH  76  77
ATOM     77  S   UNL A   1      46.250  36.132  26.849  1.00  0.00     0.124 S 
ATOM     78  O   UNL A   1      47.000  36.475  28.051  1.00  0.00    -0.237 OA
ATOM     79  O   UNL A   1      47.030  35.967  25.628  1.00  0.00    -0.237 OA
ATOM     80  O   UNL A   1      44.973  36.820  26.683  1.00  0.00    -0.744 OA
ENDBRANCH  76  77
ENDBRANCH  55  69
BRANCH  56  81
ATOM     81  C   UNL A   1      37.379  31.527  31.927  1.00  0.00     0.058 A 
ATOM     82  C   UNL A   1      36.706  31.850  33.118  1.00  0.00     0.135 A 
ATOM     83  C   UNL A   1      36.873  32.126  30.752  1.00  0.00     0.135 A 
ATOM     84  F   UNL A   1      37.122  31.336  34.286  1.00  0.00    -0.206 F 
ATOM     85  C   UNL A   1      35.632  32.751  33.150  1.00  0.00     0.059 A 
ATOM     86  C   UNL A   1      35.803  33.019  30.758  1.00  0.00     0.059 A 
ATOM     87  F   UNL A   1      37.463  31.927  29.563  1.00  0.00    -0.206 F 
ATOM     88  C   UNL A   1      35.203  33.350  31.965  1.00  0.00     0.060 A 
BRANCH  88  89
ATOM     89  S   UNL A   1      33.944  34.650  32.020  1.00  0.00     0.124 S 
ATOM     90  O   UNL A   1      34.718  35.802  32.467  1.00  0.00    -0.237 OA
ATOM     91  O   UNL A   1      33.483  34.689  30.636  1.00  0.00    -0.237 OA
ATOM     92  O   UNL A   1      32.972  34.140  32.983  1.00  0.00    -0.744 OA
ENDBRANCH  88  89
ENDBRANCH  56  81
BRANCH  68  93
ATOM     93  C   UNL A   1      42.919  29.153  33.944  1.00  0.00     0.058 A 
ATOM     94  C   UNL A   1      43.056  29.436  35.318  1.00  0.00     0.135 A 
ATOM     95  C   UNL A   1      42.414  27.888  33.606  1.00  0.00     0.135 A 
ATOM     96  F   UNL A   1      43.444  30.650  35.733  1.00  0.00    -0.206 F 
ATOM     97  C   UNL A   1      42.725  28.498  36.302  1.00  0.00     0.059 A 
ATOM     98  C   UNL A   1      42.053  26.949  34.569  1.00  0.00     0.059 A 
ATOM     99  F   UNL A   1      42.203  27.575  32.316  1.00  0.00    -0.206 F 
ATOM    100  C   UNL A   1      42.218  27.257  35.918  1.00  0.00     0.060 A 
BRANCH 100 101
ATOM    101  S   UNL A   1      41.702  26.077  37.187  1.00  0.00     0.124 S 
ATOM    102  O   UNL A   1      40.480  26.690  37.697  1.00  0.00    -0.237 OA
ATOM    103  O   UNL A   1      41.522  24.846  36.423  1.00  0.00    -0.237 OA
ATOM    104  O   UNL A   1      42.828  26.062  38.118  1.00  0.00    -0.744 OA
ENDBRANCH 100 101
ENDBRANCH  68  93
ENDBRANCH  42  43
ENDBRANCH  35  37
ENDBRANCH  34  35
ENDBRANCH  33  34
ENDBRANCH  32  33
ENDBRANCH  31  32
ENDBRANCH   1  31
TORSDOF 22
ENDMDL
