MODEL 1
REMARK VINA RESULT:     -11.8      0.000      0.000
REMARK SMILES Cc1cccc(-c2ccc(Cl)c(C(=O)OCCOCCOC(=O)c3ccc(-c4c5nc(c(-c6c(F)cc(S(=O)(=O)[O-])cc6F)c6ccc([nH]6)c(-c6c(F)cc(S(=O)(=O)[O-])cc6F)c6nc(c(-c7c(F)cc(S(=O)(=O)[O-])cc7F)c7ccc4[nH]7)C=C6)C=C5)cc3)c2)c1
REMARK SMILES IDX 19 1 18 2 17 3 16 4 15 5 13 6 14 7 12 8 7 9 8 10 90 11 9 12
REMARK SMILES IDX 10 13 11 14 6 15 1 16 2 17 3 18 91 19 4 20 5 21 20 22 21 23
REMARK SMILES IDX 22 24 23 25 24 26 25 27 89 28 26 29 88 30 27 31 28 32 29 33
REMARK SMILES IDX 82 34 30 35 87 36 81 37 83 38 31 39 86 40 80 41 79 42 32 44
REMARK SMILES IDX 66 45 45 46 65 47 46 48 49 49 64 50 84 51 47 52 48 53 63 55
REMARK SMILES IDX 85 56 50 57 33 58 34 59 43 60 35 61 36 62 42 63 44 64 37 65
REMARK SMILES IDX 38 66 39 67 40 68 41 69 67 70 68 71 77 72 69 73 70 74 76 75
REMARK SMILES IDX 78 76 71 77 72 78 73 79 74 80 75 81 51 82 52 83 61 84 53 85
REMARK SMILES IDX 54 86 60 87 62 88 55 89 56 90 57 91 58 92 59 93
REMARK H PARENT 83 43 49 54
REMARK Flexibility Score: inf
ROOT
ATOM      1  C   UNL A   1      32.805  29.077  26.762  1.00  0.00     0.202 C 
ENDROOT
BRANCH   1   2
ATOM      2  O   UNL A   1      32.856  28.402  25.530  1.00  0.00    -0.374 OA
BRANCH   2   3
ATOM      3  C   UNL A   1      31.944  27.329  25.346  1.00  0.00     0.202 C 
BRANCH   3   4
ATOM      4  C   UNL A   1      31.740  27.220  23.864  1.00  0.00     0.261 C 
BRANCH   4   5
ATOM      5  O   UNL A   1      32.965  26.893  23.187  1.00  0.00    -0.460 OA
BRANCH   5   6
ATOM      6  C   UNL A   1      33.085  25.833  22.361  1.00  0.00     0.339 C 
ATOM      7  O   UNL A   1      33.278  25.821  21.168  1.00  0.00    -0.246 OA
BRANCH   6   8
ATOM      8  C   UNL A   1      33.152  24.617  23.199  1.00  0.00     0.079 A 
ATOM      9  C   UNL A   1      34.644  23.247  24.558  1.00  0.00    -0.017 A 
ATOM     10  C   UNL A   1      33.525  22.577  25.064  1.00  0.00     0.010 A 
ATOM     11  C   UNL A   1      34.447  24.276  23.635  1.00  0.00     0.026 A 
ATOM     12  C   UNL A   1      32.244  22.884  24.616  1.00  0.00     0.022 A 
ATOM     13  C   UNL A   1      32.049  23.883  23.663  1.00  0.00     0.055 A 
ATOM     14  Cl  UNL A   1      30.409  24.067  23.132  1.00  0.00    -0.083 Cl
BRANCH   9  15
ATOM     15  C   UNL A   1      35.984  22.824  24.947  1.00  0.00    -0.018 A 
ATOM     16  C   UNL A   1      37.938  19.558  24.986  1.00  0.00     0.044 C 
ATOM     17  C   UNL A   1      37.594  21.004  25.171  1.00  0.00    -0.051 A 
ATOM     18  C   UNL A   1      38.497  21.892  25.766  1.00  0.00     0.003 A 
ATOM     19  C   UNL A   1      36.346  21.481  24.765  1.00  0.00     0.012 A 
ATOM     20  C   UNL A   1      38.161  23.237  25.930  1.00  0.00     0.001 A 
ATOM     21  C   UNL A   1      36.912  23.704  25.517  1.00  0.00     0.009 A 
ENDBRANCH   9  15
ENDBRANCH   6   8
ENDBRANCH   5   6
ENDBRANCH   4   5
ENDBRANCH   3   4
ENDBRANCH   2   3
ENDBRANCH   1   2
BRANCH   1  22
ATOM     22  C   UNL A   1      33.190  30.554  26.641  1.00  0.00     0.261 C 
BRANCH  22  23
ATOM     23  O   UNL A   1      33.651  31.094  27.902  1.00  0.00    -0.460 OA
BRANCH  23  24
ATOM     24  C   UNL A   1      34.915  31.622  27.915  1.00  0.00     0.338 C 
ATOM     25  O   UNL A   1      35.165  32.782  27.643  1.00  0.00    -0.246 OA
BRANCH  24  26
ATOM     26  C   UNL A   1      35.912  30.585  28.318  1.00  0.00     0.060 A 
ATOM     27  C   UNL A   1      35.922  30.018  29.606  1.00  0.00     0.016 A 
ATOM     28  C   UNL A   1      36.983  30.365  27.463  1.00  0.00     0.016 A 
ATOM     29  C   UNL A   1      37.074  29.361  30.086  1.00  0.00     0.010 A 
ATOM     30  C   UNL A   1      38.153  29.872  27.992  1.00  0.00     0.010 A 
ATOM     31  C   UNL A   1      38.222  29.358  29.299  1.00  0.00    -0.014 A 
BRANCH  31  32
ATOM     32  C   UNL A   1      39.569  28.900  29.664  1.00  0.00     0.031 A 
ATOM     33  C   UNL A   1      39.998  27.573  29.141  1.00  0.00     0.074 A 
ATOM     34  C   UNL A   1      40.513  29.746  30.152  1.00  0.00     0.049 A 
ATOM     35  N   UNL A   1      41.069  26.963  29.511  1.00  0.00    -0.248 NA
ATOM     36  C   UNL A   1      39.221  26.775  28.188  1.00  0.00     0.031 C 
ATOM     37  C   UNL A   1      41.953  29.688  29.885  1.00  0.00     0.029 A 
ATOM     38  N   UNL A   1      40.392  30.893  30.937  1.00  0.00    -0.354 N 
ATOM     39  C   UNL A   1      41.305  25.943  28.615  1.00  0.00     0.074 A 
ATOM     40  C   UNL A   1      40.059  25.772  27.922  1.00  0.00     0.031 C 
ATOM     41  C   UNL A   1      42.598  30.594  30.640  1.00  0.00     0.029 A 
ATOM     42  C   UNL A   1      41.625  31.188  31.537  1.00  0.00     0.049 A 
ATOM     43  H   UNL A   1      39.566  31.415  31.054  1.00  0.00     0.167 HD
ATOM     44  C   UNL A   1      42.584  25.489  28.475  1.00  0.00     0.037 A 
ATOM     45  C   UNL A   1      41.735  31.359  32.884  1.00  0.00     0.037 A 
ATOM     46  C   UNL A   1      43.470  26.221  29.391  1.00  0.00     0.049 A 
ATOM     47  C   UNL A   1      42.575  30.243  33.433  1.00  0.00     0.074 A 
ATOM     48  C   UNL A   1      44.389  27.237  29.191  1.00  0.00     0.029 A 
ATOM     49  N   UNL A   1      43.257  26.145  30.764  1.00  0.00    -0.354 N 
ATOM     50  N   UNL A   1      42.747  29.132  32.774  1.00  0.00    -0.248 NA
ATOM     51  C   UNL A   1      43.342  30.275  34.673  1.00  0.00     0.031 C 
ATOM     52  C   UNL A   1      44.718  27.780  30.460  1.00  0.00     0.029 A 
ATOM     53  C   UNL A   1      44.012  27.088  31.431  1.00  0.00     0.049 A 
ATOM     54  H   UNL A   1      42.649  25.506  31.200  1.00  0.00     0.167 HD
ATOM     55  C   UNL A   1      43.639  28.340  33.421  1.00  0.00     0.074 A 
ATOM     56  C   UNL A   1      43.961  29.080  34.627  1.00  0.00     0.031 C 
ATOM     57  C   UNL A   1      44.023  27.146  32.888  1.00  0.00     0.037 A 
BRANCH  44  58
ATOM     58  C   UNL A   1      43.133  24.582  27.382  1.00  0.00     0.058 A 
ATOM     59  C   UNL A   1      42.887  23.189  27.440  1.00  0.00     0.135 A 
ATOM     60  C   UNL A   1      43.917  24.973  26.275  1.00  0.00     0.135 A 
ATOM     61  F   UNL A   1      42.112  22.650  28.391  1.00  0.00    -0.206 F 
ATOM     62  C   UNL A   1      43.414  22.271  26.528  1.00  0.00     0.059 A 
ATOM     63  C   UNL A   1      44.461  24.074  25.351  1.00  0.00     0.059 A 
ATOM     64  F   UNL A   1      44.184  26.249  25.996  1.00  0.00    -0.206 F 
ATOM     65  C   UNL A   1      44.208  22.721  25.487  1.00  0.00     0.060 A 
BRANCH  65  66
ATOM     66  S   UNL A   1      44.861  21.530  24.307  1.00  0.00     0.124 S 
ATOM     67  O   UNL A   1      44.113  20.324  24.648  1.00  0.00    -0.237 OA
ATOM     68  O   UNL A   1      44.524  22.149  23.030  1.00  0.00    -0.237 OA
ATOM     69  O   UNL A   1      46.287  21.485  24.620  1.00  0.00    -0.744 OA
ENDBRANCH  65  66
ENDBRANCH  44  58
BRANCH  45  70
ATOM     70  C   UNL A   1      40.520  32.005  33.473  1.00  0.00     0.058 A 
ATOM     71  C   UNL A   1      40.318  33.371  33.172  1.00  0.00     0.135 A 
ATOM     72  C   UNL A   1      39.375  31.244  33.761  1.00  0.00     0.135 A 
ATOM     73  F   UNL A   1      41.375  34.159  32.914  1.00  0.00    -0.206 F 
ATOM     74  C   UNL A   1      39.042  33.910  32.982  1.00  0.00     0.059 A 
ATOM     75  C   UNL A   1      38.089  31.758  33.550  1.00  0.00     0.059 A 
ATOM     76  F   UNL A   1      39.493  29.944  34.067  1.00  0.00    -0.206 F 
ATOM     77  C   UNL A   1      37.933  33.075  33.109  1.00  0.00     0.060 A 
BRANCH  77  78
ATOM     78  S   UNL A   1      36.324  33.635  32.462  1.00  0.00     0.124 S 
ATOM     79  O   UNL A   1      35.463  32.499  32.760  1.00  0.00    -0.237 OA
ATOM     80  O   UNL A   1      36.054  34.845  33.236  1.00  0.00    -0.237 OA
ATOM     81  O   UNL A   1      36.609  33.874  31.051  1.00  0.00    -0.744 OA
ENDBRANCH  77  78
ENDBRANCH  45  70
BRANCH  57  82
ATOM     82  C   UNL A   1      44.544  25.983  33.682  1.00  0.00     0.058 A 
ATOM     83  C   UNL A   1      43.722  25.156  34.466  1.00  0.00     0.135 A 
ATOM     84  C   UNL A   1      45.888  25.557  33.548  1.00  0.00     0.135 A 
ATOM     85  F   UNL A   1      42.400  25.353  34.557  1.00  0.00    -0.206 F 
ATOM     86  C   UNL A   1      44.220  24.061  35.162  1.00  0.00     0.059 A 
ATOM     87  C   UNL A   1      46.387  24.423  34.174  1.00  0.00     0.059 A 
ATOM     88  F   UNL A   1      46.773  26.216  32.787  1.00  0.00    -0.206 F 
ATOM     89  C   UNL A   1      45.557  23.710  35.020  1.00  0.00     0.060 A 
BRANCH  89  90
ATOM     90  S   UNL A   1      46.194  22.315  35.950  1.00  0.00     0.124 S 
ATOM     91  O   UNL A   1      46.075  22.808  37.319  1.00  0.00    -0.237 OA
ATOM     92  O   UNL A   1      45.273  21.243  35.582  1.00  0.00    -0.237 OA
ATOM     93  O   UNL A   1      47.555  22.163  35.448  1.00  0.00    -0.744 OA
ENDBRANCH  89  90
ENDBRANCH  57  82
ENDBRANCH  31  32
ENDBRANCH  24  26
ENDBRANCH  23  24
ENDBRANCH  22  23
ENDBRANCH   1  22
TORSDOF 18
ENDMDL
MODEL 2
REMARK VINA RESULT:     -11.7      3.452     10.129
REMARK SMILES Cc1cccc(-c2ccc(Cl)c(C(=O)OCCOCCOC(=O)c3ccc(-c4c5nc(c(-c6c(F)cc(S(=O)(=O)[O-])cc6F)c6ccc([nH]6)c(-c6c(F)cc(S(=O)(=O)[O-])cc6F)c6nc(c(-c7c(F)cc(S(=O)(=O)[O-])cc7F)c7ccc4[nH]7)C=C6)C=C5)cc3)c2)c1
REMARK SMILES IDX 19 1 18 2 17 3 16 4 15 5 13 6 14 7 12 8 7 9 8 10 90 11 9 12
REMARK SMILES IDX 10 13 11 14 6 15 1 16 2 17 3 18 91 19 4 20 5 21 20 22 21 23
REMARK SMILES IDX 22 24 23 25 24 26 25 27 89 28 26 29 88 30 27 31 28 32 29 33
REMARK SMILES IDX 82 34 30 35 87 36 81 37 83 38 31 39 86 40 80 41 79 42 32 44
REMARK SMILES IDX 66 45 45 46 65 47 46 48 49 49 64 50 84 51 47 52 48 53 63 55
REMARK SMILES IDX 85 56 50 57 33 58 34 59 43 60 35 61 36 62 42 63 44 64 37 65
REMARK SMILES IDX 38 66 39 67 40 68 41 69 67 70 68 71 77 72 69 73 70 74 76 75
REMARK SMILES IDX 78 76 71 77 72 78 73 79 74 80 75 81 51 82 52 83 61 84 53 85
REMARK SMILES IDX 54 86 60 87 62 88 55 89 56 90 57 91 58 92 59 93
REMARK H PARENT 83 43 49 54
REMARK Flexibility Score: inf
ROOT
ATOM      1  C   UNL A   1      36.996  23.000  24.992  1.00  0.00     0.202 C 
ENDROOT
BRANCH   1   2
ATOM      2  O   UNL A   1      35.663  22.786  25.384  1.00  0.00    -0.374 OA
BRANCH   2   3
ATOM      3  C   UNL A   1      35.385  21.582  26.084  1.00  0.00     0.202 C 
BRANCH   3   4
ATOM      4  C   UNL A   1      34.196  21.881  26.948  1.00  0.00     0.261 C 
BRANCH   4   5
ATOM      5  O   UNL A   1      33.826  23.268  26.872  1.00  0.00    -0.460 OA
BRANCH   5   6
ATOM      6  C   UNL A   1      32.630  23.682  26.405  1.00  0.00     0.339 C 
ATOM      7  O   UNL A   1      31.524  23.328  26.737  1.00  0.00    -0.246 OA
BRANCH   6   8
ATOM      8  C   UNL A   1      32.872  24.844  25.522  1.00  0.00     0.079 A 
ATOM      9  C   UNL A   1      33.325  27.241  25.509  1.00  0.00    -0.017 A 
ATOM     10  C   UNL A   1      33.654  27.144  24.152  1.00  0.00     0.010 A 
ATOM     11  C   UNL A   1      32.947  26.081  26.190  1.00  0.00     0.026 A 
ATOM     12  C   UNL A   1      33.552  25.932  23.476  1.00  0.00     0.022 A 
ATOM     13  C   UNL A   1      33.134  24.782  24.145  1.00  0.00     0.055 A 
ATOM     14  Cl  UNL A   1      32.955  23.384  23.138  1.00  0.00    -0.083 Cl
BRANCH   9  15
ATOM     15  C   UNL A   1      33.318  28.543  26.166  1.00  0.00    -0.018 A 
ATOM     16  C   UNL A   1      31.044  31.594  26.207  1.00  0.00     0.044 C 
ATOM     17  C   UNL A   1      32.202  30.687  26.493  1.00  0.00    -0.051 A 
ATOM     18  C   UNL A   1      33.269  31.107  27.294  1.00  0.00     0.003 A 
ATOM     19  C   UNL A   1      32.237  29.407  25.938  1.00  0.00     0.012 A 
ATOM     20  C   UNL A   1      34.340  30.248  27.551  1.00  0.00     0.001 A 
ATOM     21  C   UNL A   1      34.363  28.969  26.995  1.00  0.00     0.009 A 
ENDBRANCH   9  15
ENDBRANCH   6   8
ENDBRANCH   5   6
ENDBRANCH   4   5
ENDBRANCH   3   4
ENDBRANCH   2   3
ENDBRANCH   1   2
BRANCH   1  22
ATOM     22  C   UNL A   1      37.909  21.820  25.336  1.00  0.00     0.261 C 
BRANCH  22  23
ATOM     23  O   UNL A   1      38.641  22.048  26.563  1.00  0.00    -0.460 OA
BRANCH  23  24
ATOM     24  C   UNL A   1      39.887  22.604  26.438  1.00  0.00     0.338 C 
ATOM     25  O   UNL A   1      40.881  21.970  26.135  1.00  0.00    -0.246 OA
BRANCH  24  26
ATOM     26  C   UNL A   1      39.836  24.071  26.710  1.00  0.00     0.060 A 
ATOM     27  C   UNL A   1      40.524  25.004  25.911  1.00  0.00     0.016 A 
ATOM     28  C   UNL A   1      39.284  24.477  27.917  1.00  0.00     0.016 A 
ATOM     29  C   UNL A   1      40.787  26.301  26.398  1.00  0.00     0.010 A 
ATOM     30  C   UNL A   1      39.685  25.680  28.448  1.00  0.00     0.010 A 
ATOM     31  C   UNL A   1      40.432  26.612  27.707  1.00  0.00    -0.014 A 
BRANCH  31  32
ATOM     32  C   UNL A   1      40.764  27.820  28.472  1.00  0.00     0.031 A 
ATOM     33  C   UNL A   1      39.733  28.894  28.525  1.00  0.00     0.074 A 
ATOM     34  C   UNL A   1      41.785  27.850  29.367  1.00  0.00     0.049 A 
ATOM     35  N   UNL A   1      39.940  30.070  29.004  1.00  0.00    -0.248 NA
ATOM     36  C   UNL A   1      38.378  28.760  27.983  1.00  0.00     0.031 C 
ATOM     37  C   UNL A   1      41.809  28.588  30.634  1.00  0.00     0.029 A 
ATOM     38  N   UNL A   1      43.004  27.172  29.385  1.00  0.00    -0.354 N 
ATOM     39  C   UNL A   1      38.715  30.677  29.178  1.00  0.00     0.074 A 
ATOM     40  C   UNL A   1      37.806  29.895  28.388  1.00  0.00     0.031 C 
ATOM     41  C   UNL A   1      43.027  28.501  31.195  1.00  0.00     0.029 A 
ATOM     42  C   UNL A   1      43.895  27.820  30.252  1.00  0.00     0.049 A 
ATOM     43  H   UNL A   1      43.209  26.362  28.865  1.00  0.00     0.167 HD
ATOM     44  C   UNL A   1      38.613  31.673  30.105  1.00  0.00     0.037 A 
ATOM     45  C   UNL A   1      45.134  28.207  29.838  1.00  0.00     0.037 A 
ATOM     46  C   UNL A   1      39.923  31.905  30.726  1.00  0.00     0.049 A 
ATOM     47  C   UNL A   1      45.189  29.706  29.855  1.00  0.00     0.074 A 
ATOM     48  C   UNL A   1      40.449  31.557  31.959  1.00  0.00     0.029 A 
ATOM     49  N   UNL A   1      40.997  32.314  29.940  1.00  0.00    -0.354 N 
ATOM     50  N   UNL A   1      44.104  30.429  29.840  1.00  0.00    -0.248 NA
ATOM     51  C   UNL A   1      46.394  30.520  29.968  1.00  0.00     0.031 C 
ATOM     52  C   UNL A   1      41.854  31.751  31.902  1.00  0.00     0.029 A 
ATOM     53  C   UNL A   1      42.181  32.228  30.643  1.00  0.00     0.049 A 
ATOM     54  H   UNL A   1      40.921  32.622  29.008  1.00  0.00     0.167 HD
ATOM     55  C   UNL A   1      44.416  31.741  29.984  1.00  0.00     0.074 A 
ATOM     56  C   UNL A   1      45.867  31.758  30.025  1.00  0.00     0.031 C 
ATOM     57  C   UNL A   1      43.436  32.685  30.057  1.00  0.00     0.037 A 
BRANCH  44  58
ATOM     58  C   UNL A   1      37.339  32.296  30.662  1.00  0.00     0.058 A 
ATOM     59  C   UNL A   1      37.184  33.703  30.645  1.00  0.00     0.135 A 
ATOM     60  C   UNL A   1      36.251  31.613  31.245  1.00  0.00     0.135 A 
ATOM     61  F   UNL A   1      38.093  34.505  30.075  1.00  0.00    -0.206 F 
ATOM     62  C   UNL A   1      36.088  34.367  31.202  1.00  0.00     0.059 A 
ATOM     63  C   UNL A   1      35.146  32.254  31.816  1.00  0.00     0.059 A 
ATOM     64  F   UNL A   1      36.168  30.283  31.277  1.00  0.00    -0.206 F 
ATOM     65  C   UNL A   1      35.073  33.635  31.794  1.00  0.00     0.060 A 
BRANCH  65  66
ATOM     66  S   UNL A   1      33.658  34.503  32.487  1.00  0.00     0.124 S 
ATOM     67  O   UNL A   1      32.960  34.953  31.288  1.00  0.00    -0.237 OA
ATOM     68  O   UNL A   1      32.998  33.451  33.251  1.00  0.00    -0.237 OA
ATOM     69  O   UNL A   1      34.267  35.564  33.286  1.00  0.00    -0.744 OA
ENDBRANCH  65  66
ENDBRANCH  44  58
BRANCH  45  70
ATOM     70  C   UNL A   1      45.723  27.250  28.848  1.00  0.00     0.058 A 
ATOM     71  C   UNL A   1      46.036  25.957  29.325  1.00  0.00     0.135 A 
ATOM     72  C   UNL A   1      45.429  27.368  27.480  1.00  0.00     0.135 A 
ATOM     73  F   UNL A   1      46.352  25.783  30.619  1.00  0.00    -0.206 F 
ATOM     74  C   UNL A   1      45.884  24.815  28.532  1.00  0.00     0.059 A 
ATOM     75  C   UNL A   1      45.246  26.235  26.676  1.00  0.00     0.059 A 
ATOM     76  F   UNL A   1      45.135  28.567  26.957  1.00  0.00    -0.206 F 
ATOM     77  C   UNL A   1      45.423  24.961  27.225  1.00  0.00     0.060 A 
BRANCH  77  78
ATOM     78  S   UNL A   1      44.821  23.492  26.329  1.00  0.00     0.124 S 
ATOM     79  O   UNL A   1      44.254  24.081  25.124  1.00  0.00    -0.237 OA
ATOM     80  O   UNL A   1      46.033  22.701  26.128  1.00  0.00    -0.237 OA
ATOM     81  O   UNL A   1      43.870  22.909  27.269  1.00  0.00    -0.744 OA
ENDBRANCH  77  78
ENDBRANCH  45  70
BRANCH  57  82
ATOM     82  C   UNL A   1      43.611  34.130  29.690  1.00  0.00     0.058 A 
ATOM     83  C   UNL A   1      43.778  35.151  30.639  1.00  0.00     0.135 A 
ATOM     84  C   UNL A   1      43.781  34.520  28.338  1.00  0.00     0.135 A 
ATOM     85  F   UNL A   1      43.795  34.899  31.956  1.00  0.00    -0.206 F 
ATOM     86  C   UNL A   1      43.978  36.478  30.276  1.00  0.00     0.059 A 
ATOM     87  C   UNL A   1      44.056  35.826  27.958  1.00  0.00     0.059 A 
ATOM     88  F   UNL A   1      43.705  33.643  27.328  1.00  0.00    -0.206 F 
ATOM     89  C   UNL A   1      44.102  36.807  28.932  1.00  0.00     0.060 A 
BRANCH  89  90
ATOM     90  S   UNL A   1      44.326  38.527  28.474  1.00  0.00     0.124 S 
ATOM     91  O   UNL A   1      45.538  38.863  29.215  1.00  0.00    -0.237 OA
ATOM     92  O   UNL A   1      44.472  38.451  27.024  1.00  0.00    -0.237 OA
ATOM     93  O   UNL A   1      43.101  39.167  28.942  1.00  0.00    -0.744 OA
ENDBRANCH  89  90
ENDBRANCH  57  82
ENDBRANCH  31  32
ENDBRANCH  24  26
ENDBRANCH  23  24
ENDBRANCH  22  23
ENDBRANCH   1  22
TORSDOF 18
ENDMDL
MODEL 3
REMARK VINA RESULT:     -11.7      1.654      2.351
REMARK SMILES Cc1cccc(-c2ccc(Cl)c(C(=O)OCCOCCOC(=O)c3ccc(-c4c5nc(c(-c6c(F)cc(S(=O)(=O)[O-])cc6F)c6ccc([nH]6)c(-c6c(F)cc(S(=O)(=O)[O-])cc6F)c6nc(c(-c7c(F)cc(S(=O)(=O)[O-])cc7F)c7ccc4[nH]7)C=C6)C=C5)cc3)c2)c1
REMARK SMILES IDX 19 1 18 2 17 3 16 4 15 5 13 6 14 7 12 8 7 9 8 10 90 11 9 12
REMARK SMILES IDX 10 13 11 14 6 15 1 16 2 17 3 18 91 19 4 20 5 21 20 22 21 23
REMARK SMILES IDX 22 24 23 25 24 26 25 27 89 28 26 29 88 30 27 31 28 32 29 33
REMARK SMILES IDX 82 34 30 35 87 36 81 37 83 38 31 39 86 40 80 41 79 42 32 44
REMARK SMILES IDX 66 45 45 46 65 47 46 48 49 49 64 50 84 51 47 52 48 53 63 55
REMARK SMILES IDX 85 56 50 57 33 58 34 59 43 60 35 61 36 62 42 63 44 64 37 65
REMARK SMILES IDX 38 66 39 67 40 68 41 69 67 70 68 71 77 72 69 73 70 74 76 75
REMARK SMILES IDX 78 76 71 77 72 78 73 79 74 80 75 81 51 82 52 83 61 84 53 85
REMARK SMILES IDX 54 86 60 87 62 88 55 89 56 90 57 91 58 92 59 93
REMARK H PARENT 83 43 49 54
REMARK Flexibility Score: inf
ROOT
ATOM      1  C   UNL A   1      32.168  29.285  27.206  1.00  0.00     0.202 C 
ENDROOT
BRANCH   1   2
ATOM      2  O   UNL A   1      31.608  28.738  26.038  1.00  0.00    -0.374 OA
BRANCH   2   3
ATOM      3  C   UNL A   1      31.131  27.403  26.119  1.00  0.00     0.202 C 
BRANCH   3   4
ATOM      4  C   UNL A   1      32.305  26.532  25.777  1.00  0.00     0.261 C 
BRANCH   4   5
ATOM      5  O   UNL A   1      32.332  25.345  26.587  1.00  0.00    -0.460 OA
BRANCH   5   6
ATOM      6  C   UNL A   1      32.159  24.108  26.078  1.00  0.00     0.339 C 
ATOM      7  O   UNL A   1      31.239  23.341  26.246  1.00  0.00    -0.246 OA
BRANCH   6   8
ATOM      8  C   UNL A   1      33.214  23.888  25.065  1.00  0.00     0.079 A 
ATOM      9  C   UNL A   1      35.512  23.132  24.755  1.00  0.00    -0.017 A 
ATOM     10  C   UNL A   1      35.282  23.085  23.375  1.00  0.00     0.010 A 
ATOM     11  C   UNL A   1      34.467  23.523  25.594  1.00  0.00     0.026 A 
ATOM     12  C   UNL A   1      34.057  23.475  22.840  1.00  0.00     0.022 A 
ATOM     13  C   UNL A   1      33.027  23.905  23.674  1.00  0.00     0.055 A 
ATOM     14  Cl  UNL A   1      31.608  24.458  22.846  1.00  0.00    -0.083 Cl
BRANCH   9  15
ATOM     15  C   UNL A   1      36.840  22.841  25.282  1.00  0.00    -0.018 A 
ATOM     16  C   UNL A   1      39.131  19.807  25.453  1.00  0.00     0.044 C 
ATOM     17  C   UNL A   1      38.609  21.199  25.637  1.00  0.00    -0.051 A 
ATOM     18  C   UNL A   1      39.335  22.154  26.356  1.00  0.00     0.003 A 
ATOM     19  C   UNL A   1      37.368  21.553  25.105  1.00  0.00     0.012 A 
ATOM     20  C   UNL A   1      38.834  23.447  26.519  1.00  0.00     0.001 A 
ATOM     21  C   UNL A   1      37.594  23.793  25.979  1.00  0.00     0.009 A 
ENDBRANCH   9  15
ENDBRANCH   6   8
ENDBRANCH   5   6
ENDBRANCH   4   5
ENDBRANCH   3   4
ENDBRANCH   2   3
ENDBRANCH   1   2
BRANCH   1  22
ATOM     22  C   UNL A   1      33.496  30.000  26.943  1.00  0.00     0.261 C 
BRANCH  22  23
ATOM     23  O   UNL A   1      33.764  31.018  27.936  1.00  0.00    -0.460 OA
BRANCH  23  24
ATOM     24  C   UNL A   1      35.023  31.559  27.933  1.00  0.00     0.338 C 
ATOM     25  O   UNL A   1      35.262  32.709  27.616  1.00  0.00    -0.246 OA
BRANCH  24  26
ATOM     26  C   UNL A   1      36.028  30.550  28.382  1.00  0.00     0.060 A 
ATOM     27  C   UNL A   1      35.993  29.980  29.668  1.00  0.00     0.016 A 
ATOM     28  C   UNL A   1      37.145  30.362  27.579  1.00  0.00     0.016 A 
ATOM     29  C   UNL A   1      37.139  29.354  30.202  1.00  0.00     0.010 A 
ATOM     30  C   UNL A   1      38.301  29.900  28.163  1.00  0.00     0.010 A 
ATOM     31  C   UNL A   1      38.323  29.386  29.470  1.00  0.00    -0.014 A 
BRANCH  31  32
ATOM     32  C   UNL A   1      39.663  28.965  29.899  1.00  0.00     0.031 A 
ATOM     33  C   UNL A   1      40.217  27.731  29.273  1.00  0.00     0.074 A 
ATOM     34  C   UNL A   1      40.508  29.801  30.555  1.00  0.00     0.049 A 
ATOM     35  N   UNL A   1      41.293  27.144  29.667  1.00  0.00    -0.248 NA
ATOM     36  C   UNL A   1      39.573  27.005  28.176  1.00  0.00     0.031 C 
ATOM     37  C   UNL A   1      41.966  29.854  30.409  1.00  0.00     0.029 A 
ATOM     38  N   UNL A   1      40.251  30.843  31.447  1.00  0.00    -0.354 N 
ATOM     39  C   UNL A   1      41.666  26.247  28.689  1.00  0.00     0.074 A 
ATOM     40  C   UNL A   1      40.493  26.087  27.877  1.00  0.00     0.031 C 
ATOM     41  C   UNL A   1      42.489  30.703  31.311  1.00  0.00     0.029 A 
ATOM     42  C   UNL A   1      41.410  31.136  32.179  1.00  0.00     0.049 A 
ATOM     43  H   UNL A   1      39.387  31.302  31.548  1.00  0.00     0.167 HD
ATOM     44  C   UNL A   1      42.979  25.884  28.612  1.00  0.00     0.037 A 
ATOM     45  C   UNL A   1      41.401  31.159  33.542  1.00  0.00     0.037 A 
ATOM     46  C   UNL A   1      43.739  26.555  29.675  1.00  0.00     0.049 A 
ATOM     47  C   UNL A   1      42.266  30.037  34.036  1.00  0.00     0.074 A 
ATOM     48  C   UNL A   1      44.603  27.637  29.666  1.00  0.00     0.029 A 
ATOM     49  N   UNL A   1      43.423  26.312  31.008  1.00  0.00    -0.354 N 
ATOM     50  N   UNL A   1      42.562  29.019  33.278  1.00  0.00    -0.248 NA
ATOM     51  C   UNL A   1      42.928  29.971  35.334  1.00  0.00     0.031 C 
ATOM     52  C   UNL A   1      44.794  28.050  31.010  1.00  0.00     0.029 A 
ATOM     53  C   UNL A   1      44.059  27.214  31.836  1.00  0.00     0.049 A 
ATOM     54  H   UNL A   1      42.824  25.595  31.318  1.00  0.00     0.167 HD
ATOM     55  C   UNL A   1      43.448  28.209  33.911  1.00  0.00     0.074 A 
ATOM     56  C   UNL A   1      43.625  28.825  35.213  1.00  0.00     0.031 C 
ATOM     57  C   UNL A   1      43.951  27.107  33.286  1.00  0.00     0.037 A 
BRANCH  44  58
ATOM     58  C   UNL A   1      43.670  25.139  27.478  1.00  0.00     0.058 A 
ATOM     59  C   UNL A   1      43.390  23.766  27.270  1.00  0.00     0.135 A 
ATOM     60  C   UNL A   1      44.623  25.665  26.579  1.00  0.00     0.135 A 
ATOM     61  F   UNL A   1      42.467  23.119  27.994  1.00  0.00    -0.206 F 
ATOM     62  C   UNL A   1      44.032  22.983  26.308  1.00  0.00     0.059 A 
ATOM     63  C   UNL A   1      45.285  24.901  25.612  1.00  0.00     0.059 A 
ATOM     64  F   UNL A   1      44.956  26.956  26.556  1.00  0.00    -0.206 F 
ATOM     65  C   UNL A   1      44.986  23.556  25.484  1.00  0.00     0.060 A 
BRANCH  65  66
ATOM     66  S   UNL A   1      45.788  22.540  24.235  1.00  0.00     0.124 S 
ATOM     67  O   UNL A   1      46.735  23.479  23.642  1.00  0.00    -0.237 OA
ATOM     68  O   UNL A   1      46.370  21.471  25.038  1.00  0.00    -0.237 OA
ATOM     69  O   UNL A   1      44.687  22.137  23.364  1.00  0.00    -0.744 OA
ENDBRANCH  65  66
ENDBRANCH  44  58
BRANCH  45  70
ATOM     70  C   UNL A   1      40.104  31.665  34.090  1.00  0.00     0.058 A 
ATOM     71  C   UNL A   1      39.147  30.691  34.456  1.00  0.00     0.135 A 
ATOM     72  C   UNL A   1      40.043  32.897  34.762  1.00  0.00     0.135 A 
ATOM     73  F   UNL A   1      39.135  29.502  33.831  1.00  0.00    -0.206 F 
ATOM     74  C   UNL A   1      38.299  30.858  35.555  1.00  0.00     0.059 A 
ATOM     75  C   UNL A   1      39.221  33.074  35.882  1.00  0.00     0.059 A 
ATOM     76  F   UNL A   1      40.913  33.871  34.456  1.00  0.00    -0.206 F 
ATOM     77  C   UNL A   1      38.391  32.030  36.304  1.00  0.00     0.060 A 
BRANCH  77  78
ATOM     78  S   UNL A   1      37.619  32.091  37.953  1.00  0.00     0.124 S 
ATOM     79  O   UNL A   1      37.183  30.713  38.137  1.00  0.00    -0.237 OA
ATOM     80  O   UNL A   1      38.713  32.522  38.821  1.00  0.00    -0.237 OA
ATOM     81  O   UNL A   1      36.562  33.082  37.778  1.00  0.00    -0.744 OA
ENDBRANCH  77  78
ENDBRANCH  45  70
BRANCH  57  82
ATOM     82  C   UNL A   1      44.481  25.892  33.991  1.00  0.00     0.058 A 
ATOM     83  C   UNL A   1      45.851  25.628  34.148  1.00  0.00     0.135 A 
ATOM     84  C   UNL A   1      43.608  25.018  34.687  1.00  0.00     0.135 A 
ATOM     85  F   UNL A   1      46.791  26.458  33.673  1.00  0.00    -0.206 F 
ATOM     86  C   UNL A   1      46.319  24.517  34.838  1.00  0.00     0.059 A 
ATOM     87  C   UNL A   1      44.058  23.947  35.444  1.00  0.00     0.059 A 
ATOM     88  F   UNL A   1      42.277  25.181  34.674  1.00  0.00    -0.206 F 
ATOM     89  C   UNL A   1      45.414  23.674  35.472  1.00  0.00     0.060 A 
BRANCH  89  90
ATOM     90  S   UNL A   1      46.029  22.224  36.331  1.00  0.00     0.124 S 
ATOM     91  O   UNL A   1      45.199  21.175  35.746  1.00  0.00    -0.237 OA
ATOM     92  O   UNL A   1      47.437  22.204  35.948  1.00  0.00    -0.237 OA
ATOM     93  O   UNL A   1      45.772  22.524  37.735  1.00  0.00    -0.744 OA
ENDBRANCH  89  90
ENDBRANCH  57  82
ENDBRANCH  31  32
ENDBRANCH  24  26
ENDBRANCH  23  24
ENDBRANCH  22  23
ENDBRANCH   1  22
TORSDOF 18
ENDMDL
