MODEL 1
REMARK VINA RESULT:     -11.6      0.000      0.000
REMARK SMILES CC(=O)Nc1cccc(-c2ccc(F)c(C(=O)OCCOCCOC(=O)c3ccc(-c4c5nc(c(-c6c(F)cc(S(=O)(=O)[O-])cc6F)c6ccc([nH]6)c(-c6c(F)cc(S(=O)(=O)[O-])cc6F)c6nc(c(-c7c(F)cc(S(=O)(=O)[O-])cc7F)c7ccc4[nH]7)C=C6)C=C5)cc3)c2)c1
REMARK SMILES IDX 22 1 21 2 20 3 19 4 18 5 16 6 17 7 15 8 10 9 11 10 93 11
REMARK SMILES IDX 12 12 13 13 14 14 9 15 5 16 6 17 94 18 7 19 8 20 4 21 1 22
REMARK SMILES IDX 2 23 3 24 23 26 24 27 25 28 26 29 27 30 28 31 92 32 29 33
REMARK SMILES IDX 91 34 30 35 31 36 32 37 85 38 33 39 90 40 84 41 86 42 34 43
REMARK SMILES IDX 89 44 83 45 82 46 35 48 69 49 48 50 68 51 49 52 52 53 67 54
REMARK SMILES IDX 87 55 50 56 51 57 66 59 88 60 53 61 36 62 37 63 46 64 38 65
REMARK SMILES IDX 39 66 45 67 47 68 40 69 41 70 42 71 43 72 44 73 70 74 71 75
REMARK SMILES IDX 80 76 72 77 73 78 79 79 81 80 74 81 75 82 76 83 77 84 78 85
REMARK SMILES IDX 54 86 55 87 64 88 56 89 57 90 63 91 65 92 58 93 59 94 60 95
REMARK SMILES IDX 61 96 62 97
REMARK H PARENT 4 25 86 47 52 58
REMARK Flexibility Score: inf
ROOT
ATOM      1  C   UNL A   1      40.635  20.961  26.480  1.00  0.00     0.202 C 
ENDROOT
BRANCH   1   2
ATOM      2  O   UNL A   1      39.403  20.988  25.761  1.00  0.00    -0.374 OA
BRANCH   2   3
ATOM      3  C   UNL A   1      38.527  22.090  26.009  1.00  0.00     0.202 C 
BRANCH   3   4
ATOM      4  C   UNL A   1      37.218  22.103  25.214  1.00  0.00     0.261 C 
BRANCH   4   5
ATOM      5  O   UNL A   1      36.670  23.431  25.158  1.00  0.00    -0.460 OA
BRANCH   5   6
ATOM      6  C   UNL A   1      35.668  23.616  24.265  1.00  0.00     0.341 C 
ATOM      7  O   UNL A   1      35.697  23.374  23.070  1.00  0.00    -0.246 OA
BRANCH   6   8
ATOM      8  C   UNL A   1      34.458  24.054  24.987  1.00  0.00     0.096 A 
ATOM      9  C   UNL A   1      32.919  25.801  25.743  1.00  0.00    -0.017 A 
ATOM     10  C   UNL A   1      32.150  24.805  26.370  1.00  0.00     0.012 A 
ATOM     11  C   UNL A   1      34.093  25.405  25.068  1.00  0.00     0.027 A 
ATOM     12  C   UNL A   1      32.530  23.462  26.318  1.00  0.00     0.041 A 
ATOM     13  C   UNL A   1      33.677  23.094  25.623  1.00  0.00     0.137 A 
ATOM     14  F   UNL A   1      34.027  21.800  25.620  1.00  0.00    -0.206 F 
BRANCH   9  15
ATOM     15  C   UNL A   1      32.485  27.211  25.742  1.00  0.00    -0.016 A 
ATOM     16  C   UNL A   1      31.514  29.105  24.524  1.00  0.00     0.041 A 
ATOM     17  C   UNL A   1      31.682  29.907  25.655  1.00  0.00     0.026 A 
ATOM     18  C   UNL A   1      31.937  27.777  24.575  1.00  0.00     0.034 A 
ATOM     19  C   UNL A   1      32.199  29.366  26.833  1.00  0.00     0.003 A 
ATOM     20  C   UNL A   1      32.592  28.026  26.878  1.00  0.00     0.009 A 
BRANCH  16  21
ATOM     21  N   UNL A   1      30.973  29.704  23.377  1.00  0.00    -0.326 N 
ATOM     22  C   UNL A   1      28.898  28.351  23.055  1.00  0.00     0.114 C 
ATOM     23  C   UNL A   1      29.902  29.374  22.595  1.00  0.00     0.221 C 
ATOM     24  O   UNL A   1      29.729  29.987  21.541  1.00  0.00    -0.275 OA
ATOM     25  H   UNL A   1      31.454  30.510  23.081  1.00  0.00     0.169 HD
ENDBRANCH  16  21
ENDBRANCH   9  15
ENDBRANCH   6   8
ENDBRANCH   5   6
ENDBRANCH   4   5
ENDBRANCH   3   4
ENDBRANCH   2   3
ENDBRANCH   1   2
BRANCH   1  26
ATOM     26  C   UNL A   1      41.643  22.073  26.169  1.00  0.00     0.261 C 
BRANCH  26  27
ATOM     27  O   UNL A   1      41.552  23.171  27.092  1.00  0.00    -0.460 OA
BRANCH  27  28
ATOM     28  C   UNL A   1      42.045  24.344  26.621  1.00  0.00     0.338 C 
ATOM     29  O   UNL A   1      42.630  24.525  25.566  1.00  0.00    -0.246 OA
BRANCH  28  30
ATOM     30  C   UNL A   1      41.627  25.456  27.496  1.00  0.00     0.060 A 
ATOM     31  C   UNL A   1      42.460  26.579  27.555  1.00  0.00     0.016 A 
ATOM     32  C   UNL A   1      40.485  25.374  28.296  1.00  0.00     0.016 A 
ATOM     33  C   UNL A   1      42.184  27.606  28.454  1.00  0.00     0.010 A 
ATOM     34  C   UNL A   1      40.211  26.405  29.202  1.00  0.00     0.010 A 
ATOM     35  C   UNL A   1      41.079  27.507  29.310  1.00  0.00    -0.014 A 
BRANCH  35  36
ATOM     36  C   UNL A   1      40.909  28.493  30.407  1.00  0.00     0.031 A 
ATOM     37  C   UNL A   1      41.804  28.408  31.613  1.00  0.00     0.074 A 
ATOM     38  C   UNL A   1      39.980  29.460  30.320  1.00  0.00     0.049 A 
ATOM     39  N   UNL A   1      41.806  29.139  32.697  1.00  0.00    -0.248 NA
ATOM     40  C   UNL A   1      42.831  27.355  31.593  1.00  0.00     0.031 C 
ATOM     41  C   UNL A   1      39.075  29.662  29.190  1.00  0.00     0.029 A 
ATOM     42  N   UNL A   1      39.638  30.451  31.206  1.00  0.00    -0.354 N 
ATOM     43  C   UNL A   1      42.824  28.629  33.495  1.00  0.00     0.074 A 
ATOM     44  C   UNL A   1      43.398  27.508  32.782  1.00  0.00     0.031 C 
ATOM     45  C   UNL A   1      38.270  30.705  29.457  1.00  0.00     0.029 A 
ATOM     46  C   UNL A   1      38.581  31.224  30.787  1.00  0.00     0.049 A 
ATOM     47  H   UNL A   1      40.104  30.595  32.061  1.00  0.00     0.167 HD
ATOM     48  C   UNL A   1      43.246  29.061  34.707  1.00  0.00     0.037 A 
ATOM     49  C   UNL A   1      37.927  32.222  31.415  1.00  0.00     0.037 A 
ATOM     50  C   UNL A   1      42.670  30.179  35.409  1.00  0.00     0.049 A 
ATOM     51  C   UNL A   1      38.379  32.653  32.785  1.00  0.00     0.074 A 
ATOM     52  C   UNL A   1      43.046  30.715  36.629  1.00  0.00     0.029 A 
ATOM     53  N   UNL A   1      41.591  30.927  34.960  1.00  0.00    -0.354 N 
ATOM     54  N   UNL A   1      39.363  32.184  33.515  1.00  0.00    -0.248 NA
ATOM     55  C   UNL A   1      37.637  33.755  33.414  1.00  0.00     0.031 C 
ATOM     56  C   UNL A   1      42.161  31.752  36.943  1.00  0.00     0.029 A 
ATOM     57  C   UNL A   1      41.268  31.901  35.892  1.00  0.00     0.049 A 
ATOM     58  H   UNL A   1      41.123  30.786  34.106  1.00  0.00     0.167 HD
ATOM     59  C   UNL A   1      39.374  32.949  34.678  1.00  0.00     0.074 A 
ATOM     60  C   UNL A   1      38.304  33.917  34.550  1.00  0.00     0.031 C 
ATOM     61  C   UNL A   1      40.200  32.860  35.751  1.00  0.00     0.037 A 
BRANCH  48  62
ATOM     62  C   UNL A   1      44.362  28.297  35.367  1.00  0.00     0.058 A 
ATOM     63  C   UNL A   1      45.711  28.638  35.173  1.00  0.00     0.135 A 
ATOM     64  C   UNL A   1      44.078  27.215  36.215  1.00  0.00     0.135 A 
ATOM     65  F   UNL A   1      46.042  29.653  34.360  1.00  0.00    -0.206 F 
ATOM     66  C   UNL A   1      46.738  27.911  35.768  1.00  0.00     0.059 A 
ATOM     67  C   UNL A   1      45.087  26.492  36.844  1.00  0.00     0.059 A 
ATOM     68  F   UNL A   1      42.806  26.846  36.436  1.00  0.00    -0.206 F 
ATOM     69  C   UNL A   1      46.416  26.836  36.599  1.00  0.00     0.060 A 
BRANCH  69  70
ATOM     70  S   UNL A   1      47.758  25.891  37.350  1.00  0.00     0.124 S 
ATOM     71  O   UNL A   1      48.481  26.936  38.070  1.00  0.00    -0.237 OA
ATOM     72  O   UNL A   1      47.038  24.933  38.182  1.00  0.00    -0.237 OA
ATOM     73  O   UNL A   1      48.457  25.321  36.203  1.00  0.00    -0.744 OA
ENDBRANCH  69  70
ENDBRANCH  48  62
BRANCH  49  74
ATOM     74  C   UNL A   1      36.771  32.876  30.746  1.00  0.00     0.058 A 
ATOM     75  C   UNL A   1      35.455  32.590  31.133  1.00  0.00     0.135 A 
ATOM     76  C   UNL A   1      36.964  33.822  29.727  1.00  0.00     0.135 A 
ATOM     77  F   UNL A   1      35.219  31.685  32.093  1.00  0.00    -0.206 F 
ATOM     78  C   UNL A   1      34.368  33.218  30.532  1.00  0.00     0.059 A 
ATOM     79  C   UNL A   1      35.896  34.482  29.129  1.00  0.00     0.059 A 
ATOM     80  F   UNL A   1      38.206  34.137  29.328  1.00  0.00    -0.206 F 
ATOM     81  C   UNL A   1      34.599  34.169  29.536  1.00  0.00     0.060 A 
BRANCH  81  82
ATOM     82  S   UNL A   1      33.183  35.029  28.818  1.00  0.00     0.124 S 
ATOM     83  O   UNL A   1      32.634  34.006  27.935  1.00  0.00    -0.237 OA
ATOM     84  O   UNL A   1      32.387  35.346  30.000  1.00  0.00    -0.237 OA
ATOM     85  O   UNL A   1      33.789  36.177  28.153  1.00  0.00    -0.744 OA
ENDBRANCH  81  82
ENDBRANCH  49  74
BRANCH  61  86
ATOM     86  C   UNL A   1      40.005  33.856  36.863  1.00  0.00     0.058 A 
ATOM     87  C   UNL A   1      40.677  35.087  36.883  1.00  0.00     0.135 A 
ATOM     88  C   UNL A   1      39.084  33.595  37.893  1.00  0.00     0.135 A 
ATOM     89  F   UNL A   1      41.571  35.384  35.926  1.00  0.00    -0.206 F 
ATOM     90  C   UNL A   1      40.460  36.017  37.895  1.00  0.00     0.059 A 
ATOM     91  C   UNL A   1      38.832  34.522  38.899  1.00  0.00     0.059 A 
ATOM     92  F   UNL A   1      38.406  32.437  37.917  1.00  0.00    -0.206 F 
ATOM     93  C   UNL A   1      39.533  35.727  38.898  1.00  0.00     0.060 A 
BRANCH  93  94
ATOM     94  S   UNL A   1      39.234  36.957  40.184  1.00  0.00     0.124 S 
ATOM     95  O   UNL A   1      40.593  37.286  40.600  1.00  0.00    -0.237 OA
ATOM     96  O   UNL A   1      38.523  38.005  39.457  1.00  0.00    -0.237 OA
ATOM     97  O   UNL A   1      38.435  36.234  41.169  1.00  0.00    -0.744 OA
ENDBRANCH  93  94
ENDBRANCH  61  86
ENDBRANCH  35  36
ENDBRANCH  28  30
ENDBRANCH  27  28
ENDBRANCH  26  27
ENDBRANCH   1  26
TORSDOF 19
ENDMDL
MODEL 2
REMARK VINA RESULT:     -11.4      3.792      6.682
REMARK SMILES CC(=O)Nc1cccc(-c2ccc(F)c(C(=O)OCCOCCOC(=O)c3ccc(-c4c5nc(c(-c6c(F)cc(S(=O)(=O)[O-])cc6F)c6ccc([nH]6)c(-c6c(F)cc(S(=O)(=O)[O-])cc6F)c6nc(c(-c7c(F)cc(S(=O)(=O)[O-])cc7F)c7ccc4[nH]7)C=C6)C=C5)cc3)c2)c1
REMARK SMILES IDX 22 1 21 2 20 3 19 4 18 5 16 6 17 7 15 8 10 9 11 10 93 11
REMARK SMILES IDX 12 12 13 13 14 14 9 15 5 16 6 17 94 18 7 19 8 20 4 21 1 22
REMARK SMILES IDX 2 23 3 24 23 26 24 27 25 28 26 29 27 30 28 31 92 32 29 33
REMARK SMILES IDX 91 34 30 35 31 36 32 37 85 38 33 39 90 40 84 41 86 42 34 43
REMARK SMILES IDX 89 44 83 45 82 46 35 48 69 49 48 50 68 51 49 52 52 53 67 54
REMARK SMILES IDX 87 55 50 56 51 57 66 59 88 60 53 61 36 62 37 63 46 64 38 65
REMARK SMILES IDX 39 66 45 67 47 68 40 69 41 70 42 71 43 72 44 73 70 74 71 75
REMARK SMILES IDX 80 76 72 77 73 78 79 79 81 80 74 81 75 82 76 83 77 84 78 85
REMARK SMILES IDX 54 86 55 87 64 88 56 89 57 90 63 91 65 92 58 93 59 94 60 95
REMARK SMILES IDX 61 96 62 97
REMARK H PARENT 4 25 86 47 52 58
REMARK Flexibility Score: inf
ROOT
ATOM      1  C   UNL A   1      45.388  25.127  25.114  1.00  0.00     0.202 C 
ENDROOT
BRANCH   1   2
ATOM      2  O   UNL A   1      45.599  26.485  25.499  1.00  0.00    -0.374 OA
BRANCH   2   3
ATOM      3  C   UNL A   1      46.927  26.857  25.876  1.00  0.00     0.202 C 
BRANCH   3   4
ATOM      4  C   UNL A   1      47.097  27.395  27.301  1.00  0.00     0.261 C 
BRANCH   4   5
ATOM      5  O   UNL A   1      46.191  26.739  28.203  1.00  0.00    -0.460 OA
BRANCH   5   6
ATOM      6  C   UNL A   1      46.664  25.616  28.797  1.00  0.00     0.341 C 
ATOM      7  O   UNL A   1      47.833  25.307  28.955  1.00  0.00    -0.246 OA
BRANCH   6   8
ATOM      8  C   UNL A   1      45.529  24.853  29.350  1.00  0.00     0.096 A 
ATOM      9  C   UNL A   1      43.585  23.392  29.080  1.00  0.00    -0.017 A 
ATOM     10  C   UNL A   1      43.404  23.429  30.474  1.00  0.00     0.012 A 
ATOM     11  C   UNL A   1      44.649  24.134  28.529  1.00  0.00     0.027 A 
ATOM     12  C   UNL A   1      44.261  24.171  31.291  1.00  0.00     0.041 A 
ATOM     13  C   UNL A   1      45.321  24.873  30.727  1.00  0.00     0.137 A 
ATOM     14  F   UNL A   1      46.103  25.597  31.538  1.00  0.00    -0.206 F 
BRANCH   9  15
ATOM     15  C   UNL A   1      42.721  22.557  28.223  1.00  0.00    -0.016 A 
ATOM     16  C   UNL A   1      42.519  20.951  26.382  1.00  0.00     0.041 A 
ATOM     17  C   UNL A   1      41.129  20.979  26.520  1.00  0.00     0.026 A 
ATOM     18  C   UNL A   1      43.293  21.755  27.218  1.00  0.00     0.034 A 
ATOM     19  C   UNL A   1      40.536  21.745  27.525  1.00  0.00     0.003 A 
ATOM     20  C   UNL A   1      41.327  22.524  28.374  1.00  0.00     0.009 A 
BRANCH  16  21
ATOM     21  N   UNL A   1      43.054  20.147  25.363  1.00  0.00    -0.326 N 
ATOM     22  C   UNL A   1      43.356  17.979  26.566  1.00  0.00     0.114 C 
ATOM     23  C   UNL A   1      43.558  18.877  25.376  1.00  0.00     0.221 C 
ATOM     24  O   UNL A   1      44.113  18.452  24.361  1.00  0.00    -0.275 OA
ATOM     25  H   UNL A   1      43.068  20.577  24.479  1.00  0.00     0.169 HD
ENDBRANCH  16  21
ENDBRANCH   9  15
ENDBRANCH   6   8
ENDBRANCH   5   6
ENDBRANCH   4   5
ENDBRANCH   3   4
ENDBRANCH   2   3
ENDBRANCH   1   2
BRANCH   1  26
ATOM     26  C   UNL A   1      43.933  24.663  24.983  1.00  0.00     0.261 C 
BRANCH  26  27
ATOM     27  O   UNL A   1      42.994  25.735  25.177  1.00  0.00    -0.460 OA
BRANCH  27  28
ATOM     28  C   UNL A   1      41.894  25.395  25.893  1.00  0.00     0.338 C 
ATOM     29  O   UNL A   1      41.091  24.515  25.635  1.00  0.00    -0.246 OA
BRANCH  28  30
ATOM     30  C   UNL A   1      41.872  26.139  27.167  1.00  0.00     0.060 A 
ATOM     31  C   UNL A   1      40.855  25.829  28.078  1.00  0.00     0.016 A 
ATOM     32  C   UNL A   1      42.779  27.166  27.437  1.00  0.00     0.016 A 
ATOM     33  C   UNL A   1      40.709  26.579  29.243  1.00  0.00     0.010 A 
ATOM     34  C   UNL A   1      42.628  27.923  28.604  1.00  0.00     0.010 A 
ATOM     35  C   UNL A   1      41.570  27.655  29.494  1.00  0.00    -0.014 A 
BRANCH  35  36
ATOM     36  C   UNL A   1      41.282  28.581  30.618  1.00  0.00     0.031 A 
ATOM     37  C   UNL A   1      42.100  28.482  31.876  1.00  0.00     0.074 A 
ATOM     38  C   UNL A   1      40.313  29.507  30.510  1.00  0.00     0.049 A 
ATOM     39  N   UNL A   1      41.996  29.162  32.988  1.00  0.00    -0.248 NA
ATOM     40  C   UNL A   1      43.177  27.479  31.880  1.00  0.00     0.031 C 
ATOM     41  C   UNL A   1      39.475  29.718  29.332  1.00  0.00     0.029 A 
ATOM     42  N   UNL A   1      39.867  30.439  31.413  1.00  0.00    -0.354 N 
ATOM     43  C   UNL A   1      42.984  28.663  33.830  1.00  0.00     0.074 A 
ATOM     44  C   UNL A   1      43.657  27.604  33.109  1.00  0.00     0.031 C 
ATOM     45  C   UNL A   1      38.605  30.710  29.589  1.00  0.00     0.029 A 
ATOM     46  C   UNL A   1      38.803  31.181  30.958  1.00  0.00     0.049 A 
ATOM     47  H   UNL A   1      40.269  30.565  32.303  1.00  0.00     0.167 HD
ATOM     48  C   UNL A   1      43.304  29.058  35.085  1.00  0.00     0.037 A 
ATOM     49  C   UNL A   1      38.062  32.118  31.582  1.00  0.00     0.037 A 
ATOM     50  C   UNL A   1      42.630  30.115  35.794  1.00  0.00     0.049 A 
ATOM     51  C   UNL A   1      38.402  32.507  32.996  1.00  0.00     0.074 A 
ATOM     52  C   UNL A   1      42.899  30.611  37.058  1.00  0.00     0.029 A 
ATOM     53  N   UNL A   1      41.547  30.832  35.307  1.00  0.00    -0.354 N 
ATOM     54  N   UNL A   1      39.358  32.050  33.771  1.00  0.00    -0.248 NA
ATOM     55  C   UNL A   1      37.567  33.543  33.621  1.00  0.00     0.031 C 
ATOM     56  C   UNL A   1      41.946  31.591  37.356  1.00  0.00     0.029 A 
ATOM     57  C   UNL A   1      41.117  31.746  36.255  1.00  0.00     0.049 A 
ATOM     58  H   UNL A   1      41.143  30.709  34.417  1.00  0.00     0.167 HD
ATOM     59  C   UNL A   1      39.256  32.761  34.963  1.00  0.00     0.074 A 
ATOM     60  C   UNL A   1      38.151  33.683  34.805  1.00  0.00     0.031 C 
ATOM     61  C   UNL A   1      40.015  32.661  36.084  1.00  0.00     0.037 A 
BRANCH  48  62
ATOM     62  C   UNL A   1      44.412  28.317  35.784  1.00  0.00     0.058 A 
ATOM     63  C   UNL A   1      45.760  28.684  35.637  1.00  0.00     0.135 A 
ATOM     64  C   UNL A   1      44.119  27.231  36.625  1.00  0.00     0.135 A 
ATOM     65  F   UNL A   1      46.099  29.705  34.834  1.00  0.00    -0.206 F 
ATOM     66  C   UNL A   1      46.779  27.978  36.269  1.00  0.00     0.059 A 
ATOM     67  C   UNL A   1      45.120  26.529  37.290  1.00  0.00     0.059 A 
ATOM     68  F   UNL A   1      42.848  26.837  36.802  1.00  0.00    -0.206 F 
ATOM     69  C   UNL A   1      46.449  26.899  37.091  1.00  0.00     0.060 A 
BRANCH  69  70
ATOM     70  S   UNL A   1      47.783  25.981  37.890  1.00  0.00     0.124 S 
ATOM     71  O   UNL A   1      47.688  26.471  39.262  1.00  0.00    -0.237 OA
ATOM     72  O   UNL A   1      47.376  24.595  37.683  1.00  0.00    -0.237 OA
ATOM     73  O   UNL A   1      48.972  26.399  37.155  1.00  0.00    -0.744 OA
ENDBRANCH  69  70
ENDBRANCH  48  62
BRANCH  49  74
ATOM     74  C   UNL A   1      36.920  32.748  30.866  1.00  0.00     0.058 A 
ATOM     75  C   UNL A   1      37.120  33.824  29.991  1.00  0.00     0.135 A 
ATOM     76  C   UNL A   1      35.612  32.263  31.021  1.00  0.00     0.135 A 
ATOM     77  F   UNL A   1      38.350  34.330  29.820  1.00  0.00    -0.206 F 
ATOM     78  C   UNL A   1      36.062  34.402  29.296  1.00  0.00     0.059 A 
ATOM     79  C   UNL A   1      34.542  32.806  30.317  1.00  0.00     0.059 A 
ATOM     80  F   UNL A   1      35.371  31.227  31.840  1.00  0.00    -0.206 F 
ATOM     81  C   UNL A   1      34.777  33.881  29.459  1.00  0.00     0.060 A 
BRANCH  81  82
ATOM     82  S   UNL A   1      33.427  34.591  28.493  1.00  0.00     0.124 S 
ATOM     83  O   UNL A   1      32.528  35.057  29.543  1.00  0.00    -0.237 OA
ATOM     84  O   UNL A   1      34.112  35.632  27.732  1.00  0.00    -0.237 OA
ATOM     85  O   UNL A   1      32.946  33.461  27.706  1.00  0.00    -0.744 OA
ENDBRANCH  81  82
ENDBRANCH  49  74
BRANCH  61  86
ATOM     86  C   UNL A   1      39.699  33.594  37.222  1.00  0.00     0.058 A 
ATOM     87  C   UNL A   1      38.797  33.245  38.239  1.00  0.00     0.135 A 
ATOM     88  C   UNL A   1      40.356  34.832  37.327  1.00  0.00     0.135 A 
ATOM     89  F   UNL A   1      38.137  32.077  38.184  1.00  0.00    -0.206 F 
ATOM     90  C   UNL A   1      38.541  34.098  39.308  1.00  0.00     0.059 A 
ATOM     91  C   UNL A   1      40.136  35.688  38.401  1.00  0.00     0.059 A 
ATOM     92  F   UNL A   1      41.238  35.211  36.388  1.00  0.00    -0.206 F 
ATOM     93  C   UNL A   1      39.217  35.317  39.382  1.00  0.00     0.060 A 
BRANCH  93  94
ATOM     94  S   UNL A   1      38.904  36.398  40.793  1.00  0.00     0.124 S 
ATOM     95  O   UNL A   1      40.208  36.414  41.448  1.00  0.00    -0.237 OA
ATOM     96  O   UNL A   1      38.503  37.646  40.149  1.00  0.00    -0.237 OA
ATOM     97  O   UNL A   1      37.844  35.709  41.523  1.00  0.00    -0.744 OA
ENDBRANCH  93  94
ENDBRANCH  61  86
ENDBRANCH  35  36
ENDBRANCH  28  30
ENDBRANCH  27  28
ENDBRANCH  26  27
ENDBRANCH   1  26
TORSDOF 19
ENDMDL
MODEL 3
REMARK VINA RESULT:     -11.3      3.755      6.719
REMARK SMILES CC(=O)Nc1cccc(-c2ccc(F)c(C(=O)OCCOCCOC(=O)c3ccc(-c4c5nc(c(-c6c(F)cc(S(=O)(=O)[O-])cc6F)c6ccc([nH]6)c(-c6c(F)cc(S(=O)(=O)[O-])cc6F)c6nc(c(-c7c(F)cc(S(=O)(=O)[O-])cc7F)c7ccc4[nH]7)C=C6)C=C5)cc3)c2)c1
REMARK SMILES IDX 22 1 21 2 20 3 19 4 18 5 16 6 17 7 15 8 10 9 11 10 93 11
REMARK SMILES IDX 12 12 13 13 14 14 9 15 5 16 6 17 94 18 7 19 8 20 4 21 1 22
REMARK SMILES IDX 2 23 3 24 23 26 24 27 25 28 26 29 27 30 28 31 92 32 29 33
REMARK SMILES IDX 91 34 30 35 31 36 32 37 85 38 33 39 90 40 84 41 86 42 34 43
REMARK SMILES IDX 89 44 83 45 82 46 35 48 69 49 48 50 68 51 49 52 52 53 67 54
REMARK SMILES IDX 87 55 50 56 51 57 66 59 88 60 53 61 36 62 37 63 46 64 38 65
REMARK SMILES IDX 39 66 45 67 47 68 40 69 41 70 42 71 43 72 44 73 70 74 71 75
REMARK SMILES IDX 80 76 72 77 73 78 79 79 81 80 74 81 75 82 76 83 77 84 78 85
REMARK SMILES IDX 54 86 55 87 64 88 56 89 57 90 63 91 65 92 58 93 59 94 60 95
REMARK SMILES IDX 61 96 62 97
REMARK H PARENT 4 25 86 47 52 58
REMARK Flexibility Score: inf
ROOT
ATOM      1  C   UNL A   1      40.441  20.985  26.445  1.00  0.00     0.202 C 
ENDROOT
BRANCH   1   2
ATOM      2  O   UNL A   1      40.894  19.640  26.602  1.00  0.00    -0.374 OA
BRANCH   2   3
ATOM      3  C   UNL A   1      42.278  19.449  26.905  1.00  0.00     0.202 C 
BRANCH   3   4
ATOM      4  C   UNL A   1      43.191  19.135  25.716  1.00  0.00     0.261 C 
BRANCH   4   5
ATOM      5  O   UNL A   1      43.517  20.336  24.997  1.00  0.00    -0.460 OA
BRANCH   5   6
ATOM      6  C   UNL A   1      44.825  20.694  25.013  1.00  0.00     0.341 C 
ATOM      7  O   UNL A   1      45.766  20.051  24.581  1.00  0.00    -0.246 OA
BRANCH   6   8
ATOM      8  C   UNL A   1      44.938  22.070  25.536  1.00  0.00     0.096 A 
ATOM      9  C   UNL A   1      44.863  23.684  27.373  1.00  0.00    -0.017 A 
ATOM     10  C   UNL A   1      45.173  24.699  26.451  1.00  0.00     0.012 A 
ATOM     11  C   UNL A   1      44.727  22.367  26.890  1.00  0.00     0.027 A 
ATOM     12  C   UNL A   1      45.352  24.409  25.096  1.00  0.00     0.041 A 
ATOM     13  C   UNL A   1      45.240  23.098  24.647  1.00  0.00     0.137 A 
ATOM     14  F   UNL A   1      45.388  22.863  23.336  1.00  0.00    -0.206 F 
BRANCH   9  15
ATOM     15  C   UNL A   1      44.738  23.978  28.814  1.00  0.00    -0.016 A 
ATOM     16  C   UNL A   1      45.219  25.471  30.699  1.00  0.00     0.041 A 
ATOM     17  C   UNL A   1      44.580  24.576  31.560  1.00  0.00     0.026 A 
ATOM     18  C   UNL A   1      45.309  25.151  29.344  1.00  0.00     0.034 A 
ATOM     19  C   UNL A   1      43.983  23.418  31.058  1.00  0.00     0.003 A 
ATOM     20  C   UNL A   1      44.057  23.125  29.694  1.00  0.00     0.009 A 
BRANCH  16  21
ATOM     21  N   UNL A   1      45.784  26.624  31.263  1.00  0.00    -0.326 N 
ATOM     22  C   UNL A   1      47.800  25.674  32.391  1.00  0.00     0.114 C 
ATOM     23  C   UNL A   1      46.840  26.799  32.112  1.00  0.00     0.221 C 
ATOM     24  O   UNL A   1      47.038  27.919  32.585  1.00  0.00    -0.275 OA
ATOM     25  H   UNL A   1      45.338  27.461  30.999  1.00  0.00     0.169 HD
ENDBRANCH  16  21
ENDBRANCH   9  15
ENDBRANCH   6   8
ENDBRANCH   5   6
ENDBRANCH   4   5
ENDBRANCH   3   4
ENDBRANCH   2   3
ENDBRANCH   1   2
BRANCH   1  26
ATOM     26  C   UNL A   1      40.813  21.974  27.555  1.00  0.00     0.261 C 
BRANCH  26  27
ATOM     27  O   UNL A   1      40.214  23.267  27.363  1.00  0.00    -0.460 OA
BRANCH  27  28
ATOM     28  C   UNL A   1      41.096  24.258  27.080  1.00  0.00     0.338 C 
ATOM     29  O   UNL A   1      41.936  24.264  26.196  1.00  0.00    -0.246 OA
BRANCH  28  30
ATOM     30  C   UNL A   1      40.796  25.449  27.897  1.00  0.00     0.060 A 
ATOM     31  C   UNL A   1      41.814  26.397  28.053  1.00  0.00     0.016 A 
ATOM     32  C   UNL A   1      39.574  25.602  28.555  1.00  0.00     0.016 A 
ATOM     33  C   UNL A   1      41.633  27.480  28.911  1.00  0.00     0.010 A 
ATOM     34  C   UNL A   1      39.396  26.688  29.421  1.00  0.00     0.010 A 
ATOM     35  C   UNL A   1      40.438  27.611  29.629  1.00  0.00    -0.014 A 
BRANCH  35  36
ATOM     36  C   UNL A   1      40.330  28.637  30.696  1.00  0.00     0.031 A 
ATOM     37  C   UNL A   1      41.217  28.531  31.906  1.00  0.00     0.074 A 
ATOM     38  C   UNL A   1      39.464  29.659  30.578  1.00  0.00     0.049 A 
ATOM     39  N   UNL A   1      41.265  29.292  32.968  1.00  0.00    -0.248 NA
ATOM     40  C   UNL A   1      42.175  27.414  31.920  1.00  0.00     0.031 C 
ATOM     41  C   UNL A   1      38.575  29.884  29.440  1.00  0.00     0.029 A 
ATOM     42  N   UNL A   1      39.186  30.695  31.434  1.00  0.00    -0.354 N 
ATOM     43  C   UNL A   1      42.248  28.742  33.784  1.00  0.00     0.074 A 
ATOM     44  C   UNL A   1      42.750  27.566  33.105  1.00  0.00     0.031 C 
ATOM     45  C   UNL A   1      37.839  30.984  29.674  1.00  0.00     0.029 A 
ATOM     46  C   UNL A   1      38.181  31.521  30.990  1.00  0.00     0.049 A 
ATOM     47  H   UNL A   1      39.660  30.834  32.286  1.00  0.00     0.167 HD
ATOM     48  C   UNL A   1      42.695  29.182  34.984  1.00  0.00     0.037 A 
ATOM     49  C   UNL A   1      37.592  32.577  31.586  1.00  0.00     0.037 A 
ATOM     50  C   UNL A   1      42.191  30.354  35.651  1.00  0.00     0.049 A 
ATOM     51  C   UNL A   1      38.069  33.019  32.944  1.00  0.00     0.074 A 
ATOM     52  C   UNL A   1      42.599  30.901  36.856  1.00  0.00     0.029 A 
ATOM     53  N   UNL A   1      41.163  31.156  35.178  1.00  0.00    -0.354 N 
ATOM     54  N   UNL A   1      39.020  32.509  33.690  1.00  0.00    -0.248 NA
ATOM     55  C   UNL A   1      37.398  34.184  33.538  1.00  0.00     0.031 C 
ATOM     56  C   UNL A   1      41.782  32.001  37.136  1.00  0.00     0.029 A 
ATOM     57  C   UNL A   1      40.902  32.176  36.080  1.00  0.00     0.049 A 
ATOM     58  H   UNL A   1      40.687  31.020  34.326  1.00  0.00     0.167 HD
ATOM     59  C   UNL A   1      39.080  33.307  34.830  1.00  0.00     0.074 A 
ATOM     60  C   UNL A   1      38.074  34.336  34.671  1.00  0.00     0.031 C 
ATOM     61  C   UNL A   1      39.898  33.197  35.908  1.00  0.00     0.037 A 
BRANCH  48  62
ATOM     62  C   UNL A   1      43.760  28.368  35.669  1.00  0.00     0.058 A 
ATOM     63  C   UNL A   1      45.128  28.624  35.478  1.00  0.00     0.135 A 
ATOM     64  C   UNL A   1      43.406  27.324  36.538  1.00  0.00     0.135 A 
ATOM     65  F   UNL A   1      45.524  29.600  34.646  1.00  0.00    -0.206 F 
ATOM     66  C   UNL A   1      46.105  27.851  36.097  1.00  0.00     0.059 A 
ATOM     67  C   UNL A   1      44.367  26.556  37.190  1.00  0.00     0.059 A 
ATOM     68  F   UNL A   1      42.114  27.035  36.757  1.00  0.00    -0.206 F 
ATOM     69  C   UNL A   1      45.715  26.816  36.949  1.00  0.00     0.060 A 
BRANCH  69  70
ATOM     70  S   UNL A   1      46.994  25.810  37.731  1.00  0.00     0.124 S 
ATOM     71  O   UNL A   1      47.409  24.956  36.621  1.00  0.00    -0.237 OA
ATOM     72  O   UNL A   1      47.965  26.812  38.156  1.00  0.00    -0.237 OA
ATOM     73  O   UNL A   1      46.282  25.133  38.810  1.00  0.00    -0.744 OA
ENDBRANCH  69  70
ENDBRANCH  48  62
BRANCH  49  74
ATOM     74  C   UNL A   1      36.480  33.283  30.895  1.00  0.00     0.058 A 
ATOM     75  C   UNL A   1      35.149  33.099  31.291  1.00  0.00     0.135 A 
ATOM     76  C   UNL A   1      36.734  34.180  29.846  1.00  0.00     0.135 A 
ATOM     77  F   UNL A   1      34.855  32.243  32.280  1.00  0.00    -0.206 F 
ATOM     78  C   UNL A   1      34.105  33.776  30.668  1.00  0.00     0.059 A 
ATOM     79  C   UNL A   1      35.710  34.889  29.225  1.00  0.00     0.059 A 
ATOM     80  F   UNL A   1      37.994  34.398  29.437  1.00  0.00    -0.206 F 
ATOM     81  C   UNL A   1      34.396  34.676  29.641  1.00  0.00     0.060 A 
BRANCH  81  82
ATOM     82  S   UNL A   1      33.039  35.604  28.894  1.00  0.00     0.124 S 
ATOM     83  O   UNL A   1      33.759  36.633  28.154  1.00  0.00    -0.237 OA
ATOM     84  O   UNL A   1      32.378  34.582  28.088  1.00  0.00    -0.237 OA
ATOM     85  O   UNL A   1      32.278  36.072  30.048  1.00  0.00    -0.744 OA
ENDBRANCH  81  82
ENDBRANCH  49  74
BRANCH  61  86
ATOM     86  C   UNL A   1      39.765  34.235  36.990  1.00  0.00     0.058 A 
ATOM     87  C   UNL A   1      38.962  34.028  38.121  1.00  0.00     0.135 A 
ATOM     88  C   UNL A   1      40.501  35.430  36.919  1.00  0.00     0.135 A 
ATOM     89  F   UNL A   1      38.234  32.906  38.237  1.00  0.00    -0.206 F 
ATOM     90  C   UNL A   1      38.877  34.977  39.135  1.00  0.00     0.059 A 
ATOM     91  C   UNL A   1      40.452  36.380  37.934  1.00  0.00     0.059 A 
ATOM     92  F   UNL A   1      41.294  35.674  35.863  1.00  0.00    -0.206 F 
ATOM     93  C   UNL A   1      39.628  36.149  39.034  1.00  0.00     0.060 A 
BRANCH  93  94
ATOM     94  S   UNL A   1      39.537  37.356  40.374  1.00  0.00     0.124 S 
ATOM     95  O   UNL A   1      38.865  36.588  41.417  1.00  0.00    -0.237 OA
ATOM     96  O   UNL A   1      40.944  37.660  40.617  1.00  0.00    -0.237 OA
ATOM     97  O   UNL A   1      38.756  38.447  39.798  1.00  0.00    -0.744 OA
ENDBRANCH  93  94
ENDBRANCH  61  86
ENDBRANCH  35  36
ENDBRANCH  28  30
ENDBRANCH  27  28
ENDBRANCH  26  27
ENDBRANCH   1  26
TORSDOF 19
ENDMDL
