MODEL 1
REMARK VINA RESULT:     -11.1      0.000      0.000
REMARK SMILES CC[C@@](C)(NC(=O)c1cccc2ccccc12)C(=O)OCCOCCOC(=O)c1ccc(-c2c3nc(c(-c4c(F)cc(S(=O)(=O)[O-])cc4F)c4ccc([nH]4)c(-c4c(F)cc(S(=O)(=O)[O-])cc4F)c4nc(c(-c5c(F)cc(S(=O)(=O)[O-])cc5F)c5ccc2[nH]5)C=C4)C=C3)cc1
REMARK SMILES IDX 24 1 23 2 22 3 21 4 20 5 18 6 19 7 3 8 4 9 2 10 1 11 5 12
REMARK SMILES IDX 6 13 7 15 8 16 9 17 17 18 10 19 12 20 16 21 11 22 13 23
REMARK SMILES IDX 15 24 14 25 25 26 26 27 27 28 28 29 29 30 30 31 94 32 31 33
REMARK SMILES IDX 93 34 32 35 33 36 34 37 87 38 35 39 92 40 86 41 88 42 36 43
REMARK SMILES IDX 91 44 85 45 84 46 37 48 71 49 50 50 70 51 51 52 54 53 69 54
REMARK SMILES IDX 89 55 52 56 53 57 68 59 90 60 55 61 38 62 39 63 48 64 40 65
REMARK SMILES IDX 41 66 47 67 49 68 42 69 43 70 44 71 45 72 46 73 72 74 73 75
REMARK SMILES IDX 82 76 74 77 75 78 81 79 83 80 76 81 77 82 78 83 79 84 80 85
REMARK SMILES IDX 56 86 57 87 66 88 58 89 59 90 65 91 67 92 60 93 61 94 62 95
REMARK SMILES IDX 63 96 64 97
REMARK H PARENT 5 14 88 47 54 58
REMARK Flexibility Score: inf
ROOT
ATOM      1  C   UNL A   1      37.711  21.249  24.989  1.00  0.00     0.202 C 
ENDROOT
BRANCH   1   2
ATOM      2  O   UNL A   1      36.353  20.978  25.329  1.00  0.00    -0.374 OA
BRANCH   2   3
ATOM      3  C   UNL A   1      35.496  21.938  25.968  1.00  0.00     0.202 C 
BRANCH   3   4
ATOM      4  C   UNL A   1      35.615  23.394  25.429  1.00  0.00     0.261 C 
BRANCH   4   5
ATOM      5  O   UNL A   1      34.423  23.818  24.786  1.00  0.00    -0.462 OA
BRANCH   5   6
ATOM      6  C   UNL A   1      34.250  23.421  23.511  1.00  0.00     0.331 C 
ATOM      7  O   UNL A   1      35.169  23.248  22.736  1.00  0.00    -0.249 OA
BRANCH   6   8
ATOM      8  C   UNL A   1      32.739  23.283  23.214  1.00  0.00     0.135 C 
ATOM      9  C   UNL A   1      32.465  21.909  22.581  1.00  0.00     0.047 C 
BRANCH   8  10
ATOM     10  C   UNL A   1      31.910  23.289  24.586  1.00  0.00     0.037 C 
ATOM     11  C   UNL A   1      30.647  24.157  24.668  1.00  0.00     0.007 C 
ENDBRANCH   8  10
BRANCH   8  12
ATOM     12  N   UNL A   1      32.248  24.424  22.284  1.00  0.00    -0.336 N 
ATOM     13  C   UNL A   1      32.652  25.782  22.148  1.00  0.00     0.252 C 
ATOM     14  H   UNL A   1      31.522  24.159  21.673  1.00  0.00     0.165 HD
ATOM     15  O   UNL A   1      33.521  25.964  21.284  1.00  0.00    -0.269 OA
BRANCH  13  16
ATOM     16  C   UNL A   1      32.095  27.086  22.918  1.00  0.00     0.047 A 
ATOM     17  C   UNL A   1      30.833  27.343  22.365  1.00  0.00     0.014 A 
ATOM     18  C   UNL A   1      32.522  27.954  24.156  1.00  0.00    -0.006 A 
ATOM     19  C   UNL A   1      30.049  28.398  22.807  1.00  0.00     0.001 A 
ATOM     20  C   UNL A   1      31.682  29.047  24.500  1.00  0.00    -0.018 A 
ATOM     21  C   UNL A   1      33.598  27.914  25.179  1.00  0.00     0.009 A 
ATOM     22  C   UNL A   1      30.488  29.246  23.818  1.00  0.00     0.009 A 
ATOM     23  C   UNL A   1      31.942  29.946  25.584  1.00  0.00     0.009 A 
ATOM     24  C   UNL A   1      33.857  28.774  26.262  1.00  0.00     0.001 A 
ATOM     25  C   UNL A   1      33.016  29.823  26.457  1.00  0.00     0.001 A 
ENDBRANCH  13  16
ENDBRANCH   8  12
ENDBRANCH   6   8
ENDBRANCH   5   6
ENDBRANCH   4   5
ENDBRANCH   3   4
ENDBRANCH   2   3
ENDBRANCH   1   2
BRANCH   1  26
ATOM     26  C   UNL A   1      38.728  22.087  26.038  1.00  0.00     0.261 C 
BRANCH  26  27
ATOM     27  O   UNL A   1      40.223  21.805  26.072  1.00  0.00    -0.460 OA
BRANCH  27  28
ATOM     28  C   UNL A   1      41.250  22.738  26.035  1.00  0.00     0.338 C 
ATOM     29  O   UNL A   1      42.272  22.562  25.386  1.00  0.00    -0.246 OA
BRANCH  28  30
ATOM     30  C   UNL A   1      40.999  24.074  26.800  1.00  0.00     0.060 A 
ATOM     31  C   UNL A   1      41.872  25.170  26.712  1.00  0.00     0.016 A 
ATOM     32  C   UNL A   1      40.037  24.208  27.808  1.00  0.00     0.016 A 
ATOM     33  C   UNL A   1      41.711  26.402  27.397  1.00  0.00     0.010 A 
ATOM     34  C   UNL A   1      39.921  25.411  28.594  1.00  0.00     0.010 A 
ATOM     35  C   UNL A   1      40.746  26.537  28.385  1.00  0.00    -0.014 A 
BRANCH  35  36
ATOM     36  C   UNL A   1      40.826  27.704  29.346  1.00  0.00     0.031 A 
ATOM     37  C   UNL A   1      41.998  27.749  30.310  1.00  0.00     0.074 A 
ATOM     38  C   UNL A   1      39.988  28.767  29.341  1.00  0.00     0.049 A 
ATOM     39  N   UNL A   1      42.220  28.530  31.338  1.00  0.00    -0.248 NA
ATOM     40  C   UNL A   1      43.075  26.781  30.056  1.00  0.00     0.031 C 
ATOM     41  C   UNL A   1      38.922  29.006  28.372  1.00  0.00     0.029 A 
ATOM     42  N   UNL A   1      39.905  29.859  30.190  1.00  0.00    -0.354 N 
ATOM     43  C   UNL A   1      43.431  28.110  31.884  1.00  0.00     0.074 A 
ATOM     44  C   UNL A   1      43.911  27.028  31.053  1.00  0.00     0.031 C 
ATOM     45  C   UNL A   1      38.275  30.145  28.696  1.00  0.00     0.029 A 
ATOM     46  C   UNL A   1      38.838  30.697  29.930  1.00  0.00     0.049 A 
ATOM     47  H   UNL A   1      40.550  30.022  30.915  1.00  0.00     0.167 HD
ATOM     48  C   UNL A   1      44.076  28.559  32.991  1.00  0.00     0.037 A 
ATOM     49  C   UNL A   1      38.345  31.752  30.622  1.00  0.00     0.037 A 
ATOM     50  C   UNL A   1      43.612  29.646  33.816  1.00  0.00     0.049 A 
ATOM     51  C   UNL A   1      39.012  32.176  31.916  1.00  0.00     0.074 A 
ATOM     52  C   UNL A   1      44.163  30.138  34.988  1.00  0.00     0.029 A 
ATOM     53  N   UNL A   1      42.489  30.417  33.553  1.00  0.00    -0.354 N 
ATOM     54  N   UNL A   1      40.090  31.696  32.488  1.00  0.00    -0.248 NA
ATOM     55  C   UNL A   1      38.387  33.280  32.667  1.00  0.00     0.031 C 
ATOM     56  C   UNL A   1      43.347  31.172  35.458  1.00  0.00     0.029 A 
ATOM     57  C   UNL A   1      42.324  31.370  34.545  1.00  0.00     0.049 A 
ATOM     58  H   UNL A   1      41.896  30.303  32.775  1.00  0.00     0.167 HD
ATOM     59  C   UNL A   1      40.292  32.458  33.638  1.00  0.00     0.074 A 
ATOM     60  C   UNL A   1      39.227  33.436  33.681  1.00  0.00     0.031 C 
ATOM     61  C   UNL A   1      41.274  32.359  34.571  1.00  0.00     0.037 A 
BRANCH  48  62
ATOM     62  C   UNL A   1      45.307  27.807  33.428  1.00  0.00     0.058 A 
ATOM     63  C   UNL A   1      45.249  26.670  34.250  1.00  0.00     0.135 A 
ATOM     64  C   UNL A   1      46.576  28.243  33.011  1.00  0.00     0.135 A 
ATOM     65  F   UNL A   1      44.065  26.218  34.696  1.00  0.00    -0.206 F 
ATOM     66  C   UNL A   1      46.405  26.019  34.675  1.00  0.00     0.059 A 
ATOM     67  C   UNL A   1      47.742  27.590  33.398  1.00  0.00     0.059 A 
ATOM     68  F   UNL A   1      46.694  29.323  32.223  1.00  0.00    -0.206 F 
ATOM     69  C   UNL A   1      47.648  26.489  34.247  1.00  0.00     0.060 A 
BRANCH  69  70
ATOM     70  S   UNL A   1      49.140  25.647  34.818  1.00  0.00     0.124 S 
ATOM     71  O   UNL A   1      49.724  25.199  33.558  1.00  0.00    -0.237 OA
ATOM     72  O   UNL A   1      49.860  26.717  35.503  1.00  0.00    -0.237 OA
ATOM     73  O   UNL A   1      48.626  24.589  35.682  1.00  0.00    -0.744 OA
ENDBRANCH  69  70
ENDBRANCH  48  62
BRANCH  49  74
ATOM     74  C   UNL A   1      37.109  32.466  30.161  1.00  0.00     0.058 A 
ATOM     75  C   UNL A   1      37.166  33.511  29.222  1.00  0.00     0.135 A 
ATOM     76  C   UNL A   1      35.847  32.154  30.692  1.00  0.00     0.135 A 
ATOM     77  F   UNL A   1      38.347  33.887  28.707  1.00  0.00    -0.206 F 
ATOM     78  C   UNL A   1      36.025  34.214  28.829  1.00  0.00     0.059 A 
ATOM     79  C   UNL A   1      34.689  32.819  30.291  1.00  0.00     0.059 A 
ATOM     80  F   UNL A   1      35.726  31.181  31.608  1.00  0.00    -0.206 F 
ATOM     81  C   UNL A   1      34.788  33.853  29.363  1.00  0.00     0.060 A 
BRANCH  81  82
ATOM     82  S   UNL A   1      33.306  34.721  28.796  1.00  0.00     0.124 S 
ATOM     83  O   UNL A   1      33.876  35.915  28.182  1.00  0.00    -0.237 OA
ATOM     84  O   UNL A   1      32.716  33.752  27.878  1.00  0.00    -0.237 OA
ATOM     85  O   UNL A   1      32.554  34.943  30.028  1.00  0.00    -0.744 OA
ENDBRANCH  81  82
ENDBRANCH  49  74
BRANCH  61  86
ATOM     86  C   UNL A   1      41.298  33.379  35.680  1.00  0.00     0.058 A 
ATOM     87  C   UNL A   1      42.032  34.572  35.590  1.00  0.00     0.135 A 
ATOM     88  C   UNL A   1      40.534  33.172  36.842  1.00  0.00     0.135 A 
ATOM     89  F   UNL A   1      42.779  34.825  34.502  1.00  0.00    -0.206 F 
ATOM     90  C   UNL A   1      42.040  35.504  36.625  1.00  0.00     0.059 A 
ATOM     91  C   UNL A   1      40.504  34.103  37.876  1.00  0.00     0.059 A 
ATOM     92  F   UNL A   1      39.798  32.058  36.977  1.00  0.00    -0.206 F 
ATOM     93  C   UNL A   1      41.275  35.258  37.767  1.00  0.00     0.060 A 
BRANCH  93  94
ATOM     94  S   UNL A   1      41.289  36.473  39.103  1.00  0.00     0.124 S 
ATOM     95  O   UNL A   1      42.676  36.925  39.076  1.00  0.00    -0.237 OA
ATOM     96  O   UNL A   1      40.297  37.446  38.654  1.00  0.00    -0.237 OA
ATOM     97  O   UNL A   1      40.906  35.694  40.276  1.00  0.00    -0.744 OA
ENDBRANCH  93  94
ENDBRANCH  61  86
ENDBRANCH  35  36
ENDBRANCH  28  30
ENDBRANCH  27  28
ENDBRANCH  26  27
ENDBRANCH   1  26
TORSDOF 20
ENDMDL
MODEL 2
REMARK VINA RESULT:     -11.1      4.310      7.345
REMARK SMILES CC[C@@](C)(NC(=O)c1cccc2ccccc12)C(=O)OCCOCCOC(=O)c1ccc(-c2c3nc(c(-c4c(F)cc(S(=O)(=O)[O-])cc4F)c4ccc([nH]4)c(-c4c(F)cc(S(=O)(=O)[O-])cc4F)c4nc(c(-c5c(F)cc(S(=O)(=O)[O-])cc5F)c5ccc2[nH]5)C=C4)C=C3)cc1
REMARK SMILES IDX 24 1 23 2 22 3 21 4 20 5 18 6 19 7 3 8 4 9 2 10 1 11 5 12
REMARK SMILES IDX 6 13 7 15 8 16 9 17 17 18 10 19 12 20 16 21 11 22 13 23
REMARK SMILES IDX 15 24 14 25 25 26 26 27 27 28 28 29 29 30 30 31 94 32 31 33
REMARK SMILES IDX 93 34 32 35 33 36 34 37 87 38 35 39 92 40 86 41 88 42 36 43
REMARK SMILES IDX 91 44 85 45 84 46 37 48 71 49 50 50 70 51 51 52 54 53 69 54
REMARK SMILES IDX 89 55 52 56 53 57 68 59 90 60 55 61 38 62 39 63 48 64 40 65
REMARK SMILES IDX 41 66 47 67 49 68 42 69 43 70 44 71 45 72 46 73 72 74 73 75
REMARK SMILES IDX 82 76 74 77 75 78 81 79 83 80 76 81 77 82 78 83 79 84 80 85
REMARK SMILES IDX 56 86 57 87 66 88 58 89 59 90 65 91 67 92 60 93 61 94 62 95
REMARK SMILES IDX 63 96 64 97
REMARK H PARENT 5 14 88 47 54 58
REMARK Flexibility Score: inf
ROOT
ATOM      1  C   UNL A   1      42.269  21.677  26.267  1.00  0.00     0.202 C 
ENDROOT
BRANCH   1   2
ATOM      2  O   UNL A   1      42.932  21.836  25.014  1.00  0.00    -0.374 OA
BRANCH   2   3
ATOM      3  C   UNL A   1      43.596  23.050  24.624  1.00  0.00     0.202 C 
BRANCH   3   4
ATOM      4  C   UNL A   1      44.892  22.856  23.783  1.00  0.00     0.261 C 
BRANCH   4   5
ATOM      5  O   UNL A   1      45.929  23.730  24.202  1.00  0.00    -0.462 OA
BRANCH   5   6
ATOM      6  C   UNL A   1      46.368  23.584  25.466  1.00  0.00     0.331 C 
ATOM      7  O   UNL A   1      46.461  22.508  26.020  1.00  0.00    -0.249 OA
BRANCH   6   8
ATOM      8  C   UNL A   1      46.671  24.975  26.070  1.00  0.00     0.135 C 
ATOM      9  C   UNL A   1      47.878  24.870  27.017  1.00  0.00     0.047 C 
BRANCH   8  10
ATOM     10  C   UNL A   1      47.130  25.985  24.913  1.00  0.00     0.037 C 
ATOM     11  C   UNL A   1      46.281  27.239  24.665  1.00  0.00     0.007 C 
ENDBRANCH   8  10
BRANCH   8  12
ATOM     12  N   UNL A   1      45.433  25.538  26.817  1.00  0.00    -0.336 N 
ATOM     13  C   UNL A   1      45.262  26.029  28.142  1.00  0.00     0.252 C 
ATOM     14  H   UNL A   1      44.612  25.561  26.273  1.00  0.00     0.165 HD
ATOM     15  O   UNL A   1      45.411  27.254  28.247  1.00  0.00    -0.269 OA
BRANCH  13  16
ATOM     16  C   UNL A   1      44.855  25.220  29.477  1.00  0.00     0.047 A 
ATOM     17  C   UNL A   1      44.158  24.087  29.036  1.00  0.00     0.014 A 
ATOM     18  C   UNL A   1      45.182  25.305  31.011  1.00  0.00    -0.006 A 
ATOM     19  C   UNL A   1      43.667  23.145  29.928  1.00  0.00     0.001 A 
ATOM     20  C   UNL A   1      44.589  24.327  31.854  1.00  0.00    -0.018 A 
ATOM     21  C   UNL A   1      46.046  26.141  31.883  1.00  0.00     0.009 A 
ATOM     22  C   UNL A   1      43.846  23.291  31.300  1.00  0.00     0.009 A 
ATOM     23  C   UNL A   1      44.766  24.280  33.274  1.00  0.00     0.009 A 
ATOM     24  C   UNL A   1      46.251  26.096  33.275  1.00  0.00     0.001 A 
ATOM     25  C   UNL A   1      45.580  25.152  33.986  1.00  0.00     0.001 A 
ENDBRANCH  13  16
ENDBRANCH   8  12
ENDBRANCH   6   8
ENDBRANCH   5   6
ENDBRANCH   4   5
ENDBRANCH   3   4
ENDBRANCH   2   3
ENDBRANCH   1   2
BRANCH   1  26
ATOM     26  C   UNL A   1      40.596  21.821  26.397  1.00  0.00     0.261 C 
BRANCH  26  27
ATOM     27  O   UNL A   1      39.963  23.056  27.021  1.00  0.00    -0.460 OA
BRANCH  27  28
ATOM     28  C   UNL A   1      40.232  24.381  26.708  1.00  0.00     0.338 C 
ATOM     29  O   UNL A   1      40.280  24.786  25.555  1.00  0.00    -0.246 OA
BRANCH  28  30
ATOM     30  C   UNL A   1      40.385  25.360  27.913  1.00  0.00     0.060 A 
ATOM     31  C   UNL A   1      39.323  25.661  28.782  1.00  0.00     0.016 A 
ATOM     32  C   UNL A   1      41.498  26.191  28.085  1.00  0.00     0.016 A 
ATOM     33  C   UNL A   1      39.393  26.556  29.880  1.00  0.00     0.010 A 
ATOM     34  C   UNL A   1      41.552  27.185  29.129  1.00  0.00     0.010 A 
ATOM     35  C   UNL A   1      40.505  27.368  30.057  1.00  0.00    -0.014 A 
BRANCH  35  36
ATOM     36  C   UNL A   1      40.414  28.556  30.991  1.00  0.00     0.031 A 
ATOM     37  C   UNL A   1      41.398  28.629  32.143  1.00  0.00     0.074 A 
ATOM     38  C   UNL A   1      39.588  29.615  30.814  1.00  0.00     0.049 A 
ATOM     39  N   UNL A   1      41.435  29.435  33.176  1.00  0.00    -0.248 NA
ATOM     40  C   UNL A   1      42.505  27.662  32.104  1.00  0.00     0.031 C 
ATOM     41  C   UNL A   1      38.708  29.826  29.668  1.00  0.00     0.029 A 
ATOM     42  N   UNL A   1      39.356  30.725  31.610  1.00  0.00    -0.354 N 
ATOM     43  C   UNL A   1      42.532  29.034  33.936  1.00  0.00     0.074 A 
ATOM     44  C   UNL A   1      43.152  27.936  33.226  1.00  0.00     0.031 C 
ATOM     45  C   UNL A   1      38.012  30.968  29.847  1.00  0.00     0.029 A 
ATOM     46  C   UNL A   1      38.350  31.551  31.147  1.00  0.00     0.049 A 
ATOM     47  H   UNL A   1      39.864  30.908  32.433  1.00  0.00     0.167 HD
ATOM     48  C   UNL A   1      42.973  29.512  35.128  1.00  0.00     0.037 A 
ATOM     49  C   UNL A   1      37.741  32.618  31.719  1.00  0.00     0.037 A 
ATOM     50  C   UNL A   1      42.370  30.614  35.833  1.00  0.00     0.049 A 
ATOM     51  C   UNL A   1      38.171  33.076  33.099  1.00  0.00     0.074 A 
ATOM     52  C   UNL A   1      42.706  31.135  37.072  1.00  0.00     0.029 A 
ATOM     53  N   UNL A   1      41.310  31.373  35.360  1.00  0.00    -0.354 N 
ATOM     54  N   UNL A   1      39.133  32.614  33.862  1.00  0.00    -0.248 NA
ATOM     55  C   UNL A   1      37.422  34.192  33.703  1.00  0.00     0.031 C 
ATOM     56  C   UNL A   1      41.819  32.175  37.368  1.00  0.00     0.029 A 
ATOM     57  C   UNL A   1      40.971  32.347  36.285  1.00  0.00     0.049 A 
ATOM     58  H   UNL A   1      40.862  31.238  34.493  1.00  0.00     0.167 HD
ATOM     59  C   UNL A   1      39.129  33.403  35.011  1.00  0.00     0.074 A 
ATOM     60  C   UNL A   1      38.071  34.376  34.845  1.00  0.00     0.031 C 
ATOM     61  C   UNL A   1      39.932  33.330  36.104  1.00  0.00     0.037 A 
BRANCH  48  62
ATOM     62  C   UNL A   1      44.109  28.776  35.791  1.00  0.00     0.058 A 
ATOM     63  C   UNL A   1      45.454  29.138  35.612  1.00  0.00     0.135 A 
ATOM     64  C   UNL A   1      43.837  27.678  36.625  1.00  0.00     0.135 A 
ATOM     65  F   UNL A   1      45.776  30.166  34.810  1.00  0.00    -0.206 F 
ATOM     66  C   UNL A   1      46.488  28.414  36.202  1.00  0.00     0.059 A 
ATOM     67  C   UNL A   1      44.852  26.960  37.250  1.00  0.00     0.059 A 
ATOM     68  F   UNL A   1      42.571  27.286  36.836  1.00  0.00    -0.206 F 
ATOM     69  C   UNL A   1      46.177  27.323  37.016  1.00  0.00     0.060 A 
BRANCH  69  70
ATOM     70  S   UNL A   1      47.526  26.382  37.762  1.00  0.00     0.124 S 
ATOM     71  O   UNL A   1      48.644  27.308  37.615  1.00  0.00    -0.237 OA
ATOM     72  O   UNL A   1      47.049  26.179  39.126  1.00  0.00    -0.237 OA
ATOM     73  O   UNL A   1      47.597  25.177  36.941  1.00  0.00    -0.744 OA
ENDBRANCH  69  70
ENDBRANCH  48  62
BRANCH  49  74
ATOM     74  C   UNL A   1      36.605  33.316  31.032  1.00  0.00     0.058 A 
ATOM     75  C   UNL A   1      36.817  34.183  29.945  1.00  0.00     0.135 A 
ATOM     76  C   UNL A   1      35.282  33.170  31.482  1.00  0.00     0.135 A 
ATOM     77  F   UNL A   1      38.062  34.398  29.492  1.00  0.00    -0.206 F 
ATOM     78  C   UNL A   1      35.768  34.875  29.337  1.00  0.00     0.059 A 
ATOM     79  C   UNL A   1      34.214  33.825  30.870  1.00  0.00     0.059 A 
ATOM     80  F   UNL A   1      35.014  32.373  32.528  1.00  0.00    -0.206 F 
ATOM     81  C   UNL A   1      34.467  34.681  29.801  1.00  0.00     0.060 A 
BRANCH  81  82
ATOM     82  S   UNL A   1      33.106  35.526  28.962  1.00  0.00     0.124 S 
ATOM     83  O   UNL A   1      32.324  36.023  30.087  1.00  0.00    -0.237 OA
ATOM     84  O   UNL A   1      33.809  36.536  28.178  1.00  0.00    -0.237 OA
ATOM     85  O   UNL A   1      32.480  34.463  28.180  1.00  0.00    -0.744 OA
ENDBRANCH  81  82
ENDBRANCH  49  74
BRANCH  61  86
ATOM     86  C   UNL A   1      39.760  34.375  37.176  1.00  0.00     0.058 A 
ATOM     87  C   UNL A   1      38.997  34.148  38.333  1.00  0.00     0.135 A 
ATOM     88  C   UNL A   1      40.408  35.617  37.058  1.00  0.00     0.135 A 
ATOM     89  F   UNL A   1      38.357  32.979  38.502  1.00  0.00    -0.206 F 
ATOM     90  C   UNL A   1      38.852  35.126  39.315  1.00  0.00     0.059 A 
ATOM     91  C   UNL A   1      40.301  36.597  38.040  1.00  0.00     0.059 A 
ATOM     92  F   UNL A   1      41.164  35.884  35.982  1.00  0.00    -0.206 F 
ATOM     93  C   UNL A   1      39.505  36.350  39.157  1.00  0.00     0.060 A 
BRANCH  93  94
ATOM     94  S   UNL A   1      39.313  37.611  40.435  1.00  0.00     0.124 S 
ATOM     95  O   UNL A   1      40.626  38.247  40.421  1.00  0.00    -0.237 OA
ATOM     96  O   UNL A   1      38.212  38.419  39.919  1.00  0.00    -0.237 OA
ATOM     97  O   UNL A   1      39.004  36.836  41.634  1.00  0.00    -0.744 OA
ENDBRANCH  93  94
ENDBRANCH  61  86
ENDBRANCH  35  36
ENDBRANCH  28  30
ENDBRANCH  27  28
ENDBRANCH  26  27
ENDBRANCH   1  26
TORSDOF 20
ENDMDL
MODEL 3
REMARK VINA RESULT:     -11.0      1.985      8.508
REMARK SMILES CC[C@@](C)(NC(=O)c1cccc2ccccc12)C(=O)OCCOCCOC(=O)c1ccc(-c2c3nc(c(-c4c(F)cc(S(=O)(=O)[O-])cc4F)c4ccc([nH]4)c(-c4c(F)cc(S(=O)(=O)[O-])cc4F)c4nc(c(-c5c(F)cc(S(=O)(=O)[O-])cc5F)c5ccc2[nH]5)C=C4)C=C3)cc1
REMARK SMILES IDX 24 1 23 2 22 3 21 4 20 5 18 6 19 7 3 8 4 9 2 10 1 11 5 12
REMARK SMILES IDX 6 13 7 15 8 16 9 17 17 18 10 19 12 20 16 21 11 22 13 23
REMARK SMILES IDX 15 24 14 25 25 26 26 27 27 28 28 29 29 30 30 31 94 32 31 33
REMARK SMILES IDX 93 34 32 35 33 36 34 37 87 38 35 39 92 40 86 41 88 42 36 43
REMARK SMILES IDX 91 44 85 45 84 46 37 48 71 49 50 50 70 51 51 52 54 53 69 54
REMARK SMILES IDX 89 55 52 56 53 57 68 59 90 60 55 61 38 62 39 63 48 64 40 65
REMARK SMILES IDX 41 66 47 67 49 68 42 69 43 70 44 71 45 72 46 73 72 74 73 75
REMARK SMILES IDX 82 76 74 77 75 78 81 79 83 80 76 81 77 82 78 83 79 84 80 85
REMARK SMILES IDX 56 86 57 87 66 88 58 89 59 90 65 91 67 92 60 93 61 94 62 95
REMARK SMILES IDX 63 96 64 97
REMARK H PARENT 5 14 88 47 54 58
REMARK Flexibility Score: inf
ROOT
ATOM      1  C   UNL A   1      39.863  22.442  26.657  1.00  0.00     0.202 C 
ENDROOT
BRANCH   1   2
ATOM      2  O   UNL A   1      38.957  21.720  25.825  1.00  0.00    -0.374 OA
BRANCH   2   3
ATOM      3  C   UNL A   1      37.702  22.259  25.377  1.00  0.00     0.202 C 
BRANCH   3   4
ATOM      4  C   UNL A   1      36.460  21.362  25.653  1.00  0.00     0.261 C 
BRANCH   4   5
ATOM      5  O   UNL A   1      35.376  21.682  24.796  1.00  0.00    -0.462 OA
BRANCH   5   6
ATOM      6  C   UNL A   1      34.165  21.802  25.372  1.00  0.00     0.331 C 
ATOM      7  O   UNL A   1      33.688  20.958  26.103  1.00  0.00    -0.249 OA
BRANCH   6   8
ATOM      8  C   UNL A   1      33.505  23.123  24.915  1.00  0.00     0.135 C 
ATOM      9  C   UNL A   1      34.415  23.823  23.892  1.00  0.00     0.047 C 
BRANCH   8  10
ATOM     10  C   UNL A   1      32.145  22.811  24.125  1.00  0.00     0.037 C 
ATOM     11  C   UNL A   1      32.234  22.035  22.804  1.00  0.00     0.007 C 
ENDBRANCH   8  10
BRANCH   8  12
ATOM     12  N   UNL A   1      33.223  24.052  26.126  1.00  0.00    -0.336 N 
ATOM     13  C   UNL A   1      32.100  24.857  26.467  1.00  0.00     0.252 C 
ATOM     14  H   UNL A   1      33.957  24.091  26.781  1.00  0.00     0.165 HD
ATOM     15  O   UNL A   1      31.275  24.288  27.195  1.00  0.00    -0.269 OA
BRANCH  13  16
ATOM     16  C   UNL A   1      31.802  26.396  26.081  1.00  0.00     0.047 A 
ATOM     17  C   UNL A   1      32.314  27.158  27.139  1.00  0.00     0.014 A 
ATOM     18  C   UNL A   1      31.278  27.180  24.825  1.00  0.00    -0.006 A 
ATOM     19  C   UNL A   1      32.246  28.543  27.134  1.00  0.00     0.001 A 
ATOM     20  C   UNL A   1      31.192  28.593  24.934  1.00  0.00    -0.018 A 
ATOM     21  C   UNL A   1      30.876  26.842  23.435  1.00  0.00     0.009 A 
ATOM     22  C   UNL A   1      31.662  29.231  26.076  1.00  0.00     0.009 A 
ATOM     23  C   UNL A   1      30.713  29.449  23.891  1.00  0.00     0.009 A 
ATOM     24  C   UNL A   1      30.425  27.670  22.391  1.00  0.00     0.001 A 
ATOM     25  C   UNL A   1      30.327  29.003  22.634  1.00  0.00     0.001 A 
ENDBRANCH  13  16
ENDBRANCH   8  12
ENDBRANCH   6   8
ENDBRANCH   5   6
ENDBRANCH   4   5
ENDBRANCH   3   4
ENDBRANCH   2   3
ENDBRANCH   1   2
BRANCH   1  26
ATOM     26  C   UNL A   1      41.470  22.676  26.208  1.00  0.00     0.261 C 
BRANCH  26  27
ATOM     27  O   UNL A   1      42.234  23.914  26.652  1.00  0.00    -0.460 OA
BRANCH  27  28
ATOM     28  C   UNL A   1      42.005  25.224  26.255  1.00  0.00     0.338 C 
ATOM     29  O   UNL A   1      42.103  25.583  25.089  1.00  0.00    -0.246 OA
BRANCH  28  30
ATOM     30  C   UNL A   1      41.526  26.211  27.365  1.00  0.00     0.060 A 
ATOM     31  C   UNL A   1      42.275  27.333  27.753  1.00  0.00     0.016 A 
ATOM     32  C   UNL A   1      40.453  25.934  28.221  1.00  0.00     0.016 A 
ATOM     33  C   UNL A   1      41.905  28.253  28.766  1.00  0.00     0.010 A 
ATOM     34  C   UNL A   1      40.121  26.797  29.326  1.00  0.00     0.010 A 
ATOM     35  C   UNL A   1      40.831  27.985  29.604  1.00  0.00    -0.014 A 
BRANCH  35  36
ATOM     36  C   UNL A   1      40.678  28.770  30.889  1.00  0.00     0.031 A 
ATOM     37  C   UNL A   1      39.595  29.831  30.947  1.00  0.00     0.074 A 
ATOM     38  C   UNL A   1      41.366  28.525  32.029  1.00  0.00     0.049 A 
ATOM     39  N   UNL A   1      39.358  30.751  31.849  1.00  0.00    -0.248 NA
ATOM     40  C   UNL A   1      38.636  29.831  29.832  1.00  0.00     0.031 C 
ATOM     41  C   UNL A   1      42.308  27.428  32.236  1.00  0.00     0.029 A 
ATOM     42  N   UNL A   1      41.376  29.193  33.242  1.00  0.00    -0.354 N 
ATOM     43  C   UNL A   1      38.262  31.474  31.381  1.00  0.00     0.074 A 
ATOM     44  C   UNL A   1      37.861  30.861  30.133  1.00  0.00     0.031 C 
ATOM     45  C   UNL A   1      42.825  27.515  33.479  1.00  0.00     0.029 A 
ATOM     46  C   UNL A   1      42.298  28.707  34.149  1.00  0.00     0.049 A 
ATOM     47  H   UNL A   1      40.777  29.948  33.441  1.00  0.00     0.167 HD
ATOM     48  C   UNL A   1      37.658  32.563  31.920  1.00  0.00     0.037 A 
ATOM     49  C   UNL A   1      42.705  29.185  35.349  1.00  0.00     0.037 A 
ATOM     50  C   UNL A   1      38.042  33.170  33.169  1.00  0.00     0.049 A 
ATOM     51  C   UNL A   1      42.097  30.465  35.891  1.00  0.00     0.074 A 
ATOM     52  C   UNL A   1      37.531  34.308  33.770  1.00  0.00     0.029 A 
ATOM     53  N   UNL A   1      39.028  32.685  34.015  1.00  0.00    -0.354 N 
ATOM     54  N   UNL A   1      41.142  31.207  35.383  1.00  0.00    -0.248 NA
ATOM     55  C   UNL A   1      42.632  30.980  37.164  1.00  0.00     0.031 C 
ATOM     56  C   UNL A   1      38.240  34.538  34.954  1.00  0.00     0.029 A 
ATOM     57  C   UNL A   1      39.149  33.506  35.124  1.00  0.00     0.049 A 
ATOM     58  H   UNL A   1      39.565  31.875  33.850  1.00  0.00     0.167 HD
ATOM     59  C   UNL A   1      40.938  32.248  36.287  1.00  0.00     0.074 A 
ATOM     60  C   UNL A   1      41.866  32.041  37.377  1.00  0.00     0.031 C 
ATOM     61  C   UNL A   1      40.059  33.281  36.221  1.00  0.00     0.037 A 
BRANCH  48  62
ATOM     62  C   UNL A   1      36.577  33.228  31.106  1.00  0.00     0.058 A 
ATOM     63  C   UNL A   1      36.854  34.028  29.986  1.00  0.00     0.135 A 
ATOM     64  C   UNL A   1      35.229  33.058  31.465  1.00  0.00     0.135 A 
ATOM     65  F   UNL A   1      38.124  34.243  29.606  1.00  0.00    -0.206 F 
ATOM     66  C   UNL A   1      35.838  34.666  29.277  1.00  0.00     0.059 A 
ATOM     67  C   UNL A   1      34.196  33.660  30.754  1.00  0.00     0.059 A 
ATOM     68  F   UNL A   1      34.902  32.303  32.526  1.00  0.00    -0.206 F 
ATOM     69  C   UNL A   1      34.512  34.480  29.672  1.00  0.00     0.060 A 
BRANCH  69  70
ATOM     70  S   UNL A   1      33.205  35.326  28.757  1.00  0.00     0.124 S 
ATOM     71  O   UNL A   1      33.979  36.220  27.902  1.00  0.00    -0.237 OA
ATOM     72  O   UNL A   1      32.535  34.223  28.076  1.00  0.00    -0.237 OA
ATOM     73  O   UNL A   1      32.423  35.980  29.802  1.00  0.00    -0.744 OA
ENDBRANCH  69  70
ENDBRANCH  48  62
BRANCH  49  74
ATOM     74  C   UNL A   1      43.793  28.502  36.123  1.00  0.00     0.058 A 
ATOM     75  C   UNL A   1      45.140  28.888  36.004  1.00  0.00     0.135 A 
ATOM     76  C   UNL A   1      43.515  27.408  36.960  1.00  0.00     0.135 A 
ATOM     77  F   UNL A   1      45.479  29.899  35.190  1.00  0.00    -0.206 F 
ATOM     78  C   UNL A   1      46.162  28.221  36.682  1.00  0.00     0.059 A 
ATOM     79  C   UNL A   1      44.514  26.747  37.671  1.00  0.00     0.059 A 
ATOM     80  F   UNL A   1      42.253  26.975  37.100  1.00  0.00    -0.206 F 
ATOM     81  C   UNL A   1      45.837  27.156  37.522  1.00  0.00     0.060 A 
BRANCH  81  82
ATOM     82  S   UNL A   1      47.159  26.342  38.451  1.00  0.00     0.124 S 
ATOM     83  O   UNL A   1      46.633  26.377  39.811  1.00  0.00    -0.237 OA
ATOM     84  O   UNL A   1      47.212  25.027  37.821  1.00  0.00    -0.237 OA
ATOM     85  O   UNL A   1      48.319  27.194  38.202  1.00  0.00    -0.744 OA
ENDBRANCH  81  82
ENDBRANCH  49  74
BRANCH  61  86
ATOM     86  C   UNL A   1      39.993  34.227  37.392  1.00  0.00     0.058 A 
ATOM     87  C   UNL A   1      40.791  35.379  37.475  1.00  0.00     0.135 A 
ATOM     88  C   UNL A   1      39.080  33.992  38.436  1.00  0.00     0.135 A 
ATOM     89  F   UNL A   1      41.680  35.657  36.507  1.00  0.00    -0.206 F 
ATOM     90  C   UNL A   1      40.714  36.243  38.566  1.00  0.00     0.059 A 
ATOM     91  C   UNL A   1      38.965  34.857  39.520  1.00  0.00     0.059 A 
ATOM     92  F   UNL A   1      38.279  32.915  38.402  1.00  0.00    -0.206 F 
ATOM     93  C   UNL A   1      39.800  35.970  39.586  1.00  0.00     0.060 A 
BRANCH  93  94
ATOM     94  S   UNL A   1      39.705  37.097  40.994  1.00  0.00     0.124 S 
ATOM     95  O   UNL A   1      39.122  36.238  42.019  1.00  0.00    -0.237 OA
ATOM     96  O   UNL A   1      41.103  37.466  41.197  1.00  0.00    -0.237 OA
ATOM     97  O   UNL A   1      38.844  38.172  40.512  1.00  0.00    -0.744 OA
ENDBRANCH  93  94
ENDBRANCH  61  86
ENDBRANCH  35  36
ENDBRANCH  28  30
ENDBRANCH  27  28
ENDBRANCH  26  27
ENDBRANCH   1  26
TORSDOF 20
ENDMDL
