MODEL 1
REMARK VINA RESULT:      -7.8      0.000      0.000
REMARK SMILES O=C(OCCOCCOC(=O)c1cccc([C@@H]2CCC[N@@H+](Cc3cccc(OCCO)c3)C2)c1)c1ccc(-c2c3nc(c(-c4c(F)cc(S(=O)(=O)[O-])cc4F)c4ccc([nH]4)c(-c4c(F)cc(S(=O)(=O)[O-])cc4F)c4nc(c(-c5c(F)cc(S(=O)(=O)[O-])cc5F)c5ccc2[nH]5)C=C4)C=C3)cc1
REMARK SMILES IDX 8 1 7 2 6 3 5 4 4 5 3 6 2 7 1 8 35 9 36 10 100 11 37 12
REMARK SMILES IDX 99 13 38 14 39 15 40 16 93 17 41 18 98 19 92 20 94 21 42 22
REMARK SMILES IDX 97 23 91 24 90 25 43 27 77 28 56 29 76 30 57 31 60 32 75 33
REMARK SMILES IDX 95 34 58 35 59 36 74 38 96 39 61 40 44 41 45 42 54 43 46 44
REMARK SMILES IDX 47 45 53 46 55 47 48 48 49 49 50 50 51 51 52 52 78 53 79 54
REMARK SMILES IDX 88 55 80 56 81 57 87 58 89 59 82 60 83 61 84 62 85 63 86 64
REMARK SMILES IDX 62 65 63 66 72 67 64 68 65 69 71 70 73 71 66 72 67 73 68 74
REMARK SMILES IDX 69 75 70 76 9 77 10 78 11 79 12 80 13 81 34 82 14 83 16 84
REMARK SMILES IDX 15 85 17 86 18 87 33 88 19 89 21 90 20 91 22 93 23 94 24 95
REMARK SMILES IDX 32 96 25 97 27 98 26 99 28 100 29 101 30 102 31 103
REMARK H PARENT 94 26 60 37 21 92 31 104
REMARK Flexibility Score: inf
ROOT
ATOM      1  C   UNL A   1      42.857  23.569  25.838  1.00  0.00     0.261 C 
ENDROOT
BRANCH   1   2
ATOM      2  C   UNL A   1      44.012  24.393  25.254  1.00  0.00     0.202 C 
BRANCH   2   3
ATOM      3  O   UNL A   1      44.994  24.541  26.278  1.00  0.00    -0.374 OA
BRANCH   3   4
ATOM      4  C   UNL A   1      46.361  24.410  25.918  1.00  0.00     0.202 C 
BRANCH   4   5
ATOM      5  C   UNL A   1      46.643  24.885  24.494  1.00  0.00     0.261 C 
BRANCH   5   6
ATOM      6  O   UNL A   1      47.310  26.157  24.534  1.00  0.00    -0.460 OA
BRANCH   6   7
ATOM      7  C   UNL A   1      46.757  27.390  24.454  1.00  0.00     0.338 C 
ATOM      8  O   UNL A   1      46.697  27.934  23.352  1.00  0.00    -0.246 OA
BRANCH   7   9
ATOM      9  C   UNL A   1      46.194  28.126  25.626  1.00  0.00     0.060 A 
ATOM     10  C   UNL A   1      44.865  28.061  26.048  1.00  0.00     0.016 A 
ATOM     11  C   UNL A   1      47.100  28.852  26.417  1.00  0.00     0.016 A 
ATOM     12  C   UNL A   1      44.430  28.706  27.193  1.00  0.00     0.010 A 
ATOM     13  C   UNL A   1      46.678  29.488  27.588  1.00  0.00     0.010 A 
ATOM     14  C   UNL A   1      45.335  29.414  27.972  1.00  0.00    -0.014 A 
BRANCH  14  15
ATOM     15  C   UNL A   1      44.798  30.147  29.128  1.00  0.00     0.031 A 
ATOM     16  C   UNL A   1      44.774  29.451  30.450  1.00  0.00     0.074 A 
ATOM     17  C   UNL A   1      44.499  31.452  28.996  1.00  0.00     0.049 A 
ATOM     18  N   UNL A   1      44.313  29.868  31.594  1.00  0.00    -0.248 NA
ATOM     19  C   UNL A   1      45.368  28.102  30.492  1.00  0.00     0.031 C 
ATOM     20  C   UNL A   1      44.651  32.231  27.763  1.00  0.00     0.029 A 
ATOM     21  N   UNL A   1      44.045  32.364  29.909  1.00  0.00    -0.354 N 
ATOM     22  C   UNL A   1      44.532  28.827  32.486  1.00  0.00     0.074 A 
ATOM     23  C   UNL A   1      45.167  27.755  31.753  1.00  0.00     0.031 C 
ATOM     24  C   UNL A   1      44.314  33.507  28.004  1.00  0.00     0.029 A 
ATOM     25  C   UNL A   1      43.854  33.619  29.382  1.00  0.00     0.049 A 
ATOM     26  H   UNL A   1      43.873  32.142  30.852  1.00  0.00     0.167 HD
ATOM     27  C   UNL A   1      44.216  28.783  33.800  1.00  0.00     0.037 A 
ATOM     28  C   UNL A   1      43.324  34.718  29.952  1.00  0.00     0.037 A 
ATOM     29  C   UNL A   1      43.581  29.876  34.482  1.00  0.00     0.049 A 
ATOM     30  C   UNL A   1      42.875  34.605  31.385  1.00  0.00     0.074 A 
ATOM     31  C   UNL A   1      43.126  29.939  35.784  1.00  0.00     0.029 A 
ATOM     32  N   UNL A   1      43.314  31.111  33.900  1.00  0.00    -0.354 N 
ATOM     33  N   UNL A   1      42.991  33.583  32.204  1.00  0.00    -0.248 NA
ATOM     34  C   UNL A   1      42.208  35.774  31.968  1.00  0.00     0.031 C 
ATOM     35  C   UNL A   1      42.545  31.198  35.977  1.00  0.00     0.029 A 
ATOM     36  C   UNL A   1      42.686  31.940  34.811  1.00  0.00     0.049 A 
ATOM     37  H   UNL A   1      43.540  31.360  32.975  1.00  0.00     0.167 HD
ATOM     38  C   UNL A   1      42.425  33.990  33.404  1.00  0.00     0.074 A 
ATOM     39  C   UNL A   1      41.982  35.359  33.207  1.00  0.00     0.031 C 
ATOM     40  C   UNL A   1      42.275  33.302  34.564  1.00  0.00     0.037 A 
BRANCH  27  41
ATOM     41  C   UNL A   1      44.478  27.494  34.525  1.00  0.00     0.058 A 
ATOM     42  C   UNL A   1      45.580  27.326  35.380  1.00  0.00     0.135 A 
ATOM     43  C   UNL A   1      43.634  26.390  34.325  1.00  0.00     0.135 A 
ATOM     44  F   UNL A   1      46.441  28.338  35.579  1.00  0.00    -0.206 F 
ATOM     45  C   UNL A   1      45.853  26.103  35.985  1.00  0.00     0.059 A 
ATOM     46  C   UNL A   1      43.872  25.163  34.939  1.00  0.00     0.059 A 
ATOM     47  F   UNL A   1      42.575  26.488  33.505  1.00  0.00    -0.206 F 
ATOM     48  C   UNL A   1      44.995  25.025  35.754  1.00  0.00     0.060 A 
BRANCH  48  49
ATOM     49  S   UNL A   1      45.372  23.438  36.527  1.00  0.00     0.124 S 
ATOM     50  O   UNL A   1      44.461  22.545  35.818  1.00  0.00    -0.237 OA
ATOM     51  O   UNL A   1      46.788  23.268  36.219  1.00  0.00    -0.237 OA
ATOM     52  O   UNL A   1      45.061  23.662  37.935  1.00  0.00    -0.744 OA
ENDBRANCH  48  49
ENDBRANCH  27  41
BRANCH  28  53
ATOM     53  C   UNL A   1      43.136  35.966  29.162  1.00  0.00     0.058 A 
ATOM     54  C   UNL A   1      42.013  36.155  28.344  1.00  0.00     0.135 A 
ATOM     55  C   UNL A   1      44.081  37.005  29.212  1.00  0.00     0.135 A 
ATOM     56  F   UNL A   1      41.081  35.195  28.251  1.00  0.00    -0.206 F 
ATOM     57  C   UNL A   1      41.840  37.318  27.595  1.00  0.00     0.059 A 
ATOM     58  C   UNL A   1      43.917  38.188  28.496  1.00  0.00     0.059 A 
ATOM     59  F   UNL A   1      45.174  36.885  29.982  1.00  0.00    -0.206 F 
ATOM     60  C   UNL A   1      42.798  38.329  27.679  1.00  0.00     0.060 A 
BRANCH  60  61
ATOM     61  S   UNL A   1      42.554  39.844  26.724  1.00  0.00     0.124 S 
ATOM     62  O   UNL A   1      41.231  39.622  26.154  1.00  0.00    -0.237 OA
ATOM     63  O   UNL A   1      42.642  40.874  27.754  1.00  0.00    -0.237 OA
ATOM     64  O   UNL A   1      43.662  39.824  25.772  1.00  0.00    -0.744 OA
ENDBRANCH  60  61
ENDBRANCH  28  53
BRANCH  40  65
ATOM     65  C   UNL A   1      41.640  34.034  35.709  1.00  0.00     0.058 A 
ATOM     66  C   UNL A   1      40.251  34.035  35.899  1.00  0.00     0.135 A 
ATOM     67  C   UNL A   1      42.443  34.677  36.664  1.00  0.00     0.135 A 
ATOM     68  F   UNL A   1      39.444  33.439  35.006  1.00  0.00    -0.206 F 
ATOM     69  C   UNL A   1      39.674  34.665  36.994  1.00  0.00     0.059 A 
ATOM     70  C   UNL A   1      41.889  35.288  37.782  1.00  0.00     0.059 A 
ATOM     71  F   UNL A   1      43.778  34.692  36.528  1.00  0.00    -0.206 F 
ATOM     72  C   UNL A   1      40.503  35.283  37.934  1.00  0.00     0.060 A 
BRANCH  72  73
ATOM     73  S   UNL A   1      39.745  36.048  39.381  1.00  0.00     0.124 S 
ATOM     74  O   UNL A   1      39.087  37.207  38.789  1.00  0.00    -0.237 OA
ATOM     75  O   UNL A   1      38.860  34.993  39.865  1.00  0.00    -0.237 OA
ATOM     76  O   UNL A   1      40.885  36.346  40.244  1.00  0.00    -0.744 OA
ENDBRANCH  72  73
ENDBRANCH  40  65
ENDBRANCH  14  15
ENDBRANCH   7   9
ENDBRANCH   6   7
ENDBRANCH   5   6
ENDBRANCH   4   5
ENDBRANCH   3   4
ENDBRANCH   2   3
ENDBRANCH   1   2
BRANCH   1  77
ATOM     77  O   UNL A   1      41.776  24.455  26.159  1.00  0.00    -0.460 OA
BRANCH  77  78
ATOM     78  C   UNL A   1      41.682  24.841  27.462  1.00  0.00     0.338 C 
ATOM     79  O   UNL A   1      41.924  24.164  28.447  1.00  0.00    -0.246 OA
BRANCH  78  80
ATOM     80  C   UNL A   1      41.365  26.293  27.493  1.00  0.00     0.060 A 
ATOM     81  C   UNL A   1      41.185  27.041  26.332  1.00  0.00     0.016 A 
ATOM     82  C   UNL A   1      41.204  26.919  28.723  1.00  0.00     0.020 A 
ATOM     83  C   UNL A   1      40.874  28.403  26.427  1.00  0.00     0.001 A 
ATOM     84  C   UNL A   1      41.022  28.291  28.846  1.00  0.00    -0.038 A 
ATOM     85  C   UNL A   1      40.819  29.033  27.679  1.00  0.00     0.004 A 
BRANCH  84  86
ATOM     86  C   UNL A   1      41.115  28.916  30.223  1.00  0.00     0.074 C 
ATOM     87  C   UNL A   1      40.309  28.130  31.284  1.00  0.00     0.020 C 
ATOM     88  C   UNL A   1      40.708  30.400  30.233  1.00  0.00     0.270 C 
ATOM     89  C   UNL A   1      38.816  28.475  31.339  1.00  0.00     0.062 C 
ATOM     90  N   UNL A   1      39.260  30.665  30.178  1.00  0.00    -0.331 N 
ATOM     91  C   UNL A   1      38.536  29.981  31.259  1.00  0.00     0.262 C 
ATOM     92  H   UNL A   1      38.930  30.264  29.301  1.00  0.00     0.348 HD
BRANCH  90  93
ATOM     93  C   UNL A   1      38.933  32.111  30.095  1.00  0.00     0.299 C 
BRANCH  93  94
ATOM     94  C   UNL A   1      37.475  32.431  29.804  1.00  0.00     0.010 A 
ATOM     95  C   UNL A   1      36.781  31.782  28.778  1.00  0.00     0.010 A 
ATOM     96  C   UNL A   1      36.769  33.288  30.660  1.00  0.00     0.056 A 
ATOM     97  C   UNL A   1      35.397  31.928  28.674  1.00  0.00     0.004 A 
ATOM     98  C   UNL A   1      35.379  33.309  30.665  1.00  0.00     0.119 A 
ATOM     99  C   UNL A   1      34.697  32.660  29.637  1.00  0.00     0.046 A 
BRANCH  98 100
ATOM    100  O   UNL A   1      34.605  33.868  31.645  1.00  0.00    -0.491 OA
BRANCH 100 101
ATOM    101  C   UNL A   1      34.237  35.252  31.511  1.00  0.00     0.257 C 
BRANCH 101 102
ATOM    102  C   UNL A   1      32.741  35.502  31.751  1.00  0.00     0.197 C 
BRANCH 102 103
ATOM    103  O   UNL A   1      32.234  34.834  32.897  1.00  0.00    -0.393 OA
ATOM    104  H   UNL A   1      31.363  34.459  32.694  1.00  0.00     0.210 HD
ENDBRANCH 102 103
ENDBRANCH 101 102
ENDBRANCH 100 101
ENDBRANCH  98 100
ENDBRANCH  93  94
ENDBRANCH  90  93
ENDBRANCH  84  86
ENDBRANCH  78  80
ENDBRANCH  77  78
ENDBRANCH   1  77
TORSDOF 24
ENDMDL
MODEL 2
REMARK VINA RESULT:      -7.5      5.500     11.921
REMARK SMILES O=C(OCCOCCOC(=O)c1cccc([C@@H]2CCC[N@@H+](Cc3cccc(OCCO)c3)C2)c1)c1ccc(-c2c3nc(c(-c4c(F)cc(S(=O)(=O)[O-])cc4F)c4ccc([nH]4)c(-c4c(F)cc(S(=O)(=O)[O-])cc4F)c4nc(c(-c5c(F)cc(S(=O)(=O)[O-])cc5F)c5ccc2[nH]5)C=C4)C=C3)cc1
REMARK SMILES IDX 8 1 7 2 6 3 5 4 4 5 3 6 2 7 1 8 35 9 36 10 100 11 37 12
REMARK SMILES IDX 99 13 38 14 39 15 40 16 93 17 41 18 98 19 92 20 94 21 42 22
REMARK SMILES IDX 97 23 91 24 90 25 43 27 77 28 56 29 76 30 57 31 60 32 75 33
REMARK SMILES IDX 95 34 58 35 59 36 74 38 96 39 61 40 44 41 45 42 54 43 46 44
REMARK SMILES IDX 47 45 53 46 55 47 48 48 49 49 50 50 51 51 52 52 78 53 79 54
REMARK SMILES IDX 88 55 80 56 81 57 87 58 89 59 82 60 83 61 84 62 85 63 86 64
REMARK SMILES IDX 62 65 63 66 72 67 64 68 65 69 71 70 73 71 66 72 67 73 68 74
REMARK SMILES IDX 69 75 70 76 9 77 10 78 11 79 12 80 13 81 34 82 14 83 16 84
REMARK SMILES IDX 15 85 17 86 18 87 33 88 19 89 21 90 20 91 22 93 23 94 24 95
REMARK SMILES IDX 32 96 25 97 27 98 26 99 28 100 29 101 30 102 31 103
REMARK H PARENT 94 26 60 37 21 92 31 104
REMARK Flexibility Score: inf
ROOT
ATOM      1  C   UNL A   1      35.179  32.877  30.393  1.00  0.00     0.261 C 
ENDROOT
BRANCH   1   2
ATOM      2  C   UNL A   1      35.928  33.481  31.588  1.00  0.00     0.202 C 
BRANCH   2   3
ATOM      3  O   UNL A   1      34.970  34.157  32.399  1.00  0.00    -0.374 OA
BRANCH   3   4
ATOM      4  C   UNL A   1      35.441  34.910  33.505  1.00  0.00     0.202 C 
BRANCH   4   5
ATOM      5  C   UNL A   1      35.374  34.133  34.818  1.00  0.00     0.261 C 
BRANCH   5   6
ATOM      6  O   UNL A   1      36.484  33.223  34.897  1.00  0.00    -0.460 OA
BRANCH   6   7
ATOM      7  C   UNL A   1      37.705  33.444  35.437  1.00  0.00     0.338 C 
ATOM      8  O   UNL A   1      37.809  33.450  36.663  1.00  0.00    -0.246 OA
BRANCH   7   9
ATOM      9  C   UNL A   1      38.944  33.662  34.632  1.00  0.00     0.060 A 
ATOM     10  C   UNL A   1      40.223  33.242  35.002  1.00  0.00     0.016 A 
ATOM     11  C   UNL A   1      38.784  34.239  33.361  1.00  0.00     0.016 A 
ATOM     12  C   UNL A   1      41.315  33.405  34.168  1.00  0.00     0.010 A 
ATOM     13  C   UNL A   1      39.876  34.387  32.500  1.00  0.00     0.010 A 
ATOM     14  C   UNL A   1      41.146  33.969  32.911  1.00  0.00    -0.014 A 
BRANCH  14  15
ATOM     15  C   UNL A   1      42.354  34.193  32.105  1.00  0.00     0.031 A 
ATOM     16  C   UNL A   1      43.101  35.473  32.302  1.00  0.00     0.074 A 
ATOM     17  C   UNL A   1      42.832  33.191  31.346  1.00  0.00     0.049 A 
ATOM     18  N   UNL A   1      44.158  35.914  31.684  1.00  0.00    -0.248 NA
ATOM     19  C   UNL A   1      42.593  36.373  33.354  1.00  0.00     0.031 C 
ATOM     20  C   UNL A   1      42.230  31.858  31.234  1.00  0.00     0.029 A 
ATOM     21  N   UNL A   1      43.947  33.117  30.557  1.00  0.00    -0.354 N 
ATOM     22  C   UNL A   1      44.429  37.154  32.248  1.00  0.00     0.074 A 
ATOM     23  C   UNL A   1      43.425  37.398  33.258  1.00  0.00     0.031 C 
ATOM     24  C   UNL A   1      42.995  31.095  30.438  1.00  0.00     0.029 A 
ATOM     25  C   UNL A   1      44.095  31.904  29.928  1.00  0.00     0.049 A 
ATOM     26  H   UNL A   1      44.582  33.862  30.451  1.00  0.00     0.167 HD
ATOM     27  C   UNL A   1      45.429  38.007  31.931  1.00  0.00     0.037 A 
ATOM     28  C   UNL A   1      45.000  31.518  29.009  1.00  0.00     0.037 A 
ATOM     29  C   UNL A   1      46.402  37.717  30.914  1.00  0.00     0.049 A 
ATOM     30  C   UNL A   1      46.035  32.528  28.592  1.00  0.00     0.074 A 
ATOM     31  C   UNL A   1      47.415  38.521  30.429  1.00  0.00     0.029 A 
ATOM     32  N   UNL A   1      46.477  36.512  30.224  1.00  0.00    -0.354 N 
ATOM     33  N   UNL A   1      46.231  33.743  29.055  1.00  0.00    -0.248 NA
ATOM     34  C   UNL A   1      46.955  32.135  27.520  1.00  0.00     0.031 C 
ATOM     35  C   UNL A   1      48.075  37.817  29.415  1.00  0.00     0.029 A 
ATOM     36  C   UNL A   1      47.508  36.553  29.305  1.00  0.00     0.049 A 
ATOM     37  H   UNL A   1      45.882  35.740  30.369  1.00  0.00     0.167 HD
ATOM     38  C   UNL A   1      47.306  34.255  28.342  1.00  0.00     0.074 A 
ATOM     39  C   UNL A   1      47.728  33.209  27.427  1.00  0.00     0.031 C 
ATOM     40  C   UNL A   1      47.893  35.476  28.424  1.00  0.00     0.037 A 
BRANCH  27  41
ATOM     41  C   UNL A   1      45.446  39.335  32.633  1.00  0.00     0.058 A 
ATOM     42  C   UNL A   1      44.836  40.477  32.089  1.00  0.00     0.135 A 
ATOM     43  C   UNL A   1      46.126  39.476  33.853  1.00  0.00     0.135 A 
ATOM     44  F   UNL A   1      44.204  40.407  30.906  1.00  0.00    -0.206 F 
ATOM     45  C   UNL A   1      44.926  41.718  32.714  1.00  0.00     0.059 A 
ATOM     46  C   UNL A   1      46.207  40.702  34.509  1.00  0.00     0.059 A 
ATOM     47  F   UNL A   1      46.742  38.421  34.410  1.00  0.00    -0.206 F 
ATOM     48  C   UNL A   1      45.619  41.820  33.922  1.00  0.00     0.060 A 
BRANCH  48  49
ATOM     49  S   UNL A   1      45.746  43.439  34.711  1.00  0.00     0.124 S 
ATOM     50  O   UNL A   1      44.342  43.756  34.955  1.00  0.00    -0.237 OA
ATOM     51  O   UNL A   1      46.544  43.148  35.897  1.00  0.00    -0.237 OA
ATOM     52  O   UNL A   1      46.406  44.260  33.700  1.00  0.00    -0.744 OA
ENDBRANCH  48  49
ENDBRANCH  27  41
BRANCH  28  53
ATOM     53  C   UNL A   1      44.926  30.164  28.394  1.00  0.00     0.058 A 
ATOM     54  C   UNL A   1      45.592  29.065  28.955  1.00  0.00     0.135 A 
ATOM     55  C   UNL A   1      44.178  29.938  27.226  1.00  0.00     0.135 A 
ATOM     56  F   UNL A   1      46.328  29.222  30.066  1.00  0.00    -0.206 F 
ATOM     57  C   UNL A   1      45.533  27.798  28.376  1.00  0.00     0.059 A 
ATOM     58  C   UNL A   1      44.080  28.677  26.644  1.00  0.00     0.059 A 
ATOM     59  F   UNL A   1      43.512  30.949  26.646  1.00  0.00    -0.206 F 
ATOM     60  C   UNL A   1      44.773  27.615  27.220  1.00  0.00     0.060 A 
BRANCH  60  61
ATOM     61  S   UNL A   1      44.681  25.964  26.489  1.00  0.00     0.124 S 
ATOM     62  O   UNL A   1      44.322  26.274  25.110  1.00  0.00    -0.237 OA
ATOM     63  O   UNL A   1      46.032  25.458  26.700  1.00  0.00    -0.237 OA
ATOM     64  O   UNL A   1      43.643  25.305  27.277  1.00  0.00    -0.744 OA
ENDBRANCH  60  61
ENDBRANCH  28  53
BRANCH  40  65
ATOM     65  C   UNL A   1      49.069  35.723  27.527  1.00  0.00     0.058 A 
ATOM     66  C   UNL A   1      48.916  36.298  26.257  1.00  0.00     0.135 A 
ATOM     67  C   UNL A   1      50.369  35.449  27.981  1.00  0.00     0.135 A 
ATOM     68  F   UNL A   1      47.691  36.570  25.780  1.00  0.00    -0.206 F 
ATOM     69  C   UNL A   1      50.016  36.579  25.457  1.00  0.00     0.059 A 
ATOM     70  C   UNL A   1      51.484  35.750  27.209  1.00  0.00     0.059 A 
ATOM     71  F   UNL A   1      50.564  34.910  29.194  1.00  0.00    -0.206 F 
ATOM     72  C   UNL A   1      51.296  36.308  25.945  1.00  0.00     0.060 A 
BRANCH  72  73
ATOM     73  S   UNL A   1      52.718  36.730  24.918  1.00  0.00     0.124 S 
ATOM     74  O   UNL A   1      52.930  38.129  25.273  1.00  0.00    -0.237 OA
ATOM     75  O   UNL A   1      53.733  35.794  25.391  1.00  0.00    -0.237 OA
ATOM     76  O   UNL A   1      52.239  36.492  23.560  1.00  0.00    -0.744 OA
ENDBRANCH  72  73
ENDBRANCH  40  65
ENDBRANCH  14  15
ENDBRANCH   7   9
ENDBRANCH   6   7
ENDBRANCH   5   6
ENDBRANCH   4   5
ENDBRANCH   3   4
ENDBRANCH   2   3
ENDBRANCH   1   2
BRANCH   1  77
ATOM     77  O   UNL A   1      35.842  33.274  29.185  1.00  0.00    -0.460 OA
BRANCH  77  78
ATOM     78  C   UNL A   1      35.119  33.157  28.036  1.00  0.00     0.338 C 
ATOM     79  O   UNL A   1      34.787  34.057  27.284  1.00  0.00    -0.246 OA
BRANCH  78  80
ATOM     80  C   UNL A   1      34.912  31.710  27.765  1.00  0.00     0.060 A 
ATOM     81  C   UNL A   1      35.971  30.811  27.665  1.00  0.00     0.016 A 
ATOM     82  C   UNL A   1      33.613  31.229  27.646  1.00  0.00     0.020 A 
ATOM     83  C   UNL A   1      35.709  29.458  27.422  1.00  0.00     0.001 A 
ATOM     84  C   UNL A   1      33.332  29.919  27.279  1.00  0.00    -0.038 A 
ATOM     85  C   UNL A   1      34.396  29.016  27.203  1.00  0.00     0.004 A 
BRANCH  84  86
ATOM     86  C   UNL A   1      31.906  29.553  26.924  1.00  0.00     0.074 C 
ATOM     87  C   UNL A   1      31.457  28.224  27.576  1.00  0.00     0.020 C 
ATOM     88  C   UNL A   1      31.660  29.513  25.406  1.00  0.00     0.270 C 
ATOM     89  C   UNL A   1      31.865  26.963  26.805  1.00  0.00     0.062 C 
ATOM     90  N   UNL A   1      32.171  28.322  24.707  1.00  0.00    -0.331 N 
ATOM     91  C   UNL A   1      31.647  27.078  25.291  1.00  0.00     0.262 C 
ATOM     92  H   UNL A   1      33.179  28.316  24.854  1.00  0.00     0.348 HD
BRANCH  90  93
ATOM     93  C   UNL A   1      31.988  28.384  23.235  1.00  0.00     0.299 C 
BRANCH  93  94
ATOM     94  C   UNL A   1      30.570  28.673  22.769  1.00  0.00     0.010 A 
ATOM     95  C   UNL A   1      29.473  28.011  23.328  1.00  0.00     0.010 A 
ATOM     96  C   UNL A   1      30.338  29.718  21.861  1.00  0.00     0.056 A 
ATOM     97  C   UNL A   1      28.178  28.449  23.045  1.00  0.00     0.004 A 
ATOM     98  C   UNL A   1      29.068  30.260  21.703  1.00  0.00     0.119 A 
ATOM     99  C   UNL A   1      27.981  29.592  22.265  1.00  0.00     0.046 A 
BRANCH  98 100
ATOM    100  O   UNL A   1      28.793  31.450  21.087  1.00  0.00    -0.491 OA
BRANCH 100 101
ATOM    101  C   UNL A   1      28.113  32.466  21.847  1.00  0.00     0.257 C 
BRANCH 101 102
ATOM    102  C   UNL A   1      28.975  33.047  22.977  1.00  0.00     0.197 C 
BRANCH 102 103
ATOM    103  O   UNL A   1      28.654  34.393  23.296  1.00  0.00    -0.393 OA
ATOM    104  H   UNL A   1      27.866  34.413  23.861  1.00  0.00     0.210 HD
ENDBRANCH 102 103
ENDBRANCH 101 102
ENDBRANCH 100 101
ENDBRANCH  98 100
ENDBRANCH  93  94
ENDBRANCH  90  93
ENDBRANCH  84  86
ENDBRANCH  78  80
ENDBRANCH  77  78
ENDBRANCH   1  77
TORSDOF 24
ENDMDL
MODEL 3
REMARK VINA RESULT:      -7.4      4.306     11.828
REMARK SMILES O=C(OCCOCCOC(=O)c1cccc([C@@H]2CCC[N@@H+](Cc3cccc(OCCO)c3)C2)c1)c1ccc(-c2c3nc(c(-c4c(F)cc(S(=O)(=O)[O-])cc4F)c4ccc([nH]4)c(-c4c(F)cc(S(=O)(=O)[O-])cc4F)c4nc(c(-c5c(F)cc(S(=O)(=O)[O-])cc5F)c5ccc2[nH]5)C=C4)C=C3)cc1
REMARK SMILES IDX 8 1 7 2 6 3 5 4 4 5 3 6 2 7 1 8 35 9 36 10 100 11 37 12
REMARK SMILES IDX 99 13 38 14 39 15 40 16 93 17 41 18 98 19 92 20 94 21 42 22
REMARK SMILES IDX 97 23 91 24 90 25 43 27 77 28 56 29 76 30 57 31 60 32 75 33
REMARK SMILES IDX 95 34 58 35 59 36 74 38 96 39 61 40 44 41 45 42 54 43 46 44
REMARK SMILES IDX 47 45 53 46 55 47 48 48 49 49 50 50 51 51 52 52 78 53 79 54
REMARK SMILES IDX 88 55 80 56 81 57 87 58 89 59 82 60 83 61 84 62 85 63 86 64
REMARK SMILES IDX 62 65 63 66 72 67 64 68 65 69 71 70 73 71 66 72 67 73 68 74
REMARK SMILES IDX 69 75 70 76 9 77 10 78 11 79 12 80 13 81 34 82 14 83 16 84
REMARK SMILES IDX 15 85 17 86 18 87 33 88 19 89 21 90 20 91 22 93 23 94 24 95
REMARK SMILES IDX 32 96 25 97 27 98 26 99 28 100 29 101 30 102 31 103
REMARK H PARENT 94 26 60 37 21 92 31 104
REMARK Flexibility Score: inf
ROOT
ATOM      1  C   UNL A   1      45.929  21.924  37.342  1.00  0.00     0.261 C 
ENDROOT
BRANCH   1   2
ATOM      2  C   UNL A   1      46.018  23.453  37.433  1.00  0.00     0.202 C 
BRANCH   2   3
ATOM      3  O   UNL A   1      45.564  23.833  38.731  1.00  0.00    -0.374 OA
BRANCH   3   4
ATOM      4  C   UNL A   1      46.485  23.764  39.808  1.00  0.00     0.202 C 
BRANCH   4   5
ATOM      5  C   UNL A   1      47.615  24.782  39.682  1.00  0.00     0.261 C 
BRANCH   5   6
ATOM      6  O   UNL A   1      47.067  26.077  39.386  1.00  0.00    -0.460 OA
BRANCH   6   7
ATOM      7  C   UNL A   1      47.275  26.839  38.287  1.00  0.00     0.338 C 
ATOM      8  O   UNL A   1      48.434  27.038  37.925  1.00  0.00    -0.246 OA
BRANCH   7   9
ATOM      9  C   UNL A   1      46.179  27.439  37.470  1.00  0.00     0.060 A 
ATOM     10  C   UNL A   1      44.851  27.006  37.472  1.00  0.00     0.016 A 
ATOM     11  C   UNL A   1      46.493  28.590  36.730  1.00  0.00     0.016 A 
ATOM     12  C   UNL A   1      43.868  27.662  36.751  1.00  0.00     0.010 A 
ATOM     13  C   UNL A   1      45.505  29.275  36.016  1.00  0.00     0.010 A 
ATOM     14  C   UNL A   1      44.188  28.803  36.028  1.00  0.00    -0.014 A 
BRANCH  14  15
ATOM     15  C   UNL A   1      43.121  29.406  35.215  1.00  0.00     0.031 A 
ATOM     16  C   UNL A   1      42.320  30.513  35.820  1.00  0.00     0.074 A 
ATOM     17  C   UNL A   1      43.006  29.059  33.921  1.00  0.00     0.049 A 
ATOM     18  N   UNL A   1      41.309  31.166  35.325  1.00  0.00    -0.248 NA
ATOM     19  C   UNL A   1      42.727  30.957  37.167  1.00  0.00     0.031 C 
ATOM     20  C   UNL A   1      43.866  28.093  33.229  1.00  0.00     0.029 A 
ATOM     21  N   UNL A   1      42.153  29.500  32.948  1.00  0.00    -0.354 N 
ATOM     22  C   UNL A   1      40.937  32.078  36.304  1.00  0.00     0.074 A 
ATOM     23  C   UNL A   1      41.830  31.895  37.426  1.00  0.00     0.031 C 
ATOM     24  C   UNL A   1      43.506  28.031  31.937  1.00  0.00     0.029 A 
ATOM     25  C   UNL A   1      42.349  28.893  31.730  1.00  0.00     0.049 A 
ATOM     26  H   UNL A   1      41.466  30.187  33.104  1.00  0.00     0.167 HD
ATOM     27  C   UNL A   1      39.929  32.977  36.258  1.00  0.00     0.037 A 
ATOM     28  C   UNL A   1      41.636  29.000  30.593  1.00  0.00     0.037 A 
ATOM     29  C   UNL A   1      39.066  33.117  35.117  1.00  0.00     0.049 A 
ATOM     30  C   UNL A   1      40.449  29.925  30.605  1.00  0.00     0.074 A 
ATOM     31  C   UNL A   1      37.954  33.921  34.964  1.00  0.00     0.029 A 
ATOM     32  N   UNL A   1      39.230  32.422  33.923  1.00  0.00    -0.354 N 
ATOM     33  N   UNL A   1      40.035  30.716  31.570  1.00  0.00    -0.248 NA
ATOM     34  C   UNL A   1      39.619  29.960  29.397  1.00  0.00     0.031 C 
ATOM     35  C   UNL A   1      37.421  33.681  33.692  1.00  0.00     0.029 A 
ATOM     36  C   UNL A   1      38.232  32.767  33.032  1.00  0.00     0.049 A 
ATOM     37  H   UNL A   1      39.952  31.779  33.739  1.00  0.00     0.167 HD
ATOM     38  C   UNL A   1      38.905  31.356  31.080  1.00  0.00     0.074 A 
ATOM     39  C   UNL A   1      38.711  30.870  29.726  1.00  0.00     0.031 C 
ATOM     40  C   UNL A   1      38.092  32.258  31.687  1.00  0.00     0.037 A 
BRANCH  27  41
ATOM     41  C   UNL A   1      39.677  33.789  37.496  1.00  0.00     0.058 A 
ATOM     42  C   UNL A   1      40.309  35.023  37.723  1.00  0.00     0.135 A 
ATOM     43  C   UNL A   1      38.820  33.301  38.495  1.00  0.00     0.135 A 
ATOM     44  F   UNL A   1      41.166  35.520  36.817  1.00  0.00    -0.206 F 
ATOM     45  C   UNL A   1      40.124  35.728  38.909  1.00  0.00     0.059 A 
ATOM     46  C   UNL A   1      38.600  34.000  39.679  1.00  0.00     0.059 A 
ATOM     47  F   UNL A   1      38.203  32.119  38.338  1.00  0.00    -0.206 F 
ATOM     48  C   UNL A   1      39.271  35.205  39.884  1.00  0.00     0.060 A 
BRANCH  48  49
ATOM     49  S   UNL A   1      39.058  36.117  41.427  1.00  0.00     0.124 S 
ATOM     50  O   UNL A   1      38.916  37.486  40.938  1.00  0.00    -0.237 OA
ATOM     51  O   UNL A   1      37.850  35.517  41.982  1.00  0.00    -0.237 OA
ATOM     52  O   UNL A   1      40.289  35.839  42.161  1.00  0.00    -0.744 OA
ENDBRANCH  48  49
ENDBRANCH  27  41
BRANCH  28  53
ATOM     53  C   UNL A   1      41.984  28.179  29.400  1.00  0.00     0.058 A 
ATOM     54  C   UNL A   1      43.053  28.522  28.559  1.00  0.00     0.135 A 
ATOM     55  C   UNL A   1      41.253  27.024  29.076  1.00  0.00     0.135 A 
ATOM     56  F   UNL A   1      43.783  29.618  28.815  1.00  0.00    -0.206 F 
ATOM     57  C   UNL A   1      43.375  27.761  27.437  1.00  0.00     0.059 A 
ATOM     58  C   UNL A   1      41.572  26.232  27.976  1.00  0.00     0.059 A 
ATOM     59  F   UNL A   1      40.222  26.640  29.846  1.00  0.00    -0.206 F 
ATOM     60  C   UNL A   1      42.628  26.617  27.154  1.00  0.00     0.060 A 
BRANCH  60  61
ATOM     61  S   UNL A   1      43.067  25.622  25.710  1.00  0.00     0.124 S 
ATOM     62  O   UNL A   1      42.584  26.460  24.618  1.00  0.00    -0.237 OA
ATOM     63  O   UNL A   1      44.516  25.514  25.840  1.00  0.00    -0.237 OA
ATOM     64  O   UNL A   1      42.332  24.378  25.923  1.00  0.00    -0.744 OA
ENDBRANCH  60  61
ENDBRANCH  28  53
BRANCH  40  65
ATOM     65  C   UNL A   1      36.951  32.796  30.876  1.00  0.00     0.058 A 
ATOM     66  C   UNL A   1      35.641  32.331  31.055  1.00  0.00     0.135 A 
ATOM     67  C   UNL A   1      37.168  33.841  29.965  1.00  0.00     0.135 A 
ATOM     68  F   UNL A   1      35.389  31.327  31.910  1.00  0.00    -0.206 F 
ATOM     69  C   UNL A   1      34.580  32.875  30.342  1.00  0.00     0.059 A 
ATOM     70  C   UNL A   1      36.117  34.420  29.264  1.00  0.00     0.059 A 
ATOM     71  F   UNL A   1      38.404  34.326  29.770  1.00  0.00    -0.206 F 
ATOM     72  C   UNL A   1      34.828  33.924  29.455  1.00  0.00     0.060 A 
BRANCH  72  73
ATOM     73  S   UNL A   1      33.434  34.660  28.578  1.00  0.00     0.124 S 
ATOM     74  O   UNL A   1      34.075  35.778  27.893  1.00  0.00    -0.237 OA
ATOM     75  O   UNL A   1      32.988  33.564  27.724  1.00  0.00    -0.237 OA
ATOM     76  O   UNL A   1      32.512  35.025  29.650  1.00  0.00    -0.744 OA
ENDBRANCH  72  73
ENDBRANCH  40  65
ENDBRANCH  14  15
ENDBRANCH   7   9
ENDBRANCH   6   7
ENDBRANCH   5   6
ENDBRANCH   4   5
ENDBRANCH   3   4
ENDBRANCH   2   3
ENDBRANCH   1   2
BRANCH   1  77
ATOM     77  O   UNL A   1      47.259  21.386  37.329  1.00  0.00    -0.460 OA
BRANCH  77  78
ATOM     78  C   UNL A   1      47.727  20.970  36.119  1.00  0.00     0.338 C 
ATOM     79  O   UNL A   1      47.250  21.212  35.025  1.00  0.00    -0.246 OA
BRANCH  78  80
ATOM     80  C   UNL A   1      49.023  20.273  36.341  1.00  0.00     0.060 A 
ATOM     81  C   UNL A   1      49.364  19.706  37.566  1.00  0.00     0.016 A 
ATOM     82  C   UNL A   1      49.907  20.148  35.275  1.00  0.00     0.020 A 
ATOM     83  C   UNL A   1      50.594  19.051  37.706  1.00  0.00     0.001 A 
ATOM     84  C   UNL A   1      51.182  19.617  35.422  1.00  0.00    -0.038 A 
ATOM     85  C   UNL A   1      51.512  19.029  36.646  1.00  0.00     0.004 A 
BRANCH  84  86
ATOM     86  C   UNL A   1      52.164  19.756  34.276  1.00  0.00     0.074 C 
ATOM     87  C   UNL A   1      53.633  19.607  34.737  1.00  0.00     0.020 C 
ATOM     88  C   UNL A   1      51.981  21.064  33.488  1.00  0.00     0.270 C 
ATOM     89  C   UNL A   1      54.262  20.888  35.296  1.00  0.00     0.062 C 
ATOM     90  N   UNL A   1      52.514  22.277  34.131  1.00  0.00    -0.331 N 
ATOM     91  C   UNL A   1      53.939  22.137  34.467  1.00  0.00     0.262 C 
ATOM     92  H   UNL A   1      52.011  22.378  35.012  1.00  0.00     0.348 HD
BRANCH  90  93
ATOM     93  C   UNL A   1      52.224  23.518  33.370  1.00  0.00     0.299 C 
BRANCH  93  94
ATOM     94  C   UNL A   1      51.094  24.371  33.925  1.00  0.00     0.010 A 
ATOM     95  C   UNL A   1      51.352  25.563  34.609  1.00  0.00     0.010 A 
ATOM     96  C   UNL A   1      49.764  24.036  33.631  1.00  0.00     0.056 A 
ATOM     97  C   UNL A   1      50.304  26.433  34.911  1.00  0.00     0.004 A 
ATOM     98  C   UNL A   1      48.742  24.966  33.781  1.00  0.00     0.119 A 
ATOM     99  C   UNL A   1      49.010  26.150  34.465  1.00  0.00     0.046 A 
BRANCH  98 100
ATOM    100  O   UNL A   1      47.486  24.846  33.249  1.00  0.00    -0.491 OA
BRANCH 100 101
ATOM    101  C   UNL A   1      46.394  25.475  33.943  1.00  0.00     0.257 C 
BRANCH 101 102
ATOM    102  C   UNL A   1      45.300  24.484  34.363  1.00  0.00     0.197 C 
BRANCH 102 103
ATOM    103  O   UNL A   1      45.357  23.249  33.664  1.00  0.00    -0.393 OA
ATOM    104  H   UNL A   1      44.649  23.219  33.002  1.00  0.00     0.210 HD
ENDBRANCH 102 103
ENDBRANCH 101 102
ENDBRANCH 100 101
ENDBRANCH  98 100
ENDBRANCH  93  94
ENDBRANCH  90  93
ENDBRANCH  84  86
ENDBRANCH  78  80
ENDBRANCH  77  78
ENDBRANCH   1  77
TORSDOF 24
ENDMDL
