MODEL 1
REMARK VINA RESULT:     -11.8      0.000      0.000
REMARK SMILES Nc1c(Cl)ccc2c1C=C(C(=O)OCCOCCOC(=O)c1ccc(-c3c4nc(c(-c5c(F)cc(S(=O)(=O)[O-])cc5F)c5ccc([nH]5)c(-c5c(F)cc(S(=O)(=O)[O-])cc5F)c5nc(c(-c6c(F)cc(S(=O)(=O)[O-])cc6F)c6ccc3[nH]6)C=C5)C=C4)cc1)[C@@H](C(F)(F)F)O2
REMARK SMILES IDX 17 1 16 2 15 3 14 4 13 5 11 6 12 7 10 8 2 9 3 10 8 11 4 12
REMARK SMILES IDX 5 13 7 14 9 15 6 16 93 17 88 18 1 19 89 22 90 23 91 24 92 25
REMARK SMILES IDX 18 26 19 27 20 28 21 29 22 30 23 31 87 32 24 33 86 34 25 35
REMARK SMILES IDX 26 36 27 37 80 38 28 39 85 40 79 41 81 42 29 43 84 44 78 45
REMARK SMILES IDX 77 46 30 48 64 49 43 50 63 51 44 52 47 53 62 54 82 55 45 56
REMARK SMILES IDX 46 57 61 59 83 60 48 61 31 62 32 63 41 64 33 65 34 66 40 67
REMARK SMILES IDX 42 68 35 69 36 70 37 71 38 72 39 73 65 74 66 75 75 76 67 77
REMARK SMILES IDX 68 78 74 79 76 80 69 81 70 82 71 83 72 84 73 85 49 86 50 87
REMARK SMILES IDX 59 88 51 89 52 90 58 91 60 92 53 93 54 94 55 95 56 96 57 97
REMARK H PARENT 1 20 1 21 81 47 47 58
REMARK Flexibility Score: inf
ROOT
ATOM      1  C   UNL A   1      38.765  21.823  25.843  1.00  0.00     0.202 C 
ENDROOT
BRANCH   1   2
ATOM      2  O   UNL A   1      37.745  22.784  25.558  1.00  0.00    -0.374 OA
BRANCH   2   3
ATOM      3  C   UNL A   1      36.441  22.534  26.078  1.00  0.00     0.202 C 
BRANCH   3   4
ATOM      4  C   UNL A   1      35.386  23.615  25.825  1.00  0.00     0.261 C 
BRANCH   4   5
ATOM      5  O   UNL A   1      34.108  23.248  26.368  1.00  0.00    -0.460 OA
BRANCH   5   6
ATOM      6  C   UNL A   1      33.054  23.526  25.566  1.00  0.00     0.338 C 
ATOM      7  O   UNL A   1      32.496  24.604  25.434  1.00  0.00    -0.246 OA
BRANCH   6   8
ATOM      8  C   UNL A   1      32.742  22.351  24.729  1.00  0.00     0.088 C 
ATOM      9  C   UNL A   1      32.650  18.668  25.185  1.00  0.00     0.061 A 
ATOM     10  C   UNL A   1      32.649  17.544  24.331  1.00  0.00     0.064 A 
ATOM     11  C   UNL A   1      32.572  19.952  24.593  1.00  0.00     0.042 A 
ATOM     12  Cl  UNL A   1      32.847  15.947  24.975  1.00  0.00    -0.082 Cl
ATOM     13  C   UNL A   1      32.477  17.677  22.953  1.00  0.00     0.026 A 
ATOM     14  C   UNL A   1      32.357  20.075  23.212  1.00  0.00     0.130 A 
ATOM     15  C   UNL A   1      32.772  21.173  25.363  1.00  0.00     0.029 C 
ATOM     16  C   UNL A   1      32.303  18.942  22.399  1.00  0.00     0.049 A 
ATOM     17  O   UNL A   1      32.180  21.265  22.564  1.00  0.00    -0.475 OA
ATOM     18  C   UNL A   1      32.441  22.511  23.269  1.00  0.00     0.316 C 
BRANCH   9  19
ATOM     19  N   UNL A   1      32.852  18.502  26.562  1.00  0.00    -0.397 N 
ATOM     20  H   UNL A   1      32.312  17.852  27.064  1.00  0.00     0.156 HD
ATOM     21  H   UNL A   1      33.536  19.038  27.027  1.00  0.00     0.156 HD
ENDBRANCH   9  19
BRANCH  18  22
ATOM     22  C   UNL A   1      33.549  23.263  22.516  1.00  0.00     0.430 C 
ATOM     23  F   UNL A   1      34.776  22.843  22.908  1.00  0.00    -0.167 F 
ATOM     24  F   UNL A   1      33.474  23.064  21.181  1.00  0.00    -0.167 F 
ATOM     25  F   UNL A   1      33.487  24.597  22.734  1.00  0.00    -0.167 F 
ENDBRANCH  18  22
ENDBRANCH   6   8
ENDBRANCH   5   6
ENDBRANCH   4   5
ENDBRANCH   3   4
ENDBRANCH   2   3
ENDBRANCH   1   2
BRANCH   1  26
ATOM     26  C   UNL A   1      39.948  22.290  26.698  1.00  0.00     0.261 C 
BRANCH  26  27
ATOM     27  O   UNL A   1      40.176  23.706  26.569  1.00  0.00    -0.460 OA
BRANCH  27  28
ATOM     28  C   UNL A   1      41.262  24.171  27.232  1.00  0.00     0.338 C 
ATOM     29  O   UNL A   1      42.407  23.754  27.159  1.00  0.00    -0.246 OA
BRANCH  28  30
ATOM     30  C   UNL A   1      40.914  25.406  27.953  1.00  0.00     0.060 A 
ATOM     31  C   UNL A   1      41.927  26.349  28.168  1.00  0.00     0.016 A 
ATOM     32  C   UNL A   1      39.647  25.578  28.510  1.00  0.00     0.016 A 
ATOM     33  C   UNL A   1      41.686  27.453  28.980  1.00  0.00     0.010 A 
ATOM     34  C   UNL A   1      39.413  26.677  29.341  1.00  0.00     0.010 A 
ATOM     35  C   UNL A   1      40.443  27.596  29.609  1.00  0.00    -0.014 A 
BRANCH  35  36
ATOM     36  C   UNL A   1      40.285  28.600  30.686  1.00  0.00     0.031 A 
ATOM     37  C   UNL A   1      41.183  28.514  31.888  1.00  0.00     0.074 A 
ATOM     38  C   UNL A   1      39.387  29.593  30.575  1.00  0.00     0.049 A 
ATOM     39  N   UNL A   1      41.223  29.276  32.949  1.00  0.00    -0.248 NA
ATOM     40  C   UNL A   1      42.173  27.425  31.890  1.00  0.00     0.031 C 
ATOM     41  C   UNL A   1      38.508  29.812  29.429  1.00  0.00     0.029 A 
ATOM     42  N   UNL A   1      39.073  30.606  31.443  1.00  0.00    -0.354 N 
ATOM     43  C   UNL A   1      42.252  28.773  33.736  1.00  0.00     0.074 A 
ATOM     44  C   UNL A   1      42.782  27.614  33.051  1.00  0.00     0.031 C 
ATOM     45  C   UNL A   1      37.750  30.897  29.664  1.00  0.00     0.029 A 
ATOM     46  C   UNL A   1      38.072  31.429  30.988  1.00  0.00     0.049 A 
ATOM     47  H   UNL A   1      39.521  30.733  32.311  1.00  0.00     0.167 HD
ATOM     48  C   UNL A   1      42.722  29.242  34.915  1.00  0.00     0.037 A 
ATOM     49  C   UNL A   1      37.478  32.485  31.579  1.00  0.00     0.037 A 
ATOM     50  C   UNL A   1      42.169  30.376  35.608  1.00  0.00     0.049 A 
ATOM     51  C   UNL A   1      37.931  32.916  32.948  1.00  0.00     0.074 A 
ATOM     52  C   UNL A   1      42.555  30.917  36.821  1.00  0.00     0.029 A 
ATOM     53  N   UNL A   1      41.099  31.133  35.154  1.00  0.00    -0.354 N 
ATOM     54  N   UNL A   1      38.900  32.429  33.687  1.00  0.00    -0.248 NA
ATOM     55  C   UNL A   1      37.207  34.034  33.567  1.00  0.00     0.031 C 
ATOM     56  C   UNL A   1      41.690  31.976  37.121  1.00  0.00     0.029 A 
ATOM     57  C   UNL A   1      40.795  32.123  36.073  1.00  0.00     0.049 A 
ATOM     58  H   UNL A   1      40.626  30.989  34.303  1.00  0.00     0.167 HD
ATOM     59  C   UNL A   1      38.917  33.194  34.848  1.00  0.00     0.074 A 
ATOM     60  C   UNL A   1      37.864  34.179  34.711  1.00  0.00     0.031 C 
ATOM     61  C   UNL A   1      39.736  33.092  35.926  1.00  0.00     0.037 A 
BRANCH  48  62
ATOM     62  C   UNL A   1      43.879  28.508  35.532  1.00  0.00     0.058 A 
ATOM     63  C   UNL A   1      45.208  28.833  35.212  1.00  0.00     0.135 A 
ATOM     64  C   UNL A   1      43.662  27.462  36.443  1.00  0.00     0.135 A 
ATOM     65  F   UNL A   1      45.471  29.812  34.331  1.00  0.00    -0.206 F 
ATOM     66  C   UNL A   1      46.278  28.125  35.747  1.00  0.00     0.059 A 
ATOM     67  C   UNL A   1      44.719  26.756  37.009  1.00  0.00     0.059 A 
ATOM     68  F   UNL A   1      42.412  27.108  36.780  1.00  0.00    -0.206 F 
ATOM     69  C   UNL A   1      46.023  27.082  36.639  1.00  0.00     0.060 A 
BRANCH  69  70
ATOM     70  S   UNL A   1      47.423  26.152  37.299  1.00  0.00     0.124 S 
ATOM     71  O   UNL A   1      47.992  27.113  38.239  1.00  0.00    -0.237 OA
ATOM     72  O   UNL A   1      46.774  24.990  37.896  1.00  0.00    -0.237 OA
ATOM     73  O   UNL A   1      48.235  25.876  36.118  1.00  0.00    -0.744 OA
ENDBRANCH  69  70
ENDBRANCH  48  62
BRANCH  49  74
ATOM     74  C   UNL A   1      36.399  33.212  30.862  1.00  0.00     0.058 A 
ATOM     75  C   UNL A   1      35.059  33.066  31.248  1.00  0.00     0.135 A 
ATOM     76  C   UNL A   1      36.688  34.102  29.817  1.00  0.00     0.135 A 
ATOM     77  F   UNL A   1      34.732  32.216  32.233  1.00  0.00    -0.206 F 
ATOM     78  C   UNL A   1      34.042  33.787  30.630  1.00  0.00     0.059 A 
ATOM     79  C   UNL A   1      35.691  34.849  29.197  1.00  0.00     0.059 A 
ATOM     80  F   UNL A   1      37.957  34.279  29.417  1.00  0.00    -0.206 F 
ATOM     81  C   UNL A   1      34.370  34.686  29.614  1.00  0.00     0.060 A 
BRANCH  81  82
ATOM     82  S   UNL A   1      33.051  35.681  28.885  1.00  0.00     0.124 S 
ATOM     83  O   UNL A   1      32.346  34.693  28.078  1.00  0.00    -0.237 OA
ATOM     84  O   UNL A   1      32.345  36.161  30.069  1.00  0.00    -0.237 OA
ATOM     85  O   UNL A   1      33.776  36.706  28.138  1.00  0.00    -0.744 OA
ENDBRANCH  81  82
ENDBRANCH  49  74
BRANCH  61  86
ATOM     86  C   UNL A   1      39.536  34.075  37.046  1.00  0.00     0.058 A 
ATOM     87  C   UNL A   1      38.759  33.758  38.171  1.00  0.00     0.135 A 
ATOM     88  C   UNL A   1      40.193  35.316  37.031  1.00  0.00     0.135 A 
ATOM     89  F   UNL A   1      38.105  32.587  38.232  1.00  0.00    -0.206 F 
ATOM     90  C   UNL A   1      38.633  34.641  39.238  1.00  0.00     0.059 A 
ATOM     91  C   UNL A   1      40.100  36.204  38.098  1.00  0.00     0.059 A 
ATOM     92  F   UNL A   1      40.956  35.664  35.983  1.00  0.00    -0.206 F 
ATOM     93  C   UNL A   1      39.312  35.860  39.195  1.00  0.00     0.060 A 
BRANCH  93  94
ATOM     94  S   UNL A   1      39.181  36.973  40.611  1.00  0.00     0.124 S 
ATOM     95  O   UNL A   1      38.579  36.102  41.615  1.00  0.00    -0.237 OA
ATOM     96  O   UNL A   1      40.574  37.344  40.846  1.00  0.00    -0.237 OA
ATOM     97  O   UNL A   1      38.326  38.050  40.121  1.00  0.00    -0.744 OA
ENDBRANCH  93  94
ENDBRANCH  61  86
ENDBRANCH  35  36
ENDBRANCH  28  30
ENDBRANCH  27  28
ENDBRANCH  26  27
ENDBRANCH   1  26
TORSDOF 19
ENDMDL
MODEL 2
REMARK VINA RESULT:     -11.5      4.599     10.048
REMARK SMILES Nc1c(Cl)ccc2c1C=C(C(=O)OCCOCCOC(=O)c1ccc(-c3c4nc(c(-c5c(F)cc(S(=O)(=O)[O-])cc5F)c5ccc([nH]5)c(-c5c(F)cc(S(=O)(=O)[O-])cc5F)c5nc(c(-c6c(F)cc(S(=O)(=O)[O-])cc6F)c6ccc3[nH]6)C=C5)C=C4)cc1)[C@@H](C(F)(F)F)O2
REMARK SMILES IDX 17 1 16 2 15 3 14 4 13 5 11 6 12 7 10 8 2 9 3 10 8 11 4 12
REMARK SMILES IDX 5 13 7 14 9 15 6 16 93 17 88 18 1 19 89 22 90 23 91 24 92 25
REMARK SMILES IDX 18 26 19 27 20 28 21 29 22 30 23 31 87 32 24 33 86 34 25 35
REMARK SMILES IDX 26 36 27 37 80 38 28 39 85 40 79 41 81 42 29 43 84 44 78 45
REMARK SMILES IDX 77 46 30 48 64 49 43 50 63 51 44 52 47 53 62 54 82 55 45 56
REMARK SMILES IDX 46 57 61 59 83 60 48 61 31 62 32 63 41 64 33 65 34 66 40 67
REMARK SMILES IDX 42 68 35 69 36 70 37 71 38 72 39 73 65 74 66 75 75 76 67 77
REMARK SMILES IDX 68 78 74 79 76 80 69 81 70 82 71 83 72 84 73 85 49 86 50 87
REMARK SMILES IDX 59 88 51 89 52 90 58 91 60 92 53 93 54 94 55 95 56 96 57 97
REMARK H PARENT 1 20 1 21 81 47 47 58
REMARK Flexibility Score: inf
ROOT
ATOM      1  C   UNL A   1      32.070  27.300  26.395  1.00  0.00     0.202 C 
ENDROOT
BRANCH   1   2
ATOM      2  O   UNL A   1      30.995  26.408  26.702  1.00  0.00    -0.374 OA
BRANCH   2   3
ATOM      3  C   UNL A   1      30.275  25.844  25.608  1.00  0.00     0.202 C 
BRANCH   3   4
ATOM      4  C   UNL A   1      30.596  24.388  25.257  1.00  0.00     0.261 C 
BRANCH   4   5
ATOM      5  O   UNL A   1      31.562  23.824  26.158  1.00  0.00    -0.460 OA
BRANCH   5   6
ATOM      6  C   UNL A   1      32.731  23.465  25.579  1.00  0.00     0.338 C 
ATOM      7  O   UNL A   1      33.833  23.947  25.791  1.00  0.00    -0.246 OA
BRANCH   6   8
ATOM      8  C   UNL A   1      32.523  22.277  24.730  1.00  0.00     0.088 C 
ATOM      9  C   UNL A   1      32.673  18.594  25.169  1.00  0.00     0.061 A 
ATOM     10  C   UNL A   1      32.773  17.477  24.311  1.00  0.00     0.064 A 
ATOM     11  C   UNL A   1      32.523  19.872  24.579  1.00  0.00     0.042 A 
ATOM     12  Cl  UNL A   1      33.064  15.894  24.954  1.00  0.00    -0.082 Cl
ATOM     13  C   UNL A   1      32.630  17.606  22.929  1.00  0.00     0.026 A 
ATOM     14  C   UNL A   1      32.338  19.988  23.194  1.00  0.00     0.130 A 
ATOM     15  C   UNL A   1      32.618  21.100  25.360  1.00  0.00     0.029 C 
ATOM     16  C   UNL A   1      32.384  18.860  22.375  1.00  0.00     0.049 A 
ATOM     17  O   UNL A   1      32.096  21.167  22.546  1.00  0.00    -0.475 OA
ATOM     18  C   UNL A   1      32.252  22.424  23.262  1.00  0.00     0.316 C 
BRANCH   9  19
ATOM     19  N   UNL A   1      32.849  18.434  26.550  1.00  0.00    -0.397 N 
ATOM     20  H   UNL A   1      33.348  19.107  27.065  1.00  0.00     0.156 HD
ATOM     21  H   UNL A   1      32.472  17.645  27.006  1.00  0.00     0.156 HD
ENDBRANCH   9  19
BRANCH  18  22
ATOM     22  C   UNL A   1      33.325  23.255  22.543  1.00  0.00     0.430 C 
ATOM     23  F   UNL A   1      33.291  23.042  21.205  1.00  0.00    -0.167 F 
ATOM     24  F   UNL A   1      33.145  24.582  22.734  1.00  0.00    -0.167 F 
ATOM     25  F   UNL A   1      34.570  22.946  22.973  1.00  0.00    -0.167 F 
ENDBRANCH  18  22
ENDBRANCH   6   8
ENDBRANCH   5   6
ENDBRANCH   4   5
ENDBRANCH   3   4
ENDBRANCH   2   3
ENDBRANCH   1   2
BRANCH   1  26
ATOM     26  C   UNL A   1      32.607  28.168  27.539  1.00  0.00     0.261 C 
BRANCH  26  27
ATOM     27  O   UNL A   1      34.024  28.395  27.418  1.00  0.00    -0.460 OA
BRANCH  27  28
ATOM     28  C   UNL A   1      34.416  29.676  27.627  1.00  0.00     0.338 C 
ATOM     29  O   UNL A   1      33.716  30.676  27.602  1.00  0.00    -0.246 OA
BRANCH  28  30
ATOM     30  C   UNL A   1      35.817  29.701  28.078  1.00  0.00     0.060 A 
ATOM     31  C   UNL A   1      36.805  30.007  27.134  1.00  0.00     0.016 A 
ATOM     32  C   UNL A   1      36.160  29.314  29.373  1.00  0.00     0.016 A 
ATOM     33  C   UNL A   1      38.149  29.887  27.473  1.00  0.00     0.010 A 
ATOM     34  C   UNL A   1      37.510  29.174  29.706  1.00  0.00     0.010 A 
ATOM     35  C   UNL A   1      38.507  29.424  28.745  1.00  0.00    -0.014 A 
BRANCH  35  36
ATOM     36  C   UNL A   1      39.909  29.025  29.005  1.00  0.00     0.031 A 
ATOM     37  C   UNL A   1      40.827  30.010  29.674  1.00  0.00     0.074 A 
ATOM     38  C   UNL A   1      40.345  27.795  28.686  1.00  0.00     0.049 A 
ATOM     39  N   UNL A   1      42.087  29.883  29.995  1.00  0.00    -0.248 NA
ATOM     40  C   UNL A   1      40.240  31.310  30.036  1.00  0.00     0.031 C 
ATOM     41  C   UNL A   1      39.530  26.739  28.091  1.00  0.00     0.029 A 
ATOM     42  N   UNL A   1      41.586  27.229  28.825  1.00  0.00    -0.354 N 
ATOM     43  C   UNL A   1      42.441  31.076  30.613  1.00  0.00     0.074 A 
ATOM     44  C   UNL A   1      41.274  31.932  30.583  1.00  0.00     0.031 C 
ATOM     45  C   UNL A   1      40.294  25.647  27.916  1.00  0.00     0.029 A 
ATOM     46  C   UNL A   1      41.657  25.939  28.360  1.00  0.00     0.049 A 
ATOM     47  H   UNL A   1      42.354  27.701  29.221  1.00  0.00     0.167 HD
ATOM     48  C   UNL A   1      43.626  31.423  31.168  1.00  0.00     0.037 A 
ATOM     49  C   UNL A   1      42.706  25.096  28.291  1.00  0.00     0.037 A 
ATOM     50  C   UNL A   1      44.792  30.581  31.165  1.00  0.00     0.049 A 
ATOM     51  C   UNL A   1      44.049  25.546  28.800  1.00  0.00     0.074 A 
ATOM     52  C   UNL A   1      46.049  30.847  31.677  1.00  0.00     0.029 A 
ATOM     53  N   UNL A   1      44.848  29.311  30.608  1.00  0.00    -0.354 N 
ATOM     54  N   UNL A   1      44.375  26.679  29.377  1.00  0.00    -0.248 NA
ATOM     55  C   UNL A   1      45.169  24.608  28.645  1.00  0.00     0.031 C 
ATOM     56  C   UNL A   1      46.877  29.755  31.391  1.00  0.00     0.029 A 
ATOM     57  C   UNL A   1      46.124  28.790  30.742  1.00  0.00     0.049 A 
ATOM     58  H   UNL A   1      44.091  28.848  30.181  1.00  0.00     0.167 HD
ATOM     59  C   UNL A   1      45.730  26.582  29.672  1.00  0.00     0.074 A 
ATOM     60  C   UNL A   1      46.163  25.277  29.215  1.00  0.00     0.031 C 
ATOM     61  C   UNL A   1      46.541  27.490  30.273  1.00  0.00     0.037 A 
BRANCH  48  62
ATOM     62  C   UNL A   1      43.713  32.783  31.801  1.00  0.00     0.058 A 
ATOM     63  C   UNL A   1      44.058  33.919  31.052  1.00  0.00     0.135 A 
ATOM     64  C   UNL A   1      43.462  32.954  33.171  1.00  0.00     0.135 A 
ATOM     65  F   UNL A   1      44.328  33.808  29.740  1.00  0.00    -0.206 F 
ATOM     66  C   UNL A   1      44.184  35.170  31.644  1.00  0.00     0.059 A 
ATOM     67  C   UNL A   1      43.559  34.201  33.781  1.00  0.00     0.059 A 
ATOM     68  F   UNL A   1      43.133  31.900  33.935  1.00  0.00    -0.206 F 
ATOM     69  C   UNL A   1      43.939  35.300  33.012  1.00  0.00     0.060 A 
BRANCH  69  70
ATOM     70  S   UNL A   1      44.139  36.926  33.772  1.00  0.00     0.124 S 
ATOM     71  O   UNL A   1      44.570  37.728  32.631  1.00  0.00    -0.237 OA
ATOM     72  O   UNL A   1      42.797  37.204  34.273  1.00  0.00    -0.237 OA
ATOM     73  O   UNL A   1      45.153  36.700  34.797  1.00  0.00    -0.744 OA
ENDBRANCH  69  70
ENDBRANCH  48  62
BRANCH  49  74
ATOM     74  C   UNL A   1      42.514  23.734  27.729  1.00  0.00     0.058 A 
ATOM     75  C   UNL A   1      42.590  23.513  26.347  1.00  0.00     0.135 A 
ATOM     76  C   UNL A   1      42.305  22.624  28.562  1.00  0.00     0.135 A 
ATOM     77  F   UNL A   1      42.775  24.545  25.511  1.00  0.00    -0.206 F 
ATOM     78  C   UNL A   1      42.476  22.235  25.808  1.00  0.00     0.059 A 
ATOM     79  C   UNL A   1      42.207  21.334  28.048  1.00  0.00     0.059 A 
ATOM     80  F   UNL A   1      42.231  22.786  29.892  1.00  0.00    -0.206 F 
ATOM     81  C   UNL A   1      42.297  21.151  26.669  1.00  0.00     0.060 A 
BRANCH  81  82
ATOM     82  S   UNL A   1      42.243  19.490  25.962  1.00  0.00     0.124 S 
ATOM     83  O   UNL A   1      40.818  19.326  25.700  1.00  0.00    -0.237 OA
ATOM     84  O   UNL A   1      43.096  19.633  24.787  1.00  0.00    -0.237 OA
ATOM     85  O   UNL A   1      42.789  18.652  27.026  1.00  0.00    -0.744 OA
ENDBRANCH  81  82
ENDBRANCH  49  74
BRANCH  61  86
ATOM     86  C   UNL A   1      47.979  27.108  30.482  1.00  0.00     0.058 A 
ATOM     87  C   UNL A   1      48.958  27.373  29.512  1.00  0.00     0.135 A 
ATOM     88  C   UNL A   1      48.397  26.542  31.698  1.00  0.00     0.135 A 
ATOM     89  F   UNL A   1      48.611  27.907  28.330  1.00  0.00    -0.206 F 
ATOM     90  C   UNL A   1      50.300  27.082  29.736  1.00  0.00     0.059 A 
ATOM     91  C   UNL A   1      49.737  26.266  31.953  1.00  0.00     0.059 A 
ATOM     92  F   UNL A   1      47.502  26.278  32.662  1.00  0.00    -0.206 F 
ATOM     93  C   UNL A   1      50.680  26.534  30.962  1.00  0.00     0.060 A 
BRANCH  93  94
ATOM     94  S   UNL A   1      52.432  26.211  31.257  1.00  0.00     0.124 S 
ATOM     95  O   UNL A   1      52.977  26.288  29.906  1.00  0.00    -0.237 OA
ATOM     96  O   UNL A   1      52.803  27.303  32.154  1.00  0.00    -0.237 OA
ATOM     97  O   UNL A   1      52.438  24.883  31.863  1.00  0.00    -0.744 OA
ENDBRANCH  93  94
ENDBRANCH  61  86
ENDBRANCH  35  36
ENDBRANCH  28  30
ENDBRANCH  27  28
ENDBRANCH  26  27
ENDBRANCH   1  26
TORSDOF 19
ENDMDL
MODEL 3
REMARK VINA RESULT:     -11.5      6.300     10.902
REMARK SMILES Nc1c(Cl)ccc2c1C=C(C(=O)OCCOCCOC(=O)c1ccc(-c3c4nc(c(-c5c(F)cc(S(=O)(=O)[O-])cc5F)c5ccc([nH]5)c(-c5c(F)cc(S(=O)(=O)[O-])cc5F)c5nc(c(-c6c(F)cc(S(=O)(=O)[O-])cc6F)c6ccc3[nH]6)C=C5)C=C4)cc1)[C@@H](C(F)(F)F)O2
REMARK SMILES IDX 17 1 16 2 15 3 14 4 13 5 11 6 12 7 10 8 2 9 3 10 8 11 4 12
REMARK SMILES IDX 5 13 7 14 9 15 6 16 93 17 88 18 1 19 89 22 90 23 91 24 92 25
REMARK SMILES IDX 18 26 19 27 20 28 21 29 22 30 23 31 87 32 24 33 86 34 25 35
REMARK SMILES IDX 26 36 27 37 80 38 28 39 85 40 79 41 81 42 29 43 84 44 78 45
REMARK SMILES IDX 77 46 30 48 64 49 43 50 63 51 44 52 47 53 62 54 82 55 45 56
REMARK SMILES IDX 46 57 61 59 83 60 48 61 31 62 32 63 41 64 33 65 34 66 40 67
REMARK SMILES IDX 42 68 35 69 36 70 37 71 38 72 39 73 65 74 66 75 75 76 67 77
REMARK SMILES IDX 68 78 74 79 76 80 69 81 70 82 71 83 72 84 73 85 49 86 50 87
REMARK SMILES IDX 59 88 51 89 52 90 58 91 60 92 53 93 54 94 55 95 56 96 57 97
REMARK H PARENT 1 20 1 21 81 47 47 58
REMARK Flexibility Score: inf
ROOT
ATOM      1  C   UNL A   1      37.832  21.023  25.230  1.00  0.00     0.202 C 
ENDROOT
BRANCH   1   2
ATOM      2  O   UNL A   1      36.565  21.683  25.297  1.00  0.00    -0.374 OA
BRANCH   2   3
ATOM      3  C   UNL A   1      36.536  22.999  25.844  1.00  0.00     0.202 C 
BRANCH   3   4
ATOM      4  C   UNL A   1      35.289  23.837  25.544  1.00  0.00     0.261 C 
BRANCH   4   5
ATOM      5  O   UNL A   1      34.119  23.294  26.175  1.00  0.00    -0.460 OA
BRANCH   5   6
ATOM      6  C   UNL A   1      32.969  23.485  25.489  1.00  0.00     0.338 C 
ATOM      7  O   UNL A   1      32.304  24.509  25.441  1.00  0.00    -0.246 OA
BRANCH   6   8
ATOM      8  C   UNL A   1      32.680  22.299  24.659  1.00  0.00     0.088 C 
ATOM      9  C   UNL A   1      32.686  18.618  25.129  1.00  0.00     0.061 A 
ATOM     10  C   UNL A   1      32.708  17.490  24.279  1.00  0.00     0.064 A 
ATOM     11  C   UNL A   1      32.571  19.896  24.533  1.00  0.00     0.042 A 
ATOM     12  Cl  UNL A   1      32.952  15.901  24.927  1.00  0.00    -0.082 Cl
ATOM     13  C   UNL A   1      32.521  17.614  22.902  1.00  0.00     0.026 A 
ATOM     14  C   UNL A   1      32.342  20.009  23.154  1.00  0.00     0.130 A 
ATOM     15  C   UNL A   1      32.746  21.125  25.297  1.00  0.00     0.029 C 
ATOM     16  C   UNL A   1      32.311  18.872  22.345  1.00  0.00     0.049 A 
ATOM     17  O   UNL A   1      32.130  21.192  22.503  1.00  0.00    -0.475 OA
ATOM     18  C   UNL A   1      32.364  22.446  23.201  1.00  0.00     0.316 C 
BRANCH   9  19
ATOM     19  N   UNL A   1      32.903  18.461  26.505  1.00  0.00    -0.397 N 
ATOM     20  H   UNL A   1      33.744  18.069  26.830  1.00  0.00     0.156 HD
ATOM     21  H   UNL A   1      32.211  18.746  27.147  1.00  0.00     0.156 HD
ENDBRANCH   9  19
BRANCH  18  22
ATOM     22  C   UNL A   1      33.447  23.224  22.437  1.00  0.00     0.430 C 
ATOM     23  F   UNL A   1      33.416  24.541  22.754  1.00  0.00    -0.167 F 
ATOM     24  F   UNL A   1      34.688  22.778  22.732  1.00  0.00    -0.167 F 
ATOM     25  F   UNL A   1      33.285  23.125  21.098  1.00  0.00    -0.167 F 
ENDBRANCH  18  22
ENDBRANCH   6   8
ENDBRANCH   5   6
ENDBRANCH   4   5
ENDBRANCH   3   4
ENDBRANCH   2   3
ENDBRANCH   1   2
BRANCH   1  26
ATOM     26  C   UNL A   1      38.980  21.628  26.044  1.00  0.00     0.261 C 
BRANCH  26  27
ATOM     27  O   UNL A   1      39.654  20.635  26.841  1.00  0.00    -0.460 OA
BRANCH  27  28
ATOM     28  C   UNL A   1      40.852  20.231  26.354  1.00  0.00     0.338 C 
ATOM     29  O   UNL A   1      41.093  19.199  25.748  1.00  0.00    -0.246 OA
BRANCH  28  30
ATOM     30  C   UNL A   1      41.839  21.312  26.500  1.00  0.00     0.060 A 
ATOM     31  C   UNL A   1      42.180  21.720  27.796  1.00  0.00     0.016 A 
ATOM     32  C   UNL A   1      42.330  21.991  25.384  1.00  0.00     0.016 A 
ATOM     33  C   UNL A   1      42.984  22.841  27.981  1.00  0.00     0.010 A 
ATOM     34  C   UNL A   1      43.120  23.127  25.572  1.00  0.00     0.010 A 
ATOM     35  C   UNL A   1      43.418  23.577  26.871  1.00  0.00    -0.014 A 
BRANCH  35  36
ATOM     36  C   UNL A   1      44.022  24.913  27.078  1.00  0.00     0.031 A 
ATOM     37  C   UNL A   1      43.144  26.034  27.561  1.00  0.00     0.074 A 
ATOM     38  C   UNL A   1      45.335  25.114  26.878  1.00  0.00     0.049 A 
ATOM     39  N   UNL A   1      43.450  27.280  27.806  1.00  0.00    -0.248 NA
ATOM     40  C   UNL A   1      41.731  25.700  27.805  1.00  0.00     0.031 C 
ATOM     41  C   UNL A   1      46.293  24.088  26.471  1.00  0.00     0.029 A 
ATOM     42  N   UNL A   1      46.088  26.253  26.998  1.00  0.00    -0.354 N 
ATOM     43  C   UNL A   1      42.277  27.876  28.251  1.00  0.00     0.074 A 
ATOM     44  C   UNL A   1      41.242  26.866  28.201  1.00  0.00     0.031 C 
ATOM     45  C   UNL A   1      47.512  24.647  26.375  1.00  0.00     0.029 A 
ATOM     46  C   UNL A   1      47.412  26.072  26.685  1.00  0.00     0.049 A 
ATOM     47  H   UNL A   1      45.715  27.120  27.280  1.00  0.00     0.167 HD
ATOM     48  C   UNL A   1      42.082  29.146  28.678  1.00  0.00     0.037 A 
ATOM     49  C   UNL A   1      48.425  26.961  26.644  1.00  0.00     0.037 A 
ATOM     50  C   UNL A   1      43.107  30.156  28.694  1.00  0.00     0.049 A 
ATOM     51  C   UNL A   1      48.161  28.399  27.002  1.00  0.00     0.074 A 
ATOM     52  C   UNL A   1      43.007  31.480  29.081  1.00  0.00     0.029 A 
ATOM     53  N   UNL A   1      44.419  29.955  28.289  1.00  0.00    -0.354 N 
ATOM     54  N   UNL A   1      47.046  28.954  27.415  1.00  0.00    -0.248 NA
ATOM     55  C   UNL A   1      49.288  29.333  26.882  1.00  0.00     0.031 C 
ATOM     56  C   UNL A   1      44.249  32.091  28.871  1.00  0.00     0.029 A 
ATOM     57  C   UNL A   1      45.134  31.136  28.395  1.00  0.00     0.049 A 
ATOM     58  H   UNL A   1      44.788  29.099  27.973  1.00  0.00     0.167 HD
ATOM     59  C   UNL A   1      47.342  30.296  27.625  1.00  0.00     0.074 A 
ATOM     60  C   UNL A   1      48.742  30.469  27.297  1.00  0.00     0.031 C 
ATOM     61  C   UNL A   1      46.528  31.293  28.055  1.00  0.00     0.037 A 
BRANCH  48  62
ATOM     62  C   UNL A   1      40.698  29.509  29.137  1.00  0.00     0.058 A 
ATOM     63  C   UNL A   1      39.642  29.673  28.225  1.00  0.00     0.135 A 
ATOM     64  C   UNL A   1      40.423  29.708  30.499  1.00  0.00     0.135 A 
ATOM     65  F   UNL A   1      39.856  29.515  26.908  1.00  0.00    -0.206 F 
ATOM     66  C   UNL A   1      38.372  30.053  28.643  1.00  0.00     0.059 A 
ATOM     67  C   UNL A   1      39.153  30.065  30.943  1.00  0.00     0.059 A 
ATOM     68  F   UNL A   1      41.397  29.569  31.413  1.00  0.00    -0.206 F 
ATOM     69  C   UNL A   1      38.139  30.254  30.005  1.00  0.00     0.060 A 
BRANCH  69  70
ATOM     70  S   UNL A   1      36.493  30.779  30.528  1.00  0.00     0.124 S 
ATOM     71  O   UNL A   1      36.788  32.047  31.187  1.00  0.00    -0.237 OA
ATOM     72  O   UNL A   1      35.777  30.875  29.260  1.00  0.00    -0.237 OA
ATOM     73  O   UNL A   1      36.057  29.700  31.410  1.00  0.00    -0.744 OA
ENDBRANCH  69  70
ENDBRANCH  48  62
BRANCH  49  74
ATOM     74  C   UNL A   1      49.785  26.501  26.263  1.00  0.00     0.058 A 
ATOM     75  C   UNL A   1      50.219  26.575  24.932  1.00  0.00     0.135 A 
ATOM     76  C   UNL A   1      50.693  26.031  27.224  1.00  0.00     0.135 A 
ATOM     77  F   UNL A   1      49.382  27.005  23.976  1.00  0.00    -0.206 F 
ATOM     78  C   UNL A   1      51.511  26.208  24.567  1.00  0.00     0.059 A 
ATOM     79  C   UNL A   1      51.996  25.677  26.887  1.00  0.00     0.059 A 
ATOM     80  F   UNL A   1      50.325  25.948  28.512  1.00  0.00    -0.206 F 
ATOM     81  C   UNL A   1      52.396  25.773  25.555  1.00  0.00     0.060 A 
BRANCH  81  82
ATOM     82  S   UNL A   1      54.095  25.389  25.079  1.00  0.00     0.124 S 
ATOM     83  O   UNL A   1      54.159  25.944  23.733  1.00  0.00    -0.237 OA
ATOM     84  O   UNL A   1      54.862  26.097  26.099  1.00  0.00    -0.237 OA
ATOM     85  O   UNL A   1      54.148  23.932  25.164  1.00  0.00    -0.744 OA
ENDBRANCH  81  82
ENDBRANCH  49  74
BRANCH  61  86
ATOM     86  C   UNL A   1      47.127  32.664  28.208  1.00  0.00     0.058 A 
ATOM     87  C   UNL A   1      47.777  33.053  29.390  1.00  0.00     0.135 A 
ATOM     88  C   UNL A   1      47.121  33.568  27.134  1.00  0.00     0.135 A 
ATOM     89  F   UNL A   1      47.805  32.228  30.448  1.00  0.00    -0.206 F 
ATOM     90  C   UNL A   1      48.392  34.295  29.504  1.00  0.00     0.059 A 
ATOM     91  C   UNL A   1      47.751  34.806  27.218  1.00  0.00     0.059 A 
ATOM     92  F   UNL A   1      46.522  33.240  25.978  1.00  0.00    -0.206 F 
ATOM     93  C   UNL A   1      48.379  35.163  28.411  1.00  0.00     0.060 A 
BRANCH  93  94
ATOM     94  S   UNL A   1      49.227  36.751  28.557  1.00  0.00     0.124 S 
ATOM     95  O   UNL A   1      49.926  36.830  27.280  1.00  0.00    -0.237 OA
ATOM     96  O   UNL A   1      48.116  37.682  28.731  1.00  0.00    -0.237 OA
ATOM     97  O   UNL A   1      50.078  36.576  29.731  1.00  0.00    -0.744 OA
ENDBRANCH  93  94
ENDBRANCH  61  86
ENDBRANCH  35  36
ENDBRANCH  28  30
ENDBRANCH  27  28
ENDBRANCH  26  27
ENDBRANCH   1  26
TORSDOF 19
ENDMDL
