MODEL 1
REMARK VINA RESULT:     -10.7      0.000      0.000
REMARK SMILES O=C(OCCOCCOC(=O)c1ccc(CNC(=O)c2ccc(F)cc2Br)o1)c1ccc(-c2c3nc(c(-c4c(F)cc(S(=O)(=O)[O-])cc4F)c4ccc([nH]4)c(-c4c(F)cc(S(=O)(=O)[O-])cc4F)c4nc(c(-c5c(F)cc(S(=O)(=O)[O-])cc5F)c5ccc2[nH]5)C=C4)C=C3)cc1
REMARK SMILES IDX 6 1 5 2 4 3 3 4 2 5 1 6 29 7 30 8 94 9 31 10 93 11 32 12
REMARK SMILES IDX 33 13 34 14 87 15 35 16 92 17 86 18 88 19 36 20 91 21 85 22
REMARK SMILES IDX 84 23 37 25 71 26 50 27 70 28 51 29 54 30 69 31 89 32 52 33
REMARK SMILES IDX 53 34 68 36 90 37 55 38 38 39 39 40 48 41 40 42 41 43 47 44
REMARK SMILES IDX 49 45 42 46 43 47 44 48 45 49 46 50 72 51 73 52 82 53 74 54
REMARK SMILES IDX 75 55 81 56 83 57 76 58 77 59 78 60 79 61 80 62 56 63 57 64
REMARK SMILES IDX 66 65 58 66 59 67 65 68 67 69 60 70 61 71 62 72 63 73 64 74
REMARK SMILES IDX 7 75 8 76 9 77 10 78 11 79 12 80 13 81 28 82 14 83 15 84
REMARK SMILES IDX 16 85 17 86 18 87 19 89 20 90 21 91 26 92 22 93 25 94 27 95
REMARK SMILES IDX 23 96 24 97
REMARK H PARENT 88 24 54 35 17 88
REMARK Flexibility Score: inf
ROOT
ATOM      1  O   UNL A   1      43.656  21.691  24.652  1.00  0.00    -0.374 OA
ENDROOT
BRANCH   1   2
ATOM      2  C   UNL A   1      44.408  22.889  24.842  1.00  0.00     0.202 C 
BRANCH   2   3
ATOM      3  C   UNL A   1      43.920  23.738  26.016  1.00  0.00     0.261 C 
BRANCH   3   4
ATOM      4  O   UNL A   1      44.073  25.131  25.683  1.00  0.00    -0.460 OA
BRANCH   4   5
ATOM      5  C   UNL A   1      43.185  26.138  25.833  1.00  0.00     0.338 C 
ATOM      6  O   UNL A   1      42.519  26.477  24.856  1.00  0.00    -0.246 OA
BRANCH   5   7
ATOM      7  C   UNL A   1      42.986  26.879  27.115  1.00  0.00     0.060 A 
ATOM      8  C   UNL A   1      43.446  28.174  27.370  1.00  0.00     0.016 A 
ATOM      9  C   UNL A   1      42.157  26.269  28.073  1.00  0.00     0.016 A 
ATOM     10  C   UNL A   1      43.140  28.822  28.572  1.00  0.00     0.010 A 
ATOM     11  C   UNL A   1      41.801  26.937  29.250  1.00  0.00     0.010 A 
ATOM     12  C   UNL A   1      42.296  28.219  29.510  1.00  0.00    -0.014 A 
BRANCH  12  13
ATOM     13  C   UNL A   1      41.877  28.950  30.730  1.00  0.00     0.031 A 
ATOM     14  C   UNL A   1      40.666  29.836  30.710  1.00  0.00     0.074 A 
ATOM     15  C   UNL A   1      42.611  28.835  31.853  1.00  0.00     0.049 A 
ATOM     16  N   UNL A   1      40.190  30.599  31.659  1.00  0.00    -0.248 NA
ATOM     17  C   UNL A   1      39.891  29.870  29.460  1.00  0.00     0.031 C 
ATOM     18  C   UNL A   1      43.814  28.010  31.997  1.00  0.00     0.029 A 
ATOM     19  N   UNL A   1      42.459  29.419  33.084  1.00  0.00    -0.354 N 
ATOM     20  C   UNL A   1      39.068  31.214  31.123  1.00  0.00     0.074 A 
ATOM     21  C   UNL A   1      38.940  30.745  29.758  1.00  0.00     0.031 C 
ATOM     22  C   UNL A   1      44.286  28.138  33.248  1.00  0.00     0.029 A 
ATOM     23  C   UNL A   1      43.441  29.075  33.981  1.00  0.00     0.049 A 
ATOM     24  H   UNL A   1      41.716  30.027  33.305  1.00  0.00     0.167 HD
ATOM     25  C   UNL A   1      38.215  32.082  31.715  1.00  0.00     0.037 A 
ATOM     26  C   UNL A   1      43.652  29.488  35.246  1.00  0.00     0.037 A 
ATOM     27  C   UNL A   1      38.322  32.531  33.077  1.00  0.00     0.049 A 
ATOM     28  C   UNL A   1      42.725  30.494  35.862  1.00  0.00     0.074 A 
ATOM     29  C   UNL A   1      37.464  33.354  33.786  1.00  0.00     0.029 A 
ATOM     30  N   UNL A   1      39.358  32.199  33.936  1.00  0.00    -0.354 N 
ATOM     31  N   UNL A   1      41.649  31.039  35.349  1.00  0.00    -0.248 NA
ATOM     32  C   UNL A   1      43.052  30.956  37.218  1.00  0.00     0.031 C 
ATOM     33  C   UNL A   1      37.997  33.539  35.069  1.00  0.00     0.029 A 
ATOM     34  C   UNL A   1      39.181  32.826  35.157  1.00  0.00     0.049 A 
ATOM     35  H   UNL A   1      40.110  31.605  33.710  1.00  0.00     0.167 HD
ATOM     36  C   UNL A   1      41.175  31.917  36.316  1.00  0.00     0.074 A 
ATOM     37  C   UNL A   1      42.072  31.820  37.450  1.00  0.00     0.031 C 
ATOM     38  C   UNL A   1      40.097  32.735  36.265  1.00  0.00     0.037 A 
BRANCH  25  39
ATOM     39  C   UNL A   1      37.086  32.601  30.878  1.00  0.00     0.058 A 
ATOM     40  C   UNL A   1      37.235  33.756  30.096  1.00  0.00     0.135 A 
ATOM     41  C   UNL A   1      35.846  31.946  30.867  1.00  0.00     0.135 A 
ATOM     42  F   UNL A   1      38.399  34.425  30.092  1.00  0.00    -0.206 F 
ATOM     43  C   UNL A   1      36.180  34.259  29.341  1.00  0.00     0.059 A 
ATOM     44  C   UNL A   1      34.780  32.427  30.115  1.00  0.00     0.059 A 
ATOM     45  F   UNL A   1      35.656  30.844  31.610  1.00  0.00    -0.206 F 
ATOM     46  C   UNL A   1      34.953  33.594  29.368  1.00  0.00     0.060 A 
BRANCH  46  47
ATOM     47  S   UNL A   1      33.575  34.263  28.411  1.00  0.00     0.124 S 
ATOM     48  O   UNL A   1      32.712  34.779  29.470  1.00  0.00    -0.237 OA
ATOM     49  O   UNL A   1      34.222  35.269  27.576  1.00  0.00    -0.237 OA
ATOM     50  O   UNL A   1      33.066  33.095  27.698  1.00  0.00    -0.744 OA
ENDBRANCH  46  47
ENDBRANCH  25  39
BRANCH  26  51
ATOM     51  C   UNL A   1      44.824  28.978  35.996  1.00  0.00     0.058 A 
ATOM     52  C   UNL A   1      46.068  29.619  35.912  1.00  0.00     0.135 A 
ATOM     53  C   UNL A   1      44.711  27.854  36.831  1.00  0.00     0.135 A 
ATOM     54  F   UNL A   1      46.219  30.692  35.121  1.00  0.00    -0.206 F 
ATOM     55  C   UNL A   1      47.165  29.163  36.633  1.00  0.00     0.059 A 
ATOM     56  C   UNL A   1      45.793  27.385  37.568  1.00  0.00     0.059 A 
ATOM     57  F   UNL A   1      43.534  27.220  36.945  1.00  0.00    -0.206 F 
ATOM     58  C   UNL A   1      47.019  28.044  37.456  1.00  0.00     0.060 A 
BRANCH  58  59
ATOM     59  S   UNL A   1      48.424  27.485  38.445  1.00  0.00     0.124 S 
ATOM     60  O   UNL A   1      48.017  26.128  38.790  1.00  0.00    -0.237 OA
ATOM     61  O   UNL A   1      49.540  27.597  37.510  1.00  0.00    -0.237 OA
ATOM     62  O   UNL A   1      48.446  28.443  39.547  1.00  0.00    -0.744 OA
ENDBRANCH  58  59
ENDBRANCH  26  51
BRANCH  38  63
ATOM     63  C   UNL A   1      39.848  33.610  37.454  1.00  0.00     0.058 A 
ATOM     64  C   UNL A   1      40.452  34.873  37.550  1.00  0.00     0.135 A 
ATOM     65  C   UNL A   1      38.978  33.209  38.478  1.00  0.00     0.135 A 
ATOM     66  F   UNL A   1      41.298  35.291  36.595  1.00  0.00    -0.206 F 
ATOM     67  C   UNL A   1      40.202  35.714  38.628  1.00  0.00     0.059 A 
ATOM     68  C   UNL A   1      38.710  34.036  39.564  1.00  0.00     0.059 A 
ATOM     69  F   UNL A   1      38.378  32.009  38.424  1.00  0.00    -0.206 F 
ATOM     70  C   UNL A   1      39.332  35.284  39.632  1.00  0.00     0.060 A 
BRANCH  70  71
ATOM     71  S   UNL A   1      38.967  36.388  41.015  1.00  0.00     0.124 S 
ATOM     72  O   UNL A   1      38.546  37.600  40.320  1.00  0.00    -0.237 OA
ATOM     73  O   UNL A   1      37.915  35.674  41.733  1.00  0.00    -0.237 OA
ATOM     74  O   UNL A   1      40.244  36.473  41.716  1.00  0.00    -0.744 OA
ENDBRANCH  70  71
ENDBRANCH  38  63
ENDBRANCH  12  13
ENDBRANCH   5   7
ENDBRANCH   4   5
ENDBRANCH   3   4
ENDBRANCH   2   3
ENDBRANCH   1   2
BRANCH   1  75
ATOM     75  C   UNL A   1      44.128  20.544  25.371  1.00  0.00     0.202 C 
BRANCH  75  76
ATOM     76  C   UNL A   1      42.931  19.817  26.002  1.00  0.00     0.261 C 
BRANCH  76  77
ATOM     77  O   UNL A   1      41.747  20.602  25.762  1.00  0.00    -0.457 OA
BRANCH  77  78
ATOM     78  C   UNL A   1      40.942  20.716  26.861  1.00  0.00     0.374 C 
ATOM     79  O   UNL A   1      40.913  19.923  27.794  1.00  0.00    -0.242 OA
BRANCH  78  80
ATOM     80  C   UNL A   1      40.282  21.996  26.811  1.00  0.00     0.211 A 
ATOM     81  C   UNL A   1      40.487  23.189  27.483  1.00  0.00     0.058 A 
ATOM     82  O   UNL A   1      39.137  22.090  26.070  1.00  0.00    -0.452 OA
ATOM     83  C   UNL A   1      39.401  24.036  27.153  1.00  0.00     0.048 A 
ATOM     84  C   UNL A   1      38.580  23.306  26.322  1.00  0.00     0.124 A 
BRANCH  84  85
ATOM     85  C   UNL A   1      37.235  23.536  25.746  1.00  0.00     0.191 C 
BRANCH  85  86
ATOM     86  N   UNL A   1      37.268  23.392  24.308  1.00  0.00    -0.345 N 
ATOM     87  C   UNL A   1      36.256  22.941  23.503  1.00  0.00     0.252 C 
ATOM     88  H   UNL A   1      38.108  23.646  23.860  1.00  0.00     0.164 HD
ATOM     89  O   UNL A   1      36.375  22.883  22.285  1.00  0.00    -0.269 OA
BRANCH  87  90
ATOM     90  C   UNL A   1      34.979  22.550  24.128  1.00  0.00     0.054 A 
ATOM     91  C   UNL A   1      34.864  21.243  24.625  1.00  0.00     0.018 A 
ATOM     92  C   UNL A   1      33.913  23.451  24.247  1.00  0.00     0.033 A 
ATOM     93  C   UNL A   1      33.673  20.836  25.224  1.00  0.00     0.040 A 
ATOM     94  C   UNL A   1      32.725  23.039  24.855  1.00  0.00     0.055 A 
ATOM     95  Br  UNL A   1      33.990  25.218  23.563  1.00  0.00    -0.050 Br
ATOM     96  C   UNL A   1      32.618  21.737  25.336  1.00  0.00     0.124 A 
ATOM     97  F   UNL A   1      31.476  21.339  25.911  1.00  0.00    -0.207 F 
ENDBRANCH  87  90
ENDBRANCH  85  86
ENDBRANCH  84  85
ENDBRANCH  78  80
ENDBRANCH  77  78
ENDBRANCH  76  77
ENDBRANCH  75  76
ENDBRANCH   1  75
TORSDOF 20
ENDMDL
MODEL 2
REMARK VINA RESULT:     -10.5      6.465     12.228
REMARK SMILES O=C(OCCOCCOC(=O)c1ccc(CNC(=O)c2ccc(F)cc2Br)o1)c1ccc(-c2c3nc(c(-c4c(F)cc(S(=O)(=O)[O-])cc4F)c4ccc([nH]4)c(-c4c(F)cc(S(=O)(=O)[O-])cc4F)c4nc(c(-c5c(F)cc(S(=O)(=O)[O-])cc5F)c5ccc2[nH]5)C=C4)C=C3)cc1
REMARK SMILES IDX 6 1 5 2 4 3 3 4 2 5 1 6 29 7 30 8 94 9 31 10 93 11 32 12
REMARK SMILES IDX 33 13 34 14 87 15 35 16 92 17 86 18 88 19 36 20 91 21 85 22
REMARK SMILES IDX 84 23 37 25 71 26 50 27 70 28 51 29 54 30 69 31 89 32 52 33
REMARK SMILES IDX 53 34 68 36 90 37 55 38 38 39 39 40 48 41 40 42 41 43 47 44
REMARK SMILES IDX 49 45 42 46 43 47 44 48 45 49 46 50 72 51 73 52 82 53 74 54
REMARK SMILES IDX 75 55 81 56 83 57 76 58 77 59 78 60 79 61 80 62 56 63 57 64
REMARK SMILES IDX 66 65 58 66 59 67 65 68 67 69 60 70 61 71 62 72 63 73 64 74
REMARK SMILES IDX 7 75 8 76 9 77 10 78 11 79 12 80 13 81 28 82 14 83 15 84
REMARK SMILES IDX 16 85 17 86 18 87 19 89 20 90 21 91 26 92 22 93 25 94 27 95
REMARK SMILES IDX 23 96 24 97
REMARK H PARENT 88 24 54 35 17 88
REMARK Flexibility Score: inf
ROOT
ATOM      1  O   UNL A   1      33.157  29.480  26.149  1.00  0.00    -0.374 OA
ENDROOT
BRANCH   1   2
ATOM      2  C   UNL A   1      33.650  30.296  27.213  1.00  0.00     0.202 C 
BRANCH   2   3
ATOM      3  C   UNL A   1      34.909  29.739  27.878  1.00  0.00     0.261 C 
BRANCH   3   4
ATOM      4  O   UNL A   1      35.509  30.771  28.682  1.00  0.00    -0.460 OA
BRANCH   4   5
ATOM      5  C   UNL A   1      36.370  30.643  29.715  1.00  0.00     0.338 C 
ATOM      6  O   UNL A   1      35.933  30.776  30.857  1.00  0.00    -0.246 OA
BRANCH   5   7
ATOM      7  C   UNL A   1      37.830  30.372  29.545  1.00  0.00     0.060 A 
ATOM      8  C   UNL A   1      38.748  30.251  30.591  1.00  0.00     0.016 A 
ATOM      9  C   UNL A   1      38.270  30.087  28.241  1.00  0.00     0.016 A 
ATOM     10  C   UNL A   1      40.083  29.914  30.343  1.00  0.00     0.010 A 
ATOM     11  C   UNL A   1      39.589  29.692  27.994  1.00  0.00     0.010 A 
ATOM     12  C   UNL A   1      40.508  29.608  29.046  1.00  0.00    -0.014 A 
BRANCH  12  13
ATOM     13  C   UNL A   1      41.891  29.138  28.795  1.00  0.00     0.031 A 
ATOM     14  C   UNL A   1      43.045  30.095  28.856  1.00  0.00     0.074 A 
ATOM     15  C   UNL A   1      42.103  27.845  28.481  1.00  0.00     0.049 A 
ATOM     16  N   UNL A   1      44.309  29.877  28.602  1.00  0.00    -0.248 NA
ATOM     17  C   UNL A   1      42.737  31.478  29.253  1.00  0.00     0.031 C 
ATOM     18  C   UNL A   1      41.064  26.817  28.382  1.00  0.00     0.029 A 
ATOM     19  N   UNL A   1      43.261  27.176  28.178  1.00  0.00    -0.354 N 
ATOM     20  C   UNL A   1      44.950  31.093  28.795  1.00  0.00     0.074 A 
ATOM     21  C   UNL A   1      43.932  32.052  29.176  1.00  0.00     0.031 C 
ATOM     22  C   UNL A   1      41.634  25.648  28.048  1.00  0.00     0.029 A 
ATOM     23  C   UNL A   1      43.068  25.850  27.878  1.00  0.00     0.049 A 
ATOM     24  H   UNL A   1      44.148  27.606  28.177  1.00  0.00     0.167 HD
ATOM     25  C   UNL A   1      46.266  31.384  28.678  1.00  0.00     0.037 A 
ATOM     26  C   UNL A   1      43.946  24.907  27.485  1.00  0.00     0.037 A 
ATOM     27  C   UNL A   1      47.284  30.432  28.326  1.00  0.00     0.049 A 
ATOM     28  C   UNL A   1      45.391  25.267  27.306  1.00  0.00     0.074 A 
ATOM     29  C   UNL A   1      48.654  30.618  28.251  1.00  0.00     0.029 A 
ATOM     30  N   UNL A   1      47.041  29.112  27.980  1.00  0.00    -0.354 N 
ATOM     31  N   UNL A   1      45.983  26.416  27.526  1.00  0.00    -0.248 NA
ATOM     32  C   UNL A   1      46.283  24.212  26.806  1.00  0.00     0.031 C 
ATOM     33  C   UNL A   1      49.237  29.413  27.836  1.00  0.00     0.029 A 
ATOM     34  C   UNL A   1      48.230  28.479  27.659  1.00  0.00     0.049 A 
ATOM     35  H   UNL A   1      46.153  28.687  27.964  1.00  0.00     0.167 HD
ATOM     36  C   UNL A   1      47.315  26.225  27.181  1.00  0.00     0.074 A 
ATOM     37  C   UNL A   1      47.447  24.847  26.753  1.00  0.00     0.031 C 
ATOM     38  C   UNL A   1      48.336  27.114  27.213  1.00  0.00     0.037 A 
BRANCH  25  39
ATOM     39  C   UNL A   1      46.672  32.803  28.935  1.00  0.00     0.058 A 
ATOM     40  C   UNL A   1      47.006  33.240  30.226  1.00  0.00     0.135 A 
ATOM     41  C   UNL A   1      46.719  33.733  27.886  1.00  0.00     0.135 A 
ATOM     42  F   UNL A   1      46.957  32.387  31.261  1.00  0.00    -0.206 F 
ATOM     43  C   UNL A   1      47.354  34.563  30.473  1.00  0.00     0.059 A 
ATOM     44  C   UNL A   1      47.070  35.060  28.110  1.00  0.00     0.059 A 
ATOM     45  F   UNL A   1      46.396  33.361  26.637  1.00  0.00    -0.206 F 
ATOM     46  C   UNL A   1      47.371  35.468  29.411  1.00  0.00     0.060 A 
BRANCH  46  47
ATOM     47  S   UNL A   1      47.794  37.193  29.737  1.00  0.00     0.124 S 
ATOM     48  O   UNL A   1      48.826  37.048  30.760  1.00  0.00    -0.237 OA
ATOM     49  O   UNL A   1      48.255  37.663  28.435  1.00  0.00    -0.237 OA
ATOM     50  O   UNL A   1      46.531  37.766  30.195  1.00  0.00    -0.744 OA
ENDBRANCH  46  47
ENDBRANCH  25  39
BRANCH  26  51
ATOM     51  C   UNL A   1      43.464  23.537  27.188  1.00  0.00     0.058 A 
ATOM     52  C   UNL A   1      43.125  22.653  28.222  1.00  0.00     0.135 A 
ATOM     53  C   UNL A   1      43.312  23.098  25.863  1.00  0.00     0.135 A 
ATOM     54  F   UNL A   1      43.261  23.032  29.502  1.00  0.00    -0.206 F 
ATOM     55  C   UNL A   1      42.647  21.376  27.953  1.00  0.00     0.059 A 
ATOM     56  C   UNL A   1      42.829  21.828  25.570  1.00  0.00     0.059 A 
ATOM     57  F   UNL A   1      43.618  23.919  24.846  1.00  0.00    -0.206 F 
ATOM     58  C   UNL A   1      42.506  20.971  26.624  1.00  0.00     0.060 A 
BRANCH  58  59
ATOM     59  S   UNL A   1      41.825  19.337  26.267  1.00  0.00     0.124 S 
ATOM     60  O   UNL A   1      42.219  18.590  27.456  1.00  0.00    -0.237 OA
ATOM     61  O   UNL A   1      40.397  19.605  26.129  1.00  0.00    -0.237 OA
ATOM     62  O   UNL A   1      42.504  18.965  25.028  1.00  0.00    -0.744 OA
ENDBRANCH  58  59
ENDBRANCH  26  51
BRANCH  38  63
ATOM     63  C   UNL A   1      49.674  26.634  26.741  1.00  0.00     0.058 A 
ATOM     64  C   UNL A   1      50.601  26.099  27.648  1.00  0.00     0.135 A 
ATOM     65  C   UNL A   1      50.017  26.669  25.382  1.00  0.00     0.135 A 
ATOM     66  F   UNL A   1      50.316  26.056  28.959  1.00  0.00    -0.206 F 
ATOM     67  C   UNL A   1      51.833  25.613  27.222  1.00  0.00     0.059 A 
ATOM     68  C   UNL A   1      51.240  26.184  24.932  1.00  0.00     0.059 A 
ATOM     69  F   UNL A   1      49.157  27.171  24.480  1.00  0.00    -0.206 F 
ATOM     70  C   UNL A   1      52.144  25.664  25.861  1.00  0.00     0.060 A 
BRANCH  70  71
ATOM     71  S   UNL A   1      53.723  24.995  25.293  1.00  0.00     0.124 S 
ATOM     72  O   UNL A   1      53.974  25.806  24.106  1.00  0.00    -0.237 OA
ATOM     73  O   UNL A   1      54.609  25.244  26.426  1.00  0.00    -0.237 OA
ATOM     74  O   UNL A   1      53.417  23.590  25.045  1.00  0.00    -0.744 OA
ENDBRANCH  70  71
ENDBRANCH  38  63
ENDBRANCH  12  13
ENDBRANCH   5   7
ENDBRANCH   4   5
ENDBRANCH   3   4
ENDBRANCH   2   3
ENDBRANCH   1   2
BRANCH   1  75
ATOM     75  C   UNL A   1      31.852  29.819  25.664  1.00  0.00     0.202 C 
BRANCH  75  76
ATOM     76  C   UNL A   1      31.742  29.413  24.186  1.00  0.00     0.261 C 
BRANCH  76  77
ATOM     77  O   UNL A   1      30.432  28.858  23.966  1.00  0.00    -0.457 OA
BRANCH  77  78
ATOM     78  C   UNL A   1      30.266  28.347  22.709  1.00  0.00     0.374 C 
ATOM     79  O   UNL A   1      29.738  28.939  21.775  1.00  0.00    -0.242 OA
BRANCH  78  80
ATOM     80  C   UNL A   1      30.965  27.089  22.633  1.00  0.00     0.211 A 
ATOM     81  C   UNL A   1      31.968  26.617  21.804  1.00  0.00     0.058 A 
ATOM     82  O   UNL A   1      30.516  26.065  23.420  1.00  0.00    -0.452 OA
ATOM     83  C   UNL A   1      32.115  25.236  22.083  1.00  0.00     0.048 A 
ATOM     84  C   UNL A   1      31.177  24.936  23.048  1.00  0.00     0.124 A 
BRANCH  84  85
ATOM     85  C   UNL A   1      30.706  23.675  23.665  1.00  0.00     0.191 C 
BRANCH  85  86
ATOM     86  N   UNL A   1      30.551  23.837  25.093  1.00  0.00    -0.345 N 
ATOM     87  C   UNL A   1      31.455  23.492  26.063  1.00  0.00     0.252 C 
ATOM     88  H   UNL A   1      29.706  24.238  25.401  1.00  0.00     0.164 HD
ATOM     89  O   UNL A   1      31.238  23.697  27.251  1.00  0.00    -0.269 OA
BRANCH  87  90
ATOM     90  C   UNL A   1      32.735  22.889  25.651  1.00  0.00     0.054 A 
ATOM     91  C   UNL A   1      32.790  21.494  25.513  1.00  0.00     0.018 A 
ATOM     92  C   UNL A   1      33.865  23.674  25.383  1.00  0.00     0.033 A 
ATOM     93  C   UNL A   1      33.983  20.886  25.124  1.00  0.00     0.040 A 
ATOM     94  C   UNL A   1      35.055  23.059  24.986  1.00  0.00     0.055 A 
ATOM     95  Br  UNL A   1      33.868  25.559  25.586  1.00  0.00    -0.050 Br
ATOM     96  C   UNL A   1      35.101  21.673  24.862  1.00  0.00     0.124 A 
ATOM     97  F   UNL A   1      36.244  21.083  24.490  1.00  0.00    -0.207 F 
ENDBRANCH  87  90
ENDBRANCH  85  86
ENDBRANCH  84  85
ENDBRANCH  78  80
ENDBRANCH  77  78
ENDBRANCH  76  77
ENDBRANCH  75  76
ENDBRANCH   1  75
TORSDOF 20
ENDMDL
MODEL 3
REMARK VINA RESULT:     -10.5      1.399      2.193
REMARK SMILES O=C(OCCOCCOC(=O)c1ccc(CNC(=O)c2ccc(F)cc2Br)o1)c1ccc(-c2c3nc(c(-c4c(F)cc(S(=O)(=O)[O-])cc4F)c4ccc([nH]4)c(-c4c(F)cc(S(=O)(=O)[O-])cc4F)c4nc(c(-c5c(F)cc(S(=O)(=O)[O-])cc5F)c5ccc2[nH]5)C=C4)C=C3)cc1
REMARK SMILES IDX 6 1 5 2 4 3 3 4 2 5 1 6 29 7 30 8 94 9 31 10 93 11 32 12
REMARK SMILES IDX 33 13 34 14 87 15 35 16 92 17 86 18 88 19 36 20 91 21 85 22
REMARK SMILES IDX 84 23 37 25 71 26 50 27 70 28 51 29 54 30 69 31 89 32 52 33
REMARK SMILES IDX 53 34 68 36 90 37 55 38 38 39 39 40 48 41 40 42 41 43 47 44
REMARK SMILES IDX 49 45 42 46 43 47 44 48 45 49 46 50 72 51 73 52 82 53 74 54
REMARK SMILES IDX 75 55 81 56 83 57 76 58 77 59 78 60 79 61 80 62 56 63 57 64
REMARK SMILES IDX 66 65 58 66 59 67 65 68 67 69 60 70 61 71 62 72 63 73 64 74
REMARK SMILES IDX 7 75 8 76 9 77 10 78 11 79 12 80 13 81 28 82 14 83 15 84
REMARK SMILES IDX 16 85 17 86 18 87 19 89 20 90 21 91 26 92 22 93 25 94 27 95
REMARK SMILES IDX 23 96 24 97
REMARK H PARENT 88 24 54 35 17 88
REMARK Flexibility Score: inf
ROOT
ATOM      1  O   UNL A   1      43.996  21.760  25.844  1.00  0.00    -0.374 OA
ENDROOT
BRANCH   1   2
ATOM      2  C   UNL A   1      43.806  22.725  24.809  1.00  0.00     0.202 C 
BRANCH   2   3
ATOM      3  C   UNL A   1      44.167  24.150  25.228  1.00  0.00     0.261 C 
BRANCH   3   4
ATOM      4  O   UNL A   1      43.223  24.602  26.217  1.00  0.00    -0.460 OA
BRANCH   4   5
ATOM      5  C   UNL A   1      42.293  25.576  26.114  1.00  0.00     0.338 C 
ATOM      6  O   UNL A   1      41.821  25.815  25.004  1.00  0.00    -0.246 OA
BRANCH   5   7
ATOM      7  C   UNL A   1      41.825  26.396  27.272  1.00  0.00     0.060 A 
ATOM      8  C   UNL A   1      40.928  25.959  28.251  1.00  0.00     0.016 A 
ATOM      9  C   UNL A   1      42.444  27.645  27.450  1.00  0.00     0.016 A 
ATOM     10  C   UNL A   1      40.610  26.767  29.348  1.00  0.00     0.010 A 
ATOM     11  C   UNL A   1      42.172  28.432  28.575  1.00  0.00     0.010 A 
ATOM     12  C   UNL A   1      41.247  27.999  29.531  1.00  0.00    -0.014 A 
BRANCH  12  13
ATOM     13  C   UNL A   1      40.999  28.805  30.750  1.00  0.00     0.031 A 
ATOM     14  C   UNL A   1      39.911  29.838  30.773  1.00  0.00     0.074 A 
ATOM     15  C   UNL A   1      41.778  28.622  31.834  1.00  0.00     0.049 A 
ATOM     16  N   UNL A   1      39.594  30.678  31.723  1.00  0.00    -0.248 NA
ATOM     17  C   UNL A   1      39.073  29.944  29.568  1.00  0.00     0.031 C 
ATOM     18  C   UNL A   1      42.873  27.653  31.934  1.00  0.00     0.029 A 
ATOM     19  N   UNL A   1      41.776  29.248  33.053  1.00  0.00    -0.354 N 
ATOM     20  C   UNL A   1      38.529  31.421  31.234  1.00  0.00     0.074 A 
ATOM     21  C   UNL A   1      38.260  30.941  29.893  1.00  0.00     0.031 C 
ATOM     22  C   UNL A   1      43.431  27.747  33.152  1.00  0.00     0.029 A 
ATOM     23  C   UNL A   1      42.758  28.802  33.903  1.00  0.00     0.049 A 
ATOM     24  H   UNL A   1      41.131  29.952  33.297  1.00  0.00     0.167 HD
ATOM     25  C   UNL A   1      37.830  32.404  31.847  1.00  0.00     0.037 A 
ATOM     26  C   UNL A   1      43.095  29.212  35.141  1.00  0.00     0.037 A 
ATOM     27  C   UNL A   1      38.075  32.866  33.186  1.00  0.00     0.049 A 
ATOM     28  C   UNL A   1      42.343  30.343  35.778  1.00  0.00     0.074 A 
ATOM     29  C   UNL A   1      37.373  33.809  33.918  1.00  0.00     0.029 A 
ATOM     30  N   UNL A   1      39.110  32.423  33.994  1.00  0.00    -0.354 N 
ATOM     31  N   UNL A   1      41.316  31.010  35.310  1.00  0.00    -0.248 NA
ATOM     32  C   UNL A   1      42.807  30.790  37.098  1.00  0.00     0.031 C 
ATOM     33  C   UNL A   1      38.002  33.953  35.162  1.00  0.00     0.029 A 
ATOM     34  C   UNL A   1      39.088  33.095  35.204  1.00  0.00     0.049 A 
ATOM     35  H   UNL A   1      39.766  31.732  33.744  1.00  0.00     0.167 HD
ATOM     36  C   UNL A   1      41.017  31.964  36.275  1.00  0.00     0.074 A 
ATOM     37  C   UNL A   1      41.960  31.778  37.359  1.00  0.00     0.031 C 
ATOM     38  C   UNL A   1      40.050  32.912  36.260  1.00  0.00     0.037 A 
BRANCH  25  39
ATOM     39  C   UNL A   1      36.729  33.045  31.060  1.00  0.00     0.058 A 
ATOM     40  C   UNL A   1      37.008  33.951  30.026  1.00  0.00     0.135 A 
ATOM     41  C   UNL A   1      35.386  32.760  31.349  1.00  0.00     0.135 A 
ATOM     42  F   UNL A   1      38.279  34.267  29.728  1.00  0.00    -0.206 F 
ATOM     43  C   UNL A   1      35.987  34.572  29.313  1.00  0.00     0.059 A 
ATOM     44  C   UNL A   1      34.350  33.364  30.645  1.00  0.00     0.059 A 
ATOM     45  F   UNL A   1      35.073  31.908  32.338  1.00  0.00    -0.206 F 
ATOM     46  C   UNL A   1      34.662  34.281  29.639  1.00  0.00     0.060 A 
BRANCH  46  47
ATOM     47  S   UNL A   1      33.337  35.109  28.734  1.00  0.00     0.124 S 
ATOM     48  O   UNL A   1      34.086  36.100  27.967  1.00  0.00    -0.237 OA
ATOM     49  O   UNL A   1      32.749  34.022  27.959  1.00  0.00    -0.237 OA
ATOM     50  O   UNL A   1      32.490  35.645  29.796  1.00  0.00    -0.744 OA
ENDBRANCH  46  47
ENDBRANCH  25  39
BRANCH  26  51
ATOM     51  C   UNL A   1      44.236  28.573  35.839  1.00  0.00     0.058 A 
ATOM     52  C   UNL A   1      44.034  27.495  36.712  1.00  0.00     0.135 A 
ATOM     53  C   UNL A   1      45.551  29.014  35.622  1.00  0.00     0.135 A 
ATOM     54  F   UNL A   1      42.792  27.047  36.951  1.00  0.00    -0.206 F 
ATOM     55  C   UNL A   1      45.100  26.873  37.350  1.00  0.00     0.059 A 
ATOM     56  C   UNL A   1      46.634  28.402  36.243  1.00  0.00     0.059 A 
ATOM     57  F   UNL A   1      45.786  30.036  34.785  1.00  0.00    -0.206 F 
ATOM     58  C   UNL A   1      46.396  27.335  37.112  1.00  0.00     0.060 A 
BRANCH  58  59
ATOM     59  S   UNL A   1      47.792  26.490  37.888  1.00  0.00     0.124 S 
ATOM     60  O   UNL A   1      48.559  27.614  38.412  1.00  0.00    -0.237 OA
ATOM     61  O   UNL A   1      47.142  25.643  38.884  1.00  0.00    -0.237 OA
ATOM     62  O   UNL A   1      48.398  25.771  36.771  1.00  0.00    -0.744 OA
ENDBRANCH  58  59
ENDBRANCH  26  51
BRANCH  38  63
ATOM     63  C   UNL A   1      39.986  33.839  37.435  1.00  0.00     0.058 A 
ATOM     64  C   UNL A   1      39.168  33.543  38.536  1.00  0.00     0.135 A 
ATOM     65  C   UNL A   1      40.768  35.002  37.481  1.00  0.00     0.135 A 
ATOM     66  F   UNL A   1      38.397  32.444  38.527  1.00  0.00    -0.206 F 
ATOM     67  C   UNL A   1      39.126  34.373  39.650  1.00  0.00     0.059 A 
ATOM     68  C   UNL A   1      40.746  35.844  38.588  1.00  0.00     0.059 A 
ATOM     69  F   UNL A   1      41.567  35.322  36.450  1.00  0.00    -0.206 F 
ATOM     70  C   UNL A   1      39.916  35.524  39.665  1.00  0.00     0.060 A 
BRANCH  70  71
ATOM     71  S   UNL A   1      39.901  36.586  41.126  1.00  0.00     0.124 S 
ATOM     72  O   UNL A   1      38.905  37.584  40.752  1.00  0.00    -0.237 OA
ATOM     73  O   UNL A   1      39.506  35.668  42.191  1.00  0.00    -0.237 OA
ATOM     74  O   UNL A   1      41.278  37.064  41.202  1.00  0.00    -0.744 OA
ENDBRANCH  70  71
ENDBRANCH  38  63
ENDBRANCH  12  13
ENDBRANCH   5   7
ENDBRANCH   4   5
ENDBRANCH   3   4
ENDBRANCH   2   3
ENDBRANCH   1   2
BRANCH   1  75
ATOM     75  C   UNL A   1      43.418  20.471  25.601  1.00  0.00     0.202 C 
BRANCH  75  76
ATOM     76  C   UNL A   1      42.291  20.225  26.616  1.00  0.00     0.261 C 
BRANCH  76  77
ATOM     77  O   UNL A   1      41.108  20.901  26.152  1.00  0.00    -0.457 OA
BRANCH  77  78
ATOM     78  C   UNL A   1      40.664  21.866  27.014  1.00  0.00     0.374 C 
ATOM     79  O   UNL A   1      41.281  22.271  27.991  1.00  0.00    -0.242 OA
BRANCH  78  80
ATOM     80  C   UNL A   1      39.451  22.431  26.478  1.00  0.00     0.211 A 
ATOM     81  C   UNL A   1      38.923  23.710  26.489  1.00  0.00     0.058 A 
ATOM     82  O   UNL A   1      38.528  21.569  25.953  1.00  0.00    -0.452 OA
ATOM     83  C   UNL A   1      37.608  23.614  25.970  1.00  0.00     0.048 A 
ATOM     84  C   UNL A   1      37.397  22.280  25.696  1.00  0.00     0.124 A 
BRANCH  84  85
ATOM     85  C   UNL A   1      36.214  21.491  25.283  1.00  0.00     0.191 C 
BRANCH  85  86
ATOM     86  N   UNL A   1      35.328  21.282  26.405  1.00  0.00    -0.345 N 
ATOM     87  C   UNL A   1      34.149  21.933  26.656  1.00  0.00     0.252 C 
ATOM     88  H   UNL A   1      35.601  20.598  27.060  1.00  0.00     0.164 HD
ATOM     89  O   UNL A   1      33.453  21.661  27.627  1.00  0.00    -0.269 OA
BRANCH  87  90
ATOM     90  C   UNL A   1      33.698  22.964  25.703  1.00  0.00     0.054 A 
ATOM     91  C   UNL A   1      33.989  24.304  26.000  1.00  0.00     0.018 A 
ATOM     92  C   UNL A   1      33.016  22.629  24.526  1.00  0.00     0.033 A 
ATOM     93  C   UNL A   1      33.579  25.309  25.124  1.00  0.00     0.040 A 
ATOM     94  C   UNL A   1      32.616  23.640  23.649  1.00  0.00     0.055 A 
ATOM     95  Br  UNL A   1      32.559  20.842  24.085  1.00  0.00    -0.050 Br
ATOM     96  C   UNL A   1      32.900  24.967  23.958  1.00  0.00     0.124 A 
ATOM     97  F   UNL A   1      32.509  25.936  23.121  1.00  0.00    -0.207 F 
ENDBRANCH  87  90
ENDBRANCH  85  86
ENDBRANCH  84  85
ENDBRANCH  78  80
ENDBRANCH  77  78
ENDBRANCH  76  77
ENDBRANCH  75  76
ENDBRANCH   1  75
TORSDOF 20
ENDMDL
