MODEL 1
REMARK VINA RESULT:     -10.1      0.000      0.000
REMARK SMILES O=C(Cc1ccccc1[N+](=O)[O-])N[C@@H]1C=C[C@H](C(=O)OCCOCCOC(=O)c2ccc(-c3c4nc(c(-c5c(F)cc(S(=O)(=O)[O-])cc5F)c5ccc([nH]5)c(-c5c(F)cc(S(=O)(=O)[O-])cc5F)c5nc(c(-c6c(F)cc(S(=O)(=O)[O-])cc6F)c6ccc3[nH]6)C=C5)C=C4)cc2)C1
REMARK SMILES IDX 22 1 21 2 20 3 18 4 19 5 17 6 14 7 15 8 95 9 16 10 13 11
REMARK SMILES IDX 1 12 2 13 3 15 4 16 5 17 9 18 6 19 8 20 7 21 10 22 11 23
REMARK SMILES IDX 12 24 23 25 24 26 25 27 26 28 27 29 28 30 29 31 30 32 94 33
REMARK SMILES IDX 31 34 93 35 32 36 33 37 34 38 87 39 35 40 92 41 86 42 88 43
REMARK SMILES IDX 36 44 91 45 85 46 84 47 37 49 71 50 50 51 70 52 51 53 54 54
REMARK SMILES IDX 69 55 89 56 52 57 53 58 68 60 90 61 55 62 38 63 39 64 48 65
REMARK SMILES IDX 40 66 41 67 47 68 49 69 42 70 43 71 44 72 45 73 46 74 72 75
REMARK SMILES IDX 73 76 82 77 74 78 75 79 81 80 83 81 76 82 77 83 78 84 79 85
REMARK SMILES IDX 80 86 56 87 57 88 66 89 58 90 59 91 65 92 67 93 60 94 61 95
REMARK SMILES IDX 62 96 63 97 64 98
REMARK H PARENT 13 14 88 48 54 59
REMARK Flexibility Score: inf
ROOT
ATOM      1  C   UNL A   1      32.795  28.644  27.606  1.00  0.00     0.202 C 
ENDROOT
BRANCH   1   2
ATOM      2  C   UNL A   1      32.158  27.966  26.389  1.00  0.00     0.261 C 
BRANCH   2   3
ATOM      3  O   UNL A   1      32.262  28.818  25.237  1.00  0.00    -0.463 OA
BRANCH   3   4
ATOM      4  C   UNL A   1      33.303  28.581  24.394  1.00  0.00     0.312 C 
ATOM      5  O   UNL A   1      34.455  28.351  24.741  1.00  0.00    -0.252 OA
BRANCH   4   6
ATOM      6  C   UNL A   1      32.834  28.500  22.938  1.00  0.00     0.124 C 
ATOM      7  C   UNL A   1      31.751  26.359  22.515  1.00  0.00     0.106 C 
ATOM      8  C   UNL A   1      33.075  26.447  21.824  1.00  0.00    -0.006 C 
ATOM      9  C   UNL A   1      31.457  27.829  22.827  1.00  0.00     0.048 C 
ATOM     10  C   UNL A   1      33.676  27.620  22.055  1.00  0.00    -0.014 C 
BRANCH   7  11
ATOM     11  N   UNL A   1      31.955  25.601  23.722  1.00  0.00    -0.350 N 
ATOM     12  O   UNL A   1      30.225  24.125  23.439  1.00  0.00    -0.275 OA
ATOM     13  C   UNL A   1      31.192  24.522  24.082  1.00  0.00     0.225 C 
ATOM     14  H   UNL A   1      32.685  25.874  24.323  1.00  0.00     0.164 HD
BRANCH  13  15
ATOM     15  C   UNL A   1      31.662  23.840  25.357  1.00  0.00     0.142 C 
BRANCH  15  16
ATOM     16  C   UNL A   1      33.054  23.249  25.226  1.00  0.00     0.039 A 
ATOM     17  C   UNL A   1      34.104  24.036  25.745  1.00  0.00     0.011 A 
ATOM     18  C   UNL A   1      33.392  21.987  24.674  1.00  0.00     0.273 A 
ATOM     19  C   UNL A   1      35.433  23.611  25.695  1.00  0.00     0.001 A 
ATOM     20  C   UNL A   1      34.739  21.570  24.626  1.00  0.00     0.086 A 
ATOM     21  C   UNL A   1      35.751  22.382  25.131  1.00  0.00     0.007 A 
BRANCH  18  22
ATOM     22  N   UNL A   1      32.397  21.036  24.140  1.00  0.00     0.063 N 
ATOM     23  O   UNL A   1      32.048  20.088  24.858  1.00  0.00    -0.258 OA
ATOM     24  O   UNL A   1      31.927  21.241  23.013  1.00  0.00    -0.258 OA
ENDBRANCH  18  22
ENDBRANCH  15  16
ENDBRANCH  13  15
ENDBRANCH   7  11
ENDBRANCH   4   6
ENDBRANCH   3   4
ENDBRANCH   2   3
ENDBRANCH   1   2
BRANCH   1  25
ATOM     25  O   UNL A   1      32.948  30.063  27.512  1.00  0.00    -0.374 OA
BRANCH  25  26
ATOM     26  C   UNL A   1      34.280  30.577  27.516  1.00  0.00     0.202 C 
BRANCH  26  27
ATOM     27  C   UNL A   1      35.291  29.857  28.412  1.00  0.00     0.261 C 
BRANCH  27  28
ATOM     28  O   UNL A   1      35.892  30.738  29.375  1.00  0.00    -0.460 OA
BRANCH  28  29
ATOM     29  C   UNL A   1      36.611  30.109  30.333  1.00  0.00     0.338 C 
ATOM     30  O   UNL A   1      36.168  29.531  31.320  1.00  0.00    -0.246 OA
BRANCH  29  31
ATOM     31  C   UNL A   1      38.038  30.060  29.973  1.00  0.00     0.060 A 
ATOM     32  C   UNL A   1      38.354  30.140  28.612  1.00  0.00     0.016 A 
ATOM     33  C   UNL A   1      39.042  29.841  30.922  1.00  0.00     0.016 A 
ATOM     34  C   UNL A   1      39.662  29.933  28.186  1.00  0.00     0.010 A 
ATOM     35  C   UNL A   1      40.358  29.630  30.491  1.00  0.00     0.010 A 
ATOM     36  C   UNL A   1      40.664  29.630  29.118  1.00  0.00    -0.014 A 
BRANCH  36  37
ATOM     37  C   UNL A   1      41.983  29.169  28.619  1.00  0.00     0.031 A 
ATOM     38  C   UNL A   1      43.134  30.139  28.583  1.00  0.00     0.074 A 
ATOM     39  C   UNL A   1      42.173  27.881  28.281  1.00  0.00     0.049 A 
ATOM     40  N   UNL A   1      44.385  29.930  28.261  1.00  0.00    -0.248 NA
ATOM     41  C   UNL A   1      42.836  31.529  28.963  1.00  0.00     0.031 C 
ATOM     42  C   UNL A   1      41.142  26.843  28.295  1.00  0.00     0.029 A 
ATOM     43  N   UNL A   1      43.306  27.225  27.868  1.00  0.00    -0.354 N 
ATOM     44  C   UNL A   1      45.024  31.156  28.404  1.00  0.00     0.074 A 
ATOM     45  C   UNL A   1      44.014  32.113  28.804  1.00  0.00     0.031 C 
ATOM     46  C   UNL A   1      41.692  25.678  27.912  1.00  0.00     0.029 A 
ATOM     47  C   UNL A   1      43.107  25.890  27.611  1.00  0.00     0.049 A 
ATOM     48  H   UNL A   1      44.177  27.669  27.765  1.00  0.00     0.167 HD
ATOM     49  C   UNL A   1      46.334  31.456  28.233  1.00  0.00     0.037 A 
ATOM     50  C   UNL A   1      43.969  24.947  27.183  1.00  0.00     0.037 A 
ATOM     51  C   UNL A   1      47.336  30.501  27.838  1.00  0.00     0.049 A 
ATOM     52  C   UNL A   1      45.414  25.310  26.967  1.00  0.00     0.074 A 
ATOM     53  C   UNL A   1      48.693  30.703  27.652  1.00  0.00     0.029 A 
ATOM     54  N   UNL A   1      47.091  29.163  27.563  1.00  0.00    -0.354 N 
ATOM     55  N   UNL A   1      46.008  26.468  27.135  1.00  0.00    -0.248 NA
ATOM     56  C   UNL A   1      46.309  24.235  26.519  1.00  0.00     0.031 C 
ATOM     57  C   UNL A   1      49.261  29.496  27.227  1.00  0.00     0.029 A 
ATOM     58  C   UNL A   1      48.267  28.532  27.193  1.00  0.00     0.049 A 
ATOM     59  H   UNL A   1      46.211  28.727  27.624  1.00  0.00     0.167 HD
ATOM     60  C   UNL A   1      47.350  26.255  26.836  1.00  0.00     0.074 A 
ATOM     61  C   UNL A   1      47.482  24.853  26.491  1.00  0.00     0.031 C 
ATOM     62  C   UNL A   1      48.381  27.136  26.850  1.00  0.00     0.037 A 
BRANCH  49  63
ATOM     63  C   UNL A   1      46.754  32.882  28.457  1.00  0.00     0.058 A 
ATOM     64  C   UNL A   1      46.825  33.804  27.399  1.00  0.00     0.135 A 
ATOM     65  C   UNL A   1      47.064  33.341  29.746  1.00  0.00     0.135 A 
ATOM     66  F   UNL A   1      46.557  33.414  26.143  1.00  0.00    -0.206 F 
ATOM     67  C   UNL A   1      47.214  35.123  27.610  1.00  0.00     0.059 A 
ATOM     68  C   UNL A   1      47.431  34.663  29.984  1.00  0.00     0.059 A 
ATOM     69  F   UNL A   1      47.013  32.501  30.792  1.00  0.00    -0.206 F 
ATOM     70  C   UNL A   1      47.518  35.543  28.906  1.00  0.00     0.060 A 
BRANCH  70  71
ATOM     71  S   UNL A   1      48.022  37.257  29.165  1.00  0.00     0.124 S 
ATOM     72  O   UNL A   1      47.147  37.654  30.264  1.00  0.00    -0.237 OA
ATOM     73  O   UNL A   1      49.436  37.122  29.499  1.00  0.00    -0.237 OA
ATOM     74  O   UNL A   1      47.743  37.891  27.880  1.00  0.00    -0.744 OA
ENDBRANCH  70  71
ENDBRANCH  49  63
BRANCH  50  75
ATOM     75  C   UNL A   1      43.486  23.563  26.935  1.00  0.00     0.058 A 
ATOM     76  C   UNL A   1      43.358  22.638  27.981  1.00  0.00     0.135 A 
ATOM     77  C   UNL A   1      43.135  23.144  25.643  1.00  0.00     0.135 A 
ATOM     78  F   UNL A   1      43.692  22.989  29.232  1.00  0.00    -0.206 F 
ATOM     79  C   UNL A   1      42.908  21.341  27.754  1.00  0.00     0.059 A 
ATOM     80  C   UNL A   1      42.662  21.860  25.395  1.00  0.00     0.059 A 
ATOM     81  F   UNL A   1      43.229  23.996  24.610  1.00  0.00    -0.206 F 
ATOM     82  C   UNL A   1      42.559  20.962  26.456  1.00  0.00     0.060 A 
BRANCH  82  83
ATOM     83  S   UNL A   1      41.911  19.300  26.175  1.00  0.00     0.124 S 
ATOM     84  O   UNL A   1      40.523  19.581  25.831  1.00  0.00    -0.237 OA
ATOM     85  O   UNL A   1      42.756  18.819  25.086  1.00  0.00    -0.237 OA
ATOM     86  O   UNL A   1      42.124  18.638  27.459  1.00  0.00    -0.744 OA
ENDBRANCH  82  83
ENDBRANCH  50  75
BRANCH  62  87
ATOM     87  C   UNL A   1      49.746  26.603  26.509  1.00  0.00     0.058 A 
ATOM     88  C   UNL A   1      50.556  25.978  27.469  1.00  0.00     0.135 A 
ATOM     89  C   UNL A   1      50.239  26.698  25.196  1.00  0.00     0.135 A 
ATOM     90  F   UNL A   1      50.134  25.864  28.737  1.00  0.00    -0.206 F 
ATOM     91  C   UNL A   1      51.823  25.500  27.150  1.00  0.00     0.059 A 
ATOM     92  C   UNL A   1      51.491  26.204  24.849  1.00  0.00     0.059 A 
ATOM     93  F   UNL A   1      49.497  27.275  24.236  1.00  0.00    -0.206 F 
ATOM     94  C   UNL A   1      52.284  25.622  25.837  1.00  0.00     0.060 A 
BRANCH  94  95
ATOM     95  S   UNL A   1      53.929  24.996  25.432  1.00  0.00     0.124 S 
ATOM     96  O   UNL A   1      54.719  25.506  26.549  1.00  0.00    -0.237 OA
ATOM     97  O   UNL A   1      53.721  23.552  25.412  1.00  0.00    -0.237 OA
ATOM     98  O   UNL A   1      54.211  25.601  24.134  1.00  0.00    -0.744 OA
ENDBRANCH  94  95
ENDBRANCH  62  87
ENDBRANCH  36  37
ENDBRANCH  29  31
ENDBRANCH  28  29
ENDBRANCH  27  28
ENDBRANCH  26  27
ENDBRANCH  25  26
ENDBRANCH   1  25
TORSDOF 21
ENDMDL
MODEL 2
REMARK VINA RESULT:     -10.1      1.417      2.773
REMARK SMILES O=C(Cc1ccccc1[N+](=O)[O-])N[C@@H]1C=C[C@H](C(=O)OCCOCCOC(=O)c2ccc(-c3c4nc(c(-c5c(F)cc(S(=O)(=O)[O-])cc5F)c5ccc([nH]5)c(-c5c(F)cc(S(=O)(=O)[O-])cc5F)c5nc(c(-c6c(F)cc(S(=O)(=O)[O-])cc6F)c6ccc3[nH]6)C=C5)C=C4)cc2)C1
REMARK SMILES IDX 22 1 21 2 20 3 18 4 19 5 17 6 14 7 15 8 95 9 16 10 13 11
REMARK SMILES IDX 1 12 2 13 3 15 4 16 5 17 9 18 6 19 8 20 7 21 10 22 11 23
REMARK SMILES IDX 12 24 23 25 24 26 25 27 26 28 27 29 28 30 29 31 30 32 94 33
REMARK SMILES IDX 31 34 93 35 32 36 33 37 34 38 87 39 35 40 92 41 86 42 88 43
REMARK SMILES IDX 36 44 91 45 85 46 84 47 37 49 71 50 50 51 70 52 51 53 54 54
REMARK SMILES IDX 69 55 89 56 52 57 53 58 68 60 90 61 55 62 38 63 39 64 48 65
REMARK SMILES IDX 40 66 41 67 47 68 49 69 42 70 43 71 44 72 45 73 46 74 72 75
REMARK SMILES IDX 73 76 82 77 74 78 75 79 81 80 83 81 76 82 77 83 78 84 79 85
REMARK SMILES IDX 80 86 56 87 57 88 66 89 58 90 59 91 65 92 67 93 60 94 61 95
REMARK SMILES IDX 62 96 63 97 64 98
REMARK H PARENT 13 14 88 48 54 59
REMARK Flexibility Score: inf
ROOT
ATOM      1  C   UNL A   1      32.250  27.532  26.508  1.00  0.00     0.202 C 
ENDROOT
BRANCH   1   2
ATOM      2  C   UNL A   1      31.624  26.971  25.227  1.00  0.00     0.261 C 
BRANCH   2   3
ATOM      3  O   UNL A   1      31.498  25.543  25.322  1.00  0.00    -0.463 OA
BRANCH   3   4
ATOM      4  C   UNL A   1      32.641  24.843  25.554  1.00  0.00     0.312 C 
ATOM      5  O   UNL A   1      32.726  23.836  26.246  1.00  0.00    -0.252 OA
BRANCH   4   6
ATOM      6  C   UNL A   1      33.808  25.391  24.726  1.00  0.00     0.124 C 
ATOM      7  C   UNL A   1      35.162  23.561  23.856  1.00  0.00     0.106 C 
ATOM      8  C   UNL A   1      35.888  24.319  24.923  1.00  0.00    -0.006 C 
ATOM      9  C   UNL A   1      34.052  24.543  23.469  1.00  0.00     0.048 C 
ATOM     10  C   UNL A   1      35.147  25.323  25.406  1.00  0.00    -0.014 C 
BRANCH   7  11
ATOM     11  N   UNL A   1      34.620  22.379  24.473  1.00  0.00    -0.350 N 
ATOM     12  O   UNL A   1      36.573  21.187  24.594  1.00  0.00    -0.275 OA
ATOM     13  C   UNL A   1      35.371  21.288  24.822  1.00  0.00     0.225 C 
ATOM     14  H   UNL A   1      33.652  22.354  24.655  1.00  0.00     0.164 HD
BRANCH  13  15
ATOM     15  C   UNL A   1      34.579  20.205  25.537  1.00  0.00     0.142 C 
BRANCH  15  16
ATOM     16  C   UNL A   1      34.034  19.154  24.588  1.00  0.00     0.039 A 
ATOM     17  C   UNL A   1      34.702  17.912  24.600  1.00  0.00     0.011 A 
ATOM     18  C   UNL A   1      32.912  19.286  23.729  1.00  0.00     0.273 A 
ATOM     19  C   UNL A   1      34.302  16.855  23.780  1.00  0.00     0.001 A 
ATOM     20  C   UNL A   1      32.520  18.212  22.903  1.00  0.00     0.086 A 
ATOM     21  C   UNL A   1      33.216  17.007  22.928  1.00  0.00     0.007 A 
BRANCH  18  22
ATOM     22  N   UNL A   1      32.087  20.508  23.646  1.00  0.00     0.063 N 
ATOM     23  O   UNL A   1      31.666  21.003  24.701  1.00  0.00    -0.258 OA
ATOM     24  O   UNL A   1      31.875  21.005  22.532  1.00  0.00    -0.258 OA
ENDBRANCH  18  22
ENDBRANCH  15  16
ENDBRANCH  13  15
ENDBRANCH   7  11
ENDBRANCH   4   6
ENDBRANCH   3   4
ENDBRANCH   2   3
ENDBRANCH   1   2
BRANCH   1  25
ATOM     25  O   UNL A   1      33.394  28.370  26.319  1.00  0.00    -0.374 OA
BRANCH  25  26
ATOM     26  C   UNL A   1      33.807  29.168  27.428  1.00  0.00     0.202 C 
BRANCH  26  27
ATOM     27  C   UNL A   1      35.316  29.285  27.666  1.00  0.00     0.261 C 
BRANCH  27  28
ATOM     28  O   UNL A   1      35.638  30.285  28.646  1.00  0.00    -0.460 OA
BRANCH  28  29
ATOM     29  C   UNL A   1      36.355  29.824  29.696  1.00  0.00     0.338 C 
ATOM     30  O   UNL A   1      35.909  29.360  30.741  1.00  0.00    -0.246 OA
BRANCH  29  31
ATOM     31  C   UNL A   1      37.793  29.797  29.381  1.00  0.00     0.060 A 
ATOM     32  C   UNL A   1      38.147  29.806  28.026  1.00  0.00     0.016 A 
ATOM     33  C   UNL A   1      38.773  29.667  30.368  1.00  0.00     0.016 A 
ATOM     34  C   UNL A   1      39.472  29.614  27.651  1.00  0.00     0.010 A 
ATOM     35  C   UNL A   1      40.108  29.471  29.989  1.00  0.00     0.010 A 
ATOM     36  C   UNL A   1      40.454  29.398  28.627  1.00  0.00    -0.014 A 
BRANCH  36  37
ATOM     37  C   UNL A   1      41.801  28.949  28.195  1.00  0.00     0.031 A 
ATOM     38  C   UNL A   1      42.930  29.944  28.157  1.00  0.00     0.074 A 
ATOM     39  C   UNL A   1      42.033  27.653  27.919  1.00  0.00     0.049 A 
ATOM     40  N   UNL A   1      44.196  29.753  27.888  1.00  0.00    -0.248 NA
ATOM     41  C   UNL A   1      42.586  31.342  28.466  1.00  0.00     0.031 C 
ATOM     42  C   UNL A   1      41.026  26.592  27.943  1.00  0.00     0.029 A 
ATOM     43  N   UNL A   1      43.194  27.008  27.574  1.00  0.00    -0.354 N 
ATOM     44  C   UNL A   1      44.801  31.000  28.000  1.00  0.00     0.074 A 
ATOM     45  C   UNL A   1      43.756  31.947  28.323  1.00  0.00     0.031 C 
ATOM     46  C   UNL A   1      41.615  25.425  27.629  1.00  0.00     0.029 A 
ATOM     47  C   UNL A   1      43.035  25.659  27.369  1.00  0.00     0.049 A 
ATOM     48  H   UNL A   1      44.058  27.469  27.483  1.00  0.00     0.167 HD
ATOM     49  C   UNL A   1      46.109  31.324  27.862  1.00  0.00     0.037 A 
ATOM     50  C   UNL A   1      43.933  24.720  27.011  1.00  0.00     0.037 A 
ATOM     51  C   UNL A   1      47.146  30.378  27.543  1.00  0.00     0.049 A 
ATOM     52  C   UNL A   1      45.377  25.109  26.830  1.00  0.00     0.074 A 
ATOM     53  C   UNL A   1      48.504  30.605  27.396  1.00  0.00     0.029 A 
ATOM     54  N   UNL A   1      46.942  29.024  27.318  1.00  0.00    -0.354 N 
ATOM     55  N   UNL A   1      45.937  26.287  26.969  1.00  0.00    -0.248 NA
ATOM     56  C   UNL A   1      46.312  24.039  26.460  1.00  0.00     0.031 C 
ATOM     57  C   UNL A   1      49.114  29.395  27.043  1.00  0.00     0.029 A 
ATOM     58  C   UNL A   1      48.145  28.407  27.016  1.00  0.00     0.049 A 
ATOM     59  H   UNL A   1      46.071  28.569  27.366  1.00  0.00     0.167 HD
ATOM     60  C   UNL A   1      47.294  26.095  26.726  1.00  0.00     0.074 A 
ATOM     61  C   UNL A   1      47.470  24.683  26.446  1.00  0.00     0.031 C 
ATOM     62  C   UNL A   1      48.303  27.001  26.738  1.00  0.00     0.037 A 
BRANCH  49  63
ATOM     63  C   UNL A   1      46.487  32.768  28.038  1.00  0.00     0.058 A 
ATOM     64  C   UNL A   1      46.956  33.262  29.267  1.00  0.00     0.135 A 
ATOM     65  C   UNL A   1      46.405  33.664  26.961  1.00  0.00     0.135 A 
ATOM     66  F   UNL A   1      47.037  32.453  30.335  1.00  0.00    -0.206 F 
ATOM     67  C   UNL A   1      47.306  34.599  29.426  1.00  0.00     0.059 A 
ATOM     68  C   UNL A   1      46.773  35.001  27.092  1.00  0.00     0.059 A 
ATOM     69  F   UNL A   1      45.962  33.244  25.766  1.00  0.00    -0.206 F 
ATOM     70  C   UNL A   1      47.208  35.462  28.333  1.00  0.00     0.060 A 
BRANCH  70  71
ATOM     71  S   UNL A   1      47.664  37.195  28.554  1.00  0.00     0.124 S 
ATOM     72  O   UNL A   1      49.019  37.074  29.084  1.00  0.00    -0.237 OA
ATOM     73  O   UNL A   1      47.559  37.722  27.198  1.00  0.00    -0.237 OA
ATOM     74  O   UNL A   1      46.664  37.692  29.495  1.00  0.00    -0.744 OA
ENDBRANCH  70  71
ENDBRANCH  49  63
BRANCH  50  75
ATOM     75  C   UNL A   1      43.492  23.316  26.807  1.00  0.00     0.058 A 
ATOM     76  C   UNL A   1      43.306  22.790  25.520  1.00  0.00     0.135 A 
ATOM     77  C   UNL A   1      43.254  22.469  27.900  1.00  0.00     0.135 A 
ATOM     78  F   UNL A   1      43.511  23.565  24.443  1.00  0.00    -0.206 F 
ATOM     79  C   UNL A   1      42.892  21.477  25.323  1.00  0.00     0.059 A 
ATOM     80  C   UNL A   1      42.860  21.147  27.728  1.00  0.00     0.059 A 
ATOM     81  F   UNL A   1      43.428  22.921  29.152  1.00  0.00    -0.206 F 
ATOM     82  C   UNL A   1      42.674  20.661  26.434  1.00  0.00     0.060 A 
BRANCH  82  83
ATOM     83  S   UNL A   1      42.201  18.938  26.175  1.00  0.00     0.124 S 
ATOM     84  O   UNL A   1      42.464  18.361  27.489  1.00  0.00    -0.237 OA
ATOM     85  O   UNL A   1      40.796  19.056  25.797  1.00  0.00    -0.237 OA
ATOM     86  O   UNL A   1      43.094  18.506  25.104  1.00  0.00    -0.744 OA
ENDBRANCH  82  83
ENDBRANCH  50  75
BRANCH  62  87
ATOM     87  C   UNL A   1      49.691  26.488  26.467  1.00  0.00     0.058 A 
ATOM     88  C   UNL A   1      50.195  26.372  25.162  1.00  0.00     0.135 A 
ATOM     89  C   UNL A   1      50.537  26.130  27.531  1.00  0.00     0.135 A 
ATOM     90  F   UNL A   1      49.427  26.699  24.111  1.00  0.00    -0.206 F 
ATOM     91  C   UNL A   1      51.475  25.884  24.918  1.00  0.00     0.059 A 
ATOM     92  C   UNL A   1      51.829  25.664  27.311  1.00  0.00     0.059 A 
ATOM     93  F   UNL A   1      50.109  26.235  28.799  1.00  0.00    -0.206 F 
ATOM     94  C   UNL A   1      52.283  25.528  25.999  1.00  0.00     0.060 A 
BRANCH  94  95
ATOM     95  S   UNL A   1      53.943  24.897  25.673  1.00  0.00     0.124 S 
ATOM     96  O   UNL A   1      53.660  23.519  25.282  1.00  0.00    -0.237 OA
ATOM     97  O   UNL A   1      54.410  25.775  24.605  1.00  0.00    -0.237 OA
ATOM     98  O   UNL A   1      54.625  25.060  26.953  1.00  0.00    -0.744 OA
ENDBRANCH  94  95
ENDBRANCH  62  87
ENDBRANCH  36  37
ENDBRANCH  29  31
ENDBRANCH  28  29
ENDBRANCH  27  28
ENDBRANCH  26  27
ENDBRANCH  25  26
ENDBRANCH   1  25
TORSDOF 21
ENDMDL
MODEL 3
REMARK VINA RESULT:      -9.3      1.054      2.025
REMARK SMILES O=C(Cc1ccccc1[N+](=O)[O-])N[C@@H]1C=C[C@H](C(=O)OCCOCCOC(=O)c2ccc(-c3c4nc(c(-c5c(F)cc(S(=O)(=O)[O-])cc5F)c5ccc([nH]5)c(-c5c(F)cc(S(=O)(=O)[O-])cc5F)c5nc(c(-c6c(F)cc(S(=O)(=O)[O-])cc6F)c6ccc3[nH]6)C=C5)C=C4)cc2)C1
REMARK SMILES IDX 22 1 21 2 20 3 18 4 19 5 17 6 14 7 15 8 95 9 16 10 13 11
REMARK SMILES IDX 1 12 2 13 3 15 4 16 5 17 9 18 6 19 8 20 7 21 10 22 11 23
REMARK SMILES IDX 12 24 23 25 24 26 25 27 26 28 27 29 28 30 29 31 30 32 94 33
REMARK SMILES IDX 31 34 93 35 32 36 33 37 34 38 87 39 35 40 92 41 86 42 88 43
REMARK SMILES IDX 36 44 91 45 85 46 84 47 37 49 71 50 50 51 70 52 51 53 54 54
REMARK SMILES IDX 69 55 89 56 52 57 53 58 68 60 90 61 55 62 38 63 39 64 48 65
REMARK SMILES IDX 40 66 41 67 47 68 49 69 42 70 43 71 44 72 45 73 46 74 72 75
REMARK SMILES IDX 73 76 82 77 74 78 75 79 81 80 83 81 76 82 77 83 78 84 79 85
REMARK SMILES IDX 80 86 56 87 57 88 66 89 58 90 59 91 65 92 67 93 60 94 61 95
REMARK SMILES IDX 62 96 63 97 64 98
REMARK H PARENT 13 14 88 48 54 59
REMARK Flexibility Score: inf
ROOT
ATOM      1  C   UNL A   1      33.287  31.402  26.875  1.00  0.00     0.202 C 
ENDROOT
BRANCH   1   2
ATOM      2  C   UNL A   1      32.159  30.372  26.988  1.00  0.00     0.261 C 
BRANCH   2   3
ATOM      3  O   UNL A   1      32.701  29.076  27.292  1.00  0.00    -0.463 OA
BRANCH   3   4
ATOM      4  C   UNL A   1      32.807  28.201  26.256  1.00  0.00     0.312 C 
ATOM      5  O   UNL A   1      33.261  27.065  26.334  1.00  0.00    -0.252 OA
BRANCH   4   6
ATOM      6  C   UNL A   1      32.159  28.759  24.985  1.00  0.00     0.124 C 
ATOM      7  C   UNL A   1      31.230  26.949  23.644  1.00  0.00     0.106 C 
ATOM      8  C   UNL A   1      32.436  27.547  22.993  1.00  0.00    -0.006 C 
ATOM      9  C   UNL A   1      30.847  28.031  24.658  1.00  0.00     0.048 C 
ATOM     10  C   UNL A   1      32.953  28.540  23.727  1.00  0.00    -0.014 C 
BRANCH   7  11
ATOM     11  N   UNL A   1      31.660  25.745  24.306  1.00  0.00    -0.350 N 
ATOM     12  O   UNL A   1      30.244  24.297  23.233  1.00  0.00    -0.275 OA
ATOM     13  C   UNL A   1      31.154  24.502  24.032  1.00  0.00     0.225 C 
ATOM     14  H   UNL A   1      32.359  25.820  24.995  1.00  0.00     0.164 HD
BRANCH  13  15
ATOM     15  C   UNL A   1      31.834  23.382  24.802  1.00  0.00     0.142 C 
BRANCH  15  16
ATOM     16  C   UNL A   1      33.334  23.344  24.578  1.00  0.00     0.039 A 
ATOM     17  C   UNL A   1      34.129  23.397  25.743  1.00  0.00     0.011 A 
ATOM     18  C   UNL A   1      34.004  23.225  23.333  1.00  0.00     0.273 A 
ATOM     19  C   UNL A   1      35.524  23.366  25.682  1.00  0.00     0.001 A 
ATOM     20  C   UNL A   1      35.413  23.197  23.284  1.00  0.00     0.086 A 
ATOM     21  C   UNL A   1      36.165  23.272  24.454  1.00  0.00     0.007 A 
BRANCH  18  22
ATOM     22  N   UNL A   1      33.305  23.108  22.038  1.00  0.00     0.063 N 
ATOM     23  O   UNL A   1      33.383  24.055  21.242  1.00  0.00    -0.258 OA
ATOM     24  O   UNL A   1      32.696  22.059  21.785  1.00  0.00    -0.258 OA
ENDBRANCH  18  22
ENDBRANCH  15  16
ENDBRANCH  13  15
ENDBRANCH   7  11
ENDBRANCH   4   6
ENDBRANCH   3   4
ENDBRANCH   2   3
ENDBRANCH   1   2
BRANCH   1  25
ATOM     25  O   UNL A   1      34.583  30.944  27.273  1.00  0.00    -0.374 OA
BRANCH  25  26
ATOM     26  C   UNL A   1      35.358  31.816  28.094  1.00  0.00     0.202 C 
BRANCH  26  27
ATOM     27  C   UNL A   1      35.034  31.820  29.591  1.00  0.00     0.261 C 
BRANCH  27  28
ATOM     28  O   UNL A   1      36.183  31.518  30.399  1.00  0.00    -0.460 OA
BRANCH  28  29
ATOM     29  C   UNL A   1      37.279  32.254  30.105  1.00  0.00     0.338 C 
ATOM     30  O   UNL A   1      37.379  33.476  30.161  1.00  0.00    -0.246 OA
BRANCH  29  31
ATOM     31  C   UNL A   1      38.440  31.387  29.841  1.00  0.00     0.060 A 
ATOM     32  C   UNL A   1      39.640  31.720  30.481  1.00  0.00     0.016 A 
ATOM     33  C   UNL A   1      38.395  30.337  28.920  1.00  0.00     0.016 A 
ATOM     34  C   UNL A   1      40.813  31.050  30.152  1.00  0.00     0.010 A 
ATOM     35  C   UNL A   1      39.579  29.665  28.588  1.00  0.00     0.010 A 
ATOM     36  C   UNL A   1      40.800  30.050  29.170  1.00  0.00    -0.014 A 
BRANCH  36  37
ATOM     37  C   UNL A   1      42.096  29.534  28.663  1.00  0.00     0.031 A 
ATOM     38  C   UNL A   1      43.277  30.465  28.583  1.00  0.00     0.074 A 
ATOM     39  C   UNL A   1      42.239  28.232  28.356  1.00  0.00     0.049 A 
ATOM     40  N   UNL A   1      44.514  30.208  28.247  1.00  0.00    -0.248 NA
ATOM     41  C   UNL A   1      43.029  31.874  28.931  1.00  0.00     0.031 C 
ATOM     42  C   UNL A   1      41.176  27.229  28.415  1.00  0.00     0.029 A 
ATOM     43  N   UNL A   1      43.343  27.529  27.943  1.00  0.00    -0.354 N 
ATOM     44  C   UNL A   1      45.194  31.416  28.347  1.00  0.00     0.074 A 
ATOM     45  C   UNL A   1      44.223  32.415  28.737  1.00  0.00     0.031 C 
ATOM     46  C   UNL A   1      41.682  26.037  28.054  1.00  0.00     0.029 A 
ATOM     47  C   UNL A   1      43.098  26.195  27.725  1.00  0.00     0.049 A 
ATOM     48  H   UNL A   1      44.227  27.943  27.815  1.00  0.00     0.167 HD
ATOM     49  C   UNL A   1      46.510  31.669  28.148  1.00  0.00     0.037 A 
ATOM     50  C   UNL A   1      43.922  25.214  27.309  1.00  0.00     0.037 A 
ATOM     51  C   UNL A   1      47.475  30.672  27.762  1.00  0.00     0.049 A 
ATOM     52  C   UNL A   1      45.375  25.525  27.061  1.00  0.00     0.074 A 
ATOM     53  C   UNL A   1      48.835  30.825  27.550  1.00  0.00     0.029 A 
ATOM     54  N   UNL A   1      47.183  29.336  27.527  1.00  0.00    -0.354 N 
ATOM     55  N   UNL A   1      46.008  26.667  27.188  1.00  0.00    -0.248 NA
ATOM     56  C   UNL A   1      46.228  24.410  26.627  1.00  0.00     0.031 C 
ATOM     57  C   UNL A   1      49.357  29.590  27.148  1.00  0.00     0.029 A 
ATOM     58  C   UNL A   1      48.332  28.658  27.155  1.00  0.00     0.049 A 
ATOM     59  H   UNL A   1      46.291  28.930  27.613  1.00  0.00     0.167 HD
ATOM     60  C   UNL A   1      47.338  26.403  26.874  1.00  0.00     0.074 A 
ATOM     61  C   UNL A   1      47.419  24.989  26.564  1.00  0.00     0.031 C 
ATOM     62  C   UNL A   1      48.396  27.251  26.848  1.00  0.00     0.037 A 
BRANCH  49  63
ATOM     63  C   UNL A   1      46.979  33.086  28.327  1.00  0.00     0.058 A 
ATOM     64  C   UNL A   1      47.461  33.553  29.561  1.00  0.00     0.135 A 
ATOM     65  C   UNL A   1      46.971  33.982  27.247  1.00  0.00     0.135 A 
ATOM     66  F   UNL A   1      47.474  32.744  30.632  1.00  0.00    -0.206 F 
ATOM     67  C   UNL A   1      47.894  34.865  29.723  1.00  0.00     0.059 A 
ATOM     68  C   UNL A   1      47.422  35.293  27.380  1.00  0.00     0.059 A 
ATOM     69  F   UNL A   1      46.518  33.588  26.046  1.00  0.00    -0.206 F 
ATOM     70  C   UNL A   1      47.868  35.729  28.627  1.00  0.00     0.060 A 
BRANCH  70  71
ATOM     71  S   UNL A   1      48.432  37.429  28.851  1.00  0.00     0.124 S 
ATOM     72  O   UNL A   1      47.636  37.851  29.999  1.00  0.00    -0.237 OA
ATOM     73  O   UNL A   1      49.859  37.256  29.098  1.00  0.00    -0.237 OA
ATOM     74  O   UNL A   1      48.093  38.069  27.583  1.00  0.00    -0.744 OA
ENDBRANCH  70  71
ENDBRANCH  49  63
BRANCH  50  75
ATOM     75  C   UNL A   1      43.392  23.841  27.105  1.00  0.00     0.058 A 
ATOM     76  C   UNL A   1      42.785  23.465  25.898  1.00  0.00     0.135 A 
ATOM     77  C   UNL A   1      43.489  22.874  28.118  1.00  0.00     0.135 A 
ATOM     78  F   UNL A   1      42.659  24.359  24.904  1.00  0.00    -0.206 F 
ATOM     79  C   UNL A   1      42.286  22.181  25.703  1.00  0.00     0.059 A 
ATOM     80  C   UNL A   1      43.017  21.579  27.938  1.00  0.00     0.059 A 
ATOM     81  F   UNL A   1      44.072  23.181  29.288  1.00  0.00    -0.206 F 
ATOM     82  C   UNL A   1      42.409  21.243  26.729  1.00  0.00     0.060 A 
BRANCH  82  83
ATOM     83  S   UNL A   1      41.822  19.559  26.450  1.00  0.00     0.124 S 
ATOM     84  O   UNL A   1      40.679  19.789  25.573  1.00  0.00    -0.237 OA
ATOM     85  O   UNL A   1      42.983  18.924  25.835  1.00  0.00    -0.237 OA
ATOM     86  O   UNL A   1      41.504  19.090  27.795  1.00  0.00    -0.744 OA
ENDBRANCH  82  83
ENDBRANCH  50  75
BRANCH  62  87
ATOM     87  C   UNL A   1      49.737  26.666  26.500  1.00  0.00     0.058 A 
ATOM     88  C   UNL A   1      50.159  26.526  25.168  1.00  0.00     0.135 A 
ATOM     89  C   UNL A   1      50.622  26.261  27.514  1.00  0.00     0.135 A 
ATOM     90  F   UNL A   1      49.351  26.894  24.162  1.00  0.00    -0.206 F 
ATOM     91  C   UNL A   1      51.396  25.971  24.853  1.00  0.00     0.059 A 
ATOM     92  C   UNL A   1      51.873  25.728  27.222  1.00  0.00     0.059 A 
ATOM     93  F   UNL A   1      50.273  26.386  28.804  1.00  0.00    -0.206 F 
ATOM     94  C   UNL A   1      52.244  25.571  25.887  1.00  0.00     0.060 A 
BRANCH  94  95
ATOM     95  S   UNL A   1      53.847  24.853  25.467  1.00  0.00     0.124 S 
ATOM     96  O   UNL A   1      54.302  25.752  24.410  1.00  0.00    -0.237 OA
ATOM     97  O   UNL A   1      54.573  24.943  26.730  1.00  0.00    -0.237 OA
ATOM     98  O   UNL A   1      53.511  23.499  25.040  1.00  0.00    -0.744 OA
ENDBRANCH  94  95
ENDBRANCH  62  87
ENDBRANCH  36  37
ENDBRANCH  29  31
ENDBRANCH  28  29
ENDBRANCH  27  28
ENDBRANCH  26  27
ENDBRANCH  25  26
ENDBRANCH   1  25
TORSDOF 21
ENDMDL
