MODEL 1
REMARK VINA RESULT:      -8.7      0.000      0.000
REMARK SMILES N#CCC[NH2+]C1(C(=O)OCCOCCOC(=O)c2ccc(-c3c4nc(c(-c5c(F)cc(S(=O)(=O)[O-])cc5F)c5ccc([nH]5)c(-c5c(F)cc(S(=O)(=O)[O-])cc5F)c5nc(c(-c6c(F)cc(S(=O)(=O)[O-])cc6F)c6ccc3[nH]6)C=C5)C=C4)cc2)CC1
REMARK SMILES IDX 11 1 10 2 9 3 7 4 8 5 6 6 84 7 85 8 5 9 4 12 3 13 2 14 1 15
REMARK SMILES IDX 12 16 13 17 14 18 15 19 16 20 17 21 18 22 19 23 83 24 20 25
REMARK SMILES IDX 82 26 21 27 22 28 23 29 76 30 24 31 81 32 75 33 77 34 25 35
REMARK SMILES IDX 80 36 74 37 73 38 26 40 60 41 39 42 59 43 40 44 43 45 58 46
REMARK SMILES IDX 78 47 41 48 42 49 57 51 79 52 44 53 27 54 28 55 37 56 29 57
REMARK SMILES IDX 30 58 36 59 38 60 31 61 32 62 33 63 34 64 35 65 61 66 62 67
REMARK SMILES IDX 71 68 63 69 64 70 70 71 72 72 65 73 66 74 67 75 68 76 69 77
REMARK SMILES IDX 45 78 46 79 55 80 47 81 48 82 54 83 56 84 49 85 50 86 51 87
REMARK SMILES IDX 52 88 53 89
REMARK H PARENT 5 10 5 11 77 39 43 50
REMARK Flexibility Score: inf
ROOT
ATOM      1  C   UNL A   1      34.159  31.126  27.721  1.00  0.00     0.202 C 
ENDROOT
BRANCH   1   2
ATOM      2  C   UNL A   1      34.314  29.633  27.372  1.00  0.00     0.261 C 
BRANCH   2   3
ATOM      3  O   UNL A   1      33.061  29.097  26.911  1.00  0.00    -0.459 OA
BRANCH   3   4
ATOM      4  C   UNL A   1      32.972  28.840  25.579  1.00  0.00     0.368 C 
ATOM      5  O   UNL A   1      33.269  29.606  24.673  1.00  0.00    -0.245 OA
BRANCH   4   6
ATOM      6  C   UNL A   1      32.652  27.377  25.303  1.00  0.00     0.194 C 
ATOM      7  C   UNL A   1      32.250  26.530  26.490  1.00  0.00     0.088 C 
ATOM      8  C   UNL A   1      33.555  26.266  25.800  1.00  0.00     0.088 C 
BRANCH   6   9
ATOM      9  N   UNL A   1      31.957  27.142  23.967  1.00  0.00    -0.331 N 
ATOM     10  H   UNL A   1      32.368  27.750  23.258  1.00  0.00     0.347 HD
ATOM     11  H   UNL A   1      32.076  26.167  23.689  1.00  0.00     0.347 HD
BRANCH   9  12
ATOM     12  C   UNL A   1      30.519  27.443  24.100  1.00  0.00     0.276 C 
BRANCH  12  13
ATOM     13  C   UNL A   1      29.464  26.332  24.091  1.00  0.00     0.181 C 
BRANCH  13  14
ATOM     14  C   UNL A   1      30.220  25.080  23.677  1.00  0.00     0.068 C 
ATOM     15  N   UNL A   1      30.847  24.041  23.335  1.00  0.00    -0.198 NA
ENDBRANCH  13  14
ENDBRANCH  12  13
ENDBRANCH   9  12
ENDBRANCH   6   9
ENDBRANCH   4   6
ENDBRANCH   3   4
ENDBRANCH   2   3
ENDBRANCH   1   2
BRANCH   1  16
ATOM     16  O   UNL A   1      35.249  32.001  27.394  1.00  0.00    -0.374 OA
BRANCH  16  17
ATOM     17  C   UNL A   1      35.669  32.908  28.402  1.00  0.00     0.202 C 
BRANCH  17  18
ATOM     18  C   UNL A   1      37.143  33.090  28.735  1.00  0.00     0.261 C 
BRANCH  18  19
ATOM     19  O   UNL A   1      37.389  32.734  30.085  1.00  0.00    -0.460 OA
BRANCH  19  20
ATOM     20  C   UNL A   1      37.057  31.448  30.323  1.00  0.00     0.338 C 
ATOM     21  O   UNL A   1      35.981  31.018  30.706  1.00  0.00    -0.246 OA
BRANCH  20  22
ATOM     22  C   UNL A   1      38.151  30.596  29.862  1.00  0.00     0.060 A 
ATOM     23  C   UNL A   1      39.171  30.346  30.784  1.00  0.00     0.016 A 
ATOM     24  C   UNL A   1      38.191  30.080  28.562  1.00  0.00     0.016 A 
ATOM     25  C   UNL A   1      40.301  29.669  30.372  1.00  0.00     0.010 A 
ATOM     26  C   UNL A   1      39.328  29.398  28.150  1.00  0.00     0.010 A 
ATOM     27  C   UNL A   1      40.405  29.254  29.038  1.00  0.00    -0.014 A 
BRANCH  27  28
ATOM     28  C   UNL A   1      41.734  28.863  28.544  1.00  0.00     0.031 A 
ATOM     29  C   UNL A   1      42.819  29.902  28.526  1.00  0.00     0.074 A 
ATOM     30  C   UNL A   1      41.970  27.583  28.223  1.00  0.00     0.049 A 
ATOM     31  N   UNL A   1      44.075  29.776  28.198  1.00  0.00    -0.248 NA
ATOM     32  C   UNL A   1      42.437  31.267  28.932  1.00  0.00     0.031 C 
ATOM     33  C   UNL A   1      40.976  26.509  28.257  1.00  0.00     0.029 A 
ATOM     34  N   UNL A   1      43.123  26.968  27.823  1.00  0.00    -0.354 N 
ATOM     35  C   UNL A   1      44.633  31.040  28.355  1.00  0.00     0.074 A 
ATOM     36  C   UNL A   1      43.571  31.930  28.766  1.00  0.00     0.031 C 
ATOM     37  C   UNL A   1      41.568  25.359  27.897  1.00  0.00     0.029 A 
ATOM     38  C   UNL A   1      42.969  25.626  27.582  1.00  0.00     0.049 A 
ATOM     39  H   UNL A   1      43.980  27.441  27.717  1.00  0.00     0.167 HD
ATOM     40  C   UNL A   1      45.921  31.413  28.185  1.00  0.00     0.037 A 
ATOM     41  C   UNL A   1      43.866  24.724  27.145  1.00  0.00     0.037 A 
ATOM     42  C   UNL A   1      46.959  30.503  27.776  1.00  0.00     0.049 A 
ATOM     43  C   UNL A   1      45.282  25.177  26.913  1.00  0.00     0.074 A 
ATOM     44  C   UNL A   1      48.303  30.761  27.576  1.00  0.00     0.029 A 
ATOM     45  N   UNL A   1      46.763  29.155  27.502  1.00  0.00    -0.354 N 
ATOM     46  N   UNL A   1      45.805  26.370  27.079  1.00  0.00    -0.248 NA
ATOM     47  C   UNL A   1      46.232  24.161  26.450  1.00  0.00     0.031 C 
ATOM     48  C   UNL A   1      48.907  29.583  27.124  1.00  0.00     0.029 A 
ATOM     49  C   UNL A   1      47.955  28.574  27.108  1.00  0.00     0.049 A 
ATOM     50  H   UNL A   1      45.902  28.683  27.575  1.00  0.00     0.167 HD
ATOM     51  C   UNL A   1      47.154  26.242  26.767  1.00  0.00     0.074 A 
ATOM     52  C   UNL A   1      47.364  24.848  26.421  1.00  0.00     0.031 C 
ATOM     53  C   UNL A   1      48.131  27.183  26.766  1.00  0.00     0.037 A 
BRANCH  40  54
ATOM     54  C   UNL A   1      46.267  32.861  28.406  1.00  0.00     0.058 A 
ATOM     55  C   UNL A   1      46.191  33.812  27.374  1.00  0.00     0.135 A 
ATOM     56  C   UNL A   1      46.660  33.309  29.676  1.00  0.00     0.135 A 
ATOM     57  F   UNL A   1      45.845  33.437  26.132  1.00  0.00    -0.206 F 
ATOM     58  C   UNL A   1      46.513  35.148  27.590  1.00  0.00     0.059 A 
ATOM     59  C   UNL A   1      46.958  34.646  29.922  1.00  0.00     0.059 A 
ATOM     60  F   UNL A   1      46.761  32.442  30.697  1.00  0.00    -0.206 F 
ATOM     61  C   UNL A   1      46.893  35.556  28.870  1.00  0.00     0.060 A 
BRANCH  61  62
ATOM     62  S   UNL A   1      47.293  37.297  29.138  1.00  0.00     0.124 S 
ATOM     63  O   UNL A   1      46.757  37.909  27.925  1.00  0.00    -0.237 OA
ATOM     64  O   UNL A   1      46.572  37.595  30.371  1.00  0.00    -0.237 OA
ATOM     65  O   UNL A   1      48.748  37.298  29.248  1.00  0.00    -0.744 OA
ENDBRANCH  61  62
ENDBRANCH  40  54
BRANCH  41  66
ATOM     66  C   UNL A   1      43.446  23.320  26.907  1.00  0.00     0.058 A 
ATOM     67  C   UNL A   1      43.089  22.475  27.967  1.00  0.00     0.135 A 
ATOM     68  C   UNL A   1      43.375  22.800  25.603  1.00  0.00     0.135 A 
ATOM     69  F   UNL A   1      43.142  22.925  29.229  1.00  0.00    -0.206 F 
ATOM     70  C   UNL A   1      42.698  21.158  27.748  1.00  0.00     0.059 A 
ATOM     71  C   UNL A   1      42.957  21.497  25.358  1.00  0.00     0.059 A 
ATOM     72  F   UNL A   1      43.686  23.574  24.552  1.00  0.00    -0.206 F 
ATOM     73  C   UNL A   1      42.633  20.679  26.438  1.00  0.00     0.060 A 
BRANCH  73  74
ATOM     74  S   UNL A   1      42.084  18.982  26.163  1.00  0.00     0.124 S 
ATOM     75  O   UNL A   1      40.670  19.176  25.867  1.00  0.00    -0.237 OA
ATOM     76  O   UNL A   1      42.923  18.569  25.042  1.00  0.00    -0.237 OA
ATOM     77  O   UNL A   1      42.379  18.324  27.432  1.00  0.00    -0.744 OA
ENDBRANCH  73  74
ENDBRANCH  41  66
BRANCH  53  78
ATOM     78  C   UNL A   1      49.520  26.722  26.416  1.00  0.00     0.058 A 
ATOM     79  C   UNL A   1      50.021  26.804  25.107  1.00  0.00     0.135 A 
ATOM     80  C   UNL A   1      50.367  26.211  27.413  1.00  0.00     0.135 A 
ATOM     81  F   UNL A   1      49.251  27.283  24.117  1.00  0.00    -0.206 F 
ATOM     82  C   UNL A   1      51.296  26.348  24.789  1.00  0.00     0.059 A 
ATOM     83  C   UNL A   1      51.659  25.785  27.124  1.00  0.00     0.059 A 
ATOM     84  F   UNL A   1      49.945  26.127  28.684  1.00  0.00    -0.206 F 
ATOM     85  C   UNL A   1      52.106  25.837  25.805  1.00  0.00     0.060 A 
BRANCH  85  86
ATOM     86  S   UNL A   1      53.757  25.248  25.379  1.00  0.00     0.124 S 
ATOM     87  O   UNL A   1      53.580  23.801  25.456  1.00  0.00    -0.237 OA
ATOM     88  O   UNL A   1      53.947  25.794  24.039  1.00  0.00    -0.237 OA
ATOM     89  O   UNL A   1      54.604  25.833  26.414  1.00  0.00    -0.744 OA
ENDBRANCH  85  86
ENDBRANCH  53  78
ENDBRANCH  27  28
ENDBRANCH  20  22
ENDBRANCH  19  20
ENDBRANCH  18  19
ENDBRANCH  17  18
ENDBRANCH  16  17
ENDBRANCH   1  16
TORSDOF 21
ENDMDL
MODEL 2
REMARK VINA RESULT:      -8.7      4.567     13.908
REMARK SMILES N#CCC[NH2+]C1(C(=O)OCCOCCOC(=O)c2ccc(-c3c4nc(c(-c5c(F)cc(S(=O)(=O)[O-])cc5F)c5ccc([nH]5)c(-c5c(F)cc(S(=O)(=O)[O-])cc5F)c5nc(c(-c6c(F)cc(S(=O)(=O)[O-])cc6F)c6ccc3[nH]6)C=C5)C=C4)cc2)CC1
REMARK SMILES IDX 11 1 10 2 9 3 7 4 8 5 6 6 84 7 85 8 5 9 4 12 3 13 2 14 1 15
REMARK SMILES IDX 12 16 13 17 14 18 15 19 16 20 17 21 18 22 19 23 83 24 20 25
REMARK SMILES IDX 82 26 21 27 22 28 23 29 76 30 24 31 81 32 75 33 77 34 25 35
REMARK SMILES IDX 80 36 74 37 73 38 26 40 60 41 39 42 59 43 40 44 43 45 58 46
REMARK SMILES IDX 78 47 41 48 42 49 57 51 79 52 44 53 27 54 28 55 37 56 29 57
REMARK SMILES IDX 30 58 36 59 38 60 31 61 32 62 33 63 34 64 35 65 61 66 62 67
REMARK SMILES IDX 71 68 63 69 64 70 70 71 72 72 65 73 66 74 67 75 68 76 69 77
REMARK SMILES IDX 45 78 46 79 55 80 47 81 48 82 54 83 56 84 49 85 50 86 51 87
REMARK SMILES IDX 52 88 53 89
REMARK H PARENT 5 10 5 11 77 39 43 50
REMARK Flexibility Score: inf
ROOT
ATOM      1  C   UNL A   1      49.035  26.852  23.974  1.00  0.00     0.202 C 
ENDROOT
BRANCH   1   2
ATOM      2  C   UNL A   1      48.085  25.641  23.897  1.00  0.00     0.261 C 
BRANCH   2   3
ATOM      3  O   UNL A   1      47.095  25.718  24.939  1.00  0.00    -0.459 OA
BRANCH   3   4
ATOM      4  C   UNL A   1      46.870  24.574  25.638  1.00  0.00     0.368 C 
ATOM      5  O   UNL A   1      47.511  24.176  26.601  1.00  0.00    -0.245 OA
BRANCH   4   6
ATOM      6  C   UNL A   1      45.565  23.904  25.227  1.00  0.00     0.194 C 
ATOM      7  C   UNL A   1      44.380  24.811  24.984  1.00  0.00     0.088 C 
ATOM      8  C   UNL A   1      44.368  23.876  26.157  1.00  0.00     0.088 C 
BRANCH   6   9
ATOM      9  N   UNL A   1      45.755  22.690  24.326  1.00  0.00    -0.331 N 
ATOM     10  H   UNL A   1      44.942  22.586  23.719  1.00  0.00     0.347 HD
ATOM     11  H   UNL A   1      46.592  22.817  23.756  1.00  0.00     0.347 HD
BRANCH   9  12
ATOM     12  C   UNL A   1      45.907  21.479  25.157  1.00  0.00     0.276 C 
BRANCH  12  13
ATOM     13  C   UNL A   1      46.532  20.198  24.598  1.00  0.00     0.181 C 
BRANCH  13  14
ATOM     14  C   UNL A   1      45.621  19.079  25.078  1.00  0.00     0.068 C 
ATOM     15  N   UNL A   1      44.866  18.150  25.475  1.00  0.00    -0.198 NA
ENDBRANCH  13  14
ENDBRANCH  12  13
ENDBRANCH   9  12
ENDBRANCH   6   9
ENDBRANCH   4   6
ENDBRANCH   3   4
ENDBRANCH   2   3
ENDBRANCH   1   2
BRANCH   1  16
ATOM     16  O   UNL A   1      50.262  26.782  23.233  1.00  0.00    -0.374 OA
BRANCH  16  17
ATOM     17  C   UNL A   1      51.468  26.855  23.978  1.00  0.00     0.202 C 
BRANCH  17  18
ATOM     18  C   UNL A   1      51.538  26.362  25.416  1.00  0.00     0.261 C 
BRANCH  18  19
ATOM     19  O   UNL A   1      51.622  27.461  26.308  1.00  0.00    -0.460 OA
BRANCH  19  20
ATOM     20  C   UNL A   1      51.107  27.154  27.518  1.00  0.00     0.338 C 
ATOM     21  O   UNL A   1      51.545  26.356  28.330  1.00  0.00    -0.246 OA
BRANCH  20  22
ATOM     22  C   UNL A   1      50.016  28.082  27.804  1.00  0.00     0.060 A 
ATOM     23  C   UNL A   1      49.503  28.053  29.103  1.00  0.00     0.016 A 
ATOM     24  C   UNL A   1      49.493  28.934  26.825  1.00  0.00     0.016 A 
ATOM     25  C   UNL A   1      48.381  28.800  29.402  1.00  0.00     0.010 A 
ATOM     26  C   UNL A   1      48.366  29.687  27.128  1.00  0.00     0.010 A 
ATOM     27  C   UNL A   1      47.776  29.564  28.396  1.00  0.00    -0.014 A 
BRANCH  27  28
ATOM     28  C   UNL A   1      46.411  30.056  28.636  1.00  0.00     0.031 A 
ATOM     29  C   UNL A   1      45.269  29.099  28.447  1.00  0.00     0.074 A 
ATOM     30  C   UNL A   1      46.229  31.297  29.110  1.00  0.00     0.049 A 
ATOM     31  N   UNL A   1      43.995  29.283  28.661  1.00  0.00    -0.248 NA
ATOM     32  C   UNL A   1      45.606  27.753  27.951  1.00  0.00     0.031 C 
ATOM     33  C   UNL A   1      47.295  32.268  29.359  1.00  0.00     0.029 A 
ATOM     34  N   UNL A   1      45.084  31.943  29.481  1.00  0.00    -0.354 N 
ATOM     35  C   UNL A   1      43.380  28.083  28.325  1.00  0.00     0.074 A 
ATOM     36  C   UNL A   1      44.412  27.190  27.851  1.00  0.00     0.031 C 
ATOM     37  C   UNL A   1      46.750  33.392  29.852  1.00  0.00     0.029 A 
ATOM     38  C   UNL A   1      45.301  33.225  29.923  1.00  0.00     0.049 A 
ATOM     39  H   UNL A   1      44.191  31.531  29.437  1.00  0.00     0.167 HD
ATOM     40  C   UNL A   1      42.070  27.759  28.420  1.00  0.00     0.037 A 
ATOM     41  C   UNL A   1      44.417  34.153  30.328  1.00  0.00     0.037 A 
ATOM     42  C   UNL A   1      41.064  28.670  28.897  1.00  0.00     0.049 A 
ATOM     43  C   UNL A   1      42.960  33.783  30.375  1.00  0.00     0.074 A 
ATOM     44  C   UNL A   1      39.706  28.455  29.046  1.00  0.00     0.029 A 
ATOM     45  N   UNL A   1      41.311  29.976  29.301  1.00  0.00    -0.354 N 
ATOM     46  N   UNL A   1      42.388  32.641  30.071  1.00  0.00    -0.248 NA
ATOM     47  C   UNL A   1      42.031  34.820  30.835  1.00  0.00     0.031 C 
ATOM     48  C   UNL A   1      39.124  29.649  29.483  1.00  0.00     0.029 A 
ATOM     49  C   UNL A   1      40.127  30.588  29.674  1.00  0.00     0.049 A 
ATOM     50  H   UNL A   1      42.198  30.404  29.319  1.00  0.00     0.167 HD
ATOM     51  C   UNL A   1      41.032  32.813  30.328  1.00  0.00     0.074 A 
ATOM     52  C   UNL A   1      40.879  34.165  30.831  1.00  0.00     0.031 C 
ATOM     53  C   UNL A   1      40.007  31.939  30.168  1.00  0.00     0.037 A 
BRANCH  40  54
ATOM     54  C   UNL A   1      41.655  26.384  27.971  1.00  0.00     0.058 A 
ATOM     55  C   UNL A   1      40.956  26.170  26.771  1.00  0.00     0.135 A 
ATOM     56  C   UNL A   1      41.981  25.258  28.744  1.00  0.00     0.135 A 
ATOM     57  F   UNL A   1      40.595  27.211  26.004  1.00  0.00    -0.206 F 
ATOM     58  C   UNL A   1      40.577  24.894  26.366  1.00  0.00     0.059 A 
ATOM     59  C   UNL A   1      41.638  23.970  28.344  1.00  0.00     0.059 A 
ATOM     60  F   UNL A   1      42.638  25.403  29.906  1.00  0.00    -0.206 F 
ATOM     61  C   UNL A   1      40.926  23.799  27.159  1.00  0.00     0.060 A 
BRANCH  61  62
ATOM     62  S   UNL A   1      40.439  22.148  26.613  1.00  0.00     0.124 S 
ATOM     63  O   UNL A   1      41.492  21.838  25.650  1.00  0.00    -0.237 OA
ATOM     64  O   UNL A   1      40.474  21.386  27.857  1.00  0.00    -0.237 OA
ATOM     65  O   UNL A   1      39.112  22.355  26.044  1.00  0.00    -0.744 OA
ENDBRANCH  61  62
ENDBRANCH  40  54
BRANCH  41  66
ATOM     66  C   UNL A   1      44.893  35.506  30.716  1.00  0.00     0.058 A 
ATOM     67  C   UNL A   1      45.006  36.538  29.774  1.00  0.00     0.135 A 
ATOM     68  C   UNL A   1      45.229  35.797  32.049  1.00  0.00     0.135 A 
ATOM     69  F   UNL A   1      44.699  36.309  28.489  1.00  0.00    -0.206 F 
ATOM     70  C   UNL A   1      45.454  37.805  30.133  1.00  0.00     0.059 A 
ATOM     71  C   UNL A   1      45.649  37.064  32.437  1.00  0.00     0.059 A 
ATOM     72  F   UNL A   1      45.118  34.850  32.993  1.00  0.00    -0.206 F 
ATOM     73  C   UNL A   1      45.771  38.058  31.469  1.00  0.00     0.060 A 
BRANCH  73  74
ATOM     74  S   UNL A   1      46.312  39.717  31.930  1.00  0.00     0.124 S 
ATOM     75  O   UNL A   1      47.685  39.470  32.355  1.00  0.00    -0.237 OA
ATOM     76  O   UNL A   1      46.151  40.450  30.678  1.00  0.00    -0.237 OA
ATOM     77  O   UNL A   1      45.381  40.091  32.991  1.00  0.00    -0.744 OA
ENDBRANCH  73  74
ENDBRANCH  41  66
BRANCH  53  78
ATOM     78  C   UNL A   1      38.639  32.411  30.578  1.00  0.00     0.058 A 
ATOM     79  C   UNL A   1      37.821  33.158  29.714  1.00  0.00     0.135 A 
ATOM     80  C   UNL A   1      38.132  32.092  31.848  1.00  0.00     0.135 A 
ATOM     81  F   UNL A   1      38.259  33.491  28.489  1.00  0.00    -0.206 F 
ATOM     82  C   UNL A   1      36.570  33.614  30.113  1.00  0.00     0.059 A 
ATOM     83  C   UNL A   1      36.868  32.505  32.255  1.00  0.00     0.059 A 
ATOM     84  F   UNL A   1      38.864  31.365  32.707  1.00  0.00    -0.206 F 
ATOM     85  C   UNL A   1      36.104  33.285  31.387  1.00  0.00     0.060 A 
BRANCH  85  86
ATOM     86  S   UNL A   1      34.479  33.884  31.894  1.00  0.00     0.124 S 
ATOM     87  O   UNL A   1      33.975  32.748  32.660  1.00  0.00    -0.237 OA
ATOM     88  O   UNL A   1      34.814  35.073  32.671  1.00  0.00    -0.237 OA
ATOM     89  O   UNL A   1      33.800  34.139  30.627  1.00  0.00    -0.744 OA
ENDBRANCH  85  86
ENDBRANCH  53  78
ENDBRANCH  27  28
ENDBRANCH  20  22
ENDBRANCH  19  20
ENDBRANCH  18  19
ENDBRANCH  17  18
ENDBRANCH  16  17
ENDBRANCH   1  16
TORSDOF 21
ENDMDL
MODEL 3
REMARK VINA RESULT:      -8.6      6.380      8.672
REMARK SMILES N#CCC[NH2+]C1(C(=O)OCCOCCOC(=O)c2ccc(-c3c4nc(c(-c5c(F)cc(S(=O)(=O)[O-])cc5F)c5ccc([nH]5)c(-c5c(F)cc(S(=O)(=O)[O-])cc5F)c5nc(c(-c6c(F)cc(S(=O)(=O)[O-])cc6F)c6ccc3[nH]6)C=C5)C=C4)cc2)CC1
REMARK SMILES IDX 11 1 10 2 9 3 7 4 8 5 6 6 84 7 85 8 5 9 4 12 3 13 2 14 1 15
REMARK SMILES IDX 12 16 13 17 14 18 15 19 16 20 17 21 18 22 19 23 83 24 20 25
REMARK SMILES IDX 82 26 21 27 22 28 23 29 76 30 24 31 81 32 75 33 77 34 25 35
REMARK SMILES IDX 80 36 74 37 73 38 26 40 60 41 39 42 59 43 40 44 43 45 58 46
REMARK SMILES IDX 78 47 41 48 42 49 57 51 79 52 44 53 27 54 28 55 37 56 29 57
REMARK SMILES IDX 30 58 36 59 38 60 31 61 32 62 33 63 34 64 35 65 61 66 62 67
REMARK SMILES IDX 71 68 63 69 64 70 70 71 72 72 65 73 66 74 67 75 68 76 69 77
REMARK SMILES IDX 45 78 46 79 55 80 47 81 48 82 54 83 56 84 49 85 50 86 51 87
REMARK SMILES IDX 52 88 53 89
REMARK H PARENT 5 10 5 11 77 39 43 50
REMARK Flexibility Score: inf
ROOT
ATOM      1  C   UNL A   1      31.924  29.927  26.349  1.00  0.00     0.202 C 
ENDROOT
BRANCH   1   2
ATOM      2  C   UNL A   1      31.625  28.596  25.632  1.00  0.00     0.261 C 
BRANCH   2   3
ATOM      3  O   UNL A   1      32.273  27.507  26.314  1.00  0.00    -0.459 OA
BRANCH   3   4
ATOM      4  C   UNL A   1      31.539  26.372  26.464  1.00  0.00     0.368 C 
ATOM      5  O   UNL A   1      30.364  26.309  26.798  1.00  0.00    -0.245 OA
BRANCH   4   6
ATOM      6  C   UNL A   1      32.284  25.144  25.958  1.00  0.00     0.194 C 
ATOM      7  C   UNL A   1      31.446  23.933  25.612  1.00  0.00     0.088 C 
ATOM      8  C   UNL A   1      32.373  23.880  26.790  1.00  0.00     0.088 C 
BRANCH   6   9
ATOM      9  N   UNL A   1      33.491  25.472  25.088  1.00  0.00    -0.331 N 
ATOM     10  H   UNL A   1      33.830  26.407  25.315  1.00  0.00     0.347 HD
ATOM     11  H   UNL A   1      34.230  24.791  25.262  1.00  0.00     0.347 HD
BRANCH   9  12
ATOM     12  C   UNL A   1      33.101  25.422  23.665  1.00  0.00     0.276 C 
BRANCH  12  13
ATOM     13  C   UNL A   1      33.507  26.525  22.684  1.00  0.00     0.181 C 
BRANCH  13  14
ATOM     14  C   UNL A   1      33.122  25.991  21.314  1.00  0.00     0.068 C 
ATOM     15  N   UNL A   1      32.803  25.547  20.178  1.00  0.00    -0.198 NA
ENDBRANCH  13  14
ENDBRANCH  12  13
ENDBRANCH   9  12
ENDBRANCH   6   9
ENDBRANCH   4   6
ENDBRANCH   3   4
ENDBRANCH   2   3
ENDBRANCH   1   2
BRANCH   1  16
ATOM     16  O   UNL A   1      33.284  30.386  26.359  1.00  0.00    -0.374 OA
BRANCH  16  17
ATOM     17  C   UNL A   1      33.813  30.802  27.609  1.00  0.00     0.202 C 
BRANCH  17  18
ATOM     18  C   UNL A   1      34.249  32.241  27.841  1.00  0.00     0.261 C 
BRANCH  18  19
ATOM     19  O   UNL A   1      33.120  33.066  28.074  1.00  0.00    -0.460 OA
BRANCH  19  20
ATOM     20  C   UNL A   1      33.475  34.242  28.632  1.00  0.00     0.338 C 
ATOM     21  O   UNL A   1      32.913  35.318  28.516  1.00  0.00    -0.246 OA
BRANCH  20  22
ATOM     22  C   UNL A   1      34.560  33.994  29.578  1.00  0.00     0.060 A 
ATOM     23  C   UNL A   1      35.840  34.371  29.165  1.00  0.00     0.016 A 
ATOM     24  C   UNL A   1      34.336  33.388  30.819  1.00  0.00     0.016 A 
ATOM     25  C   UNL A   1      36.927  34.038  29.947  1.00  0.00     0.010 A 
ATOM     26  C   UNL A   1      35.431  33.055  31.606  1.00  0.00     0.010 A 
ATOM     27  C   UNL A   1      36.726  33.322  31.134  1.00  0.00    -0.014 A 
BRANCH  27  28
ATOM     28  C   UNL A   1      37.895  32.681  31.754  1.00  0.00     0.031 A 
ATOM     29  C   UNL A   1      38.371  33.203  33.080  1.00  0.00     0.074 A 
ATOM     30  C   UNL A   1      38.437  31.597  31.180  1.00  0.00     0.049 A 
ATOM     31  N   UNL A   1      39.332  32.760  33.843  1.00  0.00    -0.248 NA
ATOM     32  C   UNL A   1      37.671  34.383  33.619  1.00  0.00     0.031 C 
ATOM     33  C   UNL A   1      38.000  31.007  29.914  1.00  0.00     0.029 A 
ATOM     34  N   UNL A   1      39.459  30.792  31.597  1.00  0.00    -0.354 N 
ATOM     35  C   UNL A   1      39.354  33.604  34.947  1.00  0.00     0.074 A 
ATOM     36  C   UNL A   1      38.340  34.613  34.737  1.00  0.00     0.031 C 
ATOM     37  C   UNL A   1      38.749  29.923  29.660  1.00  0.00     0.029 A 
ATOM     38  C   UNL A   1      39.732  29.764  30.729  1.00  0.00     0.049 A 
ATOM     39  H   UNL A   1      39.951  30.934  32.438  1.00  0.00     0.167 HD
ATOM     40  C   UNL A   1      40.144  33.529  36.042  1.00  0.00     0.037 A 
ATOM     41  C   UNL A   1      40.681  28.814  30.796  1.00  0.00     0.037 A 
ATOM     42  C   UNL A   1      41.145  32.511  36.225  1.00  0.00     0.049 A 
ATOM     43  C   UNL A   1      41.581  28.783  32.001  1.00  0.00     0.074 A 
ATOM     44  C   UNL A   1      42.002  32.326  37.294  1.00  0.00     0.029 A 
ATOM     45  N   UNL A   1      41.425  31.506  35.307  1.00  0.00    -0.354 N 
ATOM     46  N   UNL A   1      41.585  29.576  33.048  1.00  0.00    -0.248 NA
ATOM     47  C   UNL A   1      42.593  27.724  32.041  1.00  0.00     0.031 C 
ATOM     48  C   UNL A   1      42.839  31.245  36.997  1.00  0.00     0.029 A 
ATOM     49  C   UNL A   1      42.459  30.714  35.773  1.00  0.00     0.049 A 
ATOM     50  H   UNL A   1      40.957  31.377  34.450  1.00  0.00     0.167 HD
ATOM     51  C   UNL A   1      42.583  29.093  33.888  1.00  0.00     0.074 A 
ATOM     52  C   UNL A   1      43.144  27.928  33.229  1.00  0.00     0.031 C 
ATOM     53  C   UNL A   1      42.998  29.562  35.091  1.00  0.00     0.037 A 
BRANCH  40  54
ATOM     54  C   UNL A   1      39.978  34.586  37.100  1.00  0.00     0.058 A 
ATOM     55  C   UNL A   1      40.717  35.780  37.084  1.00  0.00     0.135 A 
ATOM     56  C   UNL A   1      39.047  34.411  38.136  1.00  0.00     0.135 A 
ATOM     57  F   UNL A   1      41.640  35.992  36.132  1.00  0.00    -0.206 F 
ATOM     58  C   UNL A   1      40.556  36.751  38.067  1.00  0.00     0.059 A 
ATOM     59  C   UNL A   1      38.847  35.382  39.114  1.00  0.00     0.059 A 
ATOM     60  F   UNL A   1      38.320  33.284  38.209  1.00  0.00    -0.206 F 
ATOM     61  C   UNL A   1      39.614  36.543  39.077  1.00  0.00     0.060 A 
BRANCH  61  62
ATOM     62  S   UNL A   1      39.405  37.819  40.338  1.00  0.00     0.124 S 
ATOM     63  O   UNL A   1      40.616  38.613  40.152  1.00  0.00    -0.237 OA
ATOM     64  O   UNL A   1      38.159  38.459  39.929  1.00  0.00    -0.237 OA
ATOM     65  O   UNL A   1      39.340  37.060  41.583  1.00  0.00    -0.744 OA
ENDBRANCH  61  62
ENDBRANCH  40  54
BRANCH  41  66
ATOM     66  C   UNL A   1      40.817  27.827  29.694  1.00  0.00     0.058 A 
ATOM     67  C   UNL A   1      39.902  26.777  29.538  1.00  0.00     0.135 A 
ATOM     68  C   UNL A   1      41.862  27.928  28.760  1.00  0.00     0.135 A 
ATOM     69  F   UNL A   1      38.888  26.638  30.405  1.00  0.00    -0.206 F 
ATOM     70  C   UNL A   1      40.027  25.849  28.509  1.00  0.00     0.059 A 
ATOM     71  C   UNL A   1      41.989  27.031  27.706  1.00  0.00     0.059 A 
ATOM     72  F   UNL A   1      42.752  28.927  28.853  1.00  0.00    -0.206 F 
ATOM     73  C   UNL A   1      41.074  25.987  27.596  1.00  0.00     0.060 A 
BRANCH  73  74
ATOM     74  S   UNL A   1      41.203  24.801  26.242  1.00  0.00     0.124 S 
ATOM     75  O   UNL A   1      41.285  25.685  25.086  1.00  0.00    -0.237 OA
ATOM     76  O   UNL A   1      42.424  24.079  26.585  1.00  0.00    -0.237 OA
ATOM     77  O   UNL A   1      39.971  24.025  26.357  1.00  0.00    -0.744 OA
ENDBRANCH  73  74
ENDBRANCH  41  66
BRANCH  53  78
ATOM     78  C   UNL A   1      44.087  28.789  35.784  1.00  0.00     0.058 A 
ATOM     79  C   UNL A   1      45.445  29.101  35.610  1.00  0.00     0.135 A 
ATOM     80  C   UNL A   1      43.762  27.734  36.653  1.00  0.00     0.135 A 
ATOM     81  F   UNL A   1      45.809  30.099  34.789  1.00  0.00    -0.206 F 
ATOM     82  C   UNL A   1      46.444  28.361  36.232  1.00  0.00     0.059 A 
ATOM     83  C   UNL A   1      44.743  27.006  37.316  1.00  0.00     0.059 A 
ATOM     84  F   UNL A   1      42.479  27.406  36.870  1.00  0.00    -0.206 F 
ATOM     85  C   UNL A   1      46.083  27.314  37.081  1.00  0.00     0.060 A 
BRANCH  85  86
ATOM     86  S   UNL A   1      47.390  26.361  37.883  1.00  0.00     0.124 S 
ATOM     87  O   UNL A   1      48.384  27.396  38.149  1.00  0.00    -0.237 OA
ATOM     88  O   UNL A   1      46.707  25.820  39.053  1.00  0.00    -0.237 OA
ATOM     89  O   UNL A   1      47.763  25.378  36.870  1.00  0.00    -0.744 OA
ENDBRANCH  85  86
ENDBRANCH  53  78
ENDBRANCH  27  28
ENDBRANCH  20  22
ENDBRANCH  19  20
ENDBRANCH  18  19
ENDBRANCH  17  18
ENDBRANCH  16  17
ENDBRANCH   1  16
TORSDOF 21
ENDMDL
