MODEL 1
REMARK VINA RESULT:      -9.5      0.000      0.000
REMARK SMILES C#CC[N@@H+](CC(=O)NC(=O)NC)CC(=O)OCCOCCOC(=O)c1ccc(-c2c3nc(c(-c4c(F)cc(S(=O)(=O)[O-])cc4F)c4ccc([nH]4)c(-c4c(F)cc(S(=O)(=O)[O-])cc4F)c4nc(c(-c5c(F)cc(S(=O)(=O)[O-])cc5F)c5ccc2[nH]5)C=C4)C=C3)cc1
REMARK SMILES IDX 19 1 18 2 17 3 16 4 14 5 15 6 13 7 4 8 3 10 2 11 1 12 5 13
REMARK SMILES IDX 6 14 7 15 8 16 9 17 10 19 11 20 12 21 20 23 21 24 22 25
REMARK SMILES IDX 23 26 24 27 25 28 26 29 90 30 27 31 89 32 28 33 29 34 30 35
REMARK SMILES IDX 83 36 31 37 88 38 82 39 84 40 32 41 87 42 81 43 80 44 33 46
REMARK SMILES IDX 67 47 46 48 66 49 47 50 50 51 65 52 85 53 48 54 49 55 64 57
REMARK SMILES IDX 86 58 51 59 34 60 35 61 44 62 36 63 37 64 43 65 45 66 38 67
REMARK SMILES IDX 39 68 40 69 41 70 42 71 68 72 69 73 78 74 70 75 71 76 77 77
REMARK SMILES IDX 79 78 72 79 73 80 74 81 75 82 76 83 52 84 53 85 62 86 54 87
REMARK SMILES IDX 55 88 61 89 63 90 56 91 57 92 58 93 59 94 60 95
REMARK H PARENT 4 9 8 18 11 22 84 45 50 56
REMARK Flexibility Score: inf
ROOT
ATOM      1  O   UNL A   1      37.620  22.895  25.429  1.00  0.00    -0.374 OA
ENDROOT
BRANCH   1   2
ATOM      2  C   UNL A   1      36.865  22.170  24.454  1.00  0.00     0.202 C 
BRANCH   2   3
ATOM      3  C   UNL A   1      35.803  22.989  23.718  1.00  0.00     0.261 C 
BRANCH   3   4
ATOM      4  O   UNL A   1      34.770  23.410  24.629  1.00  0.00    -0.459 OA
BRANCH   4   5
ATOM      5  C   UNL A   1      33.521  23.543  24.124  1.00  0.00     0.361 C 
ATOM      6  O   UNL A   1      32.753  22.614  23.898  1.00  0.00    -0.245 OA
BRANCH   5   7
ATOM      7  C   UNL A   1      33.178  24.985  23.779  1.00  0.00     0.387 C 
BRANCH   7   8
ATOM      8  N   UNL A   1      32.719  25.865  24.868  1.00  0.00    -0.308 N 
ATOM      9  H   UNL A   1      32.199  26.479  24.241  1.00  0.00     0.349 HD
BRANCH   8  10
ATOM     10  C   UNL A   1      31.486  25.616  25.595  1.00  0.00     0.354 C 
BRANCH  10  11
ATOM     11  C   UNL A   1      30.290  26.012  24.744  1.00  0.00    -0.047 C 
ATOM     12  C   UNL A   1      29.264  26.351  24.014  1.00  0.00     0.010 C 
ENDBRANCH  10  11
ENDBRANCH   8  10
BRANCH   8  13
ATOM     13  C   UNL A   1      33.722  26.730  25.480  1.00  0.00     0.365 C 
BRANCH  13  14
ATOM     14  C   UNL A   1      33.177  27.960  26.183  1.00  0.00     0.283 C 
ATOM     15  O   UNL A   1      33.300  28.089  27.408  1.00  0.00    -0.268 OA
ATOM     16  N   UNL A   1      32.502  28.971  25.524  1.00  0.00    -0.273 N 
ATOM     17  C   UNL A   1      31.912  29.256  24.326  1.00  0.00     0.321 C 
ATOM     18  H   UNL A   1      32.418  29.749  26.122  1.00  0.00     0.175 HD
ATOM     19  O   UNL A   1      30.769  29.711  24.304  1.00  0.00    -0.248 OA
ATOM     20  N   UNL A   1      32.527  29.056  23.151  1.00  0.00    -0.341 N 
ATOM     21  C   UNL A   1      33.889  28.726  22.830  1.00  0.00     0.144 C 
ATOM     22  H   UNL A   1      31.940  29.151  22.366  1.00  0.00     0.165 HD
ENDBRANCH  13  14
ENDBRANCH   8  13
ENDBRANCH   7   8
ENDBRANCH   5   7
ENDBRANCH   4   5
ENDBRANCH   3   4
ENDBRANCH   2   3
ENDBRANCH   1   2
BRANCH   1  23
ATOM     23  C   UNL A   1      38.755  22.214  25.960  1.00  0.00     0.202 C 
BRANCH  23  24
ATOM     24  C   UNL A   1      39.910  23.120  26.411  1.00  0.00     0.261 C 
BRANCH  24  25
ATOM     25  O   UNL A   1      39.576  24.515  26.274  1.00  0.00    -0.460 OA
BRANCH  25  26
ATOM     26  C   UNL A   1      40.643  25.358  26.254  1.00  0.00     0.338 C 
ATOM     27  O   UNL A   1      41.373  25.598  25.312  1.00  0.00    -0.246 OA
BRANCH  26  28
ATOM     28  C   UNL A   1      40.690  26.127  27.516  1.00  0.00     0.060 A 
ATOM     29  C   UNL A   1      39.699  25.868  28.467  1.00  0.00     0.016 A 
ATOM     30  C   UNL A   1      41.644  27.115  27.752  1.00  0.00     0.016 A 
ATOM     31  C   UNL A   1      39.637  26.629  29.635  1.00  0.00     0.010 A 
ATOM     32  C   UNL A   1      41.630  27.821  28.963  1.00  0.00     0.010 A 
ATOM     33  C   UNL A   1      40.584  27.634  29.885  1.00  0.00    -0.014 A 
BRANCH  33  34
ATOM     34  C   UNL A   1      40.351  28.605  30.995  1.00  0.00     0.031 A 
ATOM     35  C   UNL A   1      41.247  28.556  32.214  1.00  0.00     0.074 A 
ATOM     36  C   UNL A   1      39.419  29.575  30.902  1.00  0.00     0.049 A 
ATOM     37  N   UNL A   1      41.258  29.331  33.268  1.00  0.00    -0.248 NA
ATOM     38  C   UNL A   1      42.261  27.488  32.255  1.00  0.00     0.031 C 
ATOM     39  C   UNL A   1      38.494  29.756  29.783  1.00  0.00     0.029 A 
ATOM     40  N   UNL A   1      39.109  30.606  31.758  1.00  0.00    -0.354 N 
ATOM     41  C   UNL A   1      42.260  28.836  34.095  1.00  0.00     0.074 A 
ATOM     42  C   UNL A   1      42.800  27.661  33.451  1.00  0.00     0.031 C 
ATOM     43  C   UNL A   1      37.748  30.853  30.004  1.00  0.00     0.029 A 
ATOM     44  C   UNL A   1      38.111  31.434  31.296  1.00  0.00     0.049 A 
ATOM     45  H   UNL A   1      39.560  30.741  32.623  1.00  0.00     0.167 HD
ATOM     46  C   UNL A   1      42.717  29.325  35.272  1.00  0.00     0.037 A 
ATOM     47  C   UNL A   1      37.554  32.534  31.845  1.00  0.00     0.037 A 
ATOM     48  C   UNL A   1      42.217  30.516  35.903  1.00  0.00     0.049 A 
ATOM     49  C   UNL A   1      38.052  33.040  33.174  1.00  0.00     0.074 A 
ATOM     50  C   UNL A   1      42.651  31.110  37.075  1.00  0.00     0.029 A 
ATOM     51  N   UNL A   1      41.178  31.297  35.420  1.00  0.00    -0.354 N 
ATOM     52  N   UNL A   1      39.018  32.570  33.928  1.00  0.00    -0.248 NA
ATOM     53  C   UNL A   1      37.389  34.231  33.728  1.00  0.00     0.031 C 
ATOM     54  C   UNL A   1      41.834  32.214  37.334  1.00  0.00     0.029 A 
ATOM     55  C   UNL A   1      40.938  32.349  36.287  1.00  0.00     0.049 A 
ATOM     56  H   UNL A   1      40.687  31.128  34.584  1.00  0.00     0.167 HD
ATOM     57  C   UNL A   1      39.096  33.423  35.026  1.00  0.00     0.074 A 
ATOM     58  C   UNL A   1      38.087  34.442  34.835  1.00  0.00     0.031 C 
ATOM     59  C   UNL A   1      39.934  33.366  36.092  1.00  0.00     0.037 A 
BRANCH  46  60
ATOM     60  C   UNL A   1      43.817  28.570  35.969  1.00  0.00     0.058 A 
ATOM     61  C   UNL A   1      43.552  27.473  36.804  1.00  0.00     0.135 A 
ATOM     62  C   UNL A   1      45.161  28.911  35.743  1.00  0.00     0.135 A 
ATOM     63  F   UNL A   1      42.286  27.118  37.074  1.00  0.00    -0.206 F 
ATOM     64  C   UNL A   1      44.579  26.748  37.399  1.00  0.00     0.059 A 
ATOM     65  C   UNL A   1      46.204  28.181  36.302  1.00  0.00     0.059 A 
ATOM     66  F   UNL A   1      45.471  29.956  34.958  1.00  0.00    -0.206 F 
ATOM     67  C   UNL A   1      45.903  27.105  37.135  1.00  0.00     0.060 A 
BRANCH  67  68
ATOM     68  S   UNL A   1      47.224  26.125  37.879  1.00  0.00     0.124 S 
ATOM     69  O   UNL A   1      46.700  24.770  37.733  1.00  0.00    -0.237 OA
ATOM     70  O   UNL A   1      48.367  26.456  37.035  1.00  0.00    -0.237 OA
ATOM     71  O   UNL A   1      47.291  26.626  39.247  1.00  0.00    -0.744 OA
ENDBRANCH  67  68
ENDBRANCH  46  60
BRANCH  47  72
ATOM     72  C   UNL A   1      36.463  33.249  31.125  1.00  0.00     0.058 A 
ATOM     73  C   UNL A   1      35.129  33.157  31.551  1.00  0.00     0.135 A 
ATOM     74  C   UNL A   1      36.735  34.051  30.006  1.00  0.00     0.135 A 
ATOM     75  F   UNL A   1      34.812  32.387  32.603  1.00  0.00    -0.206 F 
ATOM     76  C   UNL A   1      34.105  33.836  30.896  1.00  0.00     0.059 A 
ATOM     77  C   UNL A   1      35.733  34.761  29.350  1.00  0.00     0.059 A 
ATOM     78  F   UNL A   1      37.995  34.174  29.558  1.00  0.00    -0.206 F 
ATOM     79  C   UNL A   1      34.420  34.645  29.802  1.00  0.00     0.060 A 
BRANCH  79  80
ATOM     80  S   UNL A   1      33.095  35.585  29.012  1.00  0.00     0.124 S 
ATOM     81  O   UNL A   1      32.367  36.099  30.167  1.00  0.00    -0.237 OA
ATOM     82  O   UNL A   1      33.842  36.569  28.237  1.00  0.00    -0.237 OA
ATOM     83  O   UNL A   1      32.393  34.577  28.223  1.00  0.00    -0.744 OA
ENDBRANCH  79  80
ENDBRANCH  47  72
BRANCH  59  84
ATOM     84  C   UNL A   1      39.832  34.452  37.130  1.00  0.00     0.058 A 
ATOM     85  C   UNL A   1      40.442  35.705  36.956  1.00  0.00     0.135 A 
ATOM     86  C   UNL A   1      39.054  34.260  38.284  1.00  0.00     0.135 A 
ATOM     87  F   UNL A   1      41.199  35.943  35.873  1.00  0.00    -0.206 F 
ATOM     88  C   UNL A   1      40.302  36.719  37.899  1.00  0.00     0.059 A 
ATOM     89  C   UNL A   1      38.874  35.270  39.224  1.00  0.00     0.059 A 
ATOM     90  F   UNL A   1      38.435  33.087  38.495  1.00  0.00    -0.206 F 
ATOM     91  C   UNL A   1      39.513  36.493  39.029  1.00  0.00     0.060 A 
BRANCH  91  92
ATOM     92  S   UNL A   1      39.315  37.829  40.226  1.00  0.00     0.124 S 
ATOM     93  O   UNL A   1      38.989  37.089  41.441  1.00  0.00    -0.237 OA
ATOM     94  O   UNL A   1      40.629  38.465  40.205  1.00  0.00    -0.237 OA
ATOM     95  O   UNL A   1      38.229  38.630  39.669  1.00  0.00    -0.744 OA
ENDBRANCH  91  92
ENDBRANCH  59  84
ENDBRANCH  33  34
ENDBRANCH  26  28
ENDBRANCH  25  26
ENDBRANCH  24  25
ENDBRANCH  23  24
ENDBRANCH   1  23
TORSDOF 22
ENDMDL
MODEL 2
REMARK VINA RESULT:      -9.5      1.808      3.483
REMARK SMILES C#CC[N@@H+](CC(=O)NC(=O)NC)CC(=O)OCCOCCOC(=O)c1ccc(-c2c3nc(c(-c4c(F)cc(S(=O)(=O)[O-])cc4F)c4ccc([nH]4)c(-c4c(F)cc(S(=O)(=O)[O-])cc4F)c4nc(c(-c5c(F)cc(S(=O)(=O)[O-])cc5F)c5ccc2[nH]5)C=C4)C=C3)cc1
REMARK SMILES IDX 19 1 18 2 17 3 16 4 14 5 15 6 13 7 4 8 3 10 2 11 1 12 5 13
REMARK SMILES IDX 6 14 7 15 8 16 9 17 10 19 11 20 12 21 20 23 21 24 22 25
REMARK SMILES IDX 23 26 24 27 25 28 26 29 90 30 27 31 89 32 28 33 29 34 30 35
REMARK SMILES IDX 83 36 31 37 88 38 82 39 84 40 32 41 87 42 81 43 80 44 33 46
REMARK SMILES IDX 67 47 46 48 66 49 47 50 50 51 65 52 85 53 48 54 49 55 64 57
REMARK SMILES IDX 86 58 51 59 34 60 35 61 44 62 36 63 37 64 43 65 45 66 38 67
REMARK SMILES IDX 39 68 40 69 41 70 42 71 68 72 69 73 78 74 70 75 71 76 77 77
REMARK SMILES IDX 79 78 72 79 73 80 74 81 75 82 76 83 52 84 53 85 62 86 54 87
REMARK SMILES IDX 55 88 61 89 63 90 56 91 57 92 58 93 59 94 60 95
REMARK H PARENT 4 9 8 18 11 22 84 45 50 56
REMARK Flexibility Score: inf
ROOT
ATOM      1  O   UNL A   1      39.121  21.924  26.488  1.00  0.00    -0.374 OA
ENDROOT
BRANCH   1   2
ATOM      2  C   UNL A   1      38.532  21.281  25.355  1.00  0.00     0.202 C 
BRANCH   2   3
ATOM      3  C   UNL A   1      37.023  21.483  25.207  1.00  0.00     0.261 C 
BRANCH   3   4
ATOM      4  O   UNL A   1      36.739  22.375  24.113  1.00  0.00    -0.459 OA
BRANCH   4   5
ATOM      5  C   UNL A   1      35.666  23.190  24.245  1.00  0.00     0.361 C 
ATOM      6  O   UNL A   1      35.560  24.080  25.082  1.00  0.00    -0.245 OA
BRANCH   5   7
ATOM      7  C   UNL A   1      34.539  22.837  23.285  1.00  0.00     0.387 C 
BRANCH   7   8
ATOM      8  N   UNL A   1      33.230  22.477  23.858  1.00  0.00    -0.308 N 
ATOM      9  H   UNL A   1      33.506  22.723  24.809  1.00  0.00     0.349 HD
BRANCH   8  10
ATOM     10  C   UNL A   1      32.143  23.435  23.960  1.00  0.00     0.354 C 
BRANCH  10  11
ATOM     11  C   UNL A   1      32.207  24.158  25.296  1.00  0.00    -0.047 C 
ATOM     12  C   UNL A   1      32.263  24.778  26.441  1.00  0.00     0.010 C 
ENDBRANCH  10  11
ENDBRANCH   8  10
BRANCH   8  13
ATOM     13  C   UNL A   1      32.911  21.056  23.924  1.00  0.00     0.365 C 
BRANCH  13  14
ATOM     14  C   UNL A   1      33.347  20.351  25.196  1.00  0.00     0.283 C 
ATOM     15  O   UNL A   1      33.279  20.929  26.288  1.00  0.00    -0.268 OA
ATOM     16  N   UNL A   1      33.860  19.068  25.212  1.00  0.00    -0.273 N 
ATOM     17  C   UNL A   1      34.343  18.100  24.377  1.00  0.00     0.321 C 
ATOM     18  H   UNL A   1      33.886  18.739  26.140  1.00  0.00     0.175 HD
ATOM     19  O   UNL A   1      35.423  17.565  24.628  1.00  0.00    -0.248 OA
ATOM     20  N   UNL A   1      33.691  17.704  23.274  1.00  0.00    -0.341 N 
ATOM     21  C   UNL A   1      32.361  17.978  22.802  1.00  0.00     0.144 C 
ATOM     22  H   UNL A   1      34.218  17.122  22.680  1.00  0.00     0.165 HD
ENDBRANCH  13  14
ENDBRANCH   8  13
ENDBRANCH   7   8
ENDBRANCH   5   7
ENDBRANCH   4   5
ENDBRANCH   3   4
ENDBRANCH   2   3
ENDBRANCH   1   2
BRANCH   1  23
ATOM     23  C   UNL A   1      40.543  21.843  26.572  1.00  0.00     0.202 C 
BRANCH  23  24
ATOM     24  C   UNL A   1      41.280  23.189  26.506  1.00  0.00     0.261 C 
BRANCH  24  25
ATOM     25  O   UNL A   1      40.366  24.287  26.313  1.00  0.00    -0.460 OA
BRANCH  25  26
ATOM     26  C   UNL A   1      40.958  25.499  26.140  1.00  0.00     0.338 C 
ATOM     27  O   UNL A   1      41.289  26.012  25.089  1.00  0.00    -0.246 OA
BRANCH  26  28
ATOM     28  C   UNL A   1      40.974  26.229  27.425  1.00  0.00     0.060 A 
ATOM     29  C   UNL A   1      39.936  25.976  28.325  1.00  0.00     0.016 A 
ATOM     30  C   UNL A   1      41.947  27.180  27.730  1.00  0.00     0.016 A 
ATOM     31  C   UNL A   1      39.847  26.705  29.511  1.00  0.00     0.010 A 
ATOM     32  C   UNL A   1      41.902  27.852  28.959  1.00  0.00     0.010 A 
ATOM     33  C   UNL A   1      40.812  27.672  29.831  1.00  0.00    -0.014 A 
BRANCH  33  34
ATOM     34  C   UNL A   1      40.561  28.619  30.958  1.00  0.00     0.031 A 
ATOM     35  C   UNL A   1      41.451  28.557  32.181  1.00  0.00     0.074 A 
ATOM     36  C   UNL A   1      39.618  29.580  30.878  1.00  0.00     0.049 A 
ATOM     37  N   UNL A   1      41.446  29.311  33.250  1.00  0.00    -0.248 NA
ATOM     38  C   UNL A   1      42.476  27.500  32.207  1.00  0.00     0.031 C 
ATOM     39  C   UNL A   1      38.698  29.772  29.757  1.00  0.00     0.029 A 
ATOM     40  N   UNL A   1      39.292  30.590  31.752  1.00  0.00    -0.354 N 
ATOM     41  C   UNL A   1      42.449  28.812  34.074  1.00  0.00     0.074 A 
ATOM     42  C   UNL A   1      43.007  27.656  33.410  1.00  0.00     0.031 C 
ATOM     43  C   UNL A   1      37.937  30.855  29.995  1.00  0.00     0.029 A 
ATOM     44  C   UNL A   1      38.287  31.415  31.300  1.00  0.00     0.049 A 
ATOM     45  H   UNL A   1      39.735  30.713  32.622  1.00  0.00     0.167 HD
ATOM     46  C   UNL A   1      42.893  29.283  35.262  1.00  0.00     0.037 A 
ATOM     47  C   UNL A   1      37.713  32.497  31.867  1.00  0.00     0.037 A 
ATOM     48  C   UNL A   1      42.375  30.456  35.914  1.00  0.00     0.049 A 
ATOM     49  C   UNL A   1      38.197  32.983  33.209  1.00  0.00     0.074 A 
ATOM     50  C   UNL A   1      42.796  31.031  37.100  1.00  0.00     0.029 A 
ATOM     51  N   UNL A   1      41.330  31.233  35.439  1.00  0.00    -0.354 N 
ATOM     52  N   UNL A   1      39.164  32.510  33.959  1.00  0.00    -0.248 NA
ATOM     53  C   UNL A   1      37.517  34.155  33.781  1.00  0.00     0.031 C 
ATOM     54  C   UNL A   1      41.964  32.121  37.375  1.00  0.00     0.029 A 
ATOM     55  C   UNL A   1      41.072  32.265  36.325  1.00  0.00     0.049 A 
ATOM     56  H   UNL A   1      40.846  31.074  34.597  1.00  0.00     0.167 HD
ATOM     57  C   UNL A   1      39.226  33.342  35.074  1.00  0.00     0.074 A 
ATOM     58  C   UNL A   1      38.206  34.353  34.896  1.00  0.00     0.031 C 
ATOM     59  C   UNL A   1      40.058  33.274  36.144  1.00  0.00     0.037 A 
BRANCH  46  60
ATOM     60  C   UNL A   1      43.998  28.527  35.951  1.00  0.00     0.058 A 
ATOM     61  C   UNL A   1      45.347  28.888  35.807  1.00  0.00     0.135 A 
ATOM     62  C   UNL A   1      43.693  27.466  36.820  1.00  0.00     0.135 A 
ATOM     63  F   UNL A   1      45.698  29.878  34.971  1.00  0.00    -0.206 F 
ATOM     64  C   UNL A   1      46.355  28.217  36.492  1.00  0.00     0.059 A 
ATOM     65  C   UNL A   1      44.681  26.803  37.539  1.00  0.00     0.059 A 
ATOM     66  F   UNL A   1      42.419  27.076  36.989  1.00  0.00    -0.206 F 
ATOM     67  C   UNL A   1      46.011  27.181  37.363  1.00  0.00     0.060 A 
BRANCH  67  68
ATOM     68  S   UNL A   1      47.327  26.352  38.278  1.00  0.00     0.124 S 
ATOM     69  O   UNL A   1      47.761  27.409  39.187  1.00  0.00    -0.237 OA
ATOM     70  O   UNL A   1      46.619  25.237  38.897  1.00  0.00    -0.237 OA
ATOM     71  O   UNL A   1      48.286  25.986  37.241  1.00  0.00    -0.744 OA
ENDBRANCH  67  68
ENDBRANCH  46  60
BRANCH  47  72
ATOM     72  C   UNL A   1      36.618  33.214  31.154  1.00  0.00     0.058 A 
ATOM     73  C   UNL A   1      36.886  34.029  30.044  1.00  0.00     0.135 A 
ATOM     74  C   UNL A   1      35.281  33.086  31.560  1.00  0.00     0.135 A 
ATOM     75  F   UNL A   1      38.150  34.202  29.627  1.00  0.00    -0.206 F 
ATOM     76  C   UNL A   1      35.869  34.689  29.360  1.00  0.00     0.059 A 
ATOM     77  C   UNL A   1      34.243  33.714  30.877  1.00  0.00     0.059 A 
ATOM     78  F   UNL A   1      34.970  32.318  32.617  1.00  0.00    -0.206 F 
ATOM     79  C   UNL A   1      34.548  34.516  29.778  1.00  0.00     0.060 A 
BRANCH  79  80
ATOM     80  S   UNL A   1      33.230  35.310  28.833  1.00  0.00     0.124 S 
ATOM     81  O   UNL A   1      32.664  34.180  28.105  1.00  0.00    -0.237 OA
ATOM     82  O   UNL A   1      32.395  35.873  29.890  1.00  0.00    -0.237 OA
ATOM     83  O   UNL A   1      33.943  36.290  28.020  1.00  0.00    -0.744 OA
ENDBRANCH  79  80
ENDBRANCH  47  72
BRANCH  59  84
ATOM     84  C   UNL A   1      39.937  34.338  37.202  1.00  0.00     0.058 A 
ATOM     85  C   UNL A   1      40.666  35.536  37.137  1.00  0.00     0.135 A 
ATOM     86  C   UNL A   1      39.025  34.187  38.260  1.00  0.00     0.135 A 
ATOM     87  F   UNL A   1      41.553  35.734  36.149  1.00  0.00    -0.206 F 
ATOM     88  C   UNL A   1      40.512  36.535  38.094  1.00  0.00     0.059 A 
ATOM     89  C   UNL A   1      38.831  35.185  39.210  1.00  0.00     0.059 A 
ATOM     90  F   UNL A   1      38.289  33.068  38.364  1.00  0.00    -0.206 F 
ATOM     91  C   UNL A   1      39.589  36.351  39.126  1.00  0.00     0.060 A 
BRANCH  91  92
ATOM     92  S   UNL A   1      39.377  37.669  40.341  1.00  0.00     0.124 S 
ATOM     93  O   UNL A   1      40.607  38.434  40.163  1.00  0.00    -0.237 OA
ATOM     94  O   UNL A   1      38.153  38.321  39.884  1.00  0.00    -0.237 OA
ATOM     95  O   UNL A   1      39.262  36.952  41.607  1.00  0.00    -0.744 OA
ENDBRANCH  91  92
ENDBRANCH  59  84
ENDBRANCH  33  34
ENDBRANCH  26  28
ENDBRANCH  25  26
ENDBRANCH  24  25
ENDBRANCH  23  24
ENDBRANCH   1  23
TORSDOF 22
ENDMDL
MODEL 3
REMARK VINA RESULT:      -9.5      1.451      2.654
REMARK SMILES C#CC[N@@H+](CC(=O)NC(=O)NC)CC(=O)OCCOCCOC(=O)c1ccc(-c2c3nc(c(-c4c(F)cc(S(=O)(=O)[O-])cc4F)c4ccc([nH]4)c(-c4c(F)cc(S(=O)(=O)[O-])cc4F)c4nc(c(-c5c(F)cc(S(=O)(=O)[O-])cc5F)c5ccc2[nH]5)C=C4)C=C3)cc1
REMARK SMILES IDX 19 1 18 2 17 3 16 4 14 5 15 6 13 7 4 8 3 10 2 11 1 12 5 13
REMARK SMILES IDX 6 14 7 15 8 16 9 17 10 19 11 20 12 21 20 23 21 24 22 25
REMARK SMILES IDX 23 26 24 27 25 28 26 29 90 30 27 31 89 32 28 33 29 34 30 35
REMARK SMILES IDX 83 36 31 37 88 38 82 39 84 40 32 41 87 42 81 43 80 44 33 46
REMARK SMILES IDX 67 47 46 48 66 49 47 50 50 51 65 52 85 53 48 54 49 55 64 57
REMARK SMILES IDX 86 58 51 59 34 60 35 61 44 62 36 63 37 64 43 65 45 66 38 67
REMARK SMILES IDX 39 68 40 69 41 70 42 71 68 72 69 73 78 74 70 75 71 76 77 77
REMARK SMILES IDX 79 78 72 79 73 80 74 81 75 82 76 83 52 84 53 85 62 86 54 87
REMARK SMILES IDX 55 88 61 89 63 90 56 91 57 92 58 93 59 94 60 95
REMARK H PARENT 4 9 8 18 11 22 84 45 50 56
REMARK Flexibility Score: inf
ROOT
ATOM      1  O   UNL A   1      38.738  22.254  26.242  1.00  0.00    -0.374 OA
ENDROOT
BRANCH   1   2
ATOM      2  C   UNL A   1      38.109  21.311  25.369  1.00  0.00     0.202 C 
BRANCH   2   3
ATOM      3  C   UNL A   1      36.588  21.435  25.270  1.00  0.00     0.261 C 
BRANCH   3   4
ATOM      4  O   UNL A   1      36.207  22.806  25.048  1.00  0.00    -0.459 OA
BRANCH   4   5
ATOM      5  C   UNL A   1      35.266  23.325  25.872  1.00  0.00     0.361 C 
ATOM      6  O   UNL A   1      34.974  22.874  26.974  1.00  0.00    -0.245 OA
BRANCH   5   7
ATOM      7  C   UNL A   1      34.530  24.504  25.253  1.00  0.00     0.387 C 
BRANCH   7   8
ATOM      8  N   UNL A   1      33.142  24.753  25.680  1.00  0.00    -0.308 N 
ATOM      9  H   UNL A   1      33.299  24.397  26.623  1.00  0.00     0.349 HD
BRANCH   8  10
ATOM     10  C   UNL A   1      32.728  26.018  26.261  1.00  0.00     0.354 C 
BRANCH  10  11
ATOM     11  C   UNL A   1      33.304  27.174  25.460  1.00  0.00    -0.047 C 
ATOM     12  C   UNL A   1      33.799  28.166  24.772  1.00  0.00     0.010 C 
ENDBRANCH  10  11
ENDBRANCH   8  10
BRANCH   8  13
ATOM     13  C   UNL A   1      32.118  23.877  25.123  1.00  0.00     0.365 C 
BRANCH  13  14
ATOM     14  C   UNL A   1      31.598  22.805  26.065  1.00  0.00     0.283 C 
ATOM     15  O   UNL A   1      30.912  23.112  27.047  1.00  0.00    -0.268 OA
ATOM     16  N   UNL A   1      31.877  21.460  25.906  1.00  0.00    -0.273 N 
ATOM     17  C   UNL A   1      32.692  20.613  25.210  1.00  0.00     0.321 C 
ATOM     18  H   UNL A   1      31.288  20.934  26.495  1.00  0.00     0.175 HD
ATOM     19  O   UNL A   1      33.325  19.747  25.814  1.00  0.00    -0.248 OA
ATOM     20  N   UNL A   1      32.843  20.684  23.879  1.00  0.00    -0.341 N 
ATOM     21  C   UNL A   1      32.131  21.429  22.877  1.00  0.00     0.144 C 
ATOM     22  H   UNL A   1      33.573  20.127  23.525  1.00  0.00     0.165 HD
ENDBRANCH  13  14
ENDBRANCH   8  13
ENDBRANCH   7   8
ENDBRANCH   5   7
ENDBRANCH   4   5
ENDBRANCH   3   4
ENDBRANCH   2   3
ENDBRANCH   1   2
BRANCH   1  23
ATOM     23  C   UNL A   1      40.114  22.008  26.525  1.00  0.00     0.202 C 
BRANCH  23  24
ATOM     24  C   UNL A   1      41.046  23.215  26.342  1.00  0.00     0.261 C 
BRANCH  24  25
ATOM     25  O   UNL A   1      40.304  24.430  26.110  1.00  0.00    -0.460 OA
BRANCH  25  26
ATOM     26  C   UNL A   1      41.064  25.552  26.007  1.00  0.00     0.338 C 
ATOM     27  O   UNL A   1      41.549  26.020  24.995  1.00  0.00    -0.246 OA
BRANCH  26  28
ATOM     28  C   UNL A   1      41.065  26.270  27.299  1.00  0.00     0.060 A 
ATOM     29  C   UNL A   1      40.030  25.989  28.195  1.00  0.00     0.016 A 
ATOM     30  C   UNL A   1      42.022  27.233  27.616  1.00  0.00     0.016 A 
ATOM     31  C   UNL A   1      39.927  26.705  29.388  1.00  0.00     0.010 A 
ATOM     32  C   UNL A   1      41.963  27.891  28.852  1.00  0.00     0.010 A 
ATOM     33  C   UNL A   1      40.875  27.685  29.719  1.00  0.00    -0.014 A 
BRANCH  33  34
ATOM     34  C   UNL A   1      40.606  28.615  30.856  1.00  0.00     0.031 A 
ATOM     35  C   UNL A   1      41.486  28.545  32.085  1.00  0.00     0.074 A 
ATOM     36  C   UNL A   1      39.655  29.568  30.780  1.00  0.00     0.049 A 
ATOM     37  N   UNL A   1      41.465  29.286  33.164  1.00  0.00    -0.248 NA
ATOM     38  C   UNL A   1      42.521  27.497  32.108  1.00  0.00     0.031 C 
ATOM     39  C   UNL A   1      38.743  29.766  29.653  1.00  0.00     0.029 A 
ATOM     40  N   UNL A   1      39.313  30.565  31.663  1.00  0.00    -0.354 N 
ATOM     41  C   UNL A   1      42.466  28.786  33.990  1.00  0.00     0.074 A 
ATOM     42  C   UNL A   1      43.040  27.643  33.317  1.00  0.00     0.031 C 
ATOM     43  C   UNL A   1      37.971  30.840  29.898  1.00  0.00     0.029 A 
ATOM     44  C   UNL A   1      38.304  31.387  31.213  1.00  0.00     0.049 A 
ATOM     45  H   UNL A   1      39.748  30.681  32.538  1.00  0.00     0.167 HD
ATOM     46  C   UNL A   1      42.896  29.246  35.188  1.00  0.00     0.037 A 
ATOM     47  C   UNL A   1      37.716  32.457  31.788  1.00  0.00     0.037 A 
ATOM     48  C   UNL A   1      42.362  30.407  35.849  1.00  0.00     0.049 A 
ATOM     49  C   UNL A   1      38.185  32.931  33.140  1.00  0.00     0.074 A 
ATOM     50  C   UNL A   1      42.768  30.971  37.045  1.00  0.00     0.029 A 
ATOM     51  N   UNL A   1      41.315  31.181  35.375  1.00  0.00    -0.354 N 
ATOM     52  N   UNL A   1      39.150  32.457  33.892  1.00  0.00    -0.248 NA
ATOM     53  C   UNL A   1      37.490  34.090  33.720  1.00  0.00     0.031 C 
ATOM     54  C   UNL A   1      41.924  32.050  37.326  1.00  0.00     0.029 A 
ATOM     55  C   UNL A   1      41.040  32.200  36.271  1.00  0.00     0.049 A 
ATOM     56  H   UNL A   1      40.839  31.028  34.527  1.00  0.00     0.167 HD
ATOM     57  C   UNL A   1      39.195  33.275  35.018  1.00  0.00     0.074 A 
ATOM     58  C   UNL A   1      38.168  34.280  34.844  1.00  0.00     0.031 C 
ATOM     59  C   UNL A   1      40.019  33.202  36.094  1.00  0.00     0.037 A 
BRANCH  46  60
ATOM     60  C   UNL A   1      44.002  28.492  35.877  1.00  0.00     0.058 A 
ATOM     61  C   UNL A   1      43.742  27.399  36.719  1.00  0.00     0.135 A 
ATOM     62  C   UNL A   1      45.344  28.830  35.636  1.00  0.00     0.135 A 
ATOM     63  F   UNL A   1      42.478  27.047  37.002  1.00  0.00    -0.206 F 
ATOM     64  C   UNL A   1      44.774  26.674  37.307  1.00  0.00     0.059 A 
ATOM     65  C   UNL A   1      46.391  28.100  36.188  1.00  0.00     0.059 A 
ATOM     66  F   UNL A   1      45.648  29.871  34.845  1.00  0.00    -0.206 F 
ATOM     67  C   UNL A   1      46.097  27.027  37.028  1.00  0.00     0.060 A 
BRANCH  67  68
ATOM     68  S   UNL A   1      47.423  26.048  37.762  1.00  0.00     0.124 S 
ATOM     69  O   UNL A   1      48.599  26.616  37.112  1.00  0.00    -0.237 OA
ATOM     70  O   UNL A   1      47.278  26.347  39.183  1.00  0.00    -0.237 OA
ATOM     71  O   UNL A   1      47.092  24.681  37.374  1.00  0.00    -0.744 OA
ENDBRANCH  67  68
ENDBRANCH  46  60
BRANCH  47  72
ATOM     72  C   UNL A   1      36.621  33.173  31.075  1.00  0.00     0.058 A 
ATOM     73  C   UNL A   1      36.897  34.051  30.015  1.00  0.00     0.135 A 
ATOM     74  C   UNL A   1      35.277  32.982  31.428  1.00  0.00     0.135 A 
ATOM     75  F   UNL A   1      38.167  34.286  29.651  1.00  0.00    -0.206 F 
ATOM     76  C   UNL A   1      35.880  34.711  29.331  1.00  0.00     0.059 A 
ATOM     77  C   UNL A   1      34.241  33.609  30.742  1.00  0.00     0.059 A 
ATOM     78  F   UNL A   1      34.958  32.151  32.434  1.00  0.00    -0.206 F 
ATOM     79  C   UNL A   1      34.553  34.474  29.695  1.00  0.00     0.060 A 
BRANCH  79  80
ATOM     80  S   UNL A   1      33.240  35.273  28.746  1.00  0.00     0.124 S 
ATOM     81  O   UNL A   1      32.682  34.146  28.007  1.00  0.00    -0.237 OA
ATOM     82  O   UNL A   1      32.397  35.826  29.801  1.00  0.00    -0.237 OA
ATOM     83  O   UNL A   1      33.957  36.259  27.944  1.00  0.00    -0.744 OA
ENDBRANCH  79  80
ENDBRANCH  47  72
BRANCH  59  84
ATOM     84  C   UNL A   1      39.879  34.252  37.164  1.00  0.00     0.058 A 
ATOM     85  C   UNL A   1      40.441  35.531  37.026  1.00  0.00     0.135 A 
ATOM     86  C   UNL A   1      39.112  33.997  38.313  1.00  0.00     0.135 A 
ATOM     87  F   UNL A   1      41.186  35.830  35.949  1.00  0.00    -0.206 F 
ATOM     88  C   UNL A   1      40.267  36.511  37.999  1.00  0.00     0.059 A 
ATOM     89  C   UNL A   1      38.898  34.972  39.283  1.00  0.00     0.059 A 
ATOM     90  F   UNL A   1      38.538  32.796  38.490  1.00  0.00    -0.206 F 
ATOM     91  C   UNL A   1      39.490  36.222  39.123  1.00  0.00     0.060 A 
BRANCH  91  92
ATOM     92  S   UNL A   1      39.246  37.514  40.360  1.00  0.00     0.124 S 
ATOM     93  O   UNL A   1      38.607  36.769  41.441  1.00  0.00    -0.237 OA
ATOM     94  O   UNL A   1      40.612  37.961  40.619  1.00  0.00    -0.237 OA
ATOM     95  O   UNL A   1      38.395  38.484  39.679  1.00  0.00    -0.744 OA
ENDBRANCH  91  92
ENDBRANCH  59  84
ENDBRANCH  33  34
ENDBRANCH  26  28
ENDBRANCH  25  26
ENDBRANCH  24  25
ENDBRANCH  23  24
ENDBRANCH   1  23
TORSDOF 22
ENDMDL
