MODEL 1
REMARK VINA RESULT:      -9.5      0.000      0.000
REMARK SMILES CNC(=O)c1ccc(N(CCC(=O)OCCOCCOC(=O)c2ccc(-c3c4nc(c(-c5c(F)cc(S(=O)(=O)[O-])cc5F)c5ccc([nH]5)c(-c5c(F)cc(S(=O)(=O)[O-])cc5F)c5nc(c(-c6c(F)cc(S(=O)(=O)[O-])cc6F)c6ccc3[nH]6)C=C5)C=C4)cc2)C2CC2)nn1
REMARK SMILES IDX 16 1 15 2 14 3 12 4 13 5 11 6 10 7 9 8 8 9 5 10 6 11 93 12
REMARK SMILES IDX 7 13 92 14 3 15 1 16 2 17 4 19 89 20 90 21 91 22 17 23 18 24
REMARK SMILES IDX 19 25 20 26 21 27 22 28 23 29 24 30 88 31 25 32 87 33 26 34
REMARK SMILES IDX 27 35 28 36 81 37 29 38 86 39 80 40 82 41 30 42 85 43 79 44
REMARK SMILES IDX 78 45 31 47 65 48 44 49 64 50 45 51 48 52 63 53 83 54 46 55
REMARK SMILES IDX 47 56 62 58 84 59 49 60 32 61 33 62 42 63 34 64 35 65 41 66
REMARK SMILES IDX 43 67 36 68 37 69 38 70 39 71 40 72 66 73 67 74 76 75 68 76
REMARK SMILES IDX 69 77 75 78 77 79 70 80 71 81 72 82 73 83 74 84 50 85 51 86
REMARK SMILES IDX 60 87 52 88 53 89 59 90 61 91 54 92 55 93 56 94 57 95 58 96
REMARK H PARENT 2 18 82 46 48 57
REMARK Flexibility Score: inf
ROOT
ATOM      1  C   UNL A   1      40.424  23.154  26.807  1.00  0.00     0.202 C 
ENDROOT
BRANCH   1   2
ATOM      2  C   UNL A   1      38.922  23.300  26.534  1.00  0.00     0.261 C 
BRANCH   2   3
ATOM      3  O   UNL A   1      38.405  22.208  25.744  1.00  0.00    -0.463 OA
BRANCH   3   4
ATOM      4  C   UNL A   1      37.378  22.466  24.895  1.00  0.00     0.307 C 
ATOM      5  O   UNL A   1      37.250  21.984  23.777  1.00  0.00    -0.252 OA
BRANCH   4   6
ATOM      6  C   UNL A   1      36.386  23.429  25.503  1.00  0.00     0.144 C 
BRANCH   6   7
ATOM      7  C   UNL A   1      35.045  23.435  24.779  1.00  0.00     0.130 C 
BRANCH   7   8
ATOM      8  N   UNL A   1      34.026  22.611  25.468  1.00  0.00    -0.352 N 
BRANCH   8   9
ATOM      9  C   UNL A   1      33.803  21.311  24.964  1.00  0.00     0.151 A 
ATOM     10  C   UNL A   1      33.364  18.719  24.071  1.00  0.00     0.150 A 
ATOM     11  C   UNL A   1      32.356  19.643  23.945  1.00  0.00     0.040 A 
ATOM     12  N   UNL A   1      34.538  19.040  24.642  1.00  0.00    -0.143 NA
ATOM     13  C   UNL A   1      32.613  20.947  24.341  1.00  0.00     0.051 A 
ATOM     14  N   UNL A   1      34.743  20.344  25.092  1.00  0.00    -0.132 NA
BRANCH  10  15
ATOM     15  C   UNL A   1      33.200  17.358  23.512  1.00  0.00     0.271 C 
ATOM     16  C   UNL A   1      32.540  16.375  25.771  1.00  0.00     0.143 C 
ATOM     17  N   UNL A   1      32.905  16.313  24.368  1.00  0.00    -0.354 N 
ATOM     18  H   UNL A   1      32.950  15.412  23.976  1.00  0.00     0.163 HD
ATOM     19  O   UNL A   1      33.346  17.146  22.312  1.00  0.00    -0.267 OA
ENDBRANCH  10  15
ENDBRANCH   8   9
BRANCH   8  20
ATOM     20  C   UNL A   1      33.565  23.135  26.763  1.00  0.00     0.084 C 
ATOM     21  C   UNL A   1      32.154  23.427  27.168  1.00  0.00     0.027 C 
ATOM     22  C   UNL A   1      32.941  22.329  27.847  1.00  0.00     0.027 C 
ENDBRANCH   8  20
ENDBRANCH   7   8
ENDBRANCH   6   7
ENDBRANCH   4   6
ENDBRANCH   3   4
ENDBRANCH   2   3
ENDBRANCH   1   2
BRANCH   1  23
ATOM     23  O   UNL A   1      41.161  24.355  26.571  1.00  0.00    -0.374 OA
BRANCH  23  24
ATOM     24  C   UNL A   1      42.271  24.233  25.687  1.00  0.00     0.202 C 
BRANCH  24  25
ATOM     25  C   UNL A   1      42.868  25.578  25.247  1.00  0.00     0.261 C 
BRANCH  25  26
ATOM     26  O   UNL A   1      44.232  25.739  25.684  1.00  0.00    -0.460 OA
BRANCH  26  27
ATOM     27  C   UNL A   1      44.513  25.299  26.938  1.00  0.00     0.338 C 
ATOM     28  O   UNL A   1      45.244  24.373  27.247  1.00  0.00    -0.246 OA
BRANCH  27  29
ATOM     29  C   UNL A   1      43.920  26.233  27.922  1.00  0.00     0.060 A 
ATOM     30  C   UNL A   1      44.223  27.593  27.817  1.00  0.00     0.016 A 
ATOM     31  C   UNL A   1      43.058  25.789  28.926  1.00  0.00     0.016 A 
ATOM     32  C   UNL A   1      43.660  28.508  28.714  1.00  0.00     0.010 A 
ATOM     33  C   UNL A   1      42.439  26.714  29.776  1.00  0.00     0.010 A 
ATOM     34  C   UNL A   1      42.765  28.080  29.707  1.00  0.00    -0.014 A 
BRANCH  34  35
ATOM     35  C   UNL A   1      42.301  29.018  30.770  1.00  0.00     0.031 A 
ATOM     36  C   UNL A   1      43.115  29.144  32.037  1.00  0.00     0.074 A 
ATOM     37  C   UNL A   1      41.186  29.763  30.627  1.00  0.00     0.049 A 
ATOM     38  N   UNL A   1      42.883  29.861  33.106  1.00  0.00    -0.248 NA
ATOM     39  C   UNL A   1      44.342  28.336  32.114  1.00  0.00     0.031 C 
ATOM     40  C   UNL A   1      40.290  29.744  29.470  1.00  0.00     0.029 A 
ATOM     41  N   UNL A   1      40.617  30.689  31.470  1.00  0.00    -0.354 N 
ATOM     42  C   UNL A   1      43.917  29.569  33.988  1.00  0.00     0.074 A 
ATOM     43  C   UNL A   1      44.744  28.567  33.354  1.00  0.00     0.031 C 
ATOM     44  C   UNL A   1      39.299  30.632  29.667  1.00  0.00     0.029 A 
ATOM     45  C   UNL A   1      39.469  31.265  30.974  1.00  0.00     0.049 A 
ATOM     46  H   UNL A   1      40.997  30.920  32.348  1.00  0.00     0.167 HD
ATOM     47  C   UNL A   1      44.185  30.105  35.202  1.00  0.00     0.037 A 
ATOM     48  C   UNL A   1      38.649  32.192  31.512  1.00  0.00     0.037 A 
ATOM     49  C   UNL A   1      43.408  31.143  35.821  1.00  0.00     0.049 A 
ATOM     50  C   UNL A   1      38.958  32.771  32.870  1.00  0.00     0.074 A 
ATOM     51  C   UNL A   1      43.638  31.789  37.023  1.00  0.00     0.029 A 
ATOM     52  N   UNL A   1      42.255  31.693  35.285  1.00  0.00    -0.354 N 
ATOM     53  N   UNL A   1      39.966  32.511  33.669  1.00  0.00    -0.248 NA
ATOM     54  C   UNL A   1      38.019  33.773  33.401  1.00  0.00     0.031 C 
ATOM     55  C   UNL A   1      42.603  32.706  37.231  1.00  0.00     0.029 A 
ATOM     56  C   UNL A   1      41.751  32.659  36.140  1.00  0.00     0.049 A 
ATOM     57  H   UNL A   1      41.853  31.437  34.423  1.00  0.00     0.167 HD
ATOM     58  C   UNL A   1      39.793  33.331  34.780  1.00  0.00     0.074 A 
ATOM     59  C   UNL A   1      38.594  34.105  34.549  1.00  0.00     0.031 C 
ATOM     60  C   UNL A   1      40.561  33.432  35.895  1.00  0.00     0.037 A 
BRANCH  47  61
ATOM     61  C   UNL A   1      45.383  29.575  35.940  1.00  0.00     0.058 A 
ATOM     62  C   UNL A   1      45.303  28.429  36.748  1.00  0.00     0.135 A 
ATOM     63  C   UNL A   1      46.626  30.218  35.833  1.00  0.00     0.135 A 
ATOM     64  F   UNL A   1      44.132  27.790  36.899  1.00  0.00    -0.206 F 
ATOM     65  C   UNL A   1      46.405  27.962  37.455  1.00  0.00     0.059 A 
ATOM     66  C   UNL A   1      47.749  29.751  36.509  1.00  0.00     0.059 A 
ATOM     67  F   UNL A   1      46.755  31.319  35.075  1.00  0.00    -0.206 F 
ATOM     68  C   UNL A   1      47.622  28.632  37.332  1.00  0.00     0.060 A 
BRANCH  68  69
ATOM     69  S   UNL A   1      49.040  28.020  38.265  1.00  0.00     0.124 S 
ATOM     70  O   UNL A   1      48.401  27.567  39.497  1.00  0.00    -0.237 OA
ATOM     71  O   UNL A   1      49.558  26.969  37.395  1.00  0.00    -0.237 OA
ATOM     72  O   UNL A   1      49.893  29.197  38.396  1.00  0.00    -0.744 OA
ENDBRANCH  68  69
ENDBRANCH  47  61
BRANCH  48  73
ATOM     73  C   UNL A   1      37.443  32.649  30.766  1.00  0.00     0.058 A 
ATOM     74  C   UNL A   1      37.533  33.655  29.793  1.00  0.00     0.135 A 
ATOM     75  C   UNL A   1      36.176  32.106  31.030  1.00  0.00     0.135 A 
ATOM     76  F   UNL A   1      38.720  34.216  29.516  1.00  0.00    -0.206 F 
ATOM     77  C   UNL A   1      36.408  34.121  29.119  1.00  0.00     0.059 A 
ATOM     78  C   UNL A   1      35.040  32.539  30.353  1.00  0.00     0.059 A 
ATOM     79  F   UNL A   1      36.037  31.135  31.945  1.00  0.00    -0.206 F 
ATOM     80  C   UNL A   1      35.164  33.555  29.405  1.00  0.00     0.060 A 
BRANCH  80  81
ATOM     81  S   UNL A   1      33.715  34.131  28.493  1.00  0.00     0.124 S 
ATOM     82  O   UNL A   1      32.847  34.579  29.576  1.00  0.00    -0.237 OA
ATOM     83  O   UNL A   1      34.281  35.180  27.651  1.00  0.00    -0.237 OA
ATOM     84  O   UNL A   1      33.275  32.936  27.781  1.00  0.00    -0.744 OA
ENDBRANCH  80  81
ENDBRANCH  48  73
BRANCH  60  85
ATOM     85  C   UNL A   1      40.148  34.427  36.945  1.00  0.00     0.058 A 
ATOM     86  C   UNL A   1      39.327  34.060  38.022  1.00  0.00     0.135 A 
ATOM     87  C   UNL A   1      40.640  35.742  36.912  1.00  0.00     0.135 A 
ATOM     88  F   UNL A   1      38.827  32.816  38.098  1.00  0.00    -0.206 F 
ATOM     89  C   UNL A   1      38.995  34.966  39.024  1.00  0.00     0.059 A 
ATOM     90  C   UNL A   1      40.341  36.659  37.917  1.00  0.00     0.059 A 
ATOM     91  F   UNL A   1      41.439  36.140  35.910  1.00  0.00    -0.206 F 
ATOM     92  C   UNL A   1      39.510  36.263  38.964  1.00  0.00     0.060 A 
BRANCH  92  93
ATOM     93  S   UNL A   1      39.108  37.418  40.295  1.00  0.00     0.124 S 
ATOM     94  O   UNL A   1      40.431  37.910  40.664  1.00  0.00    -0.237 OA
ATOM     95  O   UNL A   1      38.238  38.378  39.623  1.00  0.00    -0.237 OA
ATOM     96  O   UNL A   1      38.450  36.574  41.288  1.00  0.00    -0.744 OA
ENDBRANCH  92  93
ENDBRANCH  60  85
ENDBRANCH  34  35
ENDBRANCH  27  29
ENDBRANCH  26  27
ENDBRANCH  25  26
ENDBRANCH  24  25
ENDBRANCH  23  24
ENDBRANCH   1  23
TORSDOF 22
ENDMDL
MODEL 2
REMARK VINA RESULT:      -9.1      1.553      2.870
REMARK SMILES CNC(=O)c1ccc(N(CCC(=O)OCCOCCOC(=O)c2ccc(-c3c4nc(c(-c5c(F)cc(S(=O)(=O)[O-])cc5F)c5ccc([nH]5)c(-c5c(F)cc(S(=O)(=O)[O-])cc5F)c5nc(c(-c6c(F)cc(S(=O)(=O)[O-])cc6F)c6ccc3[nH]6)C=C5)C=C4)cc2)C2CC2)nn1
REMARK SMILES IDX 16 1 15 2 14 3 12 4 13 5 11 6 10 7 9 8 8 9 5 10 6 11 93 12
REMARK SMILES IDX 7 13 92 14 3 15 1 16 2 17 4 19 89 20 90 21 91 22 17 23 18 24
REMARK SMILES IDX 19 25 20 26 21 27 22 28 23 29 24 30 88 31 25 32 87 33 26 34
REMARK SMILES IDX 27 35 28 36 81 37 29 38 86 39 80 40 82 41 30 42 85 43 79 44
REMARK SMILES IDX 78 45 31 47 65 48 44 49 64 50 45 51 48 52 63 53 83 54 46 55
REMARK SMILES IDX 47 56 62 58 84 59 49 60 32 61 33 62 42 63 34 64 35 65 41 66
REMARK SMILES IDX 43 67 36 68 37 69 38 70 39 71 40 72 66 73 67 74 76 75 68 76
REMARK SMILES IDX 69 77 75 78 77 79 70 80 71 81 72 82 73 83 74 84 50 85 51 86
REMARK SMILES IDX 60 87 52 88 53 89 59 90 61 91 54 92 55 93 56 94 57 95 58 96
REMARK H PARENT 2 18 82 46 48 57
REMARK Flexibility Score: inf
ROOT
ATOM      1  C   UNL A   1      40.015  25.327  27.042  1.00  0.00     0.202 C 
ENDROOT
BRANCH   1   2
ATOM      2  C   UNL A   1      38.931  24.295  26.711  1.00  0.00     0.261 C 
BRANCH   2   3
ATOM      3  O   UNL A   1      39.492  23.024  26.319  1.00  0.00    -0.463 OA
BRANCH   3   4
ATOM      4  C   UNL A   1      38.639  22.045  25.928  1.00  0.00     0.307 C 
ATOM      5  O   UNL A   1      38.957  20.888  25.684  1.00  0.00    -0.252 OA
BRANCH   4   6
ATOM      6  C   UNL A   1      37.219  22.552  25.835  1.00  0.00     0.144 C 
BRANCH   6   7
ATOM      7  C   UNL A   1      36.539  22.172  24.525  1.00  0.00     0.130 C 
BRANCH   7   8
ATOM      8  N   UNL A   1      35.077  22.406  24.558  1.00  0.00    -0.352 N 
BRANCH   8   9
ATOM      9  C   UNL A   1      34.607  23.620  24.011  1.00  0.00     0.151 A 
ATOM     10  C   UNL A   1      33.597  25.958  22.907  1.00  0.00     0.150 A 
ATOM     11  C   UNL A   1      33.720  25.869  24.272  1.00  0.00     0.040 A 
ATOM     12  N   UNL A   1      33.927  24.929  22.107  1.00  0.00    -0.143 NA
ATOM     13  C   UNL A   1      34.282  24.717  24.803  1.00  0.00     0.051 A 
ATOM     14  N   UNL A   1      34.428  23.758  22.675  1.00  0.00    -0.132 NA
BRANCH  10  15
ATOM     15  C   UNL A   1      33.159  27.226  22.280  1.00  0.00     0.271 C 
ATOM     16  C   UNL A   1      30.726  26.863  22.949  1.00  0.00     0.143 C 
ATOM     17  N   UNL A   1      31.813  27.535  22.262  1.00  0.00    -0.354 N 
ATOM     18  H   UNL A   1      31.557  28.310  21.711  1.00  0.00     0.163 HD
ATOM     19  O   UNL A   1      33.971  27.987  21.761  1.00  0.00    -0.267 OA
ENDBRANCH  10  15
ENDBRANCH   8   9
BRANCH   8  20
ATOM     20  C   UNL A   1      34.261  21.231  24.901  1.00  0.00     0.084 C 
ATOM     21  C   UNL A   1      33.416  21.043  26.123  1.00  0.00     0.027 C 
ATOM     22  C   UNL A   1      32.783  21.133  24.752  1.00  0.00     0.027 C 
ENDBRANCH   8  20
ENDBRANCH   7   8
ENDBRANCH   6   7
ENDBRANCH   4   6
ENDBRANCH   3   4
ENDBRANCH   2   3
ENDBRANCH   1   2
BRANCH   1  23
ATOM     23  O   UNL A   1      40.624  25.900  25.883  1.00  0.00    -0.374 OA
BRANCH  23  24
ATOM     24  C   UNL A   1      41.888  25.352  25.517  1.00  0.00     0.202 C 
BRANCH  24  25
ATOM     25  C   UNL A   1      42.949  26.408  25.175  1.00  0.00     0.261 C 
BRANCH  25  26
ATOM     26  O   UNL A   1      44.278  25.983  25.533  1.00  0.00    -0.460 OA
BRANCH  26  27
ATOM     27  C   UNL A   1      44.416  25.427  26.764  1.00  0.00     0.338 C 
ATOM     28  O   UNL A   1      45.038  24.419  27.052  1.00  0.00    -0.246 OA
BRANCH  27  29
ATOM     29  C   UNL A   1      43.823  26.334  27.774  1.00  0.00     0.060 A 
ATOM     30  C   UNL A   1      44.044  27.707  27.647  1.00  0.00     0.016 A 
ATOM     31  C   UNL A   1      43.038  25.850  28.822  1.00  0.00     0.016 A 
ATOM     32  C   UNL A   1      43.477  28.597  28.567  1.00  0.00     0.010 A 
ATOM     33  C   UNL A   1      42.413  26.746  29.698  1.00  0.00     0.010 A 
ATOM     34  C   UNL A   1      42.659  28.128  29.606  1.00  0.00    -0.014 A 
BRANCH  34  35
ATOM     35  C   UNL A   1      42.198  29.046  30.687  1.00  0.00     0.031 A 
ATOM     36  C   UNL A   1      43.016  29.150  31.954  1.00  0.00     0.074 A 
ATOM     37  C   UNL A   1      41.082  29.794  30.561  1.00  0.00     0.049 A 
ATOM     38  N   UNL A   1      42.787  29.847  33.037  1.00  0.00    -0.248 NA
ATOM     39  C   UNL A   1      44.244  28.340  32.013  1.00  0.00     0.031 C 
ATOM     40  C   UNL A   1      40.183  29.796  29.407  1.00  0.00     0.029 A 
ATOM     41  N   UNL A   1      40.516  30.705  31.423  1.00  0.00    -0.354 N 
ATOM     42  C   UNL A   1      43.824  29.539  33.910  1.00  0.00     0.074 A 
ATOM     43  C   UNL A   1      44.649  28.549  33.255  1.00  0.00     0.031 C 
ATOM     44  C   UNL A   1      39.193  30.679  29.623  1.00  0.00     0.029 A 
ATOM     45  C   UNL A   1      39.367  31.289  30.941  1.00  0.00     0.049 A 
ATOM     46  H   UNL A   1      40.899  30.920  32.303  1.00  0.00     0.167 HD
ATOM     47  C   UNL A   1      44.096  30.053  35.133  1.00  0.00     0.037 A 
ATOM     48  C   UNL A   1      38.548  32.206  31.498  1.00  0.00     0.037 A 
ATOM     49  C   UNL A   1      43.320  31.080  35.773  1.00  0.00     0.049 A 
ATOM     50  C   UNL A   1      38.861  32.761  32.865  1.00  0.00     0.074 A 
ATOM     51  C   UNL A   1      43.554  31.705  36.985  1.00  0.00     0.029 A 
ATOM     52  N   UNL A   1      42.166  31.640  35.250  1.00  0.00    -0.354 N 
ATOM     53  N   UNL A   1      39.872  32.487  33.656  1.00  0.00    -0.248 NA
ATOM     54  C   UNL A   1      37.924  33.753  33.416  1.00  0.00     0.031 C 
ATOM     55  C   UNL A   1      42.520  32.618  37.213  1.00  0.00     0.029 A 
ATOM     56  C   UNL A   1      41.664  32.590  36.123  1.00  0.00     0.049 A 
ATOM     57  H   UNL A   1      41.762  31.399  34.385  1.00  0.00     0.167 HD
ATOM     58  C   UNL A   1      39.703  33.287  34.782  1.00  0.00     0.074 A 
ATOM     59  C   UNL A   1      38.502  34.065  34.568  1.00  0.00     0.031 C 
ATOM     60  C   UNL A   1      40.473  33.367  35.896  1.00  0.00     0.037 A 
BRANCH  47  61
ATOM     61  C   UNL A   1      45.295  29.511  35.857  1.00  0.00     0.058 A 
ATOM     62  C   UNL A   1      45.195  28.420  36.736  1.00  0.00     0.135 A 
ATOM     63  C   UNL A   1      46.562  30.085  35.666  1.00  0.00     0.135 A 
ATOM     64  F   UNL A   1      44.002  27.848  36.968  1.00  0.00    -0.206 F 
ATOM     65  C   UNL A   1      46.300  27.942  37.429  1.00  0.00     0.059 A 
ATOM     66  C   UNL A   1      47.688  29.605  36.328  1.00  0.00     0.059 A 
ATOM     67  F   UNL A   1      46.712  31.132  34.839  1.00  0.00    -0.206 F 
ATOM     68  C   UNL A   1      47.542  28.544  37.222  1.00  0.00     0.060 A 
BRANCH  68  69
ATOM     69  S   UNL A   1      48.965  27.920  38.138  1.00  0.00     0.124 S 
ATOM     70  O   UNL A   1      50.001  27.939  37.109  1.00  0.00    -0.237 OA
ATOM     71  O   UNL A   1      49.111  28.907  39.203  1.00  0.00    -0.237 OA
ATOM     72  O   UNL A   1      48.535  26.594  38.571  1.00  0.00    -0.744 OA
ENDBRANCH  68  69
ENDBRANCH  47  61
BRANCH  48  73
ATOM     73  C   UNL A   1      37.340  32.676  30.764  1.00  0.00     0.058 A 
ATOM     74  C   UNL A   1      37.412  33.750  29.864  1.00  0.00     0.135 A 
ATOM     75  C   UNL A   1      36.087  32.077  30.967  1.00  0.00     0.135 A 
ATOM     76  F   UNL A   1      38.585  34.365  29.648  1.00  0.00    -0.206 F 
ATOM     77  C   UNL A   1      36.284  34.227  29.203  1.00  0.00     0.059 A 
ATOM     78  C   UNL A   1      34.948  32.521  30.301  1.00  0.00     0.059 A 
ATOM     79  F   UNL A   1      35.965  31.041  31.810  1.00  0.00    -0.206 F 
ATOM     80  C   UNL A   1      35.055  33.604  29.428  1.00  0.00     0.060 A 
BRANCH  80  81
ATOM     81  S   UNL A   1      33.602  34.197  28.532  1.00  0.00     0.124 S 
ATOM     82  O   UNL A   1      33.166  32.985  27.848  1.00  0.00    -0.237 OA
ATOM     83  O   UNL A   1      32.745  34.664  29.616  1.00  0.00    -0.237 OA
ATOM     84  O   UNL A   1      34.146  35.246  27.676  1.00  0.00    -0.744 OA
ENDBRANCH  80  81
ENDBRANCH  48  73
BRANCH  60  85
ATOM     85  C   UNL A   1      40.063  34.343  36.965  1.00  0.00     0.058 A 
ATOM     86  C   UNL A   1      39.312  33.939  38.079  1.00  0.00     0.135 A 
ATOM     87  C   UNL A   1      40.491  35.680  36.911  1.00  0.00     0.135 A 
ATOM     88  F   UNL A   1      38.875  32.674  38.177  1.00  0.00    -0.206 F 
ATOM     89  C   UNL A   1      38.985  34.831  39.097  1.00  0.00     0.059 A 
ATOM     90  C   UNL A   1      40.196  36.583  37.929  1.00  0.00     0.059 A 
ATOM     91  F   UNL A   1      41.223  36.114  35.873  1.00  0.00    -0.206 F 
ATOM     92  C   UNL A   1      39.435  36.150  39.013  1.00  0.00     0.060 A 
BRANCH  92  93
ATOM     93  S   UNL A   1      39.042  37.286  40.362  1.00  0.00     0.124 S 
ATOM     94  O   UNL A   1      38.410  38.387  39.643  1.00  0.00    -0.237 OA
ATOM     95  O   UNL A   1      38.156  36.483  41.199  1.00  0.00    -0.237 OA
ATOM     96  O   UNL A   1      40.347  37.583  40.946  1.00  0.00    -0.744 OA
ENDBRANCH  92  93
ENDBRANCH  60  85
ENDBRANCH  34  35
ENDBRANCH  27  29
ENDBRANCH  26  27
ENDBRANCH  25  26
ENDBRANCH  24  25
ENDBRANCH  23  24
ENDBRANCH   1  23
TORSDOF 22
ENDMDL
MODEL 3
REMARK VINA RESULT:      -9.0      4.677      7.592
REMARK SMILES CNC(=O)c1ccc(N(CCC(=O)OCCOCCOC(=O)c2ccc(-c3c4nc(c(-c5c(F)cc(S(=O)(=O)[O-])cc5F)c5ccc([nH]5)c(-c5c(F)cc(S(=O)(=O)[O-])cc5F)c5nc(c(-c6c(F)cc(S(=O)(=O)[O-])cc6F)c6ccc3[nH]6)C=C5)C=C4)cc2)C2CC2)nn1
REMARK SMILES IDX 16 1 15 2 14 3 12 4 13 5 11 6 10 7 9 8 8 9 5 10 6 11 93 12
REMARK SMILES IDX 7 13 92 14 3 15 1 16 2 17 4 19 89 20 90 21 91 22 17 23 18 24
REMARK SMILES IDX 19 25 20 26 21 27 22 28 23 29 24 30 88 31 25 32 87 33 26 34
REMARK SMILES IDX 27 35 28 36 81 37 29 38 86 39 80 40 82 41 30 42 85 43 79 44
REMARK SMILES IDX 78 45 31 47 65 48 44 49 64 50 45 51 48 52 63 53 83 54 46 55
REMARK SMILES IDX 47 56 62 58 84 59 49 60 32 61 33 62 42 63 34 64 35 65 41 66
REMARK SMILES IDX 43 67 36 68 37 69 38 70 39 71 40 72 66 73 67 74 76 75 68 76
REMARK SMILES IDX 69 77 75 78 77 79 70 80 71 81 72 82 73 83 74 84 50 85 51 86
REMARK SMILES IDX 60 87 52 88 53 89 59 90 61 91 54 92 55 93 56 94 57 95 58 96
REMARK H PARENT 2 18 82 46 48 57
REMARK Flexibility Score: inf
ROOT
ATOM      1  C   UNL A   1      45.527  27.105  24.967  1.00  0.00     0.202 C 
ENDROOT
BRANCH   1   2
ATOM      2  C   UNL A   1      46.782  27.829  24.466  1.00  0.00     0.261 C 
BRANCH   2   3
ATOM      3  O   UNL A   1      47.614  28.290  25.553  1.00  0.00    -0.463 OA
BRANCH   3   4
ATOM      4  C   UNL A   1      47.073  29.154  26.447  1.00  0.00     0.307 C 
ATOM      5  O   UNL A   1      46.421  30.150  26.159  1.00  0.00    -0.252 OA
BRANCH   4   6
ATOM      6  C   UNL A   1      47.363  28.735  27.869  1.00  0.00     0.144 C 
BRANCH   6   7
ATOM      7  C   UNL A   1      46.170  28.073  28.547  1.00  0.00     0.130 C 
BRANCH   7   8
ATOM      8  N   UNL A   1      45.884  28.651  29.880  1.00  0.00    -0.352 N 
BRANCH   8   9
ATOM      9  C   UNL A   1      45.015  29.763  29.924  1.00  0.00     0.151 A 
ATOM     10  C   UNL A   1      43.226  31.885  29.997  1.00  0.00     0.150 A 
ATOM     11  C   UNL A   1      43.857  31.511  31.158  1.00  0.00     0.040 A 
ATOM     12  N   UNL A   1      43.437  31.227  28.844  1.00  0.00    -0.143 NA
ATOM     13  C   UNL A   1      44.792  30.488  31.092  1.00  0.00     0.051 A 
ATOM     14  N   UNL A   1      44.333  30.159  28.823  1.00  0.00    -0.132 NA
BRANCH  10  15
ATOM     15  C   UNL A   1      42.346  33.076  29.979  1.00  0.00     0.271 C 
ATOM     16  C   UNL A   1      44.137  34.536  28.901  1.00  0.00     0.143 C 
ATOM     17  N   UNL A   1      42.860  34.282  29.541  1.00  0.00    -0.354 N 
ATOM     18  H   UNL A   1      42.287  35.069  29.683  1.00  0.00     0.163 HD
ATOM     19  O   UNL A   1      41.183  33.009  30.367  1.00  0.00    -0.267 OA
ENDBRANCH  10  15
ENDBRANCH   8   9
BRANCH   8  20
ATOM     20  C   UNL A   1      46.311  27.833  31.025  1.00  0.00     0.084 C 
ATOM     21  C   UNL A   1      47.092  26.556  30.980  1.00  0.00     0.027 C 
ATOM     22  C   UNL A   1      47.684  27.802  31.598  1.00  0.00     0.027 C 
ENDBRANCH   8  20
ENDBRANCH   7   8
ENDBRANCH   6   7
ENDBRANCH   4   6
ENDBRANCH   3   4
ENDBRANCH   2   3
ENDBRANCH   1   2
BRANCH   1  23
ATOM     23  O   UNL A   1      45.584  25.688  24.788  1.00  0.00    -0.374 OA
BRANCH  23  24
ATOM     24  C   UNL A   1      44.811  24.920  25.706  1.00  0.00     0.202 C 
BRANCH  24  25
ATOM     25  C   UNL A   1      43.481  24.413  25.130  1.00  0.00     0.261 C 
BRANCH  25  26
ATOM     26  O   UNL A   1      42.385  25.301  25.424  1.00  0.00    -0.460 OA
BRANCH  26  27
ATOM     27  C   UNL A   1      41.458  24.836  26.301  1.00  0.00     0.338 C 
ATOM     28  O   UNL A   1      40.898  23.753  26.276  1.00  0.00    -0.246 OA
BRANCH  27  29
ATOM     29  C   UNL A   1      41.335  25.790  27.426  1.00  0.00     0.060 A 
ATOM     30  C   UNL A   1      40.343  25.565  28.385  1.00  0.00     0.016 A 
ATOM     31  C   UNL A   1      42.193  26.884  27.558  1.00  0.00     0.016 A 
ATOM     32  C   UNL A   1      40.214  26.431  29.477  1.00  0.00     0.010 A 
ATOM     33  C   UNL A   1      42.109  27.706  28.689  1.00  0.00     0.010 A 
ATOM     34  C   UNL A   1      41.091  27.515  29.640  1.00  0.00    -0.014 A 
BRANCH  34  35
ATOM     35  C   UNL A   1      40.851  28.538  30.699  1.00  0.00     0.031 A 
ATOM     36  C   UNL A   1      41.723  28.528  31.932  1.00  0.00     0.074 A 
ATOM     37  C   UNL A   1      39.888  29.475  30.580  1.00  0.00     0.049 A 
ATOM     38  N   UNL A   1      41.671  29.291  32.994  1.00  0.00    -0.248 NA
ATOM     39  C   UNL A   1      42.782  27.507  31.983  1.00  0.00     0.031 C 
ATOM     40  C   UNL A   1      38.960  29.607  29.456  1.00  0.00     0.029 A 
ATOM     41  N   UNL A   1      39.535  30.503  31.423  1.00  0.00    -0.354 N 
ATOM     42  C   UNL A   1      42.667  28.824  33.844  1.00  0.00     0.074 A 
ATOM     43  C   UNL A   1      43.267  27.677  33.202  1.00  0.00     0.031 C 
ATOM     44  C   UNL A   1      38.159  30.666  29.670  1.00  0.00     0.029 A 
ATOM     45  C   UNL A   1      38.495  31.275  30.957  1.00  0.00     0.049 A 
ATOM     46  H   UNL A   1      39.985  30.672  32.281  1.00  0.00     0.167 HD
ATOM     47  C   UNL A   1      43.077  29.318  35.036  1.00  0.00     0.037 A 
ATOM     48  C   UNL A   1      37.883  32.346  31.504  1.00  0.00     0.037 A 
ATOM     49  C   UNL A   1      42.531  30.492  35.659  1.00  0.00     0.049 A 
ATOM     50  C   UNL A   1      38.347  32.877  32.837  1.00  0.00     0.074 A 
ATOM     51  C   UNL A   1      42.924  31.101  36.838  1.00  0.00     0.029 A 
ATOM     52  N   UNL A   1      41.480  31.240  35.154  1.00  0.00    -0.354 N 
ATOM     53  N   UNL A   1      39.320  32.446  33.604  1.00  0.00    -0.248 NA
ATOM     54  C   UNL A   1      37.632  34.044  33.379  1.00  0.00     0.031 C 
ATOM     55  C   UNL A   1      42.086  32.198  37.064  1.00  0.00     0.029 A 
ATOM     56  C   UNL A   1      41.198  32.294  36.005  1.00  0.00     0.049 A 
ATOM     57  H   UNL A   1      41.004  31.050  34.313  1.00  0.00     0.167 HD
ATOM     58  C   UNL A   1      39.347  33.300  34.703  1.00  0.00     0.074 A 
ATOM     59  C   UNL A   1      38.303  34.280  34.498  1.00  0.00     0.031 C 
ATOM     60  C   UNL A   1      40.163  33.272  35.787  1.00  0.00     0.037 A 
BRANCH  47  61
ATOM     61  C   UNL A   1      44.184  28.586  35.741  1.00  0.00     0.058 A 
ATOM     62  C   UNL A   1      45.535  28.890  35.505  1.00  0.00     0.135 A 
ATOM     63  C   UNL A   1      43.891  27.573  36.667  1.00  0.00     0.135 A 
ATOM     64  F   UNL A   1      45.869  29.837  34.613  1.00  0.00    -0.206 F 
ATOM     65  C   UNL A   1      46.557  28.188  36.134  1.00  0.00     0.059 A 
ATOM     66  C   UNL A   1      44.897  26.877  37.330  1.00  0.00     0.059 A 
ATOM     67  F   UNL A   1      42.615  27.243  36.926  1.00  0.00    -0.206 F 
ATOM     68  C   UNL A   1      46.228  27.180  37.041  1.00  0.00     0.060 A 
BRANCH  68  69
ATOM     69  S   UNL A   1      47.564  26.271  37.841  1.00  0.00     0.124 S 
ATOM     70  O   UNL A   1      48.701  27.155  37.597  1.00  0.00    -0.237 OA
ATOM     71  O   UNL A   1      47.108  26.193  39.225  1.00  0.00    -0.237 OA
ATOM     72  O   UNL A   1      47.590  25.002  37.120  1.00  0.00    -0.744 OA
ENDBRANCH  68  69
ENDBRANCH  47  61
BRANCH  48  73
ATOM     73  C   UNL A   1      36.754  33.009  30.792  1.00  0.00     0.058 A 
ATOM     74  C   UNL A   1      36.988  33.878  29.716  1.00  0.00     0.135 A 
ATOM     75  C   UNL A   1      35.424  32.805  31.190  1.00  0.00     0.135 A 
ATOM     76  F   UNL A   1      38.244  34.117  29.308  1.00  0.00    -0.206 F 
ATOM     77  C   UNL A   1      35.946  34.536  29.069  1.00  0.00     0.059 A 
ATOM     78  C   UNL A   1      34.363  33.434  30.545  1.00  0.00     0.059 A 
ATOM     79  F   UNL A   1      35.145  31.977  32.209  1.00  0.00    -0.206 F 
ATOM     80  C   UNL A   1      34.635  34.307  29.491  1.00  0.00     0.060 A 
BRANCH  80  81
ATOM     81  S   UNL A   1      33.284  35.127  28.617  1.00  0.00     0.124 S 
ATOM     82  O   UNL A   1      34.012  36.024  27.727  1.00  0.00    -0.237 OA
ATOM     83  O   UNL A   1      32.605  34.004  27.979  1.00  0.00    -0.237 OA
ATOM     84  O   UNL A   1      32.537  35.772  29.693  1.00  0.00    -0.744 OA
ENDBRANCH  80  81
ENDBRANCH  48  73
BRANCH  60  85
ATOM     85  C   UNL A   1      39.983  34.342  36.829  1.00  0.00     0.058 A 
ATOM     86  C   UNL A   1      39.142  34.154  37.937  1.00  0.00     0.135 A 
ATOM     87  C   UNL A   1      40.719  35.537  36.758  1.00  0.00     0.135 A 
ATOM     88  F   UNL A   1      38.415  33.032  38.051  1.00  0.00    -0.206 F 
ATOM     89  C   UNL A   1      39.024  35.121  38.931  1.00  0.00     0.059 A 
ATOM     90  C   UNL A   1      40.634  36.506  37.753  1.00  0.00     0.059 A 
ATOM     91  F   UNL A   1      41.547  35.760  35.725  1.00  0.00    -0.206 F 
ATOM     92  C   UNL A   1      39.777  36.292  38.831  1.00  0.00     0.060 A 
BRANCH  92  93
ATOM     93  S   UNL A   1      39.648  37.520  40.150  1.00  0.00     0.124 S 
ATOM     94  O   UNL A   1      39.889  36.703  41.335  1.00  0.00    -0.237 OA
ATOM     95  O   UNL A   1      40.707  38.463  39.804  1.00  0.00    -0.237 OA
ATOM     96  O   UNL A   1      38.289  38.033  40.005  1.00  0.00    -0.744 OA
ENDBRANCH  92  93
ENDBRANCH  60  85
ENDBRANCH  34  35
ENDBRANCH  27  29
ENDBRANCH  26  27
ENDBRANCH  25  26
ENDBRANCH  24  25
ENDBRANCH  23  24
ENDBRANCH   1  23
TORSDOF 22
ENDMDL
