MODEL 1
REMARK VINA RESULT:      -9.8      0.000      0.000
REMARK SMILES COc1cc(OC)cc(C(=O)C[C@H](C)CC(=O)OCCOCCOC(=O)c2ccc(-c3c4nc(c(-c5c(F)cc(S(=O)(=O)[O-])cc5F)c5ccc([nH]5)c(-c5c(F)cc(S(=O)(=O)[O-])cc5F)c5nc(c(-c6c(F)cc(S(=O)(=O)[O-])cc6F)c6ccc3[nH]6)C=C5)C=C4)cc2)c1
REMARK SMILES IDX 20 1 19 2 18 3 16 4 17 5 15 6 13 7 14 8 12 9 10 10 11 11
REMARK SMILES IDX 9 12 3 13 4 14 93 15 5 16 8 17 2 18 1 19 6 20 7 21 21 22
REMARK SMILES IDX 22 23 23 24 24 25 25 26 26 27 27 28 28 29 92 30 29 31 91 32
REMARK SMILES IDX 30 33 31 34 32 35 85 36 33 37 90 38 84 39 86 40 34 41 89 42
REMARK SMILES IDX 83 43 82 44 35 46 69 47 48 48 68 49 49 50 52 51 67 52 87 53
REMARK SMILES IDX 50 54 51 55 66 57 88 58 53 59 36 60 37 61 46 62 38 63 39 64
REMARK SMILES IDX 45 65 47 66 40 67 41 68 42 69 43 70 44 71 70 72 71 73 80 74
REMARK SMILES IDX 72 75 73 76 79 77 81 78 74 79 75 80 76 81 77 82 78 83 54 84
REMARK SMILES IDX 55 85 64 86 56 87 57 88 63 89 65 90 58 91 59 92 60 93 61 94
REMARK SMILES IDX 62 95
REMARK H PARENT 86 45 52 56
REMARK Flexibility Score: inf
ROOT
ATOM      1  C   UNL A   1      31.616  30.087  25.563  1.00  0.00     0.202 C 
ENDROOT
BRANCH   1   2
ATOM      2  C   UNL A   1      31.924  29.121  24.421  1.00  0.00     0.261 C 
BRANCH   2   3
ATOM      3  O   UNL A   1      30.725  28.514  23.911  1.00  0.00    -0.463 OA
BRANCH   3   4
ATOM      4  C   UNL A   1      30.888  27.277  23.395  1.00  0.00     0.306 C 
ATOM      5  O   UNL A   1      31.676  26.976  22.504  1.00  0.00    -0.252 OA
BRANCH   4   6
ATOM      6  C   UNL A   1      29.919  26.280  23.972  1.00  0.00     0.126 C 
BRANCH   6   7
ATOM      7  C   UNL A   1      30.342  24.871  24.408  1.00  0.00     0.005 C 
ATOM      8  C   UNL A   1      30.456  23.921  23.205  1.00  0.00     0.009 C 
BRANCH   7   9
ATOM      9  C   UNL A   1      31.725  24.860  25.128  1.00  0.00     0.085 C 
BRANCH   9  10
ATOM     10  C   UNL A   1      32.026  23.682  26.053  1.00  0.00     0.163 C 
ATOM     11  O   UNL A   1      31.729  23.724  27.247  1.00  0.00    -0.294 OA
BRANCH  10  12
ATOM     12  C   UNL A   1      32.751  22.479  25.523  1.00  0.00     0.025 A 
ATOM     13  C   UNL A   1      34.807  21.251  25.232  1.00  0.00     0.123 A 
ATOM     14  C   UNL A   1      34.095  20.063  25.118  1.00  0.00     0.092 A 
ATOM     15  C   UNL A   1      34.140  22.470  25.346  1.00  0.00     0.058 A 
ATOM     16  C   UNL A   1      32.701  20.082  25.152  1.00  0.00     0.123 A 
ATOM     17  C   UNL A   1      32.028  21.282  25.391  1.00  0.00     0.058 A 
BRANCH  13  18
ATOM     18  O   UNL A   1      36.174  21.186  25.221  1.00  0.00    -0.497 OA
ATOM     19  C   UNL A   1      36.736  22.124  24.297  1.00  0.00     0.278 C 
ENDBRANCH  13  18
BRANCH  16  20
ATOM     20  O   UNL A   1      32.094  18.863  25.012  1.00  0.00    -0.497 OA
ATOM     21  C   UNL A   1      32.731  17.795  25.707  1.00  0.00     0.278 C 
ENDBRANCH  16  20
ENDBRANCH  10  12
ENDBRANCH   9  10
ENDBRANCH   7   9
ENDBRANCH   6   7
ENDBRANCH   4   6
ENDBRANCH   3   4
ENDBRANCH   2   3
ENDBRANCH   1   2
BRANCH   1  22
ATOM     22  O   UNL A   1      32.353  29.913  26.772  1.00  0.00    -0.374 OA
BRANCH  22  23
ATOM     23  C   UNL A   1      33.193  30.980  27.209  1.00  0.00     0.202 C 
BRANCH  23  24
ATOM     24  C   UNL A   1      32.542  32.353  27.396  1.00  0.00     0.261 C 
BRANCH  24  25
ATOM     25  O   UNL A   1      33.504  33.423  27.349  1.00  0.00    -0.460 OA
BRANCH  25  26
ATOM     26  C   UNL A   1      33.421  34.288  28.387  1.00  0.00     0.338 C 
ATOM     27  O   UNL A   1      32.513  35.083  28.609  1.00  0.00    -0.246 OA
BRANCH  26  28
ATOM     28  C   UNL A   1      34.490  34.038  29.370  1.00  0.00     0.060 A 
ATOM     29  C   UNL A   1      35.792  34.378  28.985  1.00  0.00     0.016 A 
ATOM     30  C   UNL A   1      34.255  33.393  30.586  1.00  0.00     0.016 A 
ATOM     31  C   UNL A   1      36.873  34.001  29.774  1.00  0.00     0.010 A 
ATOM     32  C   UNL A   1      35.348  33.009  31.378  1.00  0.00     0.010 A 
ATOM     33  C   UNL A   1      36.661  33.266  30.947  1.00  0.00    -0.014 A 
BRANCH  33  34
ATOM     34  C   UNL A   1      37.838  32.641  31.603  1.00  0.00     0.031 A 
ATOM     35  C   UNL A   1      38.260  33.127  32.966  1.00  0.00     0.074 A 
ATOM     36  C   UNL A   1      38.459  31.591  31.035  1.00  0.00     0.049 A 
ATOM     37  N   UNL A   1      39.193  32.664  33.756  1.00  0.00    -0.248 NA
ATOM     38  C   UNL A   1      37.532  34.284  33.514  1.00  0.00     0.031 C 
ATOM     39  C   UNL A   1      38.132  31.021  29.729  1.00  0.00     0.029 A 
ATOM     40  N   UNL A   1      39.490  30.809  31.493  1.00  0.00    -0.354 N 
ATOM     41  C   UNL A   1      39.170  33.471  34.889  1.00  0.00     0.074 A 
ATOM     42  C   UNL A   1      38.149  34.473  34.673  1.00  0.00     0.031 C 
ATOM     43  C   UNL A   1      38.950  29.982  29.487  1.00  0.00     0.029 A 
ATOM     44  C   UNL A   1      39.867  29.821  30.615  1.00  0.00     0.049 A 
ATOM     45  H   UNL A   1      39.920  30.945  32.368  1.00  0.00     0.167 HD
ATOM     46  C   UNL A   1      39.924  33.380  36.009  1.00  0.00     0.037 A 
ATOM     47  C   UNL A   1      40.843  28.897  30.709  1.00  0.00     0.037 A 
ATOM     48  C   UNL A   1      40.921  32.366  36.234  1.00  0.00     0.049 A 
ATOM     49  C   UNL A   1      41.671  28.824  31.967  1.00  0.00     0.074 A 
ATOM     50  C   UNL A   1      41.700  32.162  37.361  1.00  0.00     0.029 A 
ATOM     51  N   UNL A   1      41.281  31.391  35.318  1.00  0.00    -0.354 N 
ATOM     52  N   UNL A   1      41.597  29.563  33.048  1.00  0.00    -0.248 NA
ATOM     53  C   UNL A   1      42.703  27.780  32.023  1.00  0.00     0.031 C 
ATOM     54  C   UNL A   1      42.563  31.091  37.107  1.00  0.00     0.029 A 
ATOM     55  C   UNL A   1      42.288  30.598  35.843  1.00  0.00     0.049 A 
ATOM     56  H   UNL A   1      40.879  31.278  34.426  1.00  0.00     0.167 HD
ATOM     57  C   UNL A   1      42.558  29.058  33.919  1.00  0.00     0.074 A 
ATOM     58  C   UNL A   1      43.181  27.937  33.248  1.00  0.00     0.031 C 
ATOM     59  C   UNL A   1      42.897  29.485  35.162  1.00  0.00     0.037 A 
BRANCH  46  60
ATOM     60  C   UNL A   1      39.718  34.408  37.087  1.00  0.00     0.058 A 
ATOM     61  C   UNL A   1      38.896  34.161  38.197  1.00  0.00     0.135 A 
ATOM     62  C   UNL A   1      40.423  35.621  37.049  1.00  0.00     0.135 A 
ATOM     63  F   UNL A   1      38.182  33.026  38.272  1.00  0.00    -0.206 F 
ATOM     64  C   UNL A   1      38.781  35.083  39.233  1.00  0.00     0.059 A 
ATOM     65  C   UNL A   1      40.340  36.547  38.084  1.00  0.00     0.059 A 
ATOM     66  F   UNL A   1      41.217  35.908  36.005  1.00  0.00    -0.206 F 
ATOM     67  C   UNL A   1      39.514  36.269  39.172  1.00  0.00     0.060 A 
BRANCH  67  68
ATOM     68  S   UNL A   1      39.401  37.429  40.551  1.00  0.00     0.124 S 
ATOM     69  O   UNL A   1      38.941  36.557  41.628  1.00  0.00    -0.237 OA
ATOM     70  O   UNL A   1      40.774  37.910  40.668  1.00  0.00    -0.237 OA
ATOM     71  O   UNL A   1      38.430  38.416  40.088  1.00  0.00    -0.744 OA
ENDBRANCH  67  68
ENDBRANCH  46  60
BRANCH  47  72
ATOM     72  C   UNL A   1      41.114  27.974  29.574  1.00  0.00     0.058 A 
ATOM     73  C   UNL A   1      40.284  26.875  29.307  1.00  0.00     0.135 A 
ATOM     74  C   UNL A   1      42.238  28.157  28.755  1.00  0.00     0.135 A 
ATOM     75  F   UNL A   1      39.200  26.653  30.065  1.00  0.00    -0.206 F 
ATOM     76  C   UNL A   1      40.579  25.969  28.293  1.00  0.00     0.059 A 
ATOM     77  C   UNL A   1      42.539  27.282  27.718  1.00  0.00     0.059 A 
ATOM     78  F   UNL A   1      43.055  29.203  28.957  1.00  0.00    -0.206 F 
ATOM     79  C   UNL A   1      41.713  26.178  27.507  1.00  0.00     0.060 A 
BRANCH  79  80
ATOM     80  S   UNL A   1      42.085  25.010  26.182  1.00  0.00     0.124 S 
ATOM     81  O   UNL A   1      40.966  24.082  26.286  1.00  0.00    -0.237 OA
ATOM     82  O   UNL A   1      42.095  25.871  25.004  1.00  0.00    -0.237 OA
ATOM     83  O   UNL A   1      43.389  24.475  26.566  1.00  0.00    -0.744 OA
ENDBRANCH  79  80
ENDBRANCH  47  72
BRANCH  59  84
ATOM     84  C   UNL A   1      43.970  28.715  35.883  1.00  0.00     0.058 A 
ATOM     85  C   UNL A   1      45.328  29.050  35.758  1.00  0.00     0.135 A 
ATOM     86  C   UNL A   1      43.636  27.634  36.714  1.00  0.00     0.135 A 
ATOM     87  F   UNL A   1      45.702  30.074  34.974  1.00  0.00    -0.206 F 
ATOM     88  C   UNL A   1      46.320  28.312  36.395  1.00  0.00     0.059 A 
ATOM     89  C   UNL A   1      44.608  26.901  37.385  1.00  0.00     0.059 A 
ATOM     90  F   UNL A   1      42.351  27.282  36.883  1.00  0.00    -0.206 F 
ATOM     91  C   UNL A   1      45.950  27.232  37.199  1.00  0.00     0.060 A 
BRANCH  91  92
ATOM     92  S   UNL A   1      47.245  26.270  38.009  1.00  0.00     0.124 S 
ATOM     93  O   UNL A   1      48.450  26.915  37.500  1.00  0.00    -0.237 OA
ATOM     94  O   UNL A   1      46.960  26.484  39.424  1.00  0.00    -0.237 OA
ATOM     95  O   UNL A   1      47.008  24.912  37.528  1.00  0.00    -0.744 OA
ENDBRANCH  91  92
ENDBRANCH  59  84
ENDBRANCH  33  34
ENDBRANCH  26  28
ENDBRANCH  25  26
ENDBRANCH  24  25
ENDBRANCH  23  24
ENDBRANCH  22  23
ENDBRANCH   1  22
TORSDOF 23
ENDMDL
MODEL 2
REMARK VINA RESULT:      -9.7      5.960      8.652
REMARK SMILES COc1cc(OC)cc(C(=O)C[C@H](C)CC(=O)OCCOCCOC(=O)c2ccc(-c3c4nc(c(-c5c(F)cc(S(=O)(=O)[O-])cc5F)c5ccc([nH]5)c(-c5c(F)cc(S(=O)(=O)[O-])cc5F)c5nc(c(-c6c(F)cc(S(=O)(=O)[O-])cc6F)c6ccc3[nH]6)C=C5)C=C4)cc2)c1
REMARK SMILES IDX 20 1 19 2 18 3 16 4 17 5 15 6 13 7 14 8 12 9 10 10 11 11
REMARK SMILES IDX 9 12 3 13 4 14 93 15 5 16 8 17 2 18 1 19 6 20 7 21 21 22
REMARK SMILES IDX 22 23 23 24 24 25 25 26 26 27 27 28 28 29 92 30 29 31 91 32
REMARK SMILES IDX 30 33 31 34 32 35 85 36 33 37 90 38 84 39 86 40 34 41 89 42
REMARK SMILES IDX 83 43 82 44 35 46 69 47 48 48 68 49 49 50 52 51 67 52 87 53
REMARK SMILES IDX 50 54 51 55 66 57 88 58 53 59 36 60 37 61 46 62 38 63 39 64
REMARK SMILES IDX 45 65 47 66 40 67 41 68 42 69 43 70 44 71 70 72 71 73 80 74
REMARK SMILES IDX 72 75 73 76 79 77 81 78 74 79 75 80 76 81 77 82 78 83 54 84
REMARK SMILES IDX 55 85 64 86 56 87 57 88 63 89 65 90 58 91 59 92 60 93 61 94
REMARK SMILES IDX 62 95
REMARK H PARENT 86 45 52 56
REMARK Flexibility Score: inf
ROOT
ATOM      1  C   UNL A   1      33.779  33.533  28.659  1.00  0.00     0.202 C 
ENDROOT
BRANCH   1   2
ATOM      2  C   UNL A   1      34.308  32.447  27.723  1.00  0.00     0.261 C 
BRANCH   2   3
ATOM      3  O   UNL A   1      33.679  31.182  27.981  1.00  0.00    -0.463 OA
BRANCH   3   4
ATOM      4  C   UNL A   1      32.612  30.906  27.201  1.00  0.00     0.306 C 
ATOM      5  O   UNL A   1      31.936  31.737  26.603  1.00  0.00    -0.252 OA
BRANCH   4   6
ATOM      6  C   UNL A   1      32.260  29.443  27.201  1.00  0.00     0.126 C 
BRANCH   6   7
ATOM      7  C   UNL A   1      32.338  28.573  25.940  1.00  0.00     0.005 C 
ATOM      8  C   UNL A   1      31.348  29.052  24.866  1.00  0.00     0.009 C 
BRANCH   7   9
ATOM      9  C   UNL A   1      33.755  28.588  25.291  1.00  0.00     0.085 C 
BRANCH   9  10
ATOM     10  C   UNL A   1      33.864  28.150  23.831  1.00  0.00     0.163 C 
ATOM     11  O   UNL A   1      34.173  28.954  22.952  1.00  0.00    -0.294 OA
BRANCH  10  12
ATOM     12  C   UNL A   1      33.529  26.738  23.445  1.00  0.00     0.025 A 
ATOM     13  C   UNL A   1      33.337  25.037  21.746  1.00  0.00     0.123 A 
ATOM     14  C   UNL A   1      33.509  24.045  22.704  1.00  0.00     0.092 A 
ATOM     15  C   UNL A   1      33.257  26.378  22.119  1.00  0.00     0.058 A 
ATOM     16  C   UNL A   1      33.639  24.391  24.049  1.00  0.00     0.123 A 
ATOM     17  C   UNL A   1      33.687  25.738  24.417  1.00  0.00     0.058 A 
BRANCH  13  18
ATOM     18  O   UNL A   1      33.241  24.656  20.435  1.00  0.00    -0.497 OA
ATOM     19  C   UNL A   1      32.358  25.514  19.704  1.00  0.00     0.278 C 
ENDBRANCH  13  18
BRANCH  16  20
ATOM     20  O   UNL A   1      33.785  23.341  24.914  1.00  0.00    -0.497 OA
ATOM     21  C   UNL A   1      34.477  23.651  26.119  1.00  0.00     0.278 C 
ENDBRANCH  16  20
ENDBRANCH  10  12
ENDBRANCH   9  10
ENDBRANCH   7   9
ENDBRANCH   6   7
ENDBRANCH   4   6
ENDBRANCH   3   4
ENDBRANCH   2   3
ENDBRANCH   1   2
BRANCH   1  22
ATOM     22  O   UNL A   1      34.739  34.431  29.213  1.00  0.00    -0.374 OA
BRANCH  22  23
ATOM     23  C   UNL A   1      35.443  34.025  30.385  1.00  0.00     0.202 C 
BRANCH  23  24
ATOM     24  C   UNL A   1      36.914  33.632  30.219  1.00  0.00     0.261 C 
BRANCH  24  25
ATOM     25  O   UNL A   1      37.413  32.896  31.350  1.00  0.00    -0.460 OA
BRANCH  25  26
ATOM     26  C   UNL A   1      37.058  31.589  31.361  1.00  0.00     0.338 C 
ATOM     27  O   UNL A   1      35.976  31.126  31.709  1.00  0.00    -0.246 OA
BRANCH  26  28
ATOM     28  C   UNL A   1      38.084  30.757  30.708  1.00  0.00     0.060 A 
ATOM     29  C   UNL A   1      39.130  30.296  31.517  1.00  0.00     0.016 A 
ATOM     30  C   UNL A   1      38.094  30.520  29.332  1.00  0.00     0.016 A 
ATOM     31  C   UNL A   1      40.230  29.669  30.943  1.00  0.00     0.010 A 
ATOM     32  C   UNL A   1      39.207  29.892  28.755  1.00  0.00     0.010 A 
ATOM     33  C   UNL A   1      40.301  29.513  29.553  1.00  0.00    -0.014 A 
BRANCH  33  34
ATOM     34  C   UNL A   1      41.600  29.106  28.960  1.00  0.00     0.031 A 
ATOM     35  C   UNL A   1      42.712  30.121  28.869  1.00  0.00     0.074 A 
ATOM     36  C   UNL A   1      41.818  27.828  28.602  1.00  0.00     0.049 A 
ATOM     37  N   UNL A   1      43.949  29.959  28.477  1.00  0.00    -0.248 NA
ATOM     38  C   UNL A   1      42.389  31.499  29.277  1.00  0.00     0.031 C 
ATOM     39  C   UNL A   1      40.828  26.753  28.659  1.00  0.00     0.029 A 
ATOM     40  N   UNL A   1      42.950  27.214  28.128  1.00  0.00    -0.354 N 
ATOM     41  C   UNL A   1      44.550  31.208  28.584  1.00  0.00     0.074 A 
ATOM     42  C   UNL A   1      43.536  32.127  29.053  1.00  0.00     0.031 C 
ATOM     43  C   UNL A   1      41.395  25.612  28.232  1.00  0.00     0.029 A 
ATOM     44  C   UNL A   1      42.783  25.877  27.859  1.00  0.00     0.049 A 
ATOM     45  H   UNL A   1      43.803  27.688  27.992  1.00  0.00     0.167 HD
ATOM     46  C   UNL A   1      45.833  31.556  28.327  1.00  0.00     0.037 A 
ATOM     47  C   UNL A   1      43.650  24.972  27.363  1.00  0.00     0.037 A 
ATOM     48  C   UNL A   1      46.848  30.634  27.888  1.00  0.00     0.049 A 
ATOM     49  C   UNL A   1      45.070  25.389  27.080  1.00  0.00     0.074 A 
ATOM     50  C   UNL A   1      48.190  30.884  27.650  1.00  0.00     0.029 A 
ATOM     51  N   UNL A   1      46.638  29.292  27.616  1.00  0.00    -0.354 N 
ATOM     52  N   UNL A   1      45.633  26.564  27.239  1.00  0.00    -0.248 NA
ATOM     53  C   UNL A   1      45.977  24.354  26.565  1.00  0.00     0.031 C 
ATOM     54  C   UNL A   1      48.779  29.701  27.191  1.00  0.00     0.029 A 
ATOM     55  C   UNL A   1      47.817  28.705  27.189  1.00  0.00     0.049 A 
ATOM     56  H   UNL A   1      45.777  28.825  27.714  1.00  0.00     0.167 HD
ATOM     57  C   UNL A   1      46.964  26.401  26.864  1.00  0.00     0.074 A 
ATOM     58  C   UNL A   1      47.125  25.011  26.495  1.00  0.00     0.031 C 
ATOM     59  C   UNL A   1      47.963  27.319  26.826  1.00  0.00     0.037 A 
BRANCH  46  60
ATOM     60  C   UNL A   1      46.224  32.997  28.498  1.00  0.00     0.058 A 
ATOM     61  C   UNL A   1      46.868  33.456  29.658  1.00  0.00     0.135 A 
ATOM     62  C   UNL A   1      46.030  33.910  27.450  1.00  0.00     0.135 A 
ATOM     63  F   UNL A   1      47.059  32.629  30.699  1.00  0.00    -0.206 F 
ATOM     64  C   UNL A   1      47.306  34.772  29.771  1.00  0.00     0.059 A 
ATOM     65  C   UNL A   1      46.480  35.224  27.533  1.00  0.00     0.059 A 
ATOM     66  F   UNL A   1      45.413  33.523  26.323  1.00  0.00    -0.206 F 
ATOM     67  C   UNL A   1      47.116  35.646  28.700  1.00  0.00     0.060 A 
BRANCH  67  68
ATOM     68  S   UNL A   1      47.742  37.334  28.839  1.00  0.00     0.124 S 
ATOM     69  O   UNL A   1      47.631  37.568  30.275  1.00  0.00    -0.237 OA
ATOM     70  O   UNL A   1      49.101  37.206  28.321  1.00  0.00    -0.237 OA
ATOM     71  O   UNL A   1      46.826  38.107  28.006  1.00  0.00    -0.744 OA
ENDBRANCH  67  68
ENDBRANCH  46  60
BRANCH  47  72
ATOM     72  C   UNL A   1      43.202  23.582  27.079  1.00  0.00     0.058 A 
ATOM     73  C   UNL A   1      43.059  22.633  28.102  1.00  0.00     0.135 A 
ATOM     74  C   UNL A   1      42.946  23.167  25.763  1.00  0.00     0.135 A 
ATOM     75  F   UNL A   1      43.298  22.978  29.376  1.00  0.00    -0.206 F 
ATOM     76  C   UNL A   1      42.713  21.313  27.828  1.00  0.00     0.059 A 
ATOM     77  C   UNL A   1      42.573  21.862  25.467  1.00  0.00     0.059 A 
ATOM     78  F   UNL A   1      43.053  24.040  24.749  1.00  0.00    -0.206 F 
ATOM     79  C   UNL A   1      42.478  20.936  26.505  1.00  0.00     0.060 A 
BRANCH  79  80
ATOM     80  S   UNL A   1      42.015  19.226  26.154  1.00  0.00     0.124 S 
ATOM     81  O   UNL A   1      42.441  18.551  27.373  1.00  0.00    -0.237 OA
ATOM     82  O   UNL A   1      40.574  19.332  25.951  1.00  0.00    -0.237 OA
ATOM     83  O   UNL A   1      42.785  18.913  24.954  1.00  0.00    -0.744 OA
ENDBRANCH  79  80
ENDBRANCH  47  72
BRANCH  59  84
ATOM     84  C   UNL A   1      49.322  26.838  26.398  1.00  0.00     0.058 A 
ATOM     85  C   UNL A   1      49.767  26.972  25.073  1.00  0.00     0.135 A 
ATOM     86  C   UNL A   1      50.192  26.242  27.325  1.00  0.00     0.135 A 
ATOM     87  F   UNL A   1      48.974  27.534  24.147  1.00  0.00    -0.206 F 
ATOM     88  C   UNL A   1      51.009  26.490  24.672  1.00  0.00     0.059 A 
ATOM     89  C   UNL A   1      51.449  25.780  26.953  1.00  0.00     0.059 A 
ATOM     90  F   UNL A   1      49.822  26.104  28.608  1.00  0.00    -0.206 F 
ATOM     91  C   UNL A   1      51.840  25.887  25.619  1.00  0.00     0.060 A 
BRANCH  91  92
ATOM     92  S   UNL A   1      53.443  25.250  25.087  1.00  0.00     0.124 S 
ATOM     93  O   UNL A   1      54.344  25.900  26.032  1.00  0.00    -0.237 OA
ATOM     94  O   UNL A   1      53.282  23.809  25.252  1.00  0.00    -0.237 OA
ATOM     95  O   UNL A   1      53.546  25.707  23.704  1.00  0.00    -0.744 OA
ENDBRANCH  91  92
ENDBRANCH  59  84
ENDBRANCH  33  34
ENDBRANCH  26  28
ENDBRANCH  25  26
ENDBRANCH  24  25
ENDBRANCH  23  24
ENDBRANCH  22  23
ENDBRANCH   1  22
TORSDOF 23
ENDMDL
MODEL 3
REMARK VINA RESULT:      -9.6      2.186      3.084
REMARK SMILES COc1cc(OC)cc(C(=O)C[C@H](C)CC(=O)OCCOCCOC(=O)c2ccc(-c3c4nc(c(-c5c(F)cc(S(=O)(=O)[O-])cc5F)c5ccc([nH]5)c(-c5c(F)cc(S(=O)(=O)[O-])cc5F)c5nc(c(-c6c(F)cc(S(=O)(=O)[O-])cc6F)c6ccc3[nH]6)C=C5)C=C4)cc2)c1
REMARK SMILES IDX 20 1 19 2 18 3 16 4 17 5 15 6 13 7 14 8 12 9 10 10 11 11
REMARK SMILES IDX 9 12 3 13 4 14 93 15 5 16 8 17 2 18 1 19 6 20 7 21 21 22
REMARK SMILES IDX 22 23 23 24 24 25 25 26 26 27 27 28 28 29 92 30 29 31 91 32
REMARK SMILES IDX 30 33 31 34 32 35 85 36 33 37 90 38 84 39 86 40 34 41 89 42
REMARK SMILES IDX 83 43 82 44 35 46 69 47 48 48 68 49 49 50 52 51 67 52 87 53
REMARK SMILES IDX 50 54 51 55 66 57 88 58 53 59 36 60 37 61 46 62 38 63 39 64
REMARK SMILES IDX 45 65 47 66 40 67 41 68 42 69 43 70 44 71 70 72 71 73 80 74
REMARK SMILES IDX 72 75 73 76 79 77 81 78 74 79 75 80 76 81 77 82 78 83 54 84
REMARK SMILES IDX 55 85 64 86 56 87 57 88 63 89 65 90 58 91 59 92 60 93 61 94
REMARK SMILES IDX 62 95
REMARK H PARENT 86 45 52 56
REMARK Flexibility Score: inf
ROOT
ATOM      1  C   UNL A   1      32.291  28.549  23.200  1.00  0.00     0.202 C 
ENDROOT
BRANCH   1   2
ATOM      2  C   UNL A   1      33.272  27.559  22.574  1.00  0.00     0.261 C 
BRANCH   2   3
ATOM      3  O   UNL A   1      32.599  26.639  21.698  1.00  0.00    -0.463 OA
BRANCH   3   4
ATOM      4  C   UNL A   1      32.483  25.381  22.175  1.00  0.00     0.306 C 
ATOM      5  O   UNL A   1      33.349  24.514  22.111  1.00  0.00    -0.252 OA
BRANCH   4   6
ATOM      6  C   UNL A   1      31.114  25.100  22.733  1.00  0.00     0.126 C 
BRANCH   6   7
ATOM      7  C   UNL A   1      30.661  25.606  24.109  1.00  0.00     0.005 C 
ATOM      8  C   UNL A   1      29.189  26.046  24.090  1.00  0.00     0.009 C 
BRANCH   7   9
ATOM      9  C   UNL A   1      30.796  24.519  25.218  1.00  0.00     0.085 C 
BRANCH   9  10
ATOM     10  C   UNL A   1      32.191  24.264  25.787  1.00  0.00     0.163 C 
ATOM     11  O   UNL A   1      32.750  25.106  26.488  1.00  0.00    -0.294 OA
BRANCH  10  12
ATOM     12  C   UNL A   1      32.924  23.001  25.436  1.00  0.00     0.025 A 
ATOM     13  C   UNL A   1      34.889  21.616  25.630  1.00  0.00     0.123 A 
ATOM     14  C   UNL A   1      34.132  20.484  25.349  1.00  0.00     0.092 A 
ATOM     15  C   UNL A   1      34.311  22.884  25.589  1.00  0.00     0.058 A 
ATOM     16  C   UNL A   1      32.775  20.610  25.056  1.00  0.00     0.123 A 
ATOM     17  C   UNL A   1      32.161  21.862  25.136  1.00  0.00     0.058 A 
BRANCH  13  18
ATOM     18  O   UNL A   1      36.212  21.446  25.939  1.00  0.00    -0.497 OA
ATOM     19  C   UNL A   1      36.933  20.861  24.849  1.00  0.00     0.278 C 
ENDBRANCH  13  18
BRANCH  16  20
ATOM     20  O   UNL A   1      32.124  19.440  24.774  1.00  0.00    -0.497 OA
ATOM     21  C   UNL A   1      32.396  18.900  23.485  1.00  0.00     0.278 C 
ENDBRANCH  16  20
ENDBRANCH  10  12
ENDBRANCH   9  10
ENDBRANCH   7   9
ENDBRANCH   6   7
ENDBRANCH   4   6
ENDBRANCH   3   4
ENDBRANCH   2   3
ENDBRANCH   1   2
BRANCH   1  22
ATOM     22  O   UNL A   1      32.825  29.474  24.147  1.00  0.00    -0.374 OA
BRANCH  22  23
ATOM     23  C   UNL A   1      32.835  29.098  25.523  1.00  0.00     0.202 C 
BRANCH  23  24
ATOM     24  C   UNL A   1      32.525  30.190  26.551  1.00  0.00     0.261 C 
BRANCH  24  25
ATOM     25  O   UNL A   1      33.470  30.201  27.636  1.00  0.00    -0.460 OA
BRANCH  25  26
ATOM     26  C   UNL A   1      34.221  31.325  27.706  1.00  0.00     0.338 C 
ATOM     27  O   UNL A   1      33.811  32.482  27.694  1.00  0.00    -0.246 OA
BRANCH  26  28
ATOM     28  C   UNL A   1      35.628  31.005  28.000  1.00  0.00     0.060 A 
ATOM     29  C   UNL A   1      35.951  29.648  28.130  1.00  0.00     0.016 A 
ATOM     30  C   UNL A   1      36.586  31.989  28.253  1.00  0.00     0.016 A 
ATOM     31  C   UNL A   1      37.208  29.272  28.591  1.00  0.00     0.010 A 
ATOM     32  C   UNL A   1      37.851  31.608  28.723  1.00  0.00     0.010 A 
ATOM     33  C   UNL A   1      38.146  30.250  28.943  1.00  0.00    -0.014 A 
BRANCH  33  34
ATOM     34  C   UNL A   1      39.354  29.822  29.694  1.00  0.00     0.031 A 
ATOM     35  C   UNL A   1      39.644  30.450  31.034  1.00  0.00     0.074 A 
ATOM     36  C   UNL A   1      40.124  28.820  29.235  1.00  0.00     0.049 A 
ATOM     37  N   UNL A   1      40.583  30.162  31.896  1.00  0.00    -0.248 NA
ATOM     38  C   UNL A   1      38.755  31.545  31.461  1.00  0.00     0.031 C 
ATOM     39  C   UNL A   1      39.936  28.123  27.963  1.00  0.00     0.029 A 
ATOM     40  N   UNL A   1      41.216  28.204  29.794  1.00  0.00    -0.354 N 
ATOM     41  C   UNL A   1      40.405  31.039  32.962  1.00  0.00     0.074 A 
ATOM     42  C   UNL A   1      39.284  31.889  32.627  1.00  0.00     0.031 C 
ATOM     43  C   UNL A   1      40.884  27.178  27.836  1.00  0.00     0.029 A 
ATOM     44  C   UNL A   1      41.753  27.211  29.011  1.00  0.00     0.049 A 
ATOM     45  H   UNL A   1      41.581  28.453  30.675  1.00  0.00     0.167 HD
ATOM     46  C   UNL A   1      41.105  31.120  34.117  1.00  0.00     0.037 A 
ATOM     47  C   UNL A   1      42.827  26.423  29.217  1.00  0.00     0.037 A 
ATOM     48  C   UNL A   1      42.203  30.254  34.461  1.00  0.00     0.049 A 
ATOM     49  C   UNL A   1      43.591  26.540  30.511  1.00  0.00     0.074 A 
ATOM     50  C   UNL A   1      42.942  30.226  35.632  1.00  0.00     0.029 A 
ATOM     51  N   UNL A   1      42.724  29.269  33.638  1.00  0.00    -0.354 N 
ATOM     52  N   UNL A   1      43.373  27.339  31.529  1.00  0.00    -0.248 NA
ATOM     53  C   UNL A   1      44.736  25.637  30.690  1.00  0.00     0.031 C 
ATOM     54  C   UNL A   1      43.938  29.255  35.498  1.00  0.00     0.029 A 
ATOM     55  C   UNL A   1      43.790  28.644  34.264  1.00  0.00     0.049 A 
ATOM     56  H   UNL A   1      42.386  29.045  32.740  1.00  0.00     0.167 HD
ATOM     57  C   UNL A   1      44.342  27.018  32.476  1.00  0.00     0.074 A 
ATOM     58  C   UNL A   1      45.128  25.938  31.919  1.00  0.00     0.031 C 
ATOM     59  C   UNL A   1      44.562  27.569  33.697  1.00  0.00     0.037 A 
BRANCH  46  60
ATOM     60  C   UNL A   1      40.723  32.187  35.104  1.00  0.00     0.058 A 
ATOM     61  C   UNL A   1      39.752  31.966  36.094  1.00  0.00     0.135 A 
ATOM     62  C   UNL A   1      41.400  33.417  35.111  1.00  0.00     0.135 A 
ATOM     63  F   UNL A   1      39.060  30.816  36.118  1.00  0.00    -0.206 F 
ATOM     64  C   UNL A   1      39.468  32.929  37.058  1.00  0.00     0.059 A 
ATOM     65  C   UNL A   1      41.147  34.384  36.079  1.00  0.00     0.059 A 
ATOM     66  F   UNL A   1      42.331  33.680  34.182  1.00  0.00    -0.206 F 
ATOM     67  C   UNL A   1      40.177  34.131  37.048  1.00  0.00     0.060 A 
BRANCH  67  68
ATOM     68  S   UNL A   1      39.839  35.346  38.340  1.00  0.00     0.124 S 
ATOM     69  O   UNL A   1      38.719  34.723  39.039  1.00  0.00    -0.237 OA
ATOM     70  O   UNL A   1      41.102  35.383  39.071  1.00  0.00    -0.237 OA
ATOM     71  O   UNL A   1      39.515  36.557  37.592  1.00  0.00    -0.744 OA
ENDBRANCH  67  68
ENDBRANCH  46  60
BRANCH  47  72
ATOM     72  C   UNL A   1      43.264  25.463  28.168  1.00  0.00     0.058 A 
ATOM     73  C   UNL A   1      42.852  24.122  28.181  1.00  0.00     0.135 A 
ATOM     74  C   UNL A   1      44.140  25.867  27.148  1.00  0.00     0.135 A 
ATOM     75  F   UNL A   1      42.020  23.685  29.139  1.00  0.00    -0.206 F 
ATOM     76  C   UNL A   1      43.321  23.207  27.244  1.00  0.00     0.059 A 
ATOM     77  C   UNL A   1      44.600  24.977  26.184  1.00  0.00     0.059 A 
ATOM     78  F   UNL A   1      44.550  27.142  27.080  1.00  0.00    -0.206 F 
ATOM     79  C   UNL A   1      44.200  23.643  26.252  1.00  0.00     0.060 A 
BRANCH  79  80
ATOM     80  S   UNL A   1      44.795  22.457  25.027  1.00  0.00     0.124 S 
ATOM     81  O   UNL A   1      43.653  21.558  24.913  1.00  0.00    -0.237 OA
ATOM     82  O   UNL A   1      45.057  23.310  23.873  1.00  0.00    -0.237 OA
ATOM     83  O   UNL A   1      45.984  21.893  25.661  1.00  0.00    -0.744 OA
ENDBRANCH  79  80
ENDBRANCH  47  72
BRANCH  59  84
ATOM     84  C   UNL A   1      45.681  26.990  34.519  1.00  0.00     0.058 A 
ATOM     85  C   UNL A   1      46.981  27.519  34.472  1.00  0.00     0.135 A 
ATOM     86  C   UNL A   1      45.448  25.897  35.370  1.00  0.00     0.135 A 
ATOM     87  F   UNL A   1      47.257  28.562  33.674  1.00  0.00    -0.206 F 
ATOM     88  C   UNL A   1      48.021  26.956  35.204  1.00  0.00     0.059 A 
ATOM     89  C   UNL A   1      46.466  25.337  36.133  1.00  0.00     0.059 A 
ATOM     90  F   UNL A   1      44.220  25.364  35.465  1.00  0.00    -0.206 F 
ATOM     91  C   UNL A   1      47.755  25.858  36.025  1.00  0.00     0.060 A 
BRANCH  91  92
ATOM     92  S   UNL A   1      49.114  25.124  36.959  1.00  0.00     0.124 S 
ATOM     93  O   UNL A   1      48.505  24.951  38.274  1.00  0.00    -0.237 OA
ATOM     94  O   UNL A   1      49.381  23.895  36.217  1.00  0.00    -0.237 OA
ATOM     95  O   UNL A   1      50.164  26.135  36.882  1.00  0.00    -0.744 OA
ENDBRANCH  91  92
ENDBRANCH  59  84
ENDBRANCH  33  34
ENDBRANCH  26  28
ENDBRANCH  25  26
ENDBRANCH  24  25
ENDBRANCH  23  24
ENDBRANCH  22  23
ENDBRANCH   1  22
TORSDOF 23
ENDMDL
