MODEL 1
REMARK VINA RESULT:     -12.6      0.000      0.000
REMARK SMILES Cc1ccc(S(=O)(=O)n2cc(C(=O)C(=O)N[C@@H](Cc3cnc[nH]3)C(=O)OCCOCCOC(=O)c3ccc(-c4c5nc(c(-c6c(F)cc(S(=O)(=O)[O-])cc6F)c6ccc([nH]6)c(-c6c(F)cc(S(=O)(=O)[O-])cc6F)c6nc(c(-c7c(F)cc(S(=O)(=O)[O-])cc7F)c7ccc4[nH]7)C=C6)C=C5)cc3)c3ccccc32)cc1
REMARK SMILES IDX 28 1 27 2 26 3 24 4 25 5 17 6 16 7 14 8 15 9 12 11 13 12
REMARK SMILES IDX 11 13 9 14 10 15 106 16 101 17 105 18 102 19 104 20 103 21
REMARK SMILES IDX 6 22 7 23 8 24 5 25 1 26 2 27 3 28 108 29 4 30 107 31 18 32
REMARK SMILES IDX 19 33 20 34 23 35 21 36 22 37 29 39 30 40 31 41 32 42 33 43
REMARK SMILES IDX 34 44 35 45 36 46 100 47 37 48 99 49 38 50 39 51 40 52 93 53
REMARK SMILES IDX 41 54 98 55 92 56 94 57 42 58 97 59 91 60 90 61 43 63 77 64
REMARK SMILES IDX 56 65 76 66 57 67 60 68 75 69 95 70 58 71 59 72 74 74 96 75
REMARK SMILES IDX 61 76 44 77 45 78 54 79 46 80 47 81 53 82 55 83 48 84 49 85
REMARK SMILES IDX 50 86 51 87 52 88 78 89 79 90 88 91 80 92 81 93 87 94 89 95
REMARK SMILES IDX 82 96 83 97 84 98 85 99 86 100 62 101 63 102 72 103 64 104
REMARK SMILES IDX 65 105 71 106 73 107 66 108 67 109 68 110 69 111 70 112
REMARK H PARENT 16 10 23 38 94 62 60 73
REMARK Flexibility Score: inf
ROOT
ATOM      1  C   UNL A   1      33.935  18.678  24.665  1.00  0.00     0.202 C 
ENDROOT
BRANCH   1   2
ATOM      2  C   UNL A   1      32.528  18.724  24.100  1.00  0.00     0.261 C 
BRANCH   2   3
ATOM      3  O   UNL A   1      32.024  20.009  24.429  1.00  0.00    -0.462 OA
BRANCH   3   4
ATOM      4  C   UNL A   1      32.081  20.825  23.361  1.00  0.00     0.329 C 
ATOM      5  O   UNL A   1      31.813  20.476  22.219  1.00  0.00    -0.250 OA
BRANCH   4   6
ATOM      6  C   UNL A   1      32.603  22.199  23.757  1.00  0.00     0.198 C 
BRANCH   6   7
ATOM      7  N   UNL A   1      33.934  22.534  23.210  1.00  0.00    -0.335 N 
ATOM      8  C   UNL A   1      34.884  23.403  23.692  1.00  0.00     0.293 C 
ATOM      9  O   UNL A   1      35.890  23.639  23.031  1.00  0.00    -0.265 OA
ATOM     10  H   UNL A   1      34.177  22.065  22.379  1.00  0.00     0.164 HD
BRANCH   8  11
ATOM     11  C   UNL A   1      34.634  24.118  25.035  1.00  0.00     0.252 C 
ATOM     12  O   UNL A   1      34.883  23.512  26.074  1.00  0.00    -0.283 OA
BRANCH  11  13
ATOM     13  C   UNL A   1      34.006  25.436  25.081  1.00  0.00     0.054 A 
ATOM     14  N   UNL A   1      33.109  27.332  25.814  1.00  0.00    -0.240 N 
ATOM     15  C   UNL A   1      33.581  26.112  26.208  1.00  0.00     0.117 A 
ATOM     16  C   UNL A   1      33.197  27.491  24.447  1.00  0.00     0.065 A 
ATOM     17  C   UNL A   1      33.722  26.287  23.958  1.00  0.00     0.012 A 
ATOM     18  C   UNL A   1      32.846  28.547  23.588  1.00  0.00     0.028 A 
ATOM     19  C   UNL A   1      33.887  26.141  22.562  1.00  0.00     0.011 A 
ATOM     20  C   UNL A   1      33.017  28.369  22.212  1.00  0.00     0.002 A 
ATOM     21  C   UNL A   1      33.528  27.182  21.703  1.00  0.00     0.001 A 
BRANCH  14  22
ATOM     22  S   UNL A   1      32.417  28.452  26.888  1.00  0.00     0.268 S 
ATOM     23  O   UNL A   1      32.139  27.695  28.101  1.00  0.00    -0.201 OA
ATOM     24  O   UNL A   1      31.368  29.131  26.161  1.00  0.00    -0.201 OA
BRANCH  22  25
ATOM     25  C   UNL A   1      33.654  29.655  27.286  1.00  0.00     0.088 A 
ATOM     26  C   UNL A   1      36.380  32.719  28.571  1.00  0.00     0.044 C 
ATOM     27  C   UNL A   1      35.442  31.650  28.096  1.00  0.00    -0.051 A 
ATOM     28  C   UNL A   1      34.128  31.982  27.743  1.00  0.00     0.005 A 
ATOM     29  C   UNL A   1      35.862  30.317  27.996  1.00  0.00     0.005 A 
ATOM     30  C   UNL A   1      33.235  30.989  27.344  1.00  0.00     0.022 A 
ATOM     31  C   UNL A   1      34.977  29.320  27.580  1.00  0.00     0.022 A 
ENDBRANCH  22  25
ENDBRANCH  14  22
ENDBRANCH  11  13
ENDBRANCH   8  11
ENDBRANCH   6   7
BRANCH   6  32
ATOM     32  C   UNL A   1      31.518  23.228  23.379  1.00  0.00     0.092 C 
BRANCH  32  33
ATOM     33  C   UNL A   1      30.893  23.925  24.539  1.00  0.00     0.037 A 
ATOM     34  C   UNL A   1      30.800  23.566  25.867  1.00  0.00     0.134 A 
ATOM     35  N   UNL A   1      30.300  25.160  24.469  1.00  0.00    -0.348 N 
ATOM     36  N   UNL A   1      30.164  24.532  26.595  1.00  0.00    -0.245 NA
ATOM     37  C   UNL A   1      29.865  25.472  25.727  1.00  0.00     0.196 A 
ATOM     38  H   UNL A   1      30.206  25.718  23.664  1.00  0.00     0.167 HD
ENDBRANCH  32  33
ENDBRANCH   6  32
ENDBRANCH   4   6
ENDBRANCH   3   4
ENDBRANCH   2   3
ENDBRANCH   1   2
BRANCH   1  39
ATOM     39  O   UNL A   1      34.730  19.843  24.935  1.00  0.00    -0.374 OA
BRANCH  39  40
ATOM     40  C   UNL A   1      36.238  19.967  24.850  1.00  0.00     0.202 C 
BRANCH  40  41
ATOM     41  C   UNL A   1      37.648  21.197  24.973  1.00  0.00     0.261 C 
BRANCH  41  42
ATOM     42  O   UNL A   1      39.118  21.431  25.956  1.00  0.00    -0.460 OA
BRANCH  42  43
ATOM     43  C   UNL A   1      40.524  21.273  26.494  1.00  0.00     0.338 C 
ATOM     44  O   UNL A   1      41.065  20.216  26.117  1.00  0.00    -0.246 OA
BRANCH  43  45
ATOM     45  C   UNL A   1      41.534  22.065  27.721  1.00  0.00     0.060 A 
ATOM     46  C   UNL A   1      41.068  23.260  28.320  1.00  0.00     0.016 A 
ATOM     47  C   UNL A   1      42.922  21.967  27.990  1.00  0.00     0.016 A 
ATOM     48  C   UNL A   1      41.961  24.436  28.511  1.00  0.00     0.010 A 
ATOM     49  C   UNL A   1      43.806  23.139  28.078  1.00  0.00     0.010 A 
ATOM     50  C   UNL A   1      43.305  24.439  28.063  1.00  0.00    -0.014 A 
BRANCH  50  51
ATOM     51  C   UNL A   1      43.971  25.593  27.210  1.00  0.00     0.031 A 
ATOM     52  C   UNL A   1      45.345  25.460  26.691  1.00  0.00     0.074 A 
ATOM     53  C   UNL A   1      43.492  26.774  26.653  1.00  0.00     0.049 A 
ATOM     54  N   UNL A   1      46.362  26.149  27.108  1.00  0.00    -0.248 NA
ATOM     55  C   UNL A   1      45.531  24.783  25.408  1.00  0.00     0.031 C 
ATOM     56  C   UNL A   1      44.216  27.932  26.060  1.00  0.00     0.029 A 
ATOM     57  N   UNL A   1      42.227  27.331  26.621  1.00  0.00    -0.354 N 
ATOM     58  C   UNL A   1      47.248  26.184  26.043  1.00  0.00     0.074 A 
ATOM     59  C   UNL A   1      46.741  25.232  25.060  1.00  0.00     0.031 C 
ATOM     60  C   UNL A   1      43.494  29.065  26.236  1.00  0.00     0.029 A 
ATOM     61  C   UNL A   1      42.276  28.698  26.918  1.00  0.00     0.049 A 
ATOM     62  H   UNL A   1      41.403  26.834  26.415  1.00  0.00     0.167 HD
ATOM     63  C   UNL A   1      48.097  27.230  25.784  1.00  0.00     0.037 A 
ATOM     64  C   UNL A   1      41.724  29.137  28.098  1.00  0.00     0.037 A 
ATOM     65  C   UNL A   1      47.656  28.503  26.383  1.00  0.00     0.049 A 
ATOM     66  C   UNL A   1      42.869  29.608  29.036  1.00  0.00     0.074 A 
ATOM     67  C   UNL A   1      47.344  29.754  25.863  1.00  0.00     0.029 A 
ATOM     68  N   UNL A   1      47.210  28.549  27.695  1.00  0.00    -0.354 N 
ATOM     69  N   UNL A   1      44.081  29.827  28.595  1.00  0.00    -0.248 NA
ATOM     70  C   UNL A   1      42.811  29.820  30.489  1.00  0.00     0.031 C 
ATOM     71  C   UNL A   1      46.791  30.564  26.894  1.00  0.00     0.029 A 
ATOM     72  C   UNL A   1      46.737  29.801  28.041  1.00  0.00     0.049 A 
ATOM     73  H   UNL A   1      47.228  27.779  28.309  1.00  0.00     0.167 HD
ATOM     74  C   UNL A   1      44.962  30.010  29.629  1.00  0.00     0.074 A 
ATOM     75  C   UNL A   1      44.105  30.069  30.799  1.00  0.00     0.031 C 
ATOM     76  C   UNL A   1      46.315  30.047  29.414  1.00  0.00     0.037 A 
BRANCH  63  77
ATOM     77  C   UNL A   1      49.212  27.112  24.746  1.00  0.00     0.058 A 
ATOM     78  C   UNL A   1      49.015  27.343  23.369  1.00  0.00     0.135 A 
ATOM     79  C   UNL A   1      50.564  26.883  25.107  1.00  0.00     0.135 A 
ATOM     80  F   UNL A   1      47.826  27.713  22.876  1.00  0.00    -0.206 F 
ATOM     81  C   UNL A   1      50.042  27.250  22.423  1.00  0.00     0.059 A 
ATOM     82  C   UNL A   1      51.600  26.749  24.178  1.00  0.00     0.059 A 
ATOM     83  F   UNL A   1      50.941  26.820  26.394  1.00  0.00    -0.206 F 
ATOM     84  C   UNL A   1      51.330  26.935  22.832  1.00  0.00     0.060 A 
BRANCH  84  85
ATOM     85  S   UNL A   1      52.638  26.823  21.598  1.00  0.00     0.124 S 
ATOM     86  O   UNL A   1      52.049  25.934  20.602  1.00  0.00    -0.237 OA
ATOM     87  O   UNL A   1      52.795  28.216  21.194  1.00  0.00    -0.237 OA
ATOM     88  O   UNL A   1      53.762  26.259  22.342  1.00  0.00    -0.744 OA
ENDBRANCH  84  85
ENDBRANCH  63  77
BRANCH  64  89
ATOM     89  C   UNL A   1      40.494  28.256  28.460  1.00  0.00     0.058 A 
ATOM     90  C   UNL A   1      40.447  27.508  29.641  1.00  0.00     0.135 A 
ATOM     91  C   UNL A   1      39.324  28.937  28.318  1.00  0.00     0.135 A 
ATOM     92  F   UNL A   1      41.244  26.437  29.748  1.00  0.00    -0.206 F 
ATOM     93  C   UNL A   1      39.521  27.756  30.737  1.00  0.00     0.059 A 
ATOM     94  C   UNL A   1      38.642  29.368  29.516  1.00  0.00     0.059 A 
ATOM     95  F   UNL A   1      39.167  29.591  27.162  1.00  0.00    -0.206 F 
ATOM     96  C   UNL A   1      38.680  28.879  30.785  1.00  0.00     0.060 A 
BRANCH  96  97
ATOM     97  S   UNL A   1      37.320  29.930  32.199  1.00  0.00     0.124 S 
ATOM     98  O   UNL A   1      37.673  31.333  32.356  1.00  0.00    -0.237 OA
ATOM     99  O   UNL A   1      36.046  29.753  31.512  1.00  0.00    -0.237 OA
ATOM    100  O   UNL A   1      37.429  29.332  33.520  1.00  0.00    -0.744 OA
ENDBRANCH  96  97
ENDBRANCH  64  89
BRANCH  76 101
ATOM    101  C   UNL A   1      47.406  30.308  30.432  1.00  0.00     0.058 A 
ATOM    102  C   UNL A   1      47.916  31.585  30.705  1.00  0.00     0.135 A 
ATOM    103  C   UNL A   1      48.100  29.235  31.056  1.00  0.00     0.135 A 
ATOM    104  F   UNL A   1      47.417  32.668  30.090  1.00  0.00    -0.206 F 
ATOM    105  C   UNL A   1      48.978  31.790  31.598  1.00  0.00     0.059 A 
ATOM    106  C   UNL A   1      49.182  29.411  31.910  1.00  0.00     0.059 A 
ATOM    107  F   UNL A   1      47.740  27.957  30.880  1.00  0.00    -0.206 F 
ATOM    108  C   UNL A   1      49.589  30.696  32.212  1.00  0.00     0.060 A 
BRANCH 108 109
ATOM    109  S   UNL A   1      50.898  30.951  33.424  1.00  0.00     0.124 S 
ATOM    110  O   UNL A   1      50.584  29.958  34.446  1.00  0.00    -0.237 OA
ATOM    111  O   UNL A   1      52.086  30.678  32.621  1.00  0.00    -0.237 OA
ATOM    112  O   UNL A   1      50.722  32.340  33.834  1.00  0.00    -0.744 OA
ENDBRANCH 108 109
ENDBRANCH  76 101
ENDBRANCH  50  51
ENDBRANCH  43  45
ENDBRANCH  42  43
ENDBRANCH  41  42
ENDBRANCH  40  41
ENDBRANCH  39  40
ENDBRANCH   1  39
TORSDOF 24
ENDMDL
MODEL 2
REMARK VINA RESULT:     -12.3      4.771      9.125
REMARK SMILES Cc1ccc(S(=O)(=O)n2cc(C(=O)C(=O)N[C@@H](Cc3cnc[nH]3)C(=O)OCCOCCOC(=O)c3ccc(-c4c5nc(c(-c6c(F)cc(S(=O)(=O)[O-])cc6F)c6ccc([nH]6)c(-c6c(F)cc(S(=O)(=O)[O-])cc6F)c6nc(c(-c7c(F)cc(S(=O)(=O)[O-])cc7F)c7ccc4[nH]7)C=C6)C=C5)cc3)c3ccccc32)cc1
REMARK SMILES IDX 28 1 27 2 26 3 24 4 25 5 17 6 16 7 14 8 15 9 12 11 13 12
REMARK SMILES IDX 11 13 9 14 10 15 106 16 101 17 105 18 102 19 104 20 103 21
REMARK SMILES IDX 6 22 7 23 8 24 5 25 1 26 2 27 3 28 108 29 4 30 107 31 18 32
REMARK SMILES IDX 19 33 20 34 23 35 21 36 22 37 29 39 30 40 31 41 32 42 33 43
REMARK SMILES IDX 34 44 35 45 36 46 100 47 37 48 99 49 38 50 39 51 40 52 93 53
REMARK SMILES IDX 41 54 98 55 92 56 94 57 42 58 97 59 91 60 90 61 43 63 77 64
REMARK SMILES IDX 56 65 76 66 57 67 60 68 75 69 95 70 58 71 59 72 74 74 96 75
REMARK SMILES IDX 61 76 44 77 45 78 54 79 46 80 47 81 53 82 55 83 48 84 49 85
REMARK SMILES IDX 50 86 51 87 52 88 78 89 79 90 88 91 80 92 81 93 87 94 89 95
REMARK SMILES IDX 82 96 83 97 84 98 85 99 86 100 62 101 63 102 72 103 64 104
REMARK SMILES IDX 65 105 71 106 73 107 66 108 67 109 68 110 69 111 70 112
REMARK H PARENT 16 10 23 38 94 62 60 73
REMARK Flexibility Score: inf
ROOT
ATOM      1  C   UNL A   1      36.699  19.913  24.832  1.00  0.00     0.202 C 
ENDROOT
BRANCH   1   2
ATOM      2  C   UNL A   1      35.268  19.427  24.969  1.00  0.00     0.261 C 
BRANCH   2   3
ATOM      3  O   UNL A   1      34.624  20.369  25.813  1.00  0.00    -0.462 OA
BRANCH   3   4
ATOM      4  C   UNL A   1      33.368  20.599  25.390  1.00  0.00     0.329 C 
ATOM      5  O   UNL A   1      32.490  19.747  25.358  1.00  0.00    -0.250 OA
BRANCH   4   6
ATOM      6  C   UNL A   1      33.221  22.026  24.882  1.00  0.00     0.198 C 
BRANCH   6   7
ATOM      7  N   UNL A   1      34.157  22.395  23.800  1.00  0.00    -0.335 N 
ATOM      8  C   UNL A   1      34.962  23.503  23.679  1.00  0.00     0.293 C 
ATOM      9  O   UNL A   1      35.591  23.693  22.644  1.00  0.00    -0.265 OA
ATOM     10  H   UNL A   1      34.215  21.751  23.056  1.00  0.00     0.164 HD
BRANCH   8  11
ATOM     11  C   UNL A   1      35.010  24.524  24.834  1.00  0.00     0.252 C 
ATOM     12  O   UNL A   1      35.814  24.340  25.743  1.00  0.00    -0.283 OA
BRANCH  11  13
ATOM     13  C   UNL A   1      34.047  25.619  24.911  1.00  0.00     0.054 A 
ATOM     14  N   UNL A   1      32.923  27.410  25.594  1.00  0.00    -0.240 N 
ATOM     15  C   UNL A   1      33.889  26.513  25.951  1.00  0.00     0.117 A 
ATOM     16  C   UNL A   1      32.418  27.136  24.341  1.00  0.00     0.065 A 
ATOM     17  C   UNL A   1      33.085  25.983  23.907  1.00  0.00     0.012 A 
ATOM     18  C   UNL A   1      31.431  27.760  23.557  1.00  0.00     0.028 A 
ATOM     19  C   UNL A   1      32.737  25.436  22.651  1.00  0.00     0.011 A 
ATOM     20  C   UNL A   1      31.107  27.191  22.322  1.00  0.00     0.002 A 
ATOM     21  C   UNL A   1      31.747  26.043  21.874  1.00  0.00     0.001 A 
BRANCH  14  22
ATOM     22  S   UNL A   1      32.368  28.638  26.628  1.00  0.00     0.268 S 
ATOM     23  O   UNL A   1      31.812  27.943  27.781  1.00  0.00    -0.201 OA
ATOM     24  O   UNL A   1      31.564  29.529  25.821  1.00  0.00    -0.201 OA
BRANCH  22  25
ATOM     25  C   UNL A   1      33.778  29.552  27.188  1.00  0.00     0.088 A 
ATOM     26  C   UNL A   1      36.947  31.901  28.892  1.00  0.00     0.044 C 
ATOM     27  C   UNL A   1      35.854  31.084  28.271  1.00  0.00    -0.051 A 
ATOM     28  C   UNL A   1      34.611  31.671  28.003  1.00  0.00     0.005 A 
ATOM     29  C   UNL A   1      36.059  29.736  27.949  1.00  0.00     0.005 A 
ATOM     30  C   UNL A   1      33.574  30.908  27.469  1.00  0.00     0.022 A 
ATOM     31  C   UNL A   1      35.029  28.971  27.397  1.00  0.00     0.022 A 
ENDBRANCH  22  25
ENDBRANCH  14  22
ENDBRANCH  11  13
ENDBRANCH   8  11
ENDBRANCH   6   7
BRANCH   6  32
ATOM     32  C   UNL A   1      31.742  22.226  24.494  1.00  0.00     0.092 C 
BRANCH  32  33
ATOM     33  C   UNL A   1      30.903  22.857  25.553  1.00  0.00     0.037 A 
ATOM     34  C   UNL A   1      30.682  24.183  25.862  1.00  0.00     0.134 A 
ATOM     35  N   UNL A   1      30.117  22.158  26.434  1.00  0.00    -0.348 N 
ATOM     36  N   UNL A   1      29.803  24.306  26.901  1.00  0.00    -0.245 NA
ATOM     37  C   UNL A   1      29.490  23.074  27.231  1.00  0.00     0.196 A 
ATOM     38  H   UNL A   1      30.022  21.179  26.482  1.00  0.00     0.167 HD
ENDBRANCH  32  33
ENDBRANCH   6  32
ENDBRANCH   4   6
ENDBRANCH   3   4
ENDBRANCH   2   3
ENDBRANCH   1   2
BRANCH   1  39
ATOM     39  O   UNL A   1      37.219  21.080  25.488  1.00  0.00    -0.374 OA
BRANCH  39  40
ATOM     40  C   UNL A   1      38.674  21.429  25.726  1.00  0.00     0.202 C 
BRANCH  40  41
ATOM     41  C   UNL A   1      39.806  22.484  26.785  1.00  0.00     0.261 C 
BRANCH  41  42
ATOM     42  O   UNL A   1      39.747  24.055  27.626  1.00  0.00    -0.460 OA
BRANCH  42  43
ATOM     43  C   UNL A   1      40.114  25.448  28.091  1.00  0.00     0.338 C 
ATOM     44  O   UNL A   1      41.325  25.557  28.364  1.00  0.00    -0.246 OA
BRANCH  43  45
ATOM     45  C   UNL A   1      39.246  26.913  28.593  1.00  0.00     0.060 A 
ATOM     46  C   UNL A   1      39.556  28.141  27.959  1.00  0.00     0.016 A 
ATOM     47  C   UNL A   1      38.538  27.214  29.784  1.00  0.00     0.016 A 
ATOM     48  C   UNL A   1      39.742  29.395  28.741  1.00  0.00     0.010 A 
ATOM     49  C   UNL A   1      38.806  28.412  30.593  1.00  0.00     0.010 A 
ATOM     50  C   UNL A   1      39.666  29.418  30.154  1.00  0.00    -0.014 A 
BRANCH  50  51
ATOM     51  C   UNL A   1      40.734  30.093  31.108  1.00  0.00     0.031 A 
ATOM     52  C   UNL A   1      40.330  31.082  32.124  1.00  0.00     0.074 A 
ATOM     53  C   UNL A   1      42.086  29.869  31.345  1.00  0.00     0.049 A 
ATOM     54  N   UNL A   1      40.616  32.347  32.079  1.00  0.00    -0.248 NA
ATOM     55  C   UNL A   1      39.890  30.586  33.427  1.00  0.00     0.031 C 
ATOM     56  C   UNL A   1      43.091  30.685  32.080  1.00  0.00     0.029 A 
ATOM     57  N   UNL A   1      42.966  28.927  30.845  1.00  0.00    -0.354 N 
ATOM     58  C   UNL A   1      40.612  32.775  33.397  1.00  0.00     0.074 A 
ATOM     59  C   UNL A   1      40.046  31.680  34.178  1.00  0.00     0.031 C 
ATOM     60  C   UNL A   1      44.323  30.482  31.553  1.00  0.00     0.029 A 
ATOM     61  C   UNL A   1      44.181  29.521  30.485  1.00  0.00     0.049 A 
ATOM     62  H   UNL A   1      42.765  27.967  30.754  1.00  0.00     0.167 HD
ATOM     63  C   UNL A   1      41.412  33.778  33.881  1.00  0.00     0.037 A 
ATOM     64  C   UNL A   1      44.518  29.582  29.154  1.00  0.00     0.037 A 
ATOM     65  C   UNL A   1      42.616  34.012  33.063  1.00  0.00     0.049 A 
ATOM     66  C   UNL A   1      44.464  31.065  28.696  1.00  0.00     0.074 A 
ATOM     67  C   UNL A   1      43.981  33.971  33.325  1.00  0.00     0.029 A 
ATOM     68  N   UNL A   1      42.528  34.082  31.681  1.00  0.00    -0.354 N 
ATOM     69  N   UNL A   1      44.421  32.053  29.552  1.00  0.00    -0.248 NA
ATOM     70  C   UNL A   1      44.397  31.579  27.321  1.00  0.00     0.031 C 
ATOM     71  C   UNL A   1      44.696  34.103  32.102  1.00  0.00     0.029 A 
ATOM     72  C   UNL A   1      43.770  34.195  31.085  1.00  0.00     0.049 A 
ATOM     73  H   UNL A   1      41.680  34.054  31.182  1.00  0.00     0.167 HD
ATOM     74  C   UNL A   1      44.149  33.242  28.926  1.00  0.00     0.074 A 
ATOM     75  C   UNL A   1      44.214  32.906  27.515  1.00  0.00     0.031 C 
ATOM     76  C   UNL A   1      43.852  34.373  29.642  1.00  0.00     0.037 A 
BRANCH  63  77
ATOM     77  C   UNL A   1      41.194  34.367  35.274  1.00  0.00     0.058 A 
ATOM     78  C   UNL A   1      41.977  34.016  36.394  1.00  0.00     0.135 A 
ATOM     79  C   UNL A   1      40.266  35.410  35.522  1.00  0.00     0.135 A 
ATOM     80  F   UNL A   1      42.995  33.151  36.304  1.00  0.00    -0.206 F 
ATOM     81  C   UNL A   1      41.786  34.570  37.665  1.00  0.00     0.059 A 
ATOM     82  C   UNL A   1      40.031  35.951  36.789  1.00  0.00     0.059 A 
ATOM     83  F   UNL A   1      39.572  35.976  34.521  1.00  0.00    -0.206 F 
ATOM     84  C   UNL A   1      40.798  35.525  37.859  1.00  0.00     0.060 A 
BRANCH  84  85
ATOM     85  S   UNL A   1      40.570  36.227  39.503  1.00  0.00     0.124 S 
ATOM     86  O   UNL A   1      39.839  35.169  40.193  1.00  0.00    -0.237 OA
ATOM     87  O   UNL A   1      41.947  36.436  39.938  1.00  0.00    -0.237 OA
ATOM     88  O   UNL A   1      39.803  37.444  39.251  1.00  0.00    -0.744 OA
ENDBRANCH  84  85
ENDBRANCH  63  77
BRANCH  64  89
ATOM     89  C   UNL A   1      43.959  28.333  28.415  1.00  0.00     0.058 A 
ATOM     90  C   UNL A   1      43.537  28.394  27.083  1.00  0.00     0.135 A 
ATOM     91  C   UNL A   1      44.760  27.245  28.579  1.00  0.00     0.135 A 
ATOM     92  F   UNL A   1      42.413  29.063  26.800  1.00  0.00    -0.206 F 
ATOM     93  C   UNL A   1      44.188  27.699  25.981  1.00  0.00     0.059 A 
ATOM     94  C   UNL A   1      45.573  26.829  27.460  1.00  0.00     0.059 A 
ATOM     95  F   UNL A   1      45.130  26.978  29.837  1.00  0.00    -0.206 F 
ATOM     96  C   UNL A   1      45.408  27.018  26.123  1.00  0.00     0.060 A 
BRANCH  96  97
ATOM     97  S   UNL A   1      46.974  26.048  24.874  1.00  0.00     0.124 S 
ATOM     98  O   UNL A   1      46.583  24.716  24.443  1.00  0.00    -0.237 OA
ATOM     99  O   UNL A   1      47.041  26.992  23.764  1.00  0.00    -0.237 OA
ATOM    100  O   UNL A   1      48.192  25.884  25.653  1.00  0.00    -0.744 OA
ENDBRANCH  96  97
ENDBRANCH  64  89
BRANCH  76 101
ATOM    101  C   UNL A   1      43.599  35.767  29.105  1.00  0.00     0.058 A 
ATOM    102  C   UNL A   1      44.536  36.807  29.188  1.00  0.00     0.135 A 
ATOM    103  C   UNL A   1      42.315  36.149  28.630  1.00  0.00     0.135 A 
ATOM    104  F   UNL A   1      45.748  36.595  29.723  1.00  0.00    -0.206 F 
ATOM    105  C   UNL A   1      44.248  38.108  28.751  1.00  0.00     0.059 A 
ATOM    106  C   UNL A   1      41.993  37.441  28.232  1.00  0.00     0.059 A 
ATOM    107  F   UNL A   1      41.311  35.270  28.508  1.00  0.00    -0.206 F 
ATOM    108  C   UNL A   1      42.979  38.408  28.254  1.00  0.00     0.060 A 
BRANCH 108 109
ATOM    109  S   UNL A   1      42.623  40.054  27.612  1.00  0.00     0.124 S 
ATOM    110  O   UNL A   1      41.907  40.679  28.719  1.00  0.00    -0.237 OA
ATOM    111  O   UNL A   1      43.969  40.560  27.362  1.00  0.00    -0.237 OA
ATOM    112  O   UNL A   1      41.819  39.793  26.422  1.00  0.00    -0.744 OA
ENDBRANCH 108 109
ENDBRANCH  76 101
ENDBRANCH  50  51
ENDBRANCH  43  45
ENDBRANCH  42  43
ENDBRANCH  41  42
ENDBRANCH  40  41
ENDBRANCH  39  40
ENDBRANCH   1  39
TORSDOF 24
ENDMDL
MODEL 3
REMARK VINA RESULT:     -11.3      4.690      7.864
REMARK SMILES Cc1ccc(S(=O)(=O)n2cc(C(=O)C(=O)N[C@@H](Cc3cnc[nH]3)C(=O)OCCOCCOC(=O)c3ccc(-c4c5nc(c(-c6c(F)cc(S(=O)(=O)[O-])cc6F)c6ccc([nH]6)c(-c6c(F)cc(S(=O)(=O)[O-])cc6F)c6nc(c(-c7c(F)cc(S(=O)(=O)[O-])cc7F)c7ccc4[nH]7)C=C6)C=C5)cc3)c3ccccc32)cc1
REMARK SMILES IDX 28 1 27 2 26 3 24 4 25 5 17 6 16 7 14 8 15 9 12 11 13 12
REMARK SMILES IDX 11 13 9 14 10 15 106 16 101 17 105 18 102 19 104 20 103 21
REMARK SMILES IDX 6 22 7 23 8 24 5 25 1 26 2 27 3 28 108 29 4 30 107 31 18 32
REMARK SMILES IDX 19 33 20 34 23 35 21 36 22 37 29 39 30 40 31 41 32 42 33 43
REMARK SMILES IDX 34 44 35 45 36 46 100 47 37 48 99 49 38 50 39 51 40 52 93 53
REMARK SMILES IDX 41 54 98 55 92 56 94 57 42 58 97 59 91 60 90 61 43 63 77 64
REMARK SMILES IDX 56 65 76 66 57 67 60 68 75 69 95 70 58 71 59 72 74 74 96 75
REMARK SMILES IDX 61 76 44 77 45 78 54 79 46 80 47 81 53 82 55 83 48 84 49 85
REMARK SMILES IDX 50 86 51 87 52 88 78 89 79 90 88 91 80 92 81 93 87 94 89 95
REMARK SMILES IDX 82 96 83 97 84 98 85 99 86 100 62 101 63 102 72 103 64 104
REMARK SMILES IDX 65 105 71 106 73 107 66 108 67 109 68 110 69 111 70 112
REMARK H PARENT 16 10 23 38 94 62 60 73
REMARK Flexibility Score: inf
ROOT
ATOM      1  C   UNL A   1      36.852  21.281  24.737  1.00  0.00     0.202 C 
ENDROOT
BRANCH   1   2
ATOM      2  C   UNL A   1      35.660  20.388  25.031  1.00  0.00     0.261 C 
BRANCH   2   3
ATOM      3  O   UNL A   1      34.927  21.051  26.048  1.00  0.00    -0.462 OA
BRANCH   3   4
ATOM      4  C   UNL A   1      33.604  20.950  25.818  1.00  0.00     0.329 C 
ATOM      5  O   UNL A   1      32.958  19.924  25.983  1.00  0.00    -0.250 OA
BRANCH   4   6
ATOM      6  C   UNL A   1      33.053  22.249  25.249  1.00  0.00     0.198 C 
BRANCH   6   7
ATOM      7  N   UNL A   1      33.498  22.558  23.874  1.00  0.00    -0.335 N 
ATOM      8  C   UNL A   1      34.153  23.668  23.396  1.00  0.00     0.293 C 
ATOM      9  O   UNL A   1      34.337  23.798  22.190  1.00  0.00    -0.265 OA
ATOM     10  H   UNL A   1      33.298  21.867  23.202  1.00  0.00     0.164 HD
BRANCH   8  11
ATOM     11  C   UNL A   1      34.591  24.766  24.386  1.00  0.00     0.252 C 
ATOM     12  O   UNL A   1      35.633  24.604  25.014  1.00  0.00    -0.283 OA
BRANCH  11  13
ATOM     13  C   UNL A   1      33.733  25.915  24.663  1.00  0.00     0.054 A 
ATOM     14  N   UNL A   1      32.786  27.664  25.654  1.00  0.00    -0.240 N 
ATOM     15  C   UNL A   1      33.669  26.638  25.838  1.00  0.00     0.117 A 
ATOM     16  C   UNL A   1      32.245  27.645  24.386  1.00  0.00     0.065 A 
ATOM     17  C   UNL A   1      32.799  26.523  23.755  1.00  0.00     0.012 A 
ATOM     18  C   UNL A   1      31.313  28.473  23.738  1.00  0.00     0.028 A 
ATOM     19  C   UNL A   1      32.389  26.221  22.436  1.00  0.00     0.011 A 
ATOM     20  C   UNL A   1      30.925  28.144  22.435  1.00  0.00     0.002 A 
ATOM     21  C   UNL A   1      31.452  27.032  21.792  1.00  0.00     0.001 A 
BRANCH  14  22
ATOM     22  S   UNL A   1      32.356  28.751  26.886  1.00  0.00     0.268 S 
ATOM     23  O   UNL A   1      32.042  27.918  28.038  1.00  0.00    -0.201 OA
ATOM     24  O   UNL A   1      31.382  29.658  26.319  1.00  0.00    -0.201 OA
BRANCH  22  25
ATOM     25  C   UNL A   1      33.794  29.701  27.294  1.00  0.00     0.088 A 
ATOM     26  C   UNL A   1      37.049  32.170  28.629  1.00  0.00     0.044 C 
ATOM     27  C   UNL A   1      35.925  31.309  28.136  1.00  0.00    -0.051 A 
ATOM     28  C   UNL A   1      34.671  31.878  27.879  1.00  0.00     0.005 A 
ATOM     29  C   UNL A   1      36.111  29.937  27.924  1.00  0.00     0.005 A 
ATOM     30  C   UNL A   1      33.608  31.078  27.465  1.00  0.00     0.022 A 
ATOM     31  C   UNL A   1      35.053  29.132  27.492  1.00  0.00     0.022 A 
ENDBRANCH  22  25
ENDBRANCH  14  22
ENDBRANCH  11  13
ENDBRANCH   8  11
ENDBRANCH   6   7
BRANCH   6  32
ATOM     32  C   UNL A   1      31.518  22.197  25.390  1.00  0.00     0.092 C 
BRANCH  32  33
ATOM     33  C   UNL A   1      30.866  23.527  25.561  1.00  0.00     0.037 A 
ATOM     34  C   UNL A   1      30.816  24.377  26.646  1.00  0.00     0.134 A 
ATOM     35  N   UNL A   1      30.193  24.190  24.567  1.00  0.00    -0.348 N 
ATOM     36  N   UNL A   1      30.129  25.519  26.344  1.00  0.00    -0.245 NA
ATOM     37  C   UNL A   1      29.757  25.374  25.093  1.00  0.00     0.196 A 
ATOM     38  H   UNL A   1      30.052  23.873  23.646  1.00  0.00     0.167 HD
ENDBRANCH  32  33
ENDBRANCH   6  32
ENDBRANCH   4   6
ENDBRANCH   3   4
ENDBRANCH   2   3
ENDBRANCH   1   2
BRANCH   1  39
ATOM     39  O   UNL A   1      37.449  22.166  25.697  1.00  0.00    -0.374 OA
BRANCH  39  40
ATOM     40  C   UNL A   1      38.905  22.227  26.110  1.00  0.00     0.202 C 
BRANCH  40  41
ATOM     41  C   UNL A   1      40.194  23.343  26.890  1.00  0.00     0.261 C 
BRANCH  41  42
ATOM     42  O   UNL A   1      41.042  24.862  26.496  1.00  0.00    -0.460 OA
BRANCH  42  43
ATOM     43  C   UNL A   1      41.394  26.181  25.840  1.00  0.00     0.338 C 
ATOM     44  O   UNL A   1      41.958  26.031  24.739  1.00  0.00    -0.246 OA
BRANCH  43  45
ATOM     45  C   UNL A   1      41.446  27.888  26.321  1.00  0.00     0.060 A 
ATOM     46  C   UNL A   1      42.582  28.661  25.974  1.00  0.00     0.016 A 
ATOM     47  C   UNL A   1      40.742  28.595  27.328  1.00  0.00     0.016 A 
ATOM     48  C   UNL A   1      43.231  29.575  26.955  1.00  0.00     0.010 A 
ATOM     49  C   UNL A   1      41.412  29.416  28.347  1.00  0.00     0.010 A 
ATOM     50  C   UNL A   1      42.778  29.686  28.292  1.00  0.00    -0.014 A 
BRANCH  50  51
ATOM     51  C   UNL A   1      43.708  29.613  29.571  1.00  0.00     0.031 A 
ATOM     52  C   UNL A   1      43.628  28.478  30.507  1.00  0.00     0.074 A 
ATOM     53  C   UNL A   1      44.791  30.366  30.014  1.00  0.00     0.049 A 
ATOM     54  N   UNL A   1      43.168  28.549  31.718  1.00  0.00    -0.248 NA
ATOM     55  C   UNL A   1      44.418  27.284  30.207  1.00  0.00     0.031 C 
ATOM     56  C   UNL A   1      45.477  30.395  31.334  1.00  0.00     0.029 A 
ATOM     57  N   UNL A   1      45.464  31.433  29.449  1.00  0.00    -0.354 N 
ATOM     58  C   UNL A   1      43.791  27.524  32.412  1.00  0.00     0.074 A 
ATOM     59  C   UNL A   1      44.463  26.703  31.410  1.00  0.00     0.031 C 
ATOM     60  C   UNL A   1      45.995  31.628  31.556  1.00  0.00     0.029 A 
ATOM     61  C   UNL A   1      45.696  32.435  30.398  1.00  0.00     0.049 A 
ATOM     62  H   UNL A   1      45.744  31.481  28.506  1.00  0.00     0.167 HD
ATOM     63  C   UNL A   1      44.105  27.579  33.746  1.00  0.00     0.037 A 
ATOM     64  C   UNL A   1      45.033  33.633  30.269  1.00  0.00     0.037 A 
ATOM     65  C   UNL A   1      44.212  28.955  34.265  1.00  0.00     0.049 A 
ATOM     66  C   UNL A   1      44.001  33.756  31.422  1.00  0.00     0.074 A 
ATOM     67  C   UNL A   1      45.231  29.675  34.879  1.00  0.00     0.029 A 
ATOM     68  N   UNL A   1      43.254  29.906  33.949  1.00  0.00    -0.354 N 
ATOM     69  N   UNL A   1      44.040  32.978  32.473  1.00  0.00    -0.248 NA
ATOM     70  C   UNL A   1      42.847  34.662  31.503  1.00  0.00     0.031 C 
ATOM     71  C   UNL A   1      44.834  31.036  34.999  1.00  0.00     0.029 A 
ATOM     72  C   UNL A   1      43.583  31.158  34.433  1.00  0.00     0.049 A 
ATOM     73  H   UNL A   1      42.435  29.712  33.439  1.00  0.00     0.167 HD
ATOM     74  C   UNL A   1      42.910  33.115  33.237  1.00  0.00     0.074 A 
ATOM     75  C   UNL A   1      42.222  34.238  32.626  1.00  0.00     0.031 C 
ATOM     76  C   UNL A   1      42.638  32.255  34.269  1.00  0.00     0.037 A 
BRANCH  63  77
ATOM     77  C   UNL A   1      44.568  26.338  34.507  1.00  0.00     0.058 A 
ATOM     78  C   UNL A   1      45.921  26.070  34.802  1.00  0.00     0.135 A 
ATOM     79  C   UNL A   1      43.657  25.418  35.087  1.00  0.00     0.135 A 
ATOM     80  F   UNL A   1      46.901  26.913  34.454  1.00  0.00    -0.206 F 
ATOM     81  C   UNL A   1      46.340  24.940  35.514  1.00  0.00     0.059 A 
ATOM     82  C   UNL A   1      44.052  24.264  35.768  1.00  0.00     0.059 A 
ATOM     83  F   UNL A   1      42.332  25.632  35.046  1.00  0.00    -0.206 F 
ATOM     84  C   UNL A   1      45.401  24.031  35.979  1.00  0.00     0.060 A 
BRANCH  84  85
ATOM     85  S   UNL A   1      45.962  22.584  36.895  1.00  0.00     0.124 S 
ATOM     86  O   UNL A   1      45.462  22.857  38.240  1.00  0.00    -0.237 OA
ATOM     87  O   UNL A   1      45.302  21.497  36.181  1.00  0.00    -0.237 OA
ATOM     88  O   UNL A   1      47.415  22.634  36.755  1.00  0.00    -0.744 OA
ENDBRANCH  84  85
ENDBRANCH  63  77
BRANCH  64  89
ATOM     89  C   UNL A   1      44.824  33.955  28.761  1.00  0.00     0.058 A 
ATOM     90  C   UNL A   1      43.549  33.999  28.189  1.00  0.00     0.135 A 
ATOM     91  C   UNL A   1      45.524  35.057  28.376  1.00  0.00     0.135 A 
ATOM     92  F   UNL A   1      42.879  32.850  28.034  1.00  0.00    -0.206 F 
ATOM     93  C   UNL A   1      42.926  35.204  27.658  1.00  0.00     0.059 A 
ATOM     94  C   UNL A   1      44.788  36.279  28.147  1.00  0.00     0.059 A 
ATOM     95  F   UNL A   1      46.812  35.085  28.736  1.00  0.00    -0.206 F 
ATOM     96  C   UNL A   1      43.485  36.483  27.812  1.00  0.00     0.060 A 
BRANCH  96  97
ATOM     97  S   UNL A   1      42.955  38.622  27.508  1.00  0.00     0.124 S 
ATOM     98  O   UNL A   1      44.012  39.357  26.831  1.00  0.00    -0.237 OA
ATOM     99  O   UNL A   1      41.763  38.478  26.680  1.00  0.00    -0.237 OA
ATOM    100  O   UNL A   1      42.769  39.270  28.797  1.00  0.00    -0.744 OA
ENDBRANCH  96  97
ENDBRANCH  64  89
BRANCH  76 101
ATOM    101  C   UNL A   1      41.477  32.314  35.240  1.00  0.00     0.058 A 
ATOM    102  C   UNL A   1      41.603  32.758  36.565  1.00  0.00     0.135 A 
ATOM    103  C   UNL A   1      40.213  31.757  34.908  1.00  0.00     0.135 A 
ATOM    104  F   UNL A   1      42.780  33.202  37.029  1.00  0.00    -0.206 F 
ATOM    105  C   UNL A   1      40.528  32.731  37.465  1.00  0.00     0.059 A 
ATOM    106  C   UNL A   1      39.147  31.681  35.796  1.00  0.00     0.059 A 
ATOM    107  F   UNL A   1      39.945  31.277  33.686  1.00  0.00    -0.206 F 
ATOM    108  C   UNL A   1      39.298  32.210  37.063  1.00  0.00     0.060 A 
BRANCH 108 109
ATOM    109  S   UNL A   1      37.887  32.248  38.184  1.00  0.00     0.124 S 
ATOM    110  O   UNL A   1      37.227  30.977  37.907  1.00  0.00    -0.237 OA
ATOM    111  O   UNL A   1      38.554  32.347  39.478  1.00  0.00    -0.237 OA
ATOM    112  O   UNL A   1      37.147  33.435  37.766  1.00  0.00    -0.744 OA
ENDBRANCH 108 109
ENDBRANCH  76 101
ENDBRANCH  50  51
ENDBRANCH  43  45
ENDBRANCH  42  43
ENDBRANCH  41  42
ENDBRANCH  40  41
ENDBRANCH  39  40
ENDBRANCH   1  39
TORSDOF 24
ENDMDL
