MODEL 1
REMARK VINA RESULT:     -12.5      0.000      0.000
REMARK SMILES Cc1cccc(-n2ncc(C(=O)Nc3cccc(C(=O)OCCOCCOC(=O)c4ccc(-c5c6nc(c(-c7c(F)cc(S(=O)(=O)[O-])cc7F)c7ccc([nH]7)c(-c7c(F)cc(S(=O)(=O)[O-])cc7F)c7nc(c(-c8c(F)cc(S(=O)(=O)[O-])cc8F)c8ccc5[nH]8)C=C7)C=C6)cc4)c3C)c2C)c1
REMARK SMILES IDX 24 1 23 2 22 3 21 4 19 5 20 6 18 7 14 8 15 9 96 10 16 11
REMARK SMILES IDX 97 12 17 13 13 14 11 15 12 16 10 18 7 19 8 20 98 21 9 22
REMARK SMILES IDX 99 23 6 24 1 25 2 26 3 27 100 28 4 29 5 30 25 31 26 32 27 33
REMARK SMILES IDX 28 34 29 35 30 36 31 37 95 38 32 39 94 40 33 41 34 42 35 43
REMARK SMILES IDX 88 44 36 45 93 46 87 47 89 48 37 49 92 50 86 51 85 52 38 54
REMARK SMILES IDX 72 55 51 56 71 57 52 58 55 59 70 60 90 61 53 62 54 63 69 65
REMARK SMILES IDX 91 66 56 67 39 68 40 69 49 70 41 71 42 72 48 73 50 74 43 75
REMARK SMILES IDX 44 76 45 77 46 78 47 79 73 80 74 81 83 82 75 83 76 84 82 85
REMARK SMILES IDX 84 86 77 87 78 88 79 89 80 90 81 91 57 92 58 93 67 94 59 95
REMARK SMILES IDX 60 96 66 97 68 98 61 99 62 100 63 101 64 102 65 103
REMARK H PARENT 13 17 89 53 55 64
REMARK Flexibility Score: inf
ROOT
ATOM      1  O   UNL A   1      31.743  29.698  24.890  1.00  0.00    -0.374 OA
ENDROOT
BRANCH   1   2
ATOM      2  C   UNL A   1      30.820  29.144  23.955  1.00  0.00     0.202 C 
BRANCH   2   3
ATOM      3  C   UNL A   1      31.423  27.864  23.418  1.00  0.00     0.261 C 
BRANCH   3   4
ATOM      4  O   UNL A   1      30.448  26.926  22.939  1.00  0.00    -0.460 OA
BRANCH   4   5
ATOM      5  C   UNL A   1      29.638  26.383  23.880  1.00  0.00     0.338 C 
ATOM      6  O   UNL A   1      28.446  26.561  23.994  1.00  0.00    -0.246 OA
BRANCH   5   7
ATOM      7  C   UNL A   1      30.470  25.517  24.767  1.00  0.00     0.065 A 
ATOM      8  C   UNL A   1      31.379  23.393  25.366  1.00  0.00     0.045 A 
ATOM      9  C   UNL A   1      31.713  23.876  26.641  1.00  0.00     0.026 A 
ATOM     10  C   UNL A   1      30.884  24.234  24.356  1.00  0.00    -0.013 A 
ATOM     11  C   UNL A   1      31.444  25.190  26.980  1.00  0.00     0.003 A 
ATOM     12  C   UNL A   1      30.666  23.696  22.965  1.00  0.00     0.047 C 
ATOM     13  C   UNL A   1      30.774  25.986  26.065  1.00  0.00     0.016 A 
BRANCH   8  14
ATOM     14  N   UNL A   1      31.371  22.010  25.163  1.00  0.00    -0.322 N 
ATOM     15  C   UNL A   1      32.404  21.260  24.628  1.00  0.00     0.259 C 
ATOM     16  O   UNL A   1      32.161  20.094  24.313  1.00  0.00    -0.269 OA
ATOM     17  H   UNL A   1      30.556  21.524  25.426  1.00  0.00     0.170 HD
BRANCH  15  18
ATOM     18  C   UNL A   1      33.757  21.825  24.513  1.00  0.00     0.081 A 
ATOM     19  N   UNL A   1      35.836  22.485  25.001  1.00  0.00    -0.237 N 
ATOM     20  N   UNL A   1      35.603  22.973  23.767  1.00  0.00    -0.175 NA
ATOM     21  C   UNL A   1      34.703  21.887  25.535  1.00  0.00     0.054 A 
ATOM     22  C   UNL A   1      34.366  22.582  23.484  1.00  0.00     0.149 A 
ATOM     23  C   UNL A   1      34.514  21.577  26.978  1.00  0.00     0.068 C 
BRANCH  19  24
ATOM     24  C   UNL A   1      37.109  22.686  25.591  1.00  0.00     0.065 A 
ATOM     25  C   UNL A   1      40.247  20.622  26.173  1.00  0.00     0.044 C 
ATOM     26  C   UNL A   1      39.277  21.766  26.177  1.00  0.00    -0.049 A 
ATOM     27  C   UNL A   1      39.678  23.038  26.603  1.00  0.00     0.003 A 
ATOM     28  C   UNL A   1      37.971  21.587  25.709  1.00  0.00     0.031 A 
ATOM     29  C   UNL A   1      38.794  24.117  26.550  1.00  0.00     0.002 A 
ATOM     30  C   UNL A   1      37.511  23.948  26.034  1.00  0.00     0.028 A 
ENDBRANCH  19  24
ENDBRANCH  15  18
ENDBRANCH   8  14
ENDBRANCH   5   7
ENDBRANCH   4   5
ENDBRANCH   3   4
ENDBRANCH   2   3
ENDBRANCH   1   2
BRANCH   1  31
ATOM     31  C   UNL A   1      32.291  28.808  25.843  1.00  0.00     0.202 C 
BRANCH  31  32
ATOM     32  C   UNL A   1      33.822  28.856  25.933  1.00  0.00     0.261 C 
BRANCH  32  33
ATOM     33  O   UNL A   1      34.253  28.947  27.306  1.00  0.00    -0.460 OA
BRANCH  33  34
ATOM     34  C   UNL A   1      34.405  30.216  27.790  1.00  0.00     0.338 C 
ATOM     35  O   UNL A   1      33.575  31.096  27.654  1.00  0.00    -0.246 OA
BRANCH  34  36
ATOM     36  C   UNL A   1      35.737  30.356  28.445  1.00  0.00     0.060 A 
ATOM     37  C   UNL A   1      36.873  30.758  27.721  1.00  0.00     0.016 A 
ATOM     38  C   UNL A   1      35.885  29.870  29.739  1.00  0.00     0.016 A 
ATOM     39  C   UNL A   1      38.165  30.547  28.244  1.00  0.00     0.010 A 
ATOM     40  C   UNL A   1      37.147  29.553  30.189  1.00  0.00     0.010 A 
ATOM     41  C   UNL A   1      38.304  29.877  29.454  1.00  0.00    -0.014 A 
BRANCH  41  42
ATOM     42  C   UNL A   1      39.535  29.380  30.095  1.00  0.00     0.031 A 
ATOM     43  C   UNL A   1      40.070  28.084  29.577  1.00  0.00     0.074 A 
ATOM     44  C   UNL A   1      40.383  30.237  30.723  1.00  0.00     0.049 A 
ATOM     45  N   UNL A   1      41.247  27.634  29.823  1.00  0.00    -0.248 NA
ATOM     46  C   UNL A   1      39.310  27.173  28.713  1.00  0.00     0.031 C 
ATOM     47  C   UNL A   1      41.850  30.217  30.660  1.00  0.00     0.029 A 
ATOM     48  N   UNL A   1      40.127  31.311  31.587  1.00  0.00    -0.354 N 
ATOM     49  C   UNL A   1      41.526  26.628  28.930  1.00  0.00     0.074 A 
ATOM     50  C   UNL A   1      40.258  26.307  28.332  1.00  0.00     0.031 C 
ATOM     51  C   UNL A   1      42.362  31.014  31.610  1.00  0.00     0.029 A 
ATOM     52  C   UNL A   1      41.251  31.437  32.435  1.00  0.00     0.049 A 
ATOM     53  H   UNL A   1      39.318  31.871  31.601  1.00  0.00     0.167 HD
ATOM     54  C   UNL A   1      42.833  26.279  28.763  1.00  0.00     0.037 A 
ATOM     55  C   UNL A   1      41.145  31.279  33.784  1.00  0.00     0.037 A 
ATOM     56  C   UNL A   1      43.649  26.896  29.812  1.00  0.00     0.049 A 
ATOM     57  C   UNL A   1      41.989  30.123  34.249  1.00  0.00     0.074 A 
ATOM     58  C   UNL A   1      44.554  27.939  29.856  1.00  0.00     0.029 A 
ATOM     59  N   UNL A   1      43.344  26.582  31.133  1.00  0.00    -0.354 N 
ATOM     60  N   UNL A   1      42.398  29.183  33.440  1.00  0.00    -0.248 NA
ATOM     61  C   UNL A   1      42.511  29.948  35.600  1.00  0.00     0.031 C 
ATOM     62  C   UNL A   1      44.736  28.293  31.226  1.00  0.00     0.029 A 
ATOM     63  C   UNL A   1      43.970  27.440  32.008  1.00  0.00     0.049 A 
ATOM     64  H   UNL A   1      42.755  25.841  31.407  1.00  0.00     0.167 HD
ATOM     65  C   UNL A   1      43.224  28.321  34.096  1.00  0.00     0.074 A 
ATOM     66  C   UNL A   1      43.252  28.832  35.454  1.00  0.00     0.031 C 
ATOM     67  C   UNL A   1      43.804  27.267  33.449  1.00  0.00     0.037 A 
BRANCH  54  68
ATOM     68  C   UNL A   1      43.435  25.457  27.639  1.00  0.00     0.058 A 
ATOM     69  C   UNL A   1      43.354  24.044  27.680  1.00  0.00     0.135 A 
ATOM     70  C   UNL A   1      44.170  25.967  26.548  1.00  0.00     0.135 A 
ATOM     71  F   UNL A   1      42.718  23.410  28.675  1.00  0.00    -0.206 F 
ATOM     72  C   UNL A   1      43.940  23.214  26.720  1.00  0.00     0.059 A 
ATOM     73  C   UNL A   1      44.731  25.156  25.553  1.00  0.00     0.059 A 
ATOM     74  F   UNL A   1      44.430  27.270  26.411  1.00  0.00    -0.206 F 
ATOM     75  C   UNL A   1      44.621  23.779  25.652  1.00  0.00     0.060 A 
BRANCH  75  76
ATOM     76  S   UNL A   1      45.370  22.699  24.418  1.00  0.00     0.124 S 
ATOM     77  O   UNL A   1      45.798  21.563  25.229  1.00  0.00    -0.237 OA
ATOM     78  O   UNL A   1      44.257  22.448  23.508  1.00  0.00    -0.237 OA
ATOM     79  O   UNL A   1      46.451  23.510  23.865  1.00  0.00    -0.744 OA
ENDBRANCH  75  76
ENDBRANCH  54  68
BRANCH  55  80
ATOM     80  C   UNL A   1      39.820  31.760  34.283  1.00  0.00     0.058 A 
ATOM     81  C   UNL A   1      38.900  30.746  34.636  1.00  0.00     0.135 A 
ATOM     82  C   UNL A   1      39.738  32.970  34.993  1.00  0.00     0.135 A 
ATOM     83  F   UNL A   1      38.905  29.579  33.969  1.00  0.00    -0.206 F 
ATOM     84  C   UNL A   1      38.117  30.831  35.787  1.00  0.00     0.059 A 
ATOM     85  C   UNL A   1      38.954  33.077  36.148  1.00  0.00     0.059 A 
ATOM     86  F   UNL A   1      40.568  33.981  34.695  1.00  0.00    -0.206 F 
ATOM     87  C   UNL A   1      38.217  31.972  36.581  1.00  0.00     0.060 A 
BRANCH  87  88
ATOM     88  S   UNL A   1      37.530  31.908  38.259  1.00  0.00     0.124 S 
ATOM     89  O   UNL A   1      36.445  32.879  38.183  1.00  0.00    -0.237 OA
ATOM     90  O   UNL A   1      37.115  30.511  38.372  1.00  0.00    -0.237 OA
ATOM     91  O   UNL A   1      38.659  32.284  39.104  1.00  0.00    -0.744 OA
ENDBRANCH  87  88
ENDBRANCH  55  80
BRANCH  67  92
ATOM     92  C   UNL A   1      44.316  26.003  34.106  1.00  0.00     0.058 A 
ATOM     93  C   UNL A   1      43.488  25.041  34.707  1.00  0.00     0.135 A 
ATOM     94  C   UNL A   1      45.683  25.632  33.994  1.00  0.00     0.135 A 
ATOM     95  F   UNL A   1      42.158  25.186  34.763  1.00  0.00    -0.206 F 
ATOM     96  C   UNL A   1      43.984  23.852  35.239  1.00  0.00     0.059 A 
ATOM     97  C   UNL A   1      46.185  24.418  34.449  1.00  0.00     0.059 A 
ATOM     98  F   UNL A   1      46.590  26.430  33.413  1.00  0.00    -0.206 F 
ATOM     99  C   UNL A   1      45.334  23.549  35.109  1.00  0.00     0.060 A 
BRANCH  99 100
ATOM    100  S   UNL A   1      45.956  22.007  35.788  1.00  0.00     0.124 S 
ATOM    101  O   UNL A   1      45.771  22.229  37.218  1.00  0.00    -0.237 OA
ATOM    102  O   UNL A   1      45.071  21.015  35.184  1.00  0.00    -0.237 OA
ATOM    103  O   UNL A   1      47.340  21.965  35.328  1.00  0.00    -0.744 OA
ENDBRANCH  99 100
ENDBRANCH  67  92
ENDBRANCH  41  42
ENDBRANCH  34  36
ENDBRANCH  33  34
ENDBRANCH  32  33
ENDBRANCH  31  32
ENDBRANCH   1  31
TORSDOF 20
ENDMDL
MODEL 2
REMARK VINA RESULT:     -12.0      4.101      6.619
REMARK SMILES Cc1cccc(-n2ncc(C(=O)Nc3cccc(C(=O)OCCOCCOC(=O)c4ccc(-c5c6nc(c(-c7c(F)cc(S(=O)(=O)[O-])cc7F)c7ccc([nH]7)c(-c7c(F)cc(S(=O)(=O)[O-])cc7F)c7nc(c(-c8c(F)cc(S(=O)(=O)[O-])cc8F)c8ccc5[nH]8)C=C7)C=C6)cc4)c3C)c2C)c1
REMARK SMILES IDX 24 1 23 2 22 3 21 4 19 5 20 6 18 7 14 8 15 9 96 10 16 11
REMARK SMILES IDX 97 12 17 13 13 14 11 15 12 16 10 18 7 19 8 20 98 21 9 22
REMARK SMILES IDX 99 23 6 24 1 25 2 26 3 27 100 28 4 29 5 30 25 31 26 32 27 33
REMARK SMILES IDX 28 34 29 35 30 36 31 37 95 38 32 39 94 40 33 41 34 42 35 43
REMARK SMILES IDX 88 44 36 45 93 46 87 47 89 48 37 49 92 50 86 51 85 52 38 54
REMARK SMILES IDX 72 55 51 56 71 57 52 58 55 59 70 60 90 61 53 62 54 63 69 65
REMARK SMILES IDX 91 66 56 67 39 68 40 69 49 70 41 71 42 72 48 73 50 74 43 75
REMARK SMILES IDX 44 76 45 77 46 78 47 79 73 80 74 81 83 82 75 83 76 84 82 85
REMARK SMILES IDX 84 86 77 87 78 88 79 89 80 90 81 91 57 92 58 93 67 94 59 95
REMARK SMILES IDX 60 96 66 97 68 98 61 99 62 100 63 101 64 102 65 103
REMARK H PARENT 13 17 89 53 55 64
REMARK Flexibility Score: inf
ROOT
ATOM      1  O   UNL A   1      37.551  30.416  28.978  1.00  0.00    -0.374 OA
ENDROOT
BRANCH   1   2
ATOM      2  C   UNL A   1      37.010  29.888  27.769  1.00  0.00     0.202 C 
BRANCH   2   3
ATOM      3  C   UNL A   1      35.573  30.353  27.668  1.00  0.00     0.261 C 
BRANCH   3   4
ATOM      4  O   UNL A   1      34.664  29.323  27.253  1.00  0.00    -0.460 OA
BRANCH   4   5
ATOM      5  C   UNL A   1      33.464  29.746  26.788  1.00  0.00     0.338 C 
ATOM      6  O   UNL A   1      33.064  30.889  26.760  1.00  0.00    -0.246 OA
BRANCH   5   7
ATOM      7  C   UNL A   1      32.703  28.555  26.311  1.00  0.00     0.065 A 
ATOM      8  C   UNL A   1      31.802  27.209  24.557  1.00  0.00     0.045 A 
ATOM      9  C   UNL A   1      30.972  26.542  25.472  1.00  0.00     0.026 A 
ATOM     10  C   UNL A   1      32.783  28.124  24.972  1.00  0.00    -0.013 A 
ATOM     11  C   UNL A   1      31.016  26.866  26.816  1.00  0.00     0.003 A 
ATOM     12  C   UNL A   1      33.738  28.714  23.966  1.00  0.00     0.047 C 
ATOM     13  C   UNL A   1      31.837  27.906  27.221  1.00  0.00     0.016 A 
BRANCH   8  14
ATOM     14  N   UNL A   1      31.516  27.089  23.195  1.00  0.00    -0.322 N 
ATOM     15  C   UNL A   1      32.016  26.122  22.341  1.00  0.00     0.259 C 
ATOM     16  O   UNL A   1      31.844  26.281  21.131  1.00  0.00    -0.269 OA
ATOM     17  H   UNL A   1      30.902  27.753  22.806  1.00  0.00     0.170 HD
BRANCH  15  18
ATOM     18  C   UNL A   1      32.664  24.913  22.875  1.00  0.00     0.081 A 
ATOM     19  N   UNL A   1      32.988  22.867  23.713  1.00  0.00    -0.237 N 
ATOM     20  N   UNL A   1      34.198  23.457  23.773  1.00  0.00    -0.175 NA
ATOM     21  C   UNL A   1      32.009  23.753  23.287  1.00  0.00     0.054 A 
ATOM     22  C   UNL A   1      33.998  24.674  23.278  1.00  0.00     0.149 A 
ATOM     23  C   UNL A   1      30.547  23.536  23.450  1.00  0.00     0.068 C 
BRANCH  19  24
ATOM     24  C   UNL A   1      32.861  21.518  24.125  1.00  0.00     0.065 A 
ATOM     25  C   UNL A   1      32.326  18.147  22.450  1.00  0.00     0.044 C 
ATOM     26  C   UNL A   1      32.525  19.195  23.505  1.00  0.00    -0.049 A 
ATOM     27  C   UNL A   1      32.741  18.829  24.839  1.00  0.00     0.003 A 
ATOM     28  C   UNL A   1      32.545  20.550  23.161  1.00  0.00     0.031 A 
ATOM     29  C   UNL A   1      32.986  19.800  25.812  1.00  0.00     0.002 A 
ATOM     30  C   UNL A   1      33.058  21.146  25.457  1.00  0.00     0.028 A 
ENDBRANCH  19  24
ENDBRANCH  15  18
ENDBRANCH   8  14
ENDBRANCH   5   7
ENDBRANCH   4   5
ENDBRANCH   3   4
ENDBRANCH   2   3
ENDBRANCH   1   2
BRANCH   1  31
ATOM     31  C   UNL A   1      36.640  31.040  29.861  1.00  0.00     0.202 C 
BRANCH  31  32
ATOM     32  C   UNL A   1      36.509  30.341  31.220  1.00  0.00     0.261 C 
BRANCH  32  33
ATOM     33  O   UNL A   1      36.919  28.961  31.130  1.00  0.00    -0.460 OA
BRANCH  33  34
ATOM     34  C   UNL A   1      37.691  28.510  32.163  1.00  0.00     0.338 C 
ATOM     35  O   UNL A   1      37.337  28.523  33.328  1.00  0.00    -0.246 OA
BRANCH  34  36
ATOM     36  C   UNL A   1      39.018  28.063  31.652  1.00  0.00     0.060 A 
ATOM     37  C   UNL A   1      40.202  28.304  32.371  1.00  0.00     0.016 A 
ATOM     38  C   UNL A   1      39.093  27.598  30.344  1.00  0.00     0.016 A 
ATOM     39  C   UNL A   1      41.456  28.207  31.735  1.00  0.00     0.010 A 
ATOM     40  C   UNL A   1      40.309  27.626  29.697  1.00  0.00     0.010 A 
ATOM     41  C   UNL A   1      41.505  27.934  30.373  1.00  0.00    -0.014 A 
BRANCH  41  42
ATOM     42  C   UNL A   1      42.668  27.973  29.468  1.00  0.00     0.031 A 
ATOM     43  C   UNL A   1      43.320  26.660  29.178  1.00  0.00     0.074 A 
ATOM     44  C   UNL A   1      42.824  28.994  28.584  1.00  0.00     0.049 A 
ATOM     45  N   UNL A   1      44.164  26.462  28.229  1.00  0.00    -0.248 NA
ATOM     46  C   UNL A   1      43.066  25.434  29.942  1.00  0.00     0.031 C 
ATOM     47  C   UNL A   1      43.269  28.882  27.189  1.00  0.00     0.029 A 
ATOM     48  N   UNL A   1      42.644  30.376  28.738  1.00  0.00    -0.354 N 
ATOM     49  C   UNL A   1      44.287  25.109  28.029  1.00  0.00     0.074 A 
ATOM     50  C   UNL A   1      43.669  24.511  29.182  1.00  0.00     0.031 C 
ATOM     51  C   UNL A   1      43.577  30.095  26.706  1.00  0.00     0.029 A 
ATOM     52  C   UNL A   1      43.514  31.011  27.823  1.00  0.00     0.049 A 
ATOM     53  H   UNL A   1      42.030  30.820  29.366  1.00  0.00     0.167 HD
ATOM     54  C   UNL A   1      44.821  24.693  26.846  1.00  0.00     0.037 A 
ATOM     55  C   UNL A   1      44.514  31.835  28.246  1.00  0.00     0.037 A 
ATOM     56  C   UNL A   1      45.412  25.833  26.142  1.00  0.00     0.049 A 
ATOM     57  C   UNL A   1      45.855  31.291  27.835  1.00  0.00     0.074 A 
ATOM     58  C   UNL A   1      45.062  26.582  25.034  1.00  0.00     0.029 A 
ATOM     59  N   UNL A   1      46.428  26.532  26.786  1.00  0.00    -0.354 N 
ATOM     60  N   UNL A   1      46.036  30.038  27.514  1.00  0.00    -0.248 NA
ATOM     61  C   UNL A   1      47.071  32.080  27.669  1.00  0.00     0.031 C 
ATOM     62  C   UNL A   1      45.840  27.779  25.062  1.00  0.00     0.029 A 
ATOM     63  C   UNL A   1      46.682  27.732  26.163  1.00  0.00     0.049 A 
ATOM     64  H   UNL A   1      46.906  26.208  27.585  1.00  0.00     0.167 HD
ATOM     65  C   UNL A   1      47.314  29.840  27.086  1.00  0.00     0.074 A 
ATOM     66  C   UNL A   1      47.931  31.146  27.217  1.00  0.00     0.031 C 
ATOM     67  C   UNL A   1      47.736  28.611  26.666  1.00  0.00     0.037 A 
BRANCH  54  68
ATOM     68  C   UNL A   1      44.770  23.300  26.247  1.00  0.00     0.058 A 
ATOM     69  C   UNL A   1      45.946  22.722  25.712  1.00  0.00     0.135 A 
ATOM     70  C   UNL A   1      43.609  22.515  26.084  1.00  0.00     0.135 A 
ATOM     71  F   UNL A   1      47.123  23.362  25.759  1.00  0.00    -0.206 F 
ATOM     72  C   UNL A   1      45.969  21.473  25.083  1.00  0.00     0.059 A 
ATOM     73  C   UNL A   1      43.616  21.246  25.493  1.00  0.00     0.059 A 
ATOM     74  F   UNL A   1      42.397  22.953  26.439  1.00  0.00    -0.206 F 
ATOM     75  C   UNL A   1      44.799  20.736  24.984  1.00  0.00     0.060 A 
BRANCH  75  76
ATOM     76  S   UNL A   1      44.842  19.126  24.174  1.00  0.00     0.124 S 
ATOM     77  O   UNL A   1      43.960  18.334  25.027  1.00  0.00    -0.237 OA
ATOM     78  O   UNL A   1      44.331  19.434  22.843  1.00  0.00    -0.237 OA
ATOM     79  O   UNL A   1      46.253  18.755  24.226  1.00  0.00    -0.744 OA
ENDBRANCH  75  76
ENDBRANCH  54  68
BRANCH  55  80
ATOM     80  C   UNL A   1      44.117  32.576  29.483  1.00  0.00     0.058 A 
ATOM     81  C   UNL A   1      43.159  33.599  29.296  1.00  0.00     0.135 A 
ATOM     82  C   UNL A   1      44.108  31.913  30.722  1.00  0.00     0.135 A 
ATOM     83  F   UNL A   1      43.142  34.294  28.146  1.00  0.00    -0.206 F 
ATOM     84  C   UNL A   1      42.098  33.784  30.181  1.00  0.00     0.059 A 
ATOM     85  C   UNL A   1      43.054  32.089  31.626  1.00  0.00     0.059 A 
ATOM     86  F   UNL A   1      45.002  30.945  30.972  1.00  0.00    -0.206 F 
ATOM     87  C   UNL A   1      42.012  32.962  31.304  1.00  0.00     0.060 A 
BRANCH  87  88
ATOM     88  S   UNL A   1      40.443  32.920  32.214  1.00  0.00     0.124 S 
ATOM     89  O   UNL A   1      39.789  31.750  31.641  1.00  0.00    -0.237 OA
ATOM     90  O   UNL A   1      40.891  32.772  33.597  1.00  0.00    -0.237 OA
ATOM     91  O   UNL A   1      39.832  34.207  31.900  1.00  0.00    -0.744 OA
ENDBRANCH  87  88
ENDBRANCH  55  80
BRANCH  67  92
ATOM     92  C   UNL A   1      49.172  28.134  26.636  1.00  0.00     0.058 A 
ATOM     93  C   UNL A   1      49.861  27.794  25.459  1.00  0.00     0.135 A 
ATOM     94  C   UNL A   1      49.971  28.168  27.809  1.00  0.00     0.135 A 
ATOM     95  F   UNL A   1      49.278  27.850  24.255  1.00  0.00    -0.206 F 
ATOM     96  C   UNL A   1      51.205  27.428  25.457  1.00  0.00     0.059 A 
ATOM     97  C   UNL A   1      51.332  27.881  27.816  1.00  0.00     0.059 A 
ATOM     98  F   UNL A   1      49.465  28.508  29.003  1.00  0.00    -0.206 F 
ATOM     99  C   UNL A   1      51.933  27.471  26.640  1.00  0.00     0.060 A 
BRANCH  99 100
ATOM    100  S   UNL A   1      53.669  27.008  26.620  1.00  0.00     0.124 S 
ATOM    101  O   UNL A   1      53.946  27.001  25.186  1.00  0.00    -0.237 OA
ATOM    102  O   UNL A   1      54.294  28.090  27.376  1.00  0.00    -0.237 OA
ATOM    103  O   UNL A   1      53.683  25.705  27.274  1.00  0.00    -0.744 OA
ENDBRANCH  99 100
ENDBRANCH  67  92
ENDBRANCH  41  42
ENDBRANCH  34  36
ENDBRANCH  33  34
ENDBRANCH  32  33
ENDBRANCH  31  32
ENDBRANCH   1  31
TORSDOF 20
ENDMDL
MODEL 3
REMARK VINA RESULT:     -12.0      4.301     10.326
REMARK SMILES Cc1cccc(-n2ncc(C(=O)Nc3cccc(C(=O)OCCOCCOC(=O)c4ccc(-c5c6nc(c(-c7c(F)cc(S(=O)(=O)[O-])cc7F)c7ccc([nH]7)c(-c7c(F)cc(S(=O)(=O)[O-])cc7F)c7nc(c(-c8c(F)cc(S(=O)(=O)[O-])cc8F)c8ccc5[nH]8)C=C7)C=C6)cc4)c3C)c2C)c1
REMARK SMILES IDX 24 1 23 2 22 3 21 4 19 5 20 6 18 7 14 8 15 9 96 10 16 11
REMARK SMILES IDX 97 12 17 13 13 14 11 15 12 16 10 18 7 19 8 20 98 21 9 22
REMARK SMILES IDX 99 23 6 24 1 25 2 26 3 27 100 28 4 29 5 30 25 31 26 32 27 33
REMARK SMILES IDX 28 34 29 35 30 36 31 37 95 38 32 39 94 40 33 41 34 42 35 43
REMARK SMILES IDX 88 44 36 45 93 46 87 47 89 48 37 49 92 50 86 51 85 52 38 54
REMARK SMILES IDX 72 55 51 56 71 57 52 58 55 59 70 60 90 61 53 62 54 63 69 65
REMARK SMILES IDX 91 66 56 67 39 68 40 69 49 70 41 71 42 72 48 73 50 74 43 75
REMARK SMILES IDX 44 76 45 77 46 78 47 79 73 80 74 81 83 82 75 83 76 84 82 85
REMARK SMILES IDX 84 86 77 87 78 88 79 89 80 90 81 91 57 92 58 93 67 94 59 95
REMARK SMILES IDX 60 96 66 97 68 98 61 99 62 100 63 101 64 102 65 103
REMARK H PARENT 13 17 89 53 55 64
REMARK Flexibility Score: inf
ROOT
ATOM      1  O   UNL A   1      36.833  21.820  25.880  1.00  0.00    -0.374 OA
ENDROOT
BRANCH   1   2
ATOM      2  C   UNL A   1      36.163  20.936  24.984  1.00  0.00     0.202 C 
BRANCH   2   3
ATOM      3  C   UNL A   1      34.800  21.526  24.691  1.00  0.00     0.261 C 
BRANCH   3   4
ATOM      4  O   UNL A   1      34.846  22.691  23.855  1.00  0.00    -0.460 OA
BRANCH   4   5
ATOM      5  C   UNL A   1      34.432  23.847  24.428  1.00  0.00     0.338 C 
ATOM      6  O   UNL A   1      35.091  24.575  25.138  1.00  0.00    -0.246 OA
BRANCH   5   7
ATOM      7  C   UNL A   1      33.011  24.078  24.038  1.00  0.00     0.065 A 
ATOM      8  C   UNL A   1      31.332  25.314  22.875  1.00  0.00     0.045 A 
ATOM      9  C   UNL A   1      30.327  24.697  23.636  1.00  0.00     0.026 A 
ATOM     10  C   UNL A   1      32.677  24.918  22.957  1.00  0.00    -0.013 A 
ATOM     11  C   UNL A   1      30.657  23.753  24.591  1.00  0.00     0.003 A 
ATOM     12  C   UNL A   1      33.698  25.517  22.024  1.00  0.00     0.047 C 
ATOM     13  C   UNL A   1      31.997  23.489  24.827  1.00  0.00     0.016 A 
BRANCH   8  14
ATOM     14  N   UNL A   1      31.005  26.468  22.158  1.00  0.00    -0.322 N 
ATOM     15  C   UNL A   1      30.853  27.738  22.686  1.00  0.00     0.259 C 
ATOM     16  O   UNL A   1      30.352  28.602  21.964  1.00  0.00    -0.269 OA
ATOM     17  H   UNL A   1      30.872  26.369  21.187  1.00  0.00     0.170 HD
BRANCH  15  18
ATOM     18  C   UNL A   1      31.344  28.051  24.037  1.00  0.00     0.081 A 
ATOM     19  N   UNL A   1      32.616  28.783  25.723  1.00  0.00    -0.237 N 
ATOM     20  N   UNL A   1      31.621  28.097  26.318  1.00  0.00    -0.175 NA
ATOM     21  C   UNL A   1      32.551  28.679  24.341  1.00  0.00     0.054 A 
ATOM     22  C   UNL A   1      30.870  27.661  25.312  1.00  0.00     0.149 A 
ATOM     23  C   UNL A   1      33.670  29.004  23.416  1.00  0.00     0.068 C 
BRANCH  19  24
ATOM     24  C   UNL A   1      33.581  29.433  26.530  1.00  0.00     0.065 A 
ATOM     25  C   UNL A   1      33.964  32.825  28.203  1.00  0.00     0.044 C 
ATOM     26  C   UNL A   1      34.250  31.426  27.743  1.00  0.00    -0.049 A 
ATOM     27  C   UNL A   1      35.362  30.730  28.233  1.00  0.00     0.003 A 
ATOM     28  C   UNL A   1      33.383  30.782  26.855  1.00  0.00     0.031 A 
ATOM     29  C   UNL A   1      35.597  29.407  27.853  1.00  0.00     0.002 A 
ATOM     30  C   UNL A   1      34.702  28.750  27.009  1.00  0.00     0.028 A 
ENDBRANCH  19  24
ENDBRANCH  15  18
ENDBRANCH   8  14
ENDBRANCH   5   7
ENDBRANCH   4   5
ENDBRANCH   3   4
ENDBRANCH   2   3
ENDBRANCH   1   2
BRANCH   1  31
ATOM     31  C   UNL A   1      38.139  22.222  25.515  1.00  0.00     0.202 C 
BRANCH  31  32
ATOM     32  C   UNL A   1      39.235  21.233  25.929  1.00  0.00     0.261 C 
BRANCH  32  33
ATOM     33  O   UNL A   1      40.089  21.806  26.940  1.00  0.00    -0.460 OA
BRANCH  33  34
ATOM     34  C   UNL A   1      41.175  22.491  26.472  1.00  0.00     0.338 C 
ATOM     35  O   UNL A   1      42.114  21.964  25.904  1.00  0.00    -0.246 OA
BRANCH  34  36
ATOM     36  C   UNL A   1      41.051  23.938  26.809  1.00  0.00     0.060 A 
ATOM     37  C   UNL A   1      41.081  24.930  25.813  1.00  0.00     0.016 A 
ATOM     38  C   UNL A   1      41.127  24.307  28.147  1.00  0.00     0.016 A 
ATOM     39  C   UNL A   1      41.322  26.276  26.153  1.00  0.00     0.010 A 
ATOM     40  C   UNL A   1      41.485  25.599  28.461  1.00  0.00     0.010 A 
ATOM     41  C   UNL A   1      41.594  26.602  27.478  1.00  0.00    -0.014 A 
BRANCH  41  42
ATOM     42  C   UNL A   1      42.056  27.886  28.033  1.00  0.00     0.031 A 
ATOM     43  C   UNL A   1      41.001  28.915  28.280  1.00  0.00     0.074 A 
ATOM     44  C   UNL A   1      43.222  27.960  28.729  1.00  0.00     0.049 A 
ATOM     45  N   UNL A   1      41.170  29.974  28.987  1.00  0.00    -0.248 NA
ATOM     46  C   UNL A   1      39.637  28.830  27.747  1.00  0.00     0.031 C 
ATOM     47  C   UNL A   1      43.458  28.725  29.960  1.00  0.00     0.029 A 
ATOM     48  N   UNL A   1      44.477  27.387  28.480  1.00  0.00    -0.354 N 
ATOM     49  C   UNL A   1      39.937  30.497  29.292  1.00  0.00     0.074 A 
ATOM     50  C   UNL A   1      39.023  29.816  28.415  1.00  0.00     0.031 C 
ATOM     51  C   UNL A   1      44.773  28.799  30.211  1.00  0.00     0.029 A 
ATOM     52  C   UNL A   1      45.444  28.239  29.059  1.00  0.00     0.049 A 
ATOM     53  H   UNL A   1      44.652  26.549  27.993  1.00  0.00     0.167 HD
ATOM     54  C   UNL A   1      39.865  31.378  30.330  1.00  0.00     0.037 A 
ATOM     55  C   UNL A   1      46.392  28.858  28.300  1.00  0.00     0.037 A 
ATOM     56  C   UNL A   1      41.216  31.787  30.726  1.00  0.00     0.049 A 
ATOM     57  C   UNL A   1      46.253  30.354  28.398  1.00  0.00     0.074 A 
ATOM     58  C   UNL A   1      42.041  31.511  31.799  1.00  0.00     0.029 A 
ATOM     59  N   UNL A   1      42.010  32.404  29.765  1.00  0.00    -0.354 N 
ATOM     60  N   UNL A   1      45.151  30.931  28.793  1.00  0.00    -0.248 NA
ATOM     61  C   UNL A   1      47.319  31.318  28.150  1.00  0.00     0.031 C 
ATOM     62  C   UNL A   1      43.363  31.912  31.438  1.00  0.00     0.029 A 
ATOM     63  C   UNL A   1      43.325  32.463  30.165  1.00  0.00     0.049 A 
ATOM     64  H   UNL A   1      41.673  32.755  28.907  1.00  0.00     0.167 HD
ATOM     65  C   UNL A   1      45.331  32.279  28.886  1.00  0.00     0.074 A 
ATOM     66  C   UNL A   1      46.703  32.477  28.457  1.00  0.00     0.031 C 
ATOM     67  C   UNL A   1      44.324  33.099  29.310  1.00  0.00     0.037 A 
BRANCH  54  68
ATOM     68  C   UNL A   1      38.623  31.840  31.067  1.00  0.00     0.058 A 
ATOM     69  C   UNL A   1      37.706  32.706  30.426  1.00  0.00     0.135 A 
ATOM     70  C   UNL A   1      38.308  31.552  32.412  1.00  0.00     0.135 A 
ATOM     71  F   UNL A   1      37.888  33.100  29.157  1.00  0.00    -0.206 F 
ATOM     72  C   UNL A   1      36.574  33.230  31.057  1.00  0.00     0.059 A 
ATOM     73  C   UNL A   1      37.160  32.033  33.052  1.00  0.00     0.059 A 
ATOM     74  F   UNL A   1      39.119  30.834  33.195  1.00  0.00    -0.206 F 
ATOM     75  C   UNL A   1      36.302  32.882  32.371  1.00  0.00     0.060 A 
BRANCH  75  76
ATOM     76  S   UNL A   1      34.838  33.560  33.175  1.00  0.00     0.124 S 
ATOM     77  O   UNL A   1      33.772  32.748  32.597  1.00  0.00    -0.237 OA
ATOM     78  O   UNL A   1      35.122  33.326  34.587  1.00  0.00    -0.237 OA
ATOM     79  O   UNL A   1      34.843  34.962  32.766  1.00  0.00    -0.744 OA
ENDBRANCH  75  76
ENDBRANCH  54  68
BRANCH  55  80
ATOM     80  C   UNL A   1      46.798  28.006  27.139  1.00  0.00     0.058 A 
ATOM     81  C   UNL A   1      47.569  26.867  27.464  1.00  0.00     0.135 A 
ATOM     82  C   UNL A   1      45.957  27.909  26.018  1.00  0.00     0.135 A 
ATOM     83  F   UNL A   1      48.419  26.911  28.505  1.00  0.00    -0.206 F 
ATOM     84  C   UNL A   1      47.338  25.628  26.869  1.00  0.00     0.059 A 
ATOM     85  C   UNL A   1      45.715  26.674  25.403  1.00  0.00     0.059 A 
ATOM     86  F   UNL A   1      45.212  28.959  25.643  1.00  0.00    -0.206 F 
ATOM     87  C   UNL A   1      46.346  25.529  25.895  1.00  0.00     0.060 A 
BRANCH  87  88
ATOM     88  S   UNL A   1      45.768  23.873  25.429  1.00  0.00     0.124 S 
ATOM     89  O   UNL A   1      44.319  24.036  25.456  1.00  0.00    -0.237 OA
ATOM     90  O   UNL A   1      46.354  23.702  24.101  1.00  0.00    -0.237 OA
ATOM     91  O   UNL A   1      46.329  23.011  26.465  1.00  0.00    -0.744 OA
ENDBRANCH  87  88
ENDBRANCH  55  80
BRANCH  67  92
ATOM     92  C   UNL A   1      44.206  34.578  29.011  1.00  0.00     0.058 A 
ATOM     93  C   UNL A   1      44.569  35.592  29.912  1.00  0.00     0.135 A 
ATOM     94  C   UNL A   1      43.873  35.028  27.706  1.00  0.00     0.135 A 
ATOM     95  F   UNL A   1      45.037  35.317  31.137  1.00  0.00    -0.206 F 
ATOM     96  C   UNL A   1      44.517  36.944  29.581  1.00  0.00     0.059 A 
ATOM     97  C   UNL A   1      43.889  36.367  27.331  1.00  0.00     0.059 A 
ATOM     98  F   UNL A   1      43.539  34.177  26.724  1.00  0.00    -0.206 F 
ATOM     99  C   UNL A   1      44.173  37.324  28.289  1.00  0.00     0.060 A 
BRANCH  99 100
ATOM    100  S   UNL A   1      44.123  39.070  27.872  1.00  0.00     0.124 S 
ATOM    101  O   UNL A   1      45.545  39.394  27.825  1.00  0.00    -0.237 OA
ATOM    102  O   UNL A   1      43.434  39.070  26.584  1.00  0.00    -0.237 OA
ATOM    103  O   UNL A   1      43.375  39.664  28.974  1.00  0.00    -0.744 OA
ENDBRANCH  99 100
ENDBRANCH  67  92
ENDBRANCH  41  42
ENDBRANCH  34  36
ENDBRANCH  33  34
ENDBRANCH  32  33
ENDBRANCH  31  32
ENDBRANCH   1  31
TORSDOF 20
ENDMDL
