MODEL 1
REMARK VINA RESULT:     -11.5      0.000      0.000
REMARK SMILES COC(=O)c1ccc(C)c2c1[C@H]1C=CC[C@H]1[C@@H](c1ccc(C(=O)OCCOCCOC(=O)c3ccc(-c4c5nc(c(-c6c(F)cc(S(=O)(=O)[O-])cc6F)c6ccc([nH]6)c(-c6c(F)cc(S(=O)(=O)[O-])cc6F)c6nc(c(-c7c(F)cc(S(=O)(=O)[O-])cc7F)c7ccc4[nH]7)C=C6)C=C5)cc3)cc1)N2
REMARK SMILES IDX 27 1 26 2 25 3 24 4 22 5 23 6 21 7 18 8 19 9 100 10 20 11
REMARK SMILES IDX 99 12 17 13 5 14 6 15 11 16 7 17 10 18 12 19 8 20 101 21
REMARK SMILES IDX 13 22 16 23 9 24 14 26 15 27 3 28 4 29 2 30 1 31 28 32 29 33
REMARK SMILES IDX 30 34 31 35 32 36 33 37 34 38 98 39 35 40 97 41 36 42 37 43
REMARK SMILES IDX 38 44 91 45 39 46 96 47 90 48 92 49 40 50 95 51 89 52 88 53
REMARK SMILES IDX 41 55 75 56 54 57 74 58 55 59 58 60 73 61 93 62 56 63 57 64
REMARK SMILES IDX 72 66 94 67 59 68 42 69 43 70 52 71 44 72 45 73 51 74 53 75
REMARK SMILES IDX 46 76 47 77 48 78 49 79 50 80 76 81 77 82 86 83 78 84 79 85
REMARK SMILES IDX 85 86 87 87 80 88 81 89 82 90 83 91 84 92 60 93 61 94 70 95
REMARK SMILES IDX 62 96 63 97 69 98 71 99 64 100 65 101 66 102 67 103 68 104
REMARK H PARENT 101 25 92 54 58 65
REMARK Flexibility Score: inf
ROOT
ATOM      1  O   UNL A   1      34.482  33.508  28.870  1.00  0.00    -0.374 OA
ENDROOT
BRANCH   1   2
ATOM      2  C   UNL A   1      34.961  32.440  28.054  1.00  0.00     0.202 C 
BRANCH   2   3
ATOM      3  C   UNL A   1      34.185  31.119  28.111  1.00  0.00     0.261 C 
BRANCH   3   4
ATOM      4  O   UNL A   1      34.167  30.464  26.834  1.00  0.00    -0.460 OA
BRANCH   4   5
ATOM      5  C   UNL A   1      32.997  29.842  26.552  1.00  0.00     0.338 C 
ATOM      6  O   UNL A   1      31.867  30.249  26.768  1.00  0.00    -0.246 OA
BRANCH   5   7
ATOM      7  C   UNL A   1      33.272  28.743  25.614  1.00  0.00     0.060 A 
ATOM      8  C   UNL A   1      33.786  26.455  24.017  1.00  0.00    -0.025 A 
ATOM      9  C   UNL A   1      33.839  26.425  25.424  1.00  0.00     0.007 A 
ATOM     10  C   UNL A   1      33.448  27.692  23.433  1.00  0.00     0.007 A 
ATOM     11  C   UNL A   1      33.602  27.538  26.214  1.00  0.00     0.016 A 
ATOM     12  C   UNL A   1      33.177  28.829  24.225  1.00  0.00     0.016 A 
BRANCH   8  13
ATOM     13  C   UNL A   1      34.088  25.214  23.146  1.00  0.00     0.114 C 
ATOM     14  C   UNL A   1      32.612  22.688  26.143  1.00  0.00     0.065 A 
ATOM     15  C   UNL A   1      33.443  22.470  27.250  1.00  0.00     0.016 A 
ATOM     16  C   UNL A   1      33.131  23.233  24.948  1.00  0.00    -0.003 A 
ATOM     17  C   UNL A   1      34.801  22.757  27.173  1.00  0.00     0.006 A 
ATOM     18  C   UNL A   1      34.527  23.524  24.877  1.00  0.00     0.042 A 
ATOM     19  C   UNL A   1      32.226  23.583  23.774  1.00  0.00     0.050 C 
ATOM     20  C   UNL A   1      35.362  23.275  25.995  1.00  0.00    -0.028 A 
ATOM     21  N   UNL A   1      35.007  24.301  23.821  1.00  0.00    -0.377 N 
ATOM     22  C   UNL A   1      31.081  24.540  24.023  1.00  0.00    -0.023 C 
ATOM     23  C   UNL A   1      32.938  24.323  22.620  1.00  0.00     0.031 C 
ATOM     24  C   UNL A   1      36.801  23.721  26.073  1.00  0.00     0.046 C 
ATOM     25  H   UNL A   1      35.947  24.233  23.535  1.00  0.00     0.161 HD
ATOM     26  C   UNL A   1      30.857  25.340  22.971  1.00  0.00    -0.030 C 
ATOM     27  C   UNL A   1      31.837  25.084  21.879  1.00  0.00     0.034 C 
BRANCH  14  28
ATOM     28  C   UNL A   1      31.174  22.387  26.301  1.00  0.00     0.338 C 
ATOM     29  O   UNL A   1      30.564  21.548  25.653  1.00  0.00    -0.246 OA
BRANCH  28  30
ATOM     30  O   UNL A   1      30.655  23.240  27.218  1.00  0.00    -0.465 OA
ATOM     31  C   UNL A   1      29.279  23.014  27.523  1.00  0.00     0.282 C 
ENDBRANCH  28  30
ENDBRANCH  14  28
ENDBRANCH   8  13
ENDBRANCH   5   7
ENDBRANCH   4   5
ENDBRANCH   3   4
ENDBRANCH   2   3
ENDBRANCH   1   2
BRANCH   1  32
ATOM     32  C   UNL A   1      35.458  34.301  29.554  1.00  0.00     0.202 C 
BRANCH  32  33
ATOM     33  C   UNL A   1      36.028  33.745  30.866  1.00  0.00     0.261 C 
BRANCH  33  34
ATOM     34  O   UNL A   1      37.166  32.891  30.634  1.00  0.00    -0.460 OA
BRANCH  34  35
ATOM     35  C   UNL A   1      37.013  31.600  31.015  1.00  0.00     0.338 C 
ATOM     36  O   UNL A   1      36.040  31.095  31.554  1.00  0.00    -0.246 OA
BRANCH  35  37
ATOM     37  C   UNL A   1      38.137  30.809  30.488  1.00  0.00     0.060 A 
ATOM     38  C   UNL A   1      39.099  30.333  31.391  1.00  0.00     0.016 A 
ATOM     39  C   UNL A   1      38.286  30.609  29.115  1.00  0.00     0.016 A 
ATOM     40  C   UNL A   1      40.227  29.669  30.919  1.00  0.00     0.010 A 
ATOM     41  C   UNL A   1      39.432  29.965  28.643  1.00  0.00     0.010 A 
ATOM     42  C   UNL A   1      40.419  29.521  29.541  1.00  0.00    -0.014 A 
BRANCH  42  43
ATOM     43  C   UNL A   1      41.735  29.072  29.035  1.00  0.00     0.031 A 
ATOM     44  C   UNL A   1      42.858  30.068  28.980  1.00  0.00     0.074 A 
ATOM     45  C   UNL A   1      41.930  27.798  28.658  1.00  0.00     0.049 A 
ATOM     46  N   UNL A   1      44.082  29.914  28.548  1.00  0.00    -0.248 NA
ATOM     47  C   UNL A   1      42.560  31.419  29.483  1.00  0.00     0.031 C 
ATOM     48  C   UNL A   1      40.929  26.735  28.723  1.00  0.00     0.029 A 
ATOM     49  N   UNL A   1      43.043  27.185  28.141  1.00  0.00    -0.354 N 
ATOM     50  C   UNL A   1      44.703  31.143  28.734  1.00  0.00     0.074 A 
ATOM     51  C   UNL A   1      43.710  32.043  29.277  1.00  0.00     0.031 C 
ATOM     52  C   UNL A   1      41.473  25.598  28.255  1.00  0.00     0.029 A 
ATOM     53  C   UNL A   1      42.847  25.861  27.830  1.00  0.00     0.049 A 
ATOM     54  H   UNL A   1      43.900  27.648  28.006  1.00  0.00     0.167 HD
ATOM     55  C   UNL A   1      45.988  31.484  28.482  1.00  0.00     0.037 A 
ATOM     56  C   UNL A   1      43.679  24.972  27.253  1.00  0.00     0.037 A 
ATOM     57  C   UNL A   1      46.961  30.587  27.918  1.00  0.00     0.049 A 
ATOM     58  C   UNL A   1      45.074  25.402  26.881  1.00  0.00     0.074 A 
ATOM     59  C   UNL A   1      48.288  30.836  27.618  1.00  0.00     0.029 A 
ATOM     60  N   UNL A   1      46.708  29.271  27.556  1.00  0.00    -0.354 N 
ATOM     61  N   UNL A   1      45.656  26.564  27.067  1.00  0.00    -0.248 NA
ATOM     62  C   UNL A   1      45.926  24.403  26.222  1.00  0.00     0.031 C 
ATOM     63  C   UNL A   1      48.823  29.687  27.025  1.00  0.00     0.029 A 
ATOM     64  C   UNL A   1      47.847  28.703  27.008  1.00  0.00     0.049 A 
ATOM     65  H   UNL A   1      45.847  28.809  27.672  1.00  0.00     0.167 HD
ATOM     66  C   UNL A   1      46.948  26.430  26.568  1.00  0.00     0.074 A 
ATOM     67  C   UNL A   1      47.065  25.070  26.082  1.00  0.00     0.031 C 
ATOM     68  C   UNL A   1      47.946  27.347  26.522  1.00  0.00     0.037 A 
BRANCH  55  69
ATOM     69  C   UNL A   1      46.401  32.895  28.795  1.00  0.00     0.058 A 
ATOM     70  C   UNL A   1      46.907  33.254  30.055  1.00  0.00     0.135 A 
ATOM     71  C   UNL A   1      46.301  33.903  27.821  1.00  0.00     0.135 A 
ATOM     72  F   UNL A   1      47.005  32.335  31.030  1.00  0.00    -0.206 F 
ATOM     73  C   UNL A   1      47.271  34.563  30.348  1.00  0.00     0.059 A 
ATOM     74  C   UNL A   1      46.687  35.214  28.082  1.00  0.00     0.059 A 
ATOM     75  F   UNL A   1      45.819  33.618  26.601  1.00  0.00    -0.206 F 
ATOM     76  C   UNL A   1      47.158  35.537  29.354  1.00  0.00     0.060 A 
BRANCH  76  77
ATOM     77  S   UNL A   1      47.625  37.233  29.756  1.00  0.00     0.124 S 
ATOM     78  O   UNL A   1      47.567  37.215  31.214  1.00  0.00    -0.237 OA
ATOM     79  O   UNL A   1      48.962  37.331  29.177  1.00  0.00    -0.237 OA
ATOM     80  O   UNL A   1      46.599  38.036  29.098  1.00  0.00    -0.744 OA
ENDBRANCH  76  77
ENDBRANCH  55  69
BRANCH  56  81
ATOM     81  C   UNL A   1      43.210  23.583  27.006  1.00  0.00     0.058 A 
ATOM     82  C   UNL A   1      42.858  23.161  25.717  1.00  0.00     0.135 A 
ATOM     83  C   UNL A   1      43.151  22.638  28.043  1.00  0.00     0.135 A 
ATOM     84  F   UNL A   1      42.885  24.032  24.697  1.00  0.00    -0.206 F 
ATOM     85  C   UNL A   1      42.476  21.849  25.459  1.00  0.00     0.059 A 
ATOM     86  C   UNL A   1      42.793  21.315  27.807  1.00  0.00     0.059 A 
ATOM     87  F   UNL A   1      43.484  22.991  29.296  1.00  0.00    -0.206 F 
ATOM     88  C   UNL A   1      42.459  20.929  26.510  1.00  0.00     0.060 A 
BRANCH  88  89
ATOM     89  S   UNL A   1      42.048  19.209  26.143  1.00  0.00     0.124 S 
ATOM     90  O   UNL A   1      40.603  19.283  25.957  1.00  0.00    -0.237 OA
ATOM     91  O   UNL A   1      42.835  18.962  24.939  1.00  0.00    -0.237 OA
ATOM     92  O   UNL A   1      42.496  18.494  27.334  1.00  0.00    -0.744 OA
ENDBRANCH  88  89
ENDBRANCH  56  81
BRANCH  68  93
ATOM     93  C   UNL A   1      49.265  26.919  25.936  1.00  0.00     0.058 A 
ATOM     94  C   UNL A   1      49.584  27.156  24.590  1.00  0.00     0.135 A 
ATOM     95  C   UNL A   1      50.253  26.341  26.752  1.00  0.00     0.135 A 
ATOM     96  F   UNL A   1      48.676  27.700  23.766  1.00  0.00    -0.206 F 
ATOM     97  C   UNL A   1      50.831  26.823  24.071  1.00  0.00     0.059 A 
ATOM     98  C   UNL A   1      51.516  26.028  26.260  1.00  0.00     0.059 A 
ATOM     99  F   UNL A   1      50.004  26.103  28.049  1.00  0.00    -0.206 F 
ATOM    100  C   UNL A   1      51.794  26.267  24.915  1.00  0.00     0.060 A 
BRANCH 100 101
ATOM    101  S   UNL A   1      53.422  25.887  24.234  1.00  0.00     0.124 S 
ATOM    102  O   UNL A   1      53.169  25.969  22.800  1.00  0.00    -0.237 OA
ATOM    103  O   UNL A   1      54.248  26.952  24.794  1.00  0.00    -0.237 OA
ATOM    104  O   UNL A   1      53.703  24.549  24.746  1.00  0.00    -0.744 OA
ENDBRANCH 100 101
ENDBRANCH  68  93
ENDBRANCH  42  43
ENDBRANCH  35  37
ENDBRANCH  34  35
ENDBRANCH  33  34
ENDBRANCH  32  33
ENDBRANCH   1  32
TORSDOF 20
ENDMDL
MODEL 2
REMARK VINA RESULT:     -11.4      0.456      7.902
REMARK SMILES COC(=O)c1ccc(C)c2c1[C@H]1C=CC[C@H]1[C@@H](c1ccc(C(=O)OCCOCCOC(=O)c3ccc(-c4c5nc(c(-c6c(F)cc(S(=O)(=O)[O-])cc6F)c6ccc([nH]6)c(-c6c(F)cc(S(=O)(=O)[O-])cc6F)c6nc(c(-c7c(F)cc(S(=O)(=O)[O-])cc7F)c7ccc4[nH]7)C=C6)C=C5)cc3)cc1)N2
REMARK SMILES IDX 27 1 26 2 25 3 24 4 22 5 23 6 21 7 18 8 19 9 100 10 20 11
REMARK SMILES IDX 99 12 17 13 5 14 6 15 11 16 7 17 10 18 12 19 8 20 101 21
REMARK SMILES IDX 13 22 16 23 9 24 14 26 15 27 3 28 4 29 2 30 1 31 28 32 29 33
REMARK SMILES IDX 30 34 31 35 32 36 33 37 34 38 98 39 35 40 97 41 36 42 37 43
REMARK SMILES IDX 38 44 91 45 39 46 96 47 90 48 92 49 40 50 95 51 89 52 88 53
REMARK SMILES IDX 41 55 75 56 54 57 74 58 55 59 58 60 73 61 93 62 56 63 57 64
REMARK SMILES IDX 72 66 94 67 59 68 42 69 43 70 52 71 44 72 45 73 51 74 53 75
REMARK SMILES IDX 46 76 47 77 48 78 49 79 50 80 76 81 77 82 86 83 78 84 79 85
REMARK SMILES IDX 85 86 87 87 80 88 81 89 82 90 83 91 84 92 60 93 61 94 70 95
REMARK SMILES IDX 62 96 63 97 69 98 71 99 64 100 65 101 66 102 67 103 68 104
REMARK H PARENT 101 25 92 54 58 65
REMARK Flexibility Score: inf
ROOT
ATOM      1  O   UNL A   1      34.129  32.701  29.975  1.00  0.00    -0.374 OA
ENDROOT
BRANCH   1   2
ATOM      2  C   UNL A   1      34.298  32.433  28.584  1.00  0.00     0.202 C 
BRANCH   2   3
ATOM      3  C   UNL A   1      34.602  30.985  28.185  1.00  0.00     0.261 C 
BRANCH   3   4
ATOM      4  O   UNL A   1      34.143  30.697  26.856  1.00  0.00    -0.460 OA
BRANCH   4   5
ATOM      5  C   UNL A   1      33.059  29.886  26.812  1.00  0.00     0.338 C 
ATOM      6  O   UNL A   1      31.946  30.108  27.260  1.00  0.00    -0.246 OA
BRANCH   5   7
ATOM      7  C   UNL A   1      33.313  28.826  25.825  1.00  0.00     0.060 A 
ATOM      8  C   UNL A   1      33.779  26.605  24.122  1.00  0.00    -0.025 A 
ATOM      9  C   UNL A   1      33.807  26.503  25.526  1.00  0.00     0.007 A 
ATOM     10  C   UNL A   1      33.492  27.880  23.596  1.00  0.00     0.007 A 
ATOM     11  C   UNL A   1      33.593  27.583  26.368  1.00  0.00     0.016 A 
ATOM     12  C   UNL A   1      33.245  28.985  24.440  1.00  0.00     0.016 A 
BRANCH   8  13
ATOM     13  C   UNL A   1      34.055  25.400  23.194  1.00  0.00     0.114 C 
ATOM     14  C   UNL A   1      32.519  22.771  26.070  1.00  0.00     0.065 A 
ATOM     15  C   UNL A   1      33.343  22.483  27.166  1.00  0.00     0.016 A 
ATOM     16  C   UNL A   1      33.051  23.358  24.901  1.00  0.00    -0.003 A 
ATOM     17  C   UNL A   1      34.707  22.743  27.103  1.00  0.00     0.006 A 
ATOM     18  C   UNL A   1      34.453  23.621  24.845  1.00  0.00     0.042 A 
ATOM     19  C   UNL A   1      32.156  23.783  23.744  1.00  0.00     0.050 C 
ATOM     20  C   UNL A   1      35.281  23.302  25.950  1.00  0.00    -0.028 A 
ATOM     21  N   UNL A   1      34.952  24.436  23.826  1.00  0.00    -0.377 N 
ATOM     22  C   UNL A   1      31.032  24.753  24.038  1.00  0.00    -0.023 C 
ATOM     23  C   UNL A   1      32.886  24.560  22.627  1.00  0.00     0.031 C 
ATOM     24  C   UNL A   1      36.729  23.712  26.050  1.00  0.00     0.046 C 
ATOM     25  H   UNL A   1      35.892  24.361  23.539  1.00  0.00     0.161 HD
ATOM     26  C   UNL A   1      30.827  25.605  23.024  1.00  0.00    -0.030 C 
ATOM     27  C   UNL A   1      31.803  25.378  21.921  1.00  0.00     0.034 C 
BRANCH  14  28
ATOM     28  C   UNL A   1      31.073  22.494  26.212  1.00  0.00     0.338 C 
ATOM     29  O   UNL A   1      30.451  21.684  25.541  1.00  0.00    -0.246 OA
BRANCH  28  30
ATOM     30  O   UNL A   1      30.567  23.334  27.148  1.00  0.00    -0.465 OA
ATOM     31  C   UNL A   1      29.267  22.979  27.620  1.00  0.00     0.282 C 
ENDBRANCH  28  30
ENDBRANCH  14  28
ENDBRANCH   8  13
ENDBRANCH   5   7
ENDBRANCH   4   5
ENDBRANCH   3   4
ENDBRANCH   2   3
ENDBRANCH   1   2
BRANCH   1  32
ATOM     32  C   UNL A   1      34.937  33.733  30.549  1.00  0.00     0.202 C 
BRANCH  32  33
ATOM     33  C   UNL A   1      36.044  33.307  31.523  1.00  0.00     0.261 C 
BRANCH  33  34
ATOM     34  O   UNL A   1      37.054  32.513  30.869  1.00  0.00    -0.460 OA
BRANCH  34  35
ATOM     35  C   UNL A   1      37.029  31.189  31.153  1.00  0.00     0.338 C 
ATOM     36  O   UNL A   1      36.113  30.554  31.653  1.00  0.00    -0.246 OA
BRANCH  35  37
ATOM     37  C   UNL A   1      38.221  30.552  30.570  1.00  0.00     0.060 A 
ATOM     38  C   UNL A   1      39.234  30.113  31.435  1.00  0.00     0.016 A 
ATOM     39  C   UNL A   1      38.377  30.463  29.186  1.00  0.00     0.016 A 
ATOM     40  C   UNL A   1      40.417  29.597  30.916  1.00  0.00     0.010 A 
ATOM     41  C   UNL A   1      39.576  29.970  28.668  1.00  0.00     0.010 A 
ATOM     42  C   UNL A   1      40.610  29.565  29.531  1.00  0.00    -0.014 A 
BRANCH  42  43
ATOM     43  C   UNL A   1      41.959  29.285  28.991  1.00  0.00     0.031 A 
ATOM     44  C   UNL A   1      42.269  27.890  28.527  1.00  0.00     0.074 A 
ATOM     45  C   UNL A   1      42.879  30.259  28.892  1.00  0.00     0.049 A 
ATOM     46  N   UNL A   1      43.384  27.404  28.049  1.00  0.00    -0.248 NA
ATOM     47  C   UNL A   1      41.170  26.913  28.612  1.00  0.00     0.031 C 
ATOM     48  C   UNL A   1      42.668  31.659  29.258  1.00  0.00     0.029 A 
ATOM     49  N   UNL A   1      44.178  30.214  28.455  1.00  0.00    -0.354 N 
ATOM     50  C   UNL A   1      43.121  26.069  27.768  1.00  0.00     0.074 A 
ATOM     51  C   UNL A   1      41.755  25.811  28.168  1.00  0.00     0.031 C 
ATOM     52  C   UNL A   1      43.806  32.340  29.037  1.00  0.00     0.029 A 
ATOM     53  C   UNL A   1      44.830  31.420  28.544  1.00  0.00     0.049 A 
ATOM     54  H   UNL A   1      44.603  29.396  28.111  1.00  0.00     0.167 HD
ATOM     55  C   UNL A   1      43.942  25.146  27.217  1.00  0.00     0.037 A 
ATOM     56  C   UNL A   1      46.111  31.736  28.273  1.00  0.00     0.037 A 
ATOM     57  C   UNL A   1      45.309  25.407  26.846  1.00  0.00     0.049 A 
ATOM     58  C   UNL A   1      47.042  30.668  27.761  1.00  0.00     0.074 A 
ATOM     59  C   UNL A   1      46.228  24.540  26.286  1.00  0.00     0.029 A 
ATOM     60  N   UNL A   1      45.954  26.625  27.009  1.00  0.00    -0.354 N 
ATOM     61  N   UNL A   1      46.783  29.409  27.491  1.00  0.00    -0.248 NA
ATOM     62  C   UNL A   1      48.436  31.060  27.516  1.00  0.00     0.031 C 
ATOM     63  C   UNL A   1      47.446  25.217  26.161  1.00  0.00     0.029 A 
ATOM     64  C   UNL A   1      47.270  26.524  26.589  1.00  0.00     0.049 A 
ATOM     65  H   UNL A   1      45.538  27.440  27.371  1.00  0.00     0.167 HD
ATOM     66  C   UNL A   1      47.975  28.865  27.024  1.00  0.00     0.074 A 
ATOM     67  C   UNL A   1      48.954  29.934  27.040  1.00  0.00     0.031 C 
ATOM     68  C   UNL A   1      48.235  27.597  26.617  1.00  0.00     0.037 A 
BRANCH  55  69
ATOM     69  C   UNL A   1      43.388  23.764  27.008  1.00  0.00     0.058 A 
ATOM     70  C   UNL A   1      42.956  23.326  25.746  1.00  0.00     0.135 A 
ATOM     71  C   UNL A   1      43.297  22.861  28.080  1.00  0.00     0.135 A 
ATOM     72  F   UNL A   1      43.002  24.156  24.691  1.00  0.00    -0.206 F 
ATOM     73  C   UNL A   1      42.426  22.054  25.559  1.00  0.00     0.059 A 
ATOM     74  C   UNL A   1      42.797  21.573  27.910  1.00  0.00     0.059 A 
ATOM     75  F   UNL A   1      43.690  23.228  29.310  1.00  0.00    -0.206 F 
ATOM     76  C   UNL A   1      42.351  21.185  26.648  1.00  0.00     0.060 A 
BRANCH  76  77
ATOM     77  S   UNL A   1      41.651  19.541  26.388  1.00  0.00     0.124 S 
ATOM     78  O   UNL A   1      40.235  19.851  26.211  1.00  0.00    -0.237 OA
ATOM     79  O   UNL A   1      42.355  19.090  25.192  1.00  0.00    -0.237 OA
ATOM     80  O   UNL A   1      41.987  18.828  27.617  1.00  0.00    -0.744 OA
ENDBRANCH  76  77
ENDBRANCH  55  69
BRANCH  56  81
ATOM     81  C   UNL A   1      46.579  33.133  28.472  1.00  0.00     0.058 A 
ATOM     82  C   UNL A   1      46.488  34.076  27.438  1.00  0.00     0.135 A 
ATOM     83  C   UNL A   1      47.077  33.567  29.711  1.00  0.00     0.135 A 
ATOM     84  F   UNL A   1      46.032  33.705  26.232  1.00  0.00    -0.206 F 
ATOM     85  C   UNL A   1      46.864  35.402  27.626  1.00  0.00     0.059 A 
ATOM     86  C   UNL A   1      47.439  34.892  29.930  1.00  0.00     0.059 A 
ATOM     87  F   UNL A   1      47.178  32.704  30.735  1.00  0.00    -0.206 F 
ATOM     88  C   UNL A   1      47.326  35.803  28.881  1.00  0.00     0.060 A 
BRANCH  88  89
ATOM     89  S   UNL A   1      47.725  37.546  29.135  1.00  0.00     0.124 S 
ATOM     90  O   UNL A   1      47.995  37.583  30.568  1.00  0.00    -0.237 OA
ATOM     91  O   UNL A   1      48.882  37.721  28.263  1.00  0.00    -0.237 OA
ATOM     92  O   UNL A   1      46.513  38.235  28.703  1.00  0.00    -0.744 OA
ENDBRANCH  88  89
ENDBRANCH  56  81
BRANCH  68  93
ATOM     93  C   UNL A   1      49.628  27.286  26.139  1.00  0.00     0.058 A 
ATOM     94  C   UNL A   1      50.629  26.855  27.023  1.00  0.00     0.135 A 
ATOM     95  C   UNL A   1      49.940  27.338  24.770  1.00  0.00     0.135 A 
ATOM     96  F   UNL A   1      50.387  26.792  28.341  1.00  0.00    -0.206 F 
ATOM     97  C   UNL A   1      51.895  26.500  26.567  1.00  0.00     0.059 A 
ATOM     98  C   UNL A   1      51.190  26.959  24.290  1.00  0.00     0.059 A 
ATOM     99  F   UNL A   1      49.015  27.732  23.880  1.00  0.00    -0.206 F 
ATOM    100  C   UNL A   1      52.164  26.547  25.198  1.00  0.00     0.060 A 
BRANCH 100 101
ATOM    101  S   UNL A   1      53.796  26.035  24.621  1.00  0.00     0.124 S 
ATOM    102  O   UNL A   1      54.091  24.922  25.516  1.00  0.00    -0.237 OA
ATOM    103  O   UNL A   1      53.535  25.680  23.230  1.00  0.00    -0.237 OA
ATOM    104  O   UNL A   1      54.616  27.228  24.813  1.00  0.00    -0.744 OA
ENDBRANCH 100 101
ENDBRANCH  68  93
ENDBRANCH  42  43
ENDBRANCH  35  37
ENDBRANCH  34  35
ENDBRANCH  33  34
ENDBRANCH  32  33
ENDBRANCH   1  32
TORSDOF 20
ENDMDL
MODEL 3
REMARK VINA RESULT:     -11.4      6.081     11.591
REMARK SMILES COC(=O)c1ccc(C)c2c1[C@H]1C=CC[C@H]1[C@@H](c1ccc(C(=O)OCCOCCOC(=O)c3ccc(-c4c5nc(c(-c6c(F)cc(S(=O)(=O)[O-])cc6F)c6ccc([nH]6)c(-c6c(F)cc(S(=O)(=O)[O-])cc6F)c6nc(c(-c7c(F)cc(S(=O)(=O)[O-])cc7F)c7ccc4[nH]7)C=C6)C=C5)cc3)cc1)N2
REMARK SMILES IDX 27 1 26 2 25 3 24 4 22 5 23 6 21 7 18 8 19 9 100 10 20 11
REMARK SMILES IDX 99 12 17 13 5 14 6 15 11 16 7 17 10 18 12 19 8 20 101 21
REMARK SMILES IDX 13 22 16 23 9 24 14 26 15 27 3 28 4 29 2 30 1 31 28 32 29 33
REMARK SMILES IDX 30 34 31 35 32 36 33 37 34 38 98 39 35 40 97 41 36 42 37 43
REMARK SMILES IDX 38 44 91 45 39 46 96 47 90 48 92 49 40 50 95 51 89 52 88 53
REMARK SMILES IDX 41 55 75 56 54 57 74 58 55 59 58 60 73 61 93 62 56 63 57 64
REMARK SMILES IDX 72 66 94 67 59 68 42 69 43 70 52 71 44 72 45 73 51 74 53 75
REMARK SMILES IDX 46 76 47 77 48 78 49 79 50 80 76 81 77 82 86 83 78 84 79 85
REMARK SMILES IDX 85 86 87 87 80 88 81 89 82 90 83 91 84 92 60 93 61 94 70 95
REMARK SMILES IDX 62 96 63 97 69 98 71 99 64 100 65 101 66 102 67 103 68 104
REMARK H PARENT 101 25 92 54 58 65
REMARK Flexibility Score: inf
ROOT
ATOM      1  O   UNL A   1      41.705  22.555  27.240  1.00  0.00    -0.374 OA
ENDROOT
BRANCH   1   2
ATOM      2  C   UNL A   1      40.353  22.122  27.382  1.00  0.00     0.202 C 
BRANCH   2   3
ATOM      3  C   UNL A   1      39.545  21.927  26.094  1.00  0.00     0.261 C 
BRANCH   3   4
ATOM      4  O   UNL A   1      38.321  22.676  26.121  1.00  0.00    -0.460 OA
BRANCH   4   5
ATOM      5  C   UNL A   1      37.355  22.180  25.312  1.00  0.00     0.338 C 
ATOM      6  O   UNL A   1      37.425  21.205  24.581  1.00  0.00    -0.246 OA
BRANCH   5   7
ATOM      7  C   UNL A   1      36.070  22.780  25.703  1.00  0.00     0.060 A 
ATOM      8  C   UNL A   1      33.632  24.119  26.261  1.00  0.00    -0.025 A 
ATOM      9  C   UNL A   1      34.630  24.673  25.437  1.00  0.00     0.007 A 
ATOM     10  C   UNL A   1      33.902  22.842  26.793  1.00  0.00     0.007 A 
ATOM     11  C   UNL A   1      35.830  24.035  25.167  1.00  0.00     0.016 A 
ATOM     12  C   UNL A   1      35.108  22.167  26.505  1.00  0.00     0.016 A 
BRANCH   8  13
ATOM     13  C   UNL A   1      32.313  24.857  26.583  1.00  0.00     0.114 C 
ATOM     14  C   UNL A   1      32.614  27.050  23.028  1.00  0.00     0.065 A 
ATOM     15  C   UNL A   1      33.536  28.105  23.012  1.00  0.00     0.016 A 
ATOM     16  C   UNL A   1      32.194  26.476  24.248  1.00  0.00    -0.003 A 
ATOM     17  C   UNL A   1      34.026  28.623  24.206  1.00  0.00     0.006 A 
ATOM     18  C   UNL A   1      32.701  27.015  25.468  1.00  0.00     0.042 A 
ATOM     19  C   UNL A   1      31.281  25.257  24.281  1.00  0.00     0.050 C 
ATOM     20  C   UNL A   1      33.615  28.098  25.442  1.00  0.00    -0.028 A 
ATOM     21  N   UNL A   1      32.516  26.303  26.655  1.00  0.00    -0.377 N 
ATOM     22  C   UNL A   1      31.732  24.014  23.547  1.00  0.00    -0.023 C 
ATOM     23  C   UNL A   1      31.064  24.664  25.691  1.00  0.00     0.031 C 
ATOM     24  C   UNL A   1      34.339  28.605  26.663  1.00  0.00     0.046 C 
ATOM     25  H   UNL A   1      32.521  26.766  27.524  1.00  0.00     0.161 HD
ATOM     26  C   UNL A   1      31.370  22.893  24.187  1.00  0.00    -0.030 C 
ATOM     27  C   UNL A   1      30.669  23.203  25.465  1.00  0.00     0.034 C 
BRANCH  14  28
ATOM     28  C   UNL A   1      32.153  26.529  21.723  1.00  0.00     0.338 C 
ATOM     29  O   UNL A   1      30.999  26.577  21.323  1.00  0.00    -0.246 OA
BRANCH  28  30
ATOM     30  O   UNL A   1      33.204  25.939  21.102  1.00  0.00    -0.465 OA
ATOM     31  C   UNL A   1      32.856  25.185  19.941  1.00  0.00     0.282 C 
ENDBRANCH  28  30
ENDBRANCH  14  28
ENDBRANCH   8  13
ENDBRANCH   5   7
ENDBRANCH   4   5
ENDBRANCH   3   4
ENDBRANCH   2   3
ENDBRANCH   1   2
BRANCH   1  32
ATOM     32  C   UNL A   1      42.318  22.384  25.958  1.00  0.00     0.202 C 
BRANCH  32  33
ATOM     33  C   UNL A   1      42.740  23.650  25.200  1.00  0.00     0.261 C 
BRANCH  33  34
ATOM     34  O   UNL A   1      43.003  24.747  26.098  1.00  0.00    -0.460 OA
BRANCH  34  35
ATOM     35  C   UNL A   1      42.059  25.719  26.123  1.00  0.00     0.338 C 
ATOM     36  O   UNL A   1      41.225  25.965  25.265  1.00  0.00    -0.246 OA
BRANCH  35  37
ATOM     37  C   UNL A   1      42.038  26.331  27.461  1.00  0.00     0.060 A 
ATOM     38  C   UNL A   1      40.969  26.028  28.317  1.00  0.00     0.016 A 
ATOM     39  C   UNL A   1      43.014  27.254  27.838  1.00  0.00     0.016 A 
ATOM     40  C   UNL A   1      40.862  26.664  29.549  1.00  0.00     0.010 A 
ATOM     41  C   UNL A   1      42.890  27.910  29.064  1.00  0.00     0.010 A 
ATOM     42  C   UNL A   1      41.799  27.640  29.909  1.00  0.00    -0.014 A 
BRANCH  42  43
ATOM     43  C   UNL A   1      41.532  28.507  31.078  1.00  0.00     0.031 A 
ATOM     44  C   UNL A   1      40.416  29.508  30.986  1.00  0.00     0.074 A 
ATOM     45  C   UNL A   1      42.251  28.385  32.206  1.00  0.00     0.049 A 
ATOM     46  N   UNL A   1      40.019  30.390  31.866  1.00  0.00    -0.248 NA
ATOM     47  C   UNL A   1      39.642  29.513  29.734  1.00  0.00     0.031 C 
ATOM     48  C   UNL A   1      43.318  27.409  32.425  1.00  0.00     0.029 A 
ATOM     49  N   UNL A   1      42.192  29.093  33.379  1.00  0.00    -0.354 N 
ATOM     50  C   UNL A   1      38.946  31.048  31.279  1.00  0.00     0.074 A 
ATOM     51  C   UNL A   1      38.780  30.495  29.953  1.00  0.00     0.031 C 
ATOM     52  C   UNL A   1      43.820  27.586  33.659  1.00  0.00     0.029 A 
ATOM     53  C   UNL A   1      43.132  28.705  34.303  1.00  0.00     0.049 A 
ATOM     54  H   UNL A   1      41.539  29.810  33.543  1.00  0.00     0.167 HD
ATOM     55  C   UNL A   1      38.164  32.020  31.804  1.00  0.00     0.037 A 
ATOM     56  C   UNL A   1      43.411  29.209  35.521  1.00  0.00     0.037 A 
ATOM     57  C   UNL A   1      38.354  32.582  33.116  1.00  0.00     0.049 A 
ATOM     58  C   UNL A   1      42.598  30.363  36.046  1.00  0.00     0.074 A 
ATOM     59  C   UNL A   1      37.621  33.574  33.740  1.00  0.00     0.029 A 
ATOM     60  N   UNL A   1      39.356  32.207  34.000  1.00  0.00    -0.354 N 
ATOM     61  N   UNL A   1      41.580  30.976  35.487  1.00  0.00    -0.248 NA
ATOM     62  C   UNL A   1      42.969  30.896  37.363  1.00  0.00     0.031 C 
ATOM     63  C   UNL A   1      38.213  33.838  34.981  1.00  0.00     0.029 A 
ATOM     64  C   UNL A   1      39.280  32.970  35.154  1.00  0.00     0.049 A 
ATOM     65  H   UNL A   1      40.023  31.503  33.831  1.00  0.00     0.167 HD
ATOM     66  C   UNL A   1      41.175  31.950  36.394  1.00  0.00     0.074 A 
ATOM     67  C   UNL A   1      42.053  31.839  37.541  1.00  0.00     0.031 C 
ATOM     68  C   UNL A   1      40.166  32.851  36.287  1.00  0.00     0.037 A 
BRANCH  55  69
ATOM     69  C   UNL A   1      37.050  32.550  30.945  1.00  0.00     0.058 A 
ATOM     70  C   UNL A   1      37.280  33.520  29.955  1.00  0.00     0.135 A 
ATOM     71  C   UNL A   1      35.738  32.077  31.103  1.00  0.00     0.135 A 
ATOM     72  F   UNL A   1      38.512  34.022  29.775  1.00  0.00    -0.206 F 
ATOM     73  C   UNL A   1      36.245  34.023  29.175  1.00  0.00     0.059 A 
ATOM     74  C   UNL A   1      34.691  32.544  30.313  1.00  0.00     0.059 A 
ATOM     75  F   UNL A   1      35.460  31.154  32.037  1.00  0.00    -0.206 F 
ATOM     76  C   UNL A   1      34.953  33.528  29.361  1.00  0.00     0.060 A 
BRANCH  76  77
ATOM     77  S   UNL A   1      33.621  34.200  28.346  1.00  0.00     0.124 S 
ATOM     78  O   UNL A   1      33.147  33.003  27.658  1.00  0.00    -0.237 OA
ATOM     79  O   UNL A   1      32.717  34.754  29.348  1.00  0.00    -0.237 OA
ATOM     80  O   UNL A   1      34.295  35.182  27.502  1.00  0.00    -0.744 OA
ENDBRANCH  76  77
ENDBRANCH  55  69
BRANCH  56  81
ATOM     81  C   UNL A   1      44.506  28.609  36.328  1.00  0.00     0.058 A 
ATOM     82  C   UNL A   1      45.804  29.136  36.284  1.00  0.00     0.135 A 
ATOM     83  C   UNL A   1      44.266  27.530  37.195  1.00  0.00     0.135 A 
ATOM     84  F   UNL A   1      46.084  30.157  35.460  1.00  0.00    -0.206 F 
ATOM     85  C   UNL A   1      46.825  28.624  37.078  1.00  0.00     0.059 A 
ATOM     86  C   UNL A   1      45.265  27.016  38.015  1.00  0.00     0.059 A 
ATOM     87  F   UNL A   1      43.038  26.993  37.278  1.00  0.00    -0.206 F 
ATOM     88  C   UNL A   1      46.541  27.572  37.951  1.00  0.00     0.060 A 
BRANCH  88  89
ATOM     89  S   UNL A   1      47.855  26.979  39.041  1.00  0.00     0.124 S 
ATOM     90  O   UNL A   1      48.593  28.208  39.310  1.00  0.00    -0.237 OA
ATOM     91  O   UNL A   1      47.094  26.433  40.160  1.00  0.00    -0.237 OA
ATOM     92  O   UNL A   1      48.551  25.991  38.223  1.00  0.00    -0.744 OA
ENDBRANCH  88  89
ENDBRANCH  56  81
BRANCH  68  93
ATOM     93  C   UNL A   1      39.939  33.789  37.442  1.00  0.00     0.058 A 
ATOM     94  C   UNL A   1      39.089  33.454  38.506  1.00  0.00     0.135 A 
ATOM     95  C   UNL A   1      40.647  35.001  37.525  1.00  0.00     0.135 A 
ATOM     96  F   UNL A   1      38.386  32.311  38.475  1.00  0.00    -0.206 F 
ATOM     97  C   UNL A   1      38.937  34.293  39.606  1.00  0.00     0.059 A 
ATOM     98  C   UNL A   1      40.532  35.840  38.629  1.00  0.00     0.059 A 
ATOM     99  F   UNL A   1      41.482  35.365  36.539  1.00  0.00    -0.206 F 
ATOM    100  C   UNL A   1      39.669  35.480  39.663  1.00  0.00     0.060 A 
BRANCH 100 101
ATOM    101  S   UNL A   1      39.496  36.531  41.120  1.00  0.00     0.124 S 
ATOM    102  O   UNL A   1      38.149  36.196  41.568  1.00  0.00    -0.237 OA
ATOM    103  O   UNL A   1      40.583  36.060  41.972  1.00  0.00    -0.237 OA
ATOM    104  O   UNL A   1      39.663  37.881  40.590  1.00  0.00    -0.744 OA
ENDBRANCH 100 101
ENDBRANCH  68  93
ENDBRANCH  42  43
ENDBRANCH  35  37
ENDBRANCH  34  35
ENDBRANCH  33  34
ENDBRANCH  32  33
ENDBRANCH   1  32
TORSDOF 20
ENDMDL
