MODEL 1
REMARK VINA RESULT:      -9.6      0.000      0.000
REMARK SMILES C[NH2+]CCCC(=O)NC[C@@H]1CC[C@H](C(=O)OCCOCCOC(=O)c2ccc(-c3c4nc(c(-c5c(F)cc(S(=O)(=O)[O-])cc5F)c5ccc([nH]5)c(-c5c(F)cc(S(=O)(=O)[O-])cc5F)c5nc(c(-c6c(F)cc(S(=O)(=O)[O-])cc6F)c6ccc3[nH]6)C=C5)C=C4)cc2)O1
REMARK SMILES IDX 17 1 16 2 14 3 15 4 13 5 10 6 11 7 91 8 12 9 9 10 8 11 6 12
REMARK SMILES IDX 7 13 5 15 4 16 3 17 2 18 1 19 18 22 19 23 20 24 21 25 22 26
REMARK SMILES IDX 23 27 24 28 25 29 26 30 90 31 27 32 89 33 28 34 29 35 30 36
REMARK SMILES IDX 83 37 31 38 88 39 82 40 84 41 32 42 87 43 81 44 80 45 33 47
REMARK SMILES IDX 67 48 46 49 66 50 47 51 50 52 65 53 85 54 48 55 49 56 64 58
REMARK SMILES IDX 86 59 51 60 34 61 35 62 44 63 36 64 37 65 43 66 45 67 38 68
REMARK SMILES IDX 39 69 40 70 41 71 42 72 68 73 69 74 78 75 70 76 71 77 77 78
REMARK SMILES IDX 79 79 72 80 73 81 74 82 75 83 76 84 52 85 53 86 62 87 54 88
REMARK SMILES IDX 55 89 61 90 63 91 56 92 57 93 58 94 59 95 60 96
REMARK H PARENT 8 14 2 20 2 21 84 46 50 57
REMARK Flexibility Score: inf
ROOT
ATOM      1  C   UNL A   1      36.300  23.610  24.919  1.00  0.00     0.261 C 
ENDROOT
BRANCH   1   2
ATOM      2  O   UNL A   1      35.020  23.525  24.264  1.00  0.00    -0.461 OA
BRANCH   2   3
ATOM      3  C   UNL A   1      34.338  24.693  24.106  1.00  0.00     0.335 C 
ATOM      4  O   UNL A   1      33.934  25.125  23.033  1.00  0.00    -0.249 OA
BRANCH   3   5
ATOM      5  C   UNL A   1      34.134  25.438  25.436  1.00  0.00     0.228 C 
ATOM      6  C   UNL A   1      32.014  25.378  26.426  1.00  0.00     0.138 C 
ATOM      7  C   UNL A   1      32.053  26.548  25.456  1.00  0.00     0.037 C 
ATOM      8  O   UNL A   1      33.281  24.695  26.316  1.00  0.00    -0.361 OA
ATOM      9  C   UNL A   1      33.528  26.827  25.347  1.00  0.00     0.047 C 
BRANCH   6  10
ATOM     10  C   UNL A   1      30.874  24.372  26.194  1.00  0.00     0.147 C 
BRANCH  10  11
ATOM     11  N   UNL A   1      30.881  23.913  24.812  1.00  0.00    -0.353 N 
ATOM     12  C   UNL A   1      31.398  22.785  24.256  1.00  0.00     0.220 C 
ATOM     13  O   UNL A   1      31.466  22.721  23.027  1.00  0.00    -0.275 OA
ATOM     14  H   UNL A   1      30.439  24.520  24.174  1.00  0.00     0.163 HD
BRANCH  12  15
ATOM     15  C   UNL A   1      31.857  21.631  25.125  1.00  0.00     0.106 C 
BRANCH  15  16
ATOM     16  C   UNL A   1      32.556  20.507  24.353  1.00  0.00     0.071 C 
BRANCH  16  17
ATOM     17  C   UNL A   1      33.873  20.014  24.951  1.00  0.00     0.260 C 
BRANCH  17  18
ATOM     18  N   UNL A   1      33.977  18.561  25.107  1.00  0.00    -0.349 N 
ATOM     19  C   UNL A   1      32.710  17.945  25.479  1.00  0.00     0.330 C 
ATOM     20  H   UNL A   1      34.287  18.160  24.222  1.00  0.00     0.346 HD
ATOM     21  H   UNL A   1      34.643  18.378  25.857  1.00  0.00     0.346 HD
ENDBRANCH  17  18
ENDBRANCH  16  17
ENDBRANCH  15  16
ENDBRANCH  12  15
ENDBRANCH  10  11
ENDBRANCH   6  10
ENDBRANCH   3   5
ENDBRANCH   2   3
ENDBRANCH   1   2
BRANCH   1  22
ATOM     22  C   UNL A   1      37.159  22.375  24.628  1.00  0.00     0.202 C 
BRANCH  22  23
ATOM     23  O   UNL A   1      37.937  21.874  25.719  1.00  0.00    -0.374 OA
BRANCH  23  24
ATOM     24  C   UNL A   1      38.790  22.803  26.381  1.00  0.00     0.202 C 
BRANCH  24  25
ATOM     25  C   UNL A   1      40.212  22.328  26.717  1.00  0.00     0.261 C 
BRANCH  25  26
ATOM     26  O   UNL A   1      40.853  23.131  27.724  1.00  0.00    -0.460 OA
BRANCH  26  27
ATOM     27  C   UNL A   1      41.465  24.240  27.243  1.00  0.00     0.338 C 
ATOM     28  O   UNL A   1      42.147  24.320  26.228  1.00  0.00    -0.246 OA
BRANCH  27  29
ATOM     29  C   UNL A   1      41.074  25.434  28.014  1.00  0.00     0.060 A 
ATOM     30  C   UNL A   1      42.067  26.394  28.250  1.00  0.00     0.016 A 
ATOM     31  C   UNL A   1      39.805  25.573  28.581  1.00  0.00     0.016 A 
ATOM     32  C   UNL A   1      41.814  27.467  29.100  1.00  0.00     0.010 A 
ATOM     33  C   UNL A   1      39.556  26.650  29.444  1.00  0.00     0.010 A 
ATOM     34  C   UNL A   1      40.570  27.581  29.737  1.00  0.00    -0.014 A 
BRANCH  34  35
ATOM     35  C   UNL A   1      40.398  28.585  30.817  1.00  0.00     0.031 A 
ATOM     36  C   UNL A   1      41.276  28.504  32.039  1.00  0.00     0.074 A 
ATOM     37  C   UNL A   1      39.513  29.591  30.690  1.00  0.00     0.049 A 
ATOM     38  N   UNL A   1      41.301  29.276  33.095  1.00  0.00    -0.248 NA
ATOM     39  C   UNL A   1      42.255  27.406  32.074  1.00  0.00     0.031 C 
ATOM     40  C   UNL A   1      38.636  29.804  29.539  1.00  0.00     0.029 A 
ATOM     41  N   UNL A   1      39.209  30.625  31.540  1.00  0.00    -0.354 N 
ATOM     42  C   UNL A   1      42.291  28.757  33.921  1.00  0.00     0.074 A 
ATOM     43  C   UNL A   1      42.822  27.585  33.259  1.00  0.00     0.031 C 
ATOM     44  C   UNL A   1      37.892  30.901  29.756  1.00  0.00     0.029 A 
ATOM     45  C   UNL A   1      38.217  31.452  31.070  1.00  0.00     0.049 A 
ATOM     46  H   UNL A   1      39.659  30.761  32.405  1.00  0.00     0.167 HD
ATOM     47  C   UNL A   1      42.727  29.220  35.117  1.00  0.00     0.037 A 
ATOM     48  C   UNL A   1      37.631  32.523  31.641  1.00  0.00     0.037 A 
ATOM     49  C   UNL A   1      42.206  30.392  35.771  1.00  0.00     0.049 A 
ATOM     50  C   UNL A   1      38.091  32.985  33.000  1.00  0.00     0.074 A 
ATOM     51  C   UNL A   1      42.597  30.951  36.975  1.00  0.00     0.029 A 
ATOM     52  N   UNL A   1      41.176  31.180  35.280  1.00  0.00    -0.354 N 
ATOM     53  N   UNL A   1      39.042  32.495  33.760  1.00  0.00    -0.248 NA
ATOM     54  C   UNL A   1      37.401  34.147  33.579  1.00  0.00     0.031 C 
ATOM     55  C   UNL A   1      41.773  32.052  37.235  1.00  0.00     0.029 A 
ATOM     56  C   UNL A   1      40.902  32.207  36.169  1.00  0.00     0.049 A 
ATOM     57  H   UNL A   1      40.710  31.033  34.426  1.00  0.00     0.167 HD
ATOM     58  C   UNL A   1      39.082  33.305  34.891  1.00  0.00     0.074 A 
ATOM     59  C   UNL A   1      38.067  34.321  34.712  1.00  0.00     0.031 C 
ATOM     60  C   UNL A   1      39.891  33.217  35.977  1.00  0.00     0.037 A 
BRANCH  47  61
ATOM     61  C   UNL A   1      43.810  28.439  35.811  1.00  0.00     0.058 A 
ATOM     62  C   UNL A   1      43.515  27.387  36.693  1.00  0.00     0.135 A 
ATOM     63  C   UNL A   1      45.161  28.730  35.567  1.00  0.00     0.135 A 
ATOM     64  F   UNL A   1      42.239  27.078  36.974  1.00  0.00    -0.206 F 
ATOM     65  C   UNL A   1      44.522  26.669  37.330  1.00  0.00     0.059 A 
ATOM     66  C   UNL A   1      46.185  28.008  36.172  1.00  0.00     0.059 A 
ATOM     67  F   UNL A   1      45.498  29.727  34.733  1.00  0.00    -0.206 F 
ATOM     68  C   UNL A   1      45.855  26.989  37.065  1.00  0.00     0.060 A 
BRANCH  68  69
ATOM     69  S   UNL A   1      47.152  26.052  37.900  1.00  0.00     0.124 S 
ATOM     70  O   UNL A   1      46.365  25.180  38.768  1.00  0.00    -0.237 OA
ATOM     71  O   UNL A   1      47.830  25.395  36.788  1.00  0.00    -0.237 OA
ATOM     72  O   UNL A   1      47.929  27.081  38.584  1.00  0.00    -0.744 OA
ENDBRANCH  68  69
ENDBRANCH  47  61
BRANCH  48  73
ATOM     73  C   UNL A   1      36.531  33.232  30.934  1.00  0.00     0.058 A 
ATOM     74  C   UNL A   1      35.192  33.047  31.305  1.00  0.00     0.135 A 
ATOM     75  C   UNL A   1      36.801  34.106  29.869  1.00  0.00     0.135 A 
ATOM     76  F   UNL A   1      34.882  32.212  32.309  1.00  0.00    -0.206 F 
ATOM     77  C   UNL A   1      34.155  33.694  30.638  1.00  0.00     0.059 A 
ATOM     78  C   UNL A   1      35.785  34.782  29.203  1.00  0.00     0.059 A 
ATOM     79  F   UNL A   1      38.068  34.324  29.482  1.00  0.00    -0.206 F 
ATOM     80  C   UNL A   1      34.464  34.562  29.590  1.00  0.00     0.060 A 
BRANCH  80  81
ATOM     81  S   UNL A   1      33.117  35.441  28.766  1.00  0.00     0.124 S 
ATOM     82  O   UNL A   1      32.398  36.005  29.902  1.00  0.00    -0.237 OA
ATOM     83  O   UNL A   1      33.840  36.393  27.929  1.00  0.00    -0.237 OA
ATOM     84  O   UNL A   1      32.423  34.380  28.040  1.00  0.00    -0.744 OA
ENDBRANCH  80  81
ENDBRANCH  48  73
BRANCH  60  85
ATOM     85  C   UNL A   1      39.737  34.266  37.045  1.00  0.00     0.058 A 
ATOM     86  C   UNL A   1      38.912  34.067  38.163  1.00  0.00     0.135 A 
ATOM     87  C   UNL A   1      40.463  35.465  36.973  1.00  0.00     0.135 A 
ATOM     88  F   UNL A   1      38.192  32.940  38.279  1.00  0.00    -0.206 F 
ATOM     89  C   UNL A   1      38.796  35.029  39.161  1.00  0.00     0.059 A 
ATOM     90  C   UNL A   1      40.382  36.431  37.972  1.00  0.00     0.059 A 
ATOM     91  F   UNL A   1      41.276  35.703  35.930  1.00  0.00    -0.206 F 
ATOM     92  C   UNL A   1      39.535  36.210  39.056  1.00  0.00     0.060 A 
BRANCH  92  93
ATOM     93  S   UNL A   1      39.397  37.439  40.371  1.00  0.00     0.124 S 
ATOM     94  O   UNL A   1      40.663  38.153  40.239  1.00  0.00    -0.237 OA
ATOM     95  O   UNL A   1      38.205  38.185  39.982  1.00  0.00    -0.237 OA
ATOM     96  O   UNL A   1      39.256  36.629  41.578  1.00  0.00    -0.744 OA
ENDBRANCH  92  93
ENDBRANCH  60  85
ENDBRANCH  34  35
ENDBRANCH  27  29
ENDBRANCH  26  27
ENDBRANCH  25  26
ENDBRANCH  24  25
ENDBRANCH  23  24
ENDBRANCH  22  23
ENDBRANCH   1  22
TORSDOF 23
ENDMDL
MODEL 2
REMARK VINA RESULT:      -9.6      3.589      9.827
REMARK SMILES C[NH2+]CCCC(=O)NC[C@@H]1CC[C@H](C(=O)OCCOCCOC(=O)c2ccc(-c3c4nc(c(-c5c(F)cc(S(=O)(=O)[O-])cc5F)c5ccc([nH]5)c(-c5c(F)cc(S(=O)(=O)[O-])cc5F)c5nc(c(-c6c(F)cc(S(=O)(=O)[O-])cc6F)c6ccc3[nH]6)C=C5)C=C4)cc2)O1
REMARK SMILES IDX 17 1 16 2 14 3 15 4 13 5 10 6 11 7 91 8 12 9 9 10 8 11 6 12
REMARK SMILES IDX 7 13 5 15 4 16 3 17 2 18 1 19 18 22 19 23 20 24 21 25 22 26
REMARK SMILES IDX 23 27 24 28 25 29 26 30 90 31 27 32 89 33 28 34 29 35 30 36
REMARK SMILES IDX 83 37 31 38 88 39 82 40 84 41 32 42 87 43 81 44 80 45 33 47
REMARK SMILES IDX 67 48 46 49 66 50 47 51 50 52 65 53 85 54 48 55 49 56 64 58
REMARK SMILES IDX 86 59 51 60 34 61 35 62 44 63 36 64 37 65 43 66 45 67 38 68
REMARK SMILES IDX 39 69 40 70 41 71 42 72 68 73 69 74 78 75 70 76 71 77 77 78
REMARK SMILES IDX 79 79 72 80 73 81 74 82 75 83 76 84 52 85 53 86 62 87 54 88
REMARK SMILES IDX 55 89 61 90 63 91 56 92 57 93 58 94 59 95 60 96
REMARK H PARENT 8 14 2 20 2 21 84 46 50 57
REMARK Flexibility Score: inf
ROOT
ATOM      1  C   UNL A   1      33.987  27.791  23.631  1.00  0.00     0.261 C 
ENDROOT
BRANCH   1   2
ATOM      2  O   UNL A   1      33.931  26.353  23.570  1.00  0.00    -0.461 OA
BRANCH   2   3
ATOM      3  C   UNL A   1      33.272  25.813  22.508  1.00  0.00     0.335 C 
ATOM      4  O   UNL A   1      33.401  26.182  21.346  1.00  0.00    -0.249 OA
BRANCH   3   5
ATOM      5  C   UNL A   1      32.318  24.680  22.923  1.00  0.00     0.228 C 
ATOM      6  C   UNL A   1      30.273  25.258  23.906  1.00  0.00     0.138 C 
ATOM      7  C   UNL A   1      31.319  25.156  25.005  1.00  0.00     0.037 C 
ATOM      8  O   UNL A   1      30.955  25.031  22.652  1.00  0.00    -0.361 OA
ATOM      9  C   UNL A   1      32.357  24.263  24.382  1.00  0.00     0.047 C 
BRANCH   6  10
ATOM     10  C   UNL A   1      29.520  26.596  23.838  1.00  0.00     0.147 C 
BRANCH  10  11
ATOM     11  N   UNL A   1      30.381  27.632  23.284  1.00  0.00    -0.353 N 
ATOM     12  C   UNL A   1      30.080  28.734  22.546  1.00  0.00     0.220 C 
ATOM     13  O   UNL A   1      31.006  29.346  22.012  1.00  0.00    -0.275 OA
ATOM     14  H   UNL A   1      31.341  27.514  23.474  1.00  0.00     0.163 HD
BRANCH  12  15
ATOM     15  C   UNL A   1      28.646  29.205  22.405  1.00  0.00     0.106 C 
BRANCH  15  16
ATOM     16  C   UNL A   1      28.259  30.325  23.376  1.00  0.00     0.071 C 
BRANCH  16  17
ATOM     17  C   UNL A   1      28.046  31.702  22.745  1.00  0.00     0.260 C 
BRANCH  17  18
ATOM     18  N   UNL A   1      29.266  32.489  22.550  1.00  0.00    -0.349 N 
ATOM     19  C   UNL A   1      29.243  33.749  23.282  1.00  0.00     0.330 C 
ATOM     20  H   UNL A   1      30.063  31.940  22.871  1.00  0.00     0.346 HD
ATOM     21  H   UNL A   1      29.335  32.709  21.557  1.00  0.00     0.346 HD
ENDBRANCH  17  18
ENDBRANCH  16  17
ENDBRANCH  15  16
ENDBRANCH  12  15
ENDBRANCH  10  11
ENDBRANCH   6  10
ENDBRANCH   3   5
ENDBRANCH   2   3
ENDBRANCH   1   2
BRANCH   1  22
ATOM     22  C   UNL A   1      33.326  28.322  24.906  1.00  0.00     0.202 C 
BRANCH  22  23
ATOM     23  O   UNL A   1      32.657  29.582  24.795  1.00  0.00    -0.374 OA
BRANCH  23  24
ATOM     24  C   UNL A   1      31.694  29.891  25.797  1.00  0.00     0.202 C 
BRANCH  24  25
ATOM     25  C   UNL A   1      32.157  30.786  26.957  1.00  0.00     0.261 C 
BRANCH  25  26
ATOM     26  O   UNL A   1      33.436  30.404  27.490  1.00  0.00    -0.460 OA
BRANCH  26  27
ATOM     27  C   UNL A   1      34.238  31.449  27.810  1.00  0.00     0.338 C 
ATOM     28  O   UNL A   1      33.895  32.614  27.972  1.00  0.00    -0.246 OA
BRANCH  27  29
ATOM     29  C   UNL A   1      35.605  30.990  28.117  1.00  0.00     0.060 A 
ATOM     30  C   UNL A   1      35.762  29.642  28.464  1.00  0.00     0.016 A 
ATOM     31  C   UNL A   1      36.692  31.866  28.164  1.00  0.00     0.016 A 
ATOM     32  C   UNL A   1      36.994  29.176  28.916  1.00  0.00     0.010 A 
ATOM     33  C   UNL A   1      37.929  31.396  28.628  1.00  0.00     0.010 A 
ATOM     34  C   UNL A   1      38.076  30.058  29.042  1.00  0.00    -0.014 A 
BRANCH  34  35
ATOM     35  C   UNL A   1      39.302  29.606  29.747  1.00  0.00     0.031 A 
ATOM     36  C   UNL A   1      39.687  30.268  31.045  1.00  0.00     0.074 A 
ATOM     37  C   UNL A   1      40.034  28.582  29.271  1.00  0.00     0.049 A 
ATOM     38  N   UNL A   1      40.707  30.028  31.827  1.00  0.00    -0.248 NA
ATOM     39  C   UNL A   1      38.802  31.342  31.523  1.00  0.00     0.031 C 
ATOM     40  C   UNL A   1      39.744  27.833  28.049  1.00  0.00     0.029 A 
ATOM     41  N   UNL A   1      41.173  27.995  29.763  1.00  0.00    -0.354 N 
ATOM     42  C   UNL A   1      40.593  30.921  32.885  1.00  0.00     0.074 A 
ATOM     43  C   UNL A   1      39.420  31.730  32.629  1.00  0.00     0.031 C 
ATOM     44  C   UNL A   1      40.682  26.884  27.887  1.00  0.00     0.029 A 
ATOM     45  C   UNL A   1      41.654  26.976  28.974  1.00  0.00     0.049 A 
ATOM     46  H   UNL A   1      41.605  28.276  30.601  1.00  0.00     0.167 HD
ATOM     47  C   UNL A   1      41.384  31.051  33.977  1.00  0.00     0.037 A 
ATOM     48  C   UNL A   1      42.759  26.216  29.109  1.00  0.00     0.037 A 
ATOM     49  C   UNL A   1      42.544  30.239  34.236  1.00  0.00     0.049 A 
ATOM     50  C   UNL A   1      43.658  26.417  30.301  1.00  0.00     0.074 A 
ATOM     51  C   UNL A   1      43.398  30.281  35.325  1.00  0.00     0.029 A 
ATOM     52  N   UNL A   1      43.019  29.244  33.396  1.00  0.00    -0.354 N 
ATOM     53  N   UNL A   1      43.524  27.254  31.304  1.00  0.00    -0.248 NA
ATOM     54  C   UNL A   1      44.857  25.569  30.383  1.00  0.00     0.031 C 
ATOM     55  C   UNL A   1      44.416  29.343  35.121  1.00  0.00     0.029 A 
ATOM     56  C   UNL A   1      44.168  28.682  33.929  1.00  0.00     0.049 A 
ATOM     57  H   UNL A   1      42.601  28.975  32.546  1.00  0.00     0.167 HD
ATOM     58  C   UNL A   1      44.605  27.013  32.147  1.00  0.00     0.074 A 
ATOM     59  C   UNL A   1      45.377  25.948  31.542  1.00  0.00     0.031 C 
ATOM     60  C   UNL A   1      44.925  27.617  33.319  1.00  0.00     0.037 A 
BRANCH  47  61
ATOM     61  C   UNL A   1      41.034  32.130  34.965  1.00  0.00     0.058 A 
ATOM     62  C   UNL A   1      41.579  33.420  34.877  1.00  0.00     0.135 A 
ATOM     63  C   UNL A   1      40.117  31.875  35.997  1.00  0.00     0.135 A 
ATOM     64  F   UNL A   1      42.473  33.712  33.918  1.00  0.00    -0.206 F 
ATOM     65  C   UNL A   1      41.249  34.414  35.793  1.00  0.00     0.059 A 
ATOM     66  C   UNL A   1      39.752  32.860  36.910  1.00  0.00     0.059 A 
ATOM     67  F   UNL A   1      39.567  30.658  36.128  1.00  0.00    -0.206 F 
ATOM     68  C   UNL A   1      40.337  34.122  36.809  1.00  0.00     0.060 A 
BRANCH  68  69
ATOM     69  S   UNL A   1      39.920  35.419  37.994  1.00  0.00     0.124 S 
ATOM     70  O   UNL A   1      41.112  35.435  38.837  1.00  0.00    -0.237 OA
ATOM     71  O   UNL A   1      39.736  36.583  37.134  1.00  0.00    -0.237 OA
ATOM     72  O   UNL A   1      38.708  34.918  38.634  1.00  0.00    -0.744 OA
ENDBRANCH  68  69
ENDBRANCH  47  61
BRANCH  48  73
ATOM     73  C   UNL A   1      43.086  25.194  28.078  1.00  0.00     0.058 A 
ATOM     74  C   UNL A   1      43.995  25.470  27.047  1.00  0.00     0.135 A 
ATOM     75  C   UNL A   1      42.491  23.923  28.105  1.00  0.00     0.135 A 
ATOM     76  F   UNL A   1      44.580  26.675  26.972  1.00  0.00    -0.206 F 
ATOM     77  C   UNL A   1      44.295  24.525  26.069  1.00  0.00     0.059 A 
ATOM     78  C   UNL A   1      42.793  22.955  27.154  1.00  0.00     0.059 A 
ATOM     79  F   UNL A   1      41.622  23.607  29.078  1.00  0.00    -0.206 F 
ATOM     80  C   UNL A   1      43.690  23.269  26.134  1.00  0.00     0.060 A 
BRANCH  80  81
ATOM     81  S   UNL A   1      44.127  22.030  24.894  1.00  0.00     0.124 S 
ATOM     82  O   UNL A   1      45.573  21.943  25.065  1.00  0.00    -0.237 OA
ATOM     83  O   UNL A   1      43.359  20.871  25.336  1.00  0.00    -0.237 OA
ATOM     84  O   UNL A   1      43.672  22.635  23.645  1.00  0.00    -0.744 OA
ENDBRANCH  80  81
ENDBRANCH  48  73
BRANCH  60  85
ATOM     85  C   UNL A   1      46.146  27.121  34.046  1.00  0.00     0.058 A 
ATOM     86  C   UNL A   1      47.411  27.695  33.845  1.00  0.00     0.135 A 
ATOM     87  C   UNL A   1      46.038  26.091  34.995  1.00  0.00     0.135 A 
ATOM     88  F   UNL A   1      47.570  28.679  32.946  1.00  0.00    -0.206 F 
ATOM     89  C   UNL A   1      48.530  27.249  34.540  1.00  0.00     0.059 A 
ATOM     90  C   UNL A   1      47.139  25.647  35.721  1.00  0.00     0.059 A 
ATOM     91  F   UNL A   1      44.849  25.515  35.236  1.00  0.00    -0.206 F 
ATOM     92  C   UNL A   1      48.384  26.224  35.477  1.00  0.00     0.060 A 
BRANCH  92  93
ATOM     93  S   UNL A   1      49.839  25.675  36.395  1.00  0.00     0.124 S 
ATOM     94  O   UNL A   1      50.538  24.880  35.390  1.00  0.00    -0.237 OA
ATOM     95  O   UNL A   1      50.475  26.937  36.760  1.00  0.00    -0.237 OA
ATOM     96  O   UNL A   1      49.272  24.920  37.509  1.00  0.00    -0.744 OA
ENDBRANCH  92  93
ENDBRANCH  60  85
ENDBRANCH  34  35
ENDBRANCH  27  29
ENDBRANCH  26  27
ENDBRANCH  25  26
ENDBRANCH  24  25
ENDBRANCH  23  24
ENDBRANCH  22  23
ENDBRANCH   1  22
TORSDOF 23
ENDMDL
MODEL 3
REMARK VINA RESULT:      -9.6      1.767      3.264
REMARK SMILES C[NH2+]CCCC(=O)NC[C@@H]1CC[C@H](C(=O)OCCOCCOC(=O)c2ccc(-c3c4nc(c(-c5c(F)cc(S(=O)(=O)[O-])cc5F)c5ccc([nH]5)c(-c5c(F)cc(S(=O)(=O)[O-])cc5F)c5nc(c(-c6c(F)cc(S(=O)(=O)[O-])cc6F)c6ccc3[nH]6)C=C5)C=C4)cc2)O1
REMARK SMILES IDX 17 1 16 2 14 3 15 4 13 5 10 6 11 7 91 8 12 9 9 10 8 11 6 12
REMARK SMILES IDX 7 13 5 15 4 16 3 17 2 18 1 19 18 22 19 23 20 24 21 25 22 26
REMARK SMILES IDX 23 27 24 28 25 29 26 30 90 31 27 32 89 33 28 34 29 35 30 36
REMARK SMILES IDX 83 37 31 38 88 39 82 40 84 41 32 42 87 43 81 44 80 45 33 47
REMARK SMILES IDX 67 48 46 49 66 50 47 51 50 52 65 53 85 54 48 55 49 56 64 58
REMARK SMILES IDX 86 59 51 60 34 61 35 62 44 63 36 64 37 65 43 66 45 67 38 68
REMARK SMILES IDX 39 69 40 70 41 71 42 72 68 73 69 74 78 75 70 76 71 77 77 78
REMARK SMILES IDX 79 79 72 80 73 81 74 82 75 83 76 84 52 85 53 86 62 87 54 88
REMARK SMILES IDX 55 89 61 90 63 91 56 92 57 93 58 94 59 95 60 96
REMARK H PARENT 8 14 2 20 2 21 84 46 50 57
REMARK Flexibility Score: inf
ROOT
ATOM      1  C   UNL A   1      35.787  24.041  25.029  1.00  0.00     0.261 C 
ENDROOT
BRANCH   1   2
ATOM      2  O   UNL A   1      34.516  24.228  24.376  1.00  0.00    -0.461 OA
BRANCH   2   3
ATOM      3  C   UNL A   1      33.943  25.458  24.497  1.00  0.00     0.335 C 
ATOM      4  O   UNL A   1      33.889  26.294  23.603  1.00  0.00    -0.249 OA
BRANCH   3   5
ATOM      5  C   UNL A   1      33.373  25.703  25.905  1.00  0.00     0.228 C 
ATOM      6  C   UNL A   1      31.166  26.460  26.089  1.00  0.00     0.138 C 
ATOM      7  C   UNL A   1      32.074  27.671  25.944  1.00  0.00     0.037 C 
ATOM      8  O   UNL A   1      32.003  25.288  25.983  1.00  0.00    -0.361 OA
ATOM      9  C   UNL A   1      33.402  27.135  26.407  1.00  0.00     0.047 C 
BRANCH   6  10
ATOM     10  C   UNL A   1      30.029  26.366  25.058  1.00  0.00     0.147 C 
BRANCH  10  11
ATOM     11  N   UNL A   1      30.538  26.638  23.720  1.00  0.00    -0.353 N 
ATOM     12  C   UNL A   1      30.309  27.684  22.882  1.00  0.00     0.220 C 
ATOM     13  O   UNL A   1      30.686  27.584  21.713  1.00  0.00    -0.275 OA
ATOM     14  H   UNL A   1      31.147  25.950  23.364  1.00  0.00     0.163 HD
BRANCH  12  15
ATOM     15  C   UNL A   1      29.629  28.944  23.379  1.00  0.00     0.106 C 
BRANCH  15  16
ATOM     16  C   UNL A   1      28.471  29.417  22.496  1.00  0.00     0.071 C 
BRANCH  16  17
ATOM     17  C   UNL A   1      28.829  30.468  21.444  1.00  0.00     0.260 C 
BRANCH  17  18
ATOM     18  N   UNL A   1      28.118  31.742  21.574  1.00  0.00    -0.349 N 
ATOM     19  C   UNL A   1      28.457  32.450  22.801  1.00  0.00     0.330 C 
ATOM     20  H   UNL A   1      28.360  32.332  20.778  1.00  0.00     0.346 HD
ATOM     21  H   UNL A   1      27.119  31.536  21.601  1.00  0.00     0.346 HD
ENDBRANCH  17  18
ENDBRANCH  16  17
ENDBRANCH  15  16
ENDBRANCH  12  15
ENDBRANCH  10  11
ENDBRANCH   6  10
ENDBRANCH   3   5
ENDBRANCH   2   3
ENDBRANCH   1   2
BRANCH   1  22
ATOM     22  C   UNL A   1      36.704  23.125  24.215  1.00  0.00     0.202 C 
BRANCH  22  23
ATOM     23  O   UNL A   1      37.613  22.312  24.963  1.00  0.00    -0.374 OA
BRANCH  23  24
ATOM     24  C   UNL A   1      38.212  22.906  26.111  1.00  0.00     0.202 C 
BRANCH  24  25
ATOM     25  C   UNL A   1      39.646  22.476  26.452  1.00  0.00     0.261 C 
BRANCH  25  26
ATOM     26  O   UNL A   1      40.193  23.175  27.583  1.00  0.00    -0.460 OA
BRANCH  26  27
ATOM     27  C   UNL A   1      41.026  24.194  27.256  1.00  0.00     0.338 C 
ATOM     28  O   UNL A   1      41.863  24.198  26.361  1.00  0.00    -0.246 OA
BRANCH  27  29
ATOM     29  C   UNL A   1      40.696  25.410  28.020  1.00  0.00     0.060 A 
ATOM     30  C   UNL A   1      41.725  26.340  28.214  1.00  0.00     0.016 A 
ATOM     31  C   UNL A   1      39.448  25.599  28.619  1.00  0.00     0.016 A 
ATOM     32  C   UNL A   1      41.530  27.433  29.054  1.00  0.00     0.010 A 
ATOM     33  C   UNL A   1      39.258  26.695  29.472  1.00  0.00     0.010 A 
ATOM     34  C   UNL A   1      40.309  27.597  29.723  1.00  0.00    -0.014 A 
BRANCH  34  35
ATOM     35  C   UNL A   1      40.200  28.621  30.792  1.00  0.00     0.031 A 
ATOM     36  C   UNL A   1      41.122  28.540  31.981  1.00  0.00     0.074 A 
ATOM     37  C   UNL A   1      39.332  29.644  30.682  1.00  0.00     0.049 A 
ATOM     38  N   UNL A   1      41.204  29.328  33.022  1.00  0.00    -0.248 NA
ATOM     39  C   UNL A   1      42.078  27.422  31.997  1.00  0.00     0.031 C 
ATOM     40  C   UNL A   1      38.417  29.858  29.561  1.00  0.00     0.029 A 
ATOM     41  N   UNL A   1      39.083  30.697  31.526  1.00  0.00    -0.354 N 
ATOM     42  C   UNL A   1      42.213  28.801  33.819  1.00  0.00     0.074 A 
ATOM     43  C   UNL A   1      42.694  27.608  33.156  1.00  0.00     0.031 C 
ATOM     44  C   UNL A   1      37.705  30.974  29.788  1.00  0.00     0.029 A 
ATOM     45  C   UNL A   1      38.091  31.539  31.080  1.00  0.00     0.049 A 
ATOM     46  H   UNL A   1      39.568  30.838  32.370  1.00  0.00     0.167 HD
ATOM     47  C   UNL A   1      42.705  29.273  34.990  1.00  0.00     0.037 A 
ATOM     48  C   UNL A   1      37.550  32.631  31.655  1.00  0.00     0.037 A 
ATOM     49  C   UNL A   1      42.233  30.466  35.643  1.00  0.00     0.049 A 
ATOM     50  C   UNL A   1      38.071  33.104  32.988  1.00  0.00     0.074 A 
ATOM     51  C   UNL A   1      42.682  31.036  36.822  1.00  0.00     0.029 A 
ATOM     52  N   UNL A   1      41.203  31.269  35.179  1.00  0.00    -0.354 N 
ATOM     53  N   UNL A   1      39.040  32.605  33.719  1.00  0.00    -0.248 NA
ATOM     54  C   UNL A   1      37.428  34.290  33.573  1.00  0.00     0.031 C 
ATOM     55  C   UNL A   1      41.892  32.158  37.095  1.00  0.00     0.029 A 
ATOM     56  C   UNL A   1      40.984  32.316  36.060  1.00  0.00     0.049 A 
ATOM     57  H   UNL A   1      40.701  31.119  34.345  1.00  0.00     0.167 HD
ATOM     58  C   UNL A   1      39.141  33.432  34.834  1.00  0.00     0.074 A 
ATOM     59  C   UNL A   1      38.141  34.468  34.676  1.00  0.00     0.031 C 
ATOM     60  C   UNL A   1      39.988  33.344  35.889  1.00  0.00     0.037 A 
BRANCH  47  61
ATOM     61  C   UNL A   1      43.796  28.480  35.655  1.00  0.00     0.058 A 
ATOM     62  C   UNL A   1      43.514  27.450  36.565  1.00  0.00     0.135 A 
ATOM     63  C   UNL A   1      45.143  28.736  35.354  1.00  0.00     0.135 A 
ATOM     64  F   UNL A   1      42.243  27.174  36.901  1.00  0.00    -0.206 F 
ATOM     65  C   UNL A   1      44.529  26.719  37.176  1.00  0.00     0.059 A 
ATOM     66  C   UNL A   1      46.174  28.002  35.932  1.00  0.00     0.059 A 
ATOM     67  F   UNL A   1      45.469  29.712  34.491  1.00  0.00    -0.206 F 
ATOM     68  C   UNL A   1      45.856  27.006  36.854  1.00  0.00     0.060 A 
BRANCH  68  69
ATOM     69  S   UNL A   1      47.165  26.054  37.655  1.00  0.00     0.124 S 
ATOM     70  O   UNL A   1      47.411  26.852  38.853  1.00  0.00    -0.237 OA
ATOM     71  O   UNL A   1      46.523  24.763  37.876  1.00  0.00    -0.237 OA
ATOM     72  O   UNL A   1      48.240  26.056  36.669  1.00  0.00    -0.744 OA
ENDBRANCH  68  69
ENDBRANCH  47  61
BRANCH  48  73
ATOM     73  C   UNL A   1      36.439  33.352  30.978  1.00  0.00     0.058 A 
ATOM     74  C   UNL A   1      35.121  33.261  31.449  1.00  0.00     0.135 A 
ATOM     75  C   UNL A   1      36.676  34.144  29.843  1.00  0.00     0.135 A 
ATOM     76  F   UNL A   1      34.843  32.507  32.523  1.00  0.00    -0.206 F 
ATOM     77  C   UNL A   1      34.073  33.920  30.812  1.00  0.00     0.059 A 
ATOM     78  C   UNL A   1      35.650  34.831  29.204  1.00  0.00     0.059 A 
ATOM     79  F   UNL A   1      37.922  34.271  29.360  1.00  0.00    -0.206 F 
ATOM     80  C   UNL A   1      34.350  34.705  29.692  1.00  0.00     0.060 A 
BRANCH  80  81
ATOM     81  S   UNL A   1      32.993  35.602  28.904  1.00  0.00     0.124 S 
ATOM     82  O   UNL A   1      32.479  34.600  27.978  1.00  0.00    -0.237 OA
ATOM     83  O   UNL A   1      32.137  35.921  30.041  1.00  0.00    -0.237 OA
ATOM     84  O   UNL A   1      33.663  36.746  28.291  1.00  0.00    -0.744 OA
ENDBRANCH  80  81
ENDBRANCH  48  73
BRANCH  60  85
ATOM     85  C   UNL A   1      39.897  34.413  36.946  1.00  0.00     0.058 A 
ATOM     86  C   UNL A   1      40.612  35.616  36.844  1.00  0.00     0.135 A 
ATOM     87  C   UNL A   1      39.044  34.248  38.049  1.00  0.00     0.135 A 
ATOM     88  F   UNL A   1      41.445  35.821  35.812  1.00  0.00    -0.206 F 
ATOM     89  C   UNL A   1      40.502  36.610  37.811  1.00  0.00     0.059 A 
ATOM     90  C   UNL A   1      38.899  35.240  39.015  1.00  0.00     0.059 A 
ATOM     91  F   UNL A   1      38.329  33.121  38.190  1.00  0.00    -0.206 F 
ATOM     92  C   UNL A   1      39.643  36.413  38.894  1.00  0.00     0.060 A 
BRANCH  92  93
ATOM     93  S   UNL A   1      39.486  37.723  40.126  1.00  0.00     0.124 S 
ATOM     94  O   UNL A   1      38.291  38.420  39.663  1.00  0.00    -0.237 OA
ATOM     95  O   UNL A   1      39.339  36.970  41.369  1.00  0.00    -0.237 OA
ATOM     96  O   UNL A   1      40.737  38.464  39.995  1.00  0.00    -0.744 OA
ENDBRANCH  92  93
ENDBRANCH  60  85
ENDBRANCH  34  35
ENDBRANCH  27  29
ENDBRANCH  26  27
ENDBRANCH  25  26
ENDBRANCH  24  25
ENDBRANCH  23  24
ENDBRANCH  22  23
ENDBRANCH   1  22
TORSDOF 23
ENDMDL
