MODEL 1
REMARK VINA RESULT:     -11.3      0.000      0.000
REMARK SMILES Cc1c(CCC(=O)N[C@@H](C)C(=O)OCCOCCOC(=O)c2ccc(-c3c4nc(c(-c5c(F)cc(S(=O)(=O)[O-])cc5F)c5ccc([nH]5)c(-c5c(F)cc(S(=O)(=O)[O-])cc5F)c5nc(c(-c6c(F)cc(S(=O)(=O)[O-])cc6F)c6ccc3[nH]6)C=C5)C=C4)cc2)c(=O)oc2cc3oc4c(c3cc12)CCCC4
REMARK SMILES IDX 15 1 14 2 13 3 11 4 12 5 9 6 10 7 8 8 6 9 7 10 5 12 4 13
REMARK SMILES IDX 3 14 1 15 2 16 99 17 88 18 91 19 98 20 89 21 90 22 92 23
REMARK SMILES IDX 97 24 93 25 96 26 94 27 95 28 100 29 103 30 101 31 102 32
REMARK SMILES IDX 16 33 17 34 18 35 19 36 20 37 21 38 22 39 23 40 87 41 24 42
REMARK SMILES IDX 86 43 25 44 26 45 27 46 80 47 28 48 85 49 79 50 81 51 29 52
REMARK SMILES IDX 84 53 78 54 77 55 30 57 64 58 43 59 63 60 44 61 47 62 62 63
REMARK SMILES IDX 82 64 45 65 46 66 61 68 83 69 48 70 31 71 32 72 41 73 33 74
REMARK SMILES IDX 34 75 40 76 42 77 35 78 36 79 37 80 38 81 39 82 65 83 66 84
REMARK SMILES IDX 75 85 67 86 68 87 74 88 76 89 69 90 70 91 71 92 72 93 73 94
REMARK SMILES IDX 49 95 50 96 59 97 51 98 52 99 58 100 60 101 53 102 54 103
REMARK SMILES IDX 55 104 56 105 57 106
REMARK H PARENT 8 11 81 56 47 67
REMARK Flexibility Score: inf
ROOT
ATOM      1  C   UNL A   1      32.018  26.842  26.420  1.00  0.00     0.202 C 
ENDROOT
BRANCH   1   2
ATOM      2  C   UNL A   1      32.209  27.148  24.923  1.00  0.00     0.261 C 
BRANCH   2   3
ATOM      3  O   UNL A   1      30.959  27.194  24.203  1.00  0.00    -0.462 OA
BRANCH   3   4
ATOM      4  C   UNL A   1      31.013  26.934  22.870  1.00  0.00     0.328 C 
ATOM      5  O   UNL A   1      30.520  27.646  22.001  1.00  0.00    -0.250 OA
BRANCH   4   6
ATOM      6  C   UNL A   1      31.901  25.719  22.529  1.00  0.00     0.189 C 
ATOM      7  C   UNL A   1      32.545  25.690  21.148  1.00  0.00     0.043 C 
BRANCH   6   8
ATOM      8  N   UNL A   1      31.337  24.397  22.819  1.00  0.00    -0.343 N 
ATOM      9  C   UNL A   1      32.061  23.356  23.334  1.00  0.00     0.221 C 
ATOM     10  O   UNL A   1      32.021  22.272  22.750  1.00  0.00    -0.275 OA
ATOM     11  H   UNL A   1      30.382  24.249  22.631  1.00  0.00     0.164 HD
BRANCH   9  12
ATOM     12  C   UNL A   1      32.794  23.522  24.656  1.00  0.00     0.105 C 
BRANCH  12  13
ATOM     13  C   UNL A   1      33.346  22.233  25.285  1.00  0.00     0.053 C 
BRANCH  13  14
ATOM     14  C   UNL A   1      34.836  22.133  25.085  1.00  0.00     0.042 A 
ATOM     15  C   UNL A   1      35.155  24.642  24.844  1.00  0.00     0.046 C 
ATOM     16  C   UNL A   1      35.617  23.220  25.025  1.00  0.00    -0.030 A 
ATOM     17  C   UNL A   1      36.973  22.980  25.491  1.00  0.00     0.022 A 
ATOM     18  C   UNL A   1      35.445  20.760  25.027  1.00  0.00     0.339 A 
ATOM     19  C   UNL A   1      37.607  21.752  25.326  1.00  0.00     0.142 A 
ATOM     20  C   UNL A   1      37.548  23.925  26.317  1.00  0.00     0.024 A 
ATOM     21  O   UNL A   1      34.731  19.761  25.001  1.00  0.00    -0.246 OA
ATOM     22  O   UNL A   1      36.833  20.674  24.865  1.00  0.00    -0.422 OA
ATOM     23  C   UNL A   1      38.958  21.542  25.665  1.00  0.00     0.095 A 
ATOM     24  C   UNL A   1      38.783  23.649  26.868  1.00  0.00     0.025 A 
ATOM     25  C   UNL A   1      39.532  22.598  26.369  1.00  0.00     0.138 A 
ATOM     26  C   UNL A   1      39.590  24.363  27.745  1.00  0.00     0.001 A 
ATOM     27  O   UNL A   1      40.856  22.902  26.579  1.00  0.00    -0.461 OA
ATOM     28  C   UNL A   1      40.835  24.110  27.225  1.00  0.00     0.108 A 
ATOM     29  C   UNL A   1      39.278  25.626  28.421  1.00  0.00     0.040 C 
ATOM     30  C   UNL A   1      41.725  25.243  26.833  1.00  0.00     0.076 C 
ATOM     31  C   UNL A   1      39.650  26.781  27.493  1.00  0.00     0.005 C 
ATOM     32  C   UNL A   1      40.784  26.450  26.472  1.00  0.00     0.008 C 
ENDBRANCH  13  14
ENDBRANCH  12  13
ENDBRANCH   9  12
ENDBRANCH   6   8
ENDBRANCH   4   6
ENDBRANCH   3   4
ENDBRANCH   2   3
ENDBRANCH   1   2
BRANCH   1  33
ATOM     33  O   UNL A   1      32.265  27.905  27.338  1.00  0.00    -0.374 OA
BRANCH  33  34
ATOM     34  C   UNL A   1      31.710  29.187  27.057  1.00  0.00     0.202 C 
BRANCH  34  35
ATOM     35  C   UNL A   1      32.697  30.316  26.720  1.00  0.00     0.261 C 
BRANCH  35  36
ATOM     36  O   UNL A   1      33.815  30.342  27.633  1.00  0.00    -0.460 OA
BRANCH  36  37
ATOM     37  C   UNL A   1      34.957  29.766  27.198  1.00  0.00     0.338 C 
ATOM     38  O   UNL A   1      35.067  28.971  26.267  1.00  0.00    -0.246 OA
BRANCH  37  39
ATOM     39  C   UNL A   1      36.121  30.253  27.963  1.00  0.00     0.060 A 
ATOM     40  C   UNL A   1      35.933  30.982  29.142  1.00  0.00     0.016 A 
ATOM     41  C   UNL A   1      37.404  29.845  27.596  1.00  0.00     0.016 A 
ATOM     42  C   UNL A   1      37.020  31.231  29.993  1.00  0.00     0.010 A 
ATOM     43  C   UNL A   1      38.487  30.105  28.444  1.00  0.00     0.010 A 
ATOM     44  C   UNL A   1      38.297  30.735  29.689  1.00  0.00    -0.014 A 
BRANCH  44  45
ATOM     45  C   UNL A   1      39.332  30.723  30.783  1.00  0.00     0.031 A 
ATOM     46  C   UNL A   1      40.555  29.951  30.403  1.00  0.00     0.074 A 
ATOM     47  C   UNL A   1      39.647  31.849  31.467  1.00  0.00     0.049 A 
ATOM     48  N   UNL A   1      41.445  30.434  29.592  1.00  0.00    -0.248 NA
ATOM     49  C   UNL A   1      40.737  28.534  30.701  1.00  0.00     0.031 C 
ATOM     50  C   UNL A   1      39.761  33.135  30.797  1.00  0.00     0.029 A 
ATOM     51  N   UNL A   1      40.197  32.077  32.723  1.00  0.00    -0.354 N 
ATOM     52  C   UNL A   1      42.296  29.406  29.246  1.00  0.00     0.074 A 
ATOM     53  C   UNL A   1      41.821  28.242  29.961  1.00  0.00     0.031 C 
ATOM     54  C   UNL A   1      40.249  34.050  31.641  1.00  0.00     0.029 A 
ATOM     55  C   UNL A   1      40.621  33.398  32.885  1.00  0.00     0.049 A 
ATOM     56  H   UNL A   1      40.279  31.385  33.419  1.00  0.00     0.167 HD
ATOM     57  C   UNL A   1      43.356  29.609  28.419  1.00  0.00     0.037 A 
ATOM     58  C   UNL A   1      41.628  33.873  33.668  1.00  0.00     0.037 A 
ATOM     59  C   UNL A   1      43.598  30.965  27.972  1.00  0.00     0.049 A 
ATOM     60  C   UNL A   1      42.804  33.904  32.713  1.00  0.00     0.074 A 
ATOM     61  C   UNL A   1      44.037  31.622  26.841  1.00  0.00     0.029 A 
ATOM     62  N   UNL A   1      43.365  31.948  28.896  1.00  0.00    -0.354 N 
ATOM     63  N   UNL A   1      42.998  34.763  31.740  1.00  0.00    -0.248 NA
ATOM     64  C   UNL A   1      43.635  32.694  32.625  1.00  0.00     0.031 C 
ATOM     65  C   UNL A   1      44.142  33.016  27.168  1.00  0.00     0.029 A 
ATOM     66  C   UNL A   1      43.812  33.176  28.505  1.00  0.00     0.049 A 
ATOM     67  H   UNL A   1      42.918  31.785  29.758  1.00  0.00     0.167 HD
ATOM     68  C   UNL A   1      43.712  34.052  30.780  1.00  0.00     0.074 A 
ATOM     69  C   UNL A   1      44.219  32.866  31.443  1.00  0.00     0.031 C 
ATOM     70  C   UNL A   1      43.627  34.272  29.434  1.00  0.00     0.037 A 
BRANCH  57  71
ATOM     71  C   UNL A   1      44.402  28.581  28.224  1.00  0.00     0.058 A 
ATOM     72  C   UNL A   1      44.409  27.883  27.006  1.00  0.00     0.135 A 
ATOM     73  C   UNL A   1      45.303  28.186  29.217  1.00  0.00     0.135 A 
ATOM     74  F   UNL A   1      43.567  28.241  26.021  1.00  0.00    -0.206 F 
ATOM     75  C   UNL A   1      45.257  26.808  26.785  1.00  0.00     0.059 A 
ATOM     76  C   UNL A   1      46.171  27.111  29.016  1.00  0.00     0.059 A 
ATOM     77  F   UNL A   1      45.333  28.825  30.398  1.00  0.00    -0.206 F 
ATOM     78  C   UNL A   1      46.129  26.421  27.802  1.00  0.00     0.060 A 
BRANCH  78  79
ATOM     79  S   UNL A   1      47.191  24.992  27.500  1.00  0.00     0.124 S 
ATOM     80  O   UNL A   1      47.579  25.192  26.109  1.00  0.00    -0.237 OA
ATOM     81  O   UNL A   1      48.245  25.189  28.490  1.00  0.00    -0.237 OA
ATOM     82  O   UNL A   1      46.308  23.856  27.747  1.00  0.00    -0.744 OA
ENDBRANCH  78  79
ENDBRANCH  57  71
BRANCH  58  83
ATOM     83  C   UNL A   1      41.694  33.529  35.113  1.00  0.00     0.058 A 
ATOM     84  C   UNL A   1      41.578  34.568  36.064  1.00  0.00     0.135 A 
ATOM     85  C   UNL A   1      41.950  32.253  35.630  1.00  0.00     0.135 A 
ATOM     86  F   UNL A   1      41.481  35.847  35.664  1.00  0.00    -0.206 F 
ATOM     87  C   UNL A   1      41.568  34.331  37.437  1.00  0.00     0.059 A 
ATOM     88  C   UNL A   1      41.917  31.982  36.999  1.00  0.00     0.059 A 
ATOM     89  F   UNL A   1      42.237  31.223  34.821  1.00  0.00    -0.206 F 
ATOM     90  C   UNL A   1      41.691  33.023  37.893  1.00  0.00     0.060 A 
BRANCH  90  91
ATOM     91  S   UNL A   1      41.478  32.701  39.656  1.00  0.00     0.124 S 
ATOM     92  O   UNL A   1      42.403  31.595  39.877  1.00  0.00    -0.237 OA
ATOM     93  O   UNL A   1      41.870  33.982  40.237  1.00  0.00    -0.237 OA
ATOM     94  O   UNL A   1      40.062  32.373  39.771  1.00  0.00    -0.744 OA
ENDBRANCH  90  91
ENDBRANCH  58  83
BRANCH  70  95
ATOM     95  C   UNL A   1      43.188  35.610  28.946  1.00  0.00     0.058 A 
ATOM     96  C   UNL A   1      44.102  36.672  28.901  1.00  0.00     0.135 A 
ATOM     97  C   UNL A   1      41.914  35.824  28.393  1.00  0.00     0.135 A 
ATOM     98  F   UNL A   1      45.353  36.517  29.364  1.00  0.00    -0.206 F 
ATOM     99  C   UNL A   1      43.773  37.894  28.326  1.00  0.00     0.059 A 
ATOM    100  C   UNL A   1      41.572  37.032  27.785  1.00  0.00     0.059 A 
ATOM    101  F   UNL A   1      40.978  34.860  28.438  1.00  0.00    -0.206 F 
ATOM    102  C   UNL A   1      42.511  38.060  27.756  1.00  0.00     0.060 A 
BRANCH 102 103
ATOM    103  S   UNL A   1      42.156  39.623  26.929  1.00  0.00     0.124 S 
ATOM    104  O   UNL A   1      40.993  39.278  26.118  1.00  0.00    -0.237 OA
ATOM    105  O   UNL A   1      41.896  40.511  28.060  1.00  0.00    -0.237 OA
ATOM    106  O   UNL A   1      43.378  39.914  26.187  1.00  0.00    -0.744 OA
ENDBRANCH 102 103
ENDBRANCH  70  95
ENDBRANCH  44  45
ENDBRANCH  37  39
ENDBRANCH  36  37
ENDBRANCH  35  36
ENDBRANCH  34  35
ENDBRANCH  33  34
ENDBRANCH   1  33
TORSDOF 21
ENDMDL
MODEL 2
REMARK VINA RESULT:     -10.4      2.220      5.472
REMARK SMILES Cc1c(CCC(=O)N[C@@H](C)C(=O)OCCOCCOC(=O)c2ccc(-c3c4nc(c(-c5c(F)cc(S(=O)(=O)[O-])cc5F)c5ccc([nH]5)c(-c5c(F)cc(S(=O)(=O)[O-])cc5F)c5nc(c(-c6c(F)cc(S(=O)(=O)[O-])cc6F)c6ccc3[nH]6)C=C5)C=C4)cc2)c(=O)oc2cc3oc4c(c3cc12)CCCC4
REMARK SMILES IDX 15 1 14 2 13 3 11 4 12 5 9 6 10 7 8 8 6 9 7 10 5 12 4 13
REMARK SMILES IDX 3 14 1 15 2 16 99 17 88 18 91 19 98 20 89 21 90 22 92 23
REMARK SMILES IDX 97 24 93 25 96 26 94 27 95 28 100 29 103 30 101 31 102 32
REMARK SMILES IDX 16 33 17 34 18 35 19 36 20 37 21 38 22 39 23 40 87 41 24 42
REMARK SMILES IDX 86 43 25 44 26 45 27 46 80 47 28 48 85 49 79 50 81 51 29 52
REMARK SMILES IDX 84 53 78 54 77 55 30 57 64 58 43 59 63 60 44 61 47 62 62 63
REMARK SMILES IDX 82 64 45 65 46 66 61 68 83 69 48 70 31 71 32 72 41 73 33 74
REMARK SMILES IDX 34 75 40 76 42 77 35 78 36 79 37 80 38 81 39 82 65 83 66 84
REMARK SMILES IDX 75 85 67 86 68 87 74 88 76 89 69 90 70 91 71 92 72 93 73 94
REMARK SMILES IDX 49 95 50 96 59 97 51 98 52 99 58 100 60 101 53 102 54 103
REMARK SMILES IDX 55 104 56 105 57 106
REMARK H PARENT 8 11 81 56 47 67
REMARK Flexibility Score: inf
ROOT
ATOM      1  C   UNL A   1      31.817  28.979  26.369  1.00  0.00     0.202 C 
ENDROOT
BRANCH   1   2
ATOM      2  C   UNL A   1      32.249  27.793  27.249  1.00  0.00     0.261 C 
BRANCH   2   3
ATOM      3  O   UNL A   1      32.033  26.518  26.608  1.00  0.00    -0.462 OA
BRANCH   3   4
ATOM      4  C   UNL A   1      33.138  25.862  26.165  1.00  0.00     0.328 C 
ATOM      5  O   UNL A   1      34.263  26.348  26.112  1.00  0.00    -0.250 OA
BRANCH   4   6
ATOM      6  C   UNL A   1      32.875  24.369  25.874  1.00  0.00     0.189 C 
ATOM      7  C   UNL A   1      32.212  23.550  26.975  1.00  0.00     0.043 C 
BRANCH   6   8
ATOM      8  N   UNL A   1      33.997  23.605  25.321  1.00  0.00    -0.343 N 
ATOM      9  C   UNL A   1      34.178  23.379  23.983  1.00  0.00     0.221 C 
ATOM     10  O   UNL A   1      34.348  22.219  23.605  1.00  0.00    -0.275 OA
ATOM     11  H   UNL A   1      34.657  23.232  25.948  1.00  0.00     0.164 HD
BRANCH   9  12
ATOM     12  C   UNL A   1      34.282  24.553  23.022  1.00  0.00     0.105 C 
BRANCH  12  13
ATOM     13  C   UNL A   1      33.076  24.770  22.093  1.00  0.00     0.053 C 
BRANCH  13  14
ATOM     14  C   UNL A   1      31.910  25.347  22.853  1.00  0.00     0.042 A 
ATOM     15  C   UNL A   1      32.922  27.674  22.996  1.00  0.00     0.046 C 
ATOM     16  C   UNL A   1      31.817  26.657  23.119  1.00  0.00    -0.030 A 
ATOM     17  C   UNL A   1      30.445  27.125  23.225  1.00  0.00     0.022 A 
ATOM     18  C   UNL A   1      30.800  24.414  23.249  1.00  0.00     0.339 A 
ATOM     19  C   UNL A   1      29.423  26.318  23.717  1.00  0.00     0.142 A 
ATOM     20  C   UNL A   1      30.120  28.316  22.608  1.00  0.00     0.024 A 
ATOM     21  O   UNL A   1      30.914  23.203  23.080  1.00  0.00    -0.246 OA
ATOM     22  O   UNL A   1      29.709  24.960  23.933  1.00  0.00    -0.422 OA
ATOM     23  C   UNL A   1      28.116  26.796  23.936  1.00  0.00     0.095 A 
ATOM     24  C   UNL A   1      28.796  28.707  22.593  1.00  0.00     0.025 A 
ATOM     25  C   UNL A   1      27.889  28.071  23.422  1.00  0.00     0.138 A 
ATOM     26  C   UNL A   1      28.159  29.808  22.035  1.00  0.00     0.001 A 
ATOM     27  O   UNL A   1      26.893  28.974  23.708  1.00  0.00    -0.461 OA
ATOM     28  C   UNL A   1      27.236  30.101  23.008  1.00  0.00     0.108 A 
ATOM     29  C   UNL A   1      28.749  30.853  21.193  1.00  0.00     0.040 C 
ATOM     30  C   UNL A   1      27.200  31.463  23.619  1.00  0.00     0.076 C 
ATOM     31  C   UNL A   1      29.338  31.934  22.097  1.00  0.00     0.005 C 
ATOM     32  C   UNL A   1      28.653  32.049  23.496  1.00  0.00     0.008 C 
ENDBRANCH  13  14
ENDBRANCH  12  13
ENDBRANCH   9  12
ENDBRANCH   6   8
ENDBRANCH   4   6
ENDBRANCH   3   4
ENDBRANCH   2   3
ENDBRANCH   1   2
BRANCH   1  33
ATOM     33  O   UNL A   1      31.885  30.280  26.950  1.00  0.00    -0.374 OA
BRANCH  33  34
ATOM     34  C   UNL A   1      33.169  30.843  27.205  1.00  0.00     0.202 C 
BRANCH  34  35
ATOM     35  C   UNL A   1      33.220  32.339  27.548  1.00  0.00     0.261 C 
BRANCH  35  36
ATOM     36  O   UNL A   1      34.531  32.898  27.322  1.00  0.00    -0.460 OA
BRANCH  36  37
ATOM     37  C   UNL A   1      35.060  33.617  28.336  1.00  0.00     0.338 C 
ATOM     38  O   UNL A   1      34.915  34.821  28.532  1.00  0.00    -0.246 OA
BRANCH  37  39
ATOM     39  C   UNL A   1      35.825  32.753  29.255  1.00  0.00     0.060 A 
ATOM     40  C   UNL A   1      36.989  32.114  28.815  1.00  0.00     0.016 A 
ATOM     41  C   UNL A   1      35.477  32.708  30.606  1.00  0.00     0.016 A 
ATOM     42  C   UNL A   1      37.844  31.498  29.742  1.00  0.00     0.010 A 
ATOM     43  C   UNL A   1      36.329  32.084  31.525  1.00  0.00     0.010 A 
ATOM     44  C   UNL A   1      37.560  31.537  31.116  1.00  0.00    -0.014 A 
BRANCH  44  45
ATOM     45  C   UNL A   1      38.662  31.182  32.078  1.00  0.00     0.031 A 
ATOM     46  C   UNL A   1      39.465  30.006  31.618  1.00  0.00     0.074 A 
ATOM     47  C   UNL A   1      39.449  32.135  32.631  1.00  0.00     0.049 A 
ATOM     48  N   UNL A   1      40.348  30.108  30.673  1.00  0.00    -0.248 NA
ATOM     49  C   UNL A   1      39.168  28.630  32.001  1.00  0.00     0.031 C 
ATOM     50  C   UNL A   1      39.922  33.271  31.855  1.00  0.00     0.029 A 
ATOM     51  N   UNL A   1      40.212  32.184  33.792  1.00  0.00    -0.354 N 
ATOM     52  C   UNL A   1      40.719  28.830  30.310  1.00  0.00     0.074 A 
ATOM     53  C   UNL A   1      39.963  27.942  31.164  1.00  0.00     0.031 C 
ATOM     54  C   UNL A   1      40.816  33.970  32.561  1.00  0.00     0.029 A 
ATOM     55  C   UNL A   1      41.098  33.265  33.800  1.00  0.00     0.049 A 
ATOM     56  H   UNL A   1      40.137  31.532  34.525  1.00  0.00     0.167 HD
ATOM     57  C   UNL A   1      41.657  28.609  29.351  1.00  0.00     0.037 A 
ATOM     58  C   UNL A   1      42.305  33.364  34.420  1.00  0.00     0.037 A 
ATOM     59  C   UNL A   1      42.303  29.770  28.775  1.00  0.00     0.049 A 
ATOM     60  C   UNL A   1      43.271  32.936  33.335  1.00  0.00     0.074 A 
ATOM     61  C   UNL A   1      42.788  30.189  27.553  1.00  0.00     0.029 A 
ATOM     62  N   UNL A   1      42.566  30.798  29.641  1.00  0.00    -0.354 N 
ATOM     63  N   UNL A   1      43.623  33.636  32.282  1.00  0.00    -0.248 NA
ATOM     64  C   UNL A   1      43.595  31.504  33.243  1.00  0.00     0.031 C 
ATOM     65  C   UNL A   1      43.428  31.457  27.756  1.00  0.00     0.029 A 
ATOM     66  C   UNL A   1      43.364  31.767  29.106  1.00  0.00     0.049 A 
ATOM     67  H   UNL A   1      42.214  30.834  30.559  1.00  0.00     0.167 HD
ATOM     68  C   UNL A   1      43.897  32.686  31.302  1.00  0.00     0.074 A 
ATOM     69  C   UNL A   1      44.034  31.417  31.991  1.00  0.00     0.031 C 
ATOM     70  C   UNL A   1      43.712  32.882  29.963  1.00  0.00     0.037 A 
BRANCH  57  71
ATOM     71  C   UNL A   1      42.230  27.266  29.115  1.00  0.00     0.058 A 
ATOM     72  C   UNL A   1      41.573  26.431  28.196  1.00  0.00     0.135 A 
ATOM     73  C   UNL A   1      43.309  26.740  29.831  1.00  0.00     0.135 A 
ATOM     74  F   UNL A   1      40.540  26.904  27.478  1.00  0.00    -0.206 F 
ATOM     75  C   UNL A   1      41.949  25.109  28.013  1.00  0.00     0.059 A 
ATOM     76  C   UNL A   1      43.710  25.414  29.660  1.00  0.00     0.059 A 
ATOM     77  F   UNL A   1      43.968  27.502  30.720  1.00  0.00    -0.206 F 
ATOM     78  C   UNL A   1      43.013  24.604  28.759  1.00  0.00     0.060 A 
BRANCH  78  79
ATOM     79  S   UNL A   1      43.452  22.868  28.530  1.00  0.00     0.124 S 
ATOM     80  O   UNL A   1      44.278  22.920  27.329  1.00  0.00    -0.237 OA
ATOM     81  O   UNL A   1      44.155  22.570  29.774  1.00  0.00    -0.237 OA
ATOM     82  O   UNL A   1      42.159  22.209  28.372  1.00  0.00    -0.744 OA
ENDBRANCH  78  79
ENDBRANCH  57  71
BRANCH  58  83
ATOM     83  C   UNL A   1      42.442  33.062  35.869  1.00  0.00     0.058 A 
ATOM     84  C   UNL A   1      42.721  34.124  36.760  1.00  0.00     0.135 A 
ATOM     85  C   UNL A   1      42.402  31.782  36.438  1.00  0.00     0.135 A 
ATOM     86  F   UNL A   1      42.928  35.366  36.292  1.00  0.00    -0.206 F 
ATOM     87  C   UNL A   1      42.806  33.944  38.139  1.00  0.00     0.059 A 
ATOM     88  C   UNL A   1      42.456  31.576  37.817  1.00  0.00     0.059 A 
ATOM     89  F   UNL A   1      42.305  30.688  35.670  1.00  0.00    -0.206 F 
ATOM     90  C   UNL A   1      42.624  32.668  38.662  1.00  0.00     0.060 A 
BRANCH  90  91
ATOM     91  S   UNL A   1      42.537  32.475  40.454  1.00  0.00     0.124 S 
ATOM     92  O   UNL A   1      42.898  33.808  40.922  1.00  0.00    -0.237 OA
ATOM     93  O   UNL A   1      41.139  32.093  40.640  1.00  0.00    -0.237 OA
ATOM     94  O   UNL A   1      43.510  31.423  40.729  1.00  0.00    -0.744 OA
ENDBRANCH  90  91
ENDBRANCH  58  83
BRANCH  70  95
ATOM     95  C   UNL A   1      43.717  34.273  29.428  1.00  0.00     0.058 A 
ATOM     96  C   UNL A   1      42.506  34.913  29.131  1.00  0.00     0.135 A 
ATOM     97  C   UNL A   1      44.895  35.034  29.334  1.00  0.00     0.135 A 
ATOM     98  F   UNL A   1      41.340  34.257  29.252  1.00  0.00    -0.206 F 
ATOM     99  C   UNL A   1      42.459  36.251  28.763  1.00  0.00     0.059 A 
ATOM    100  C   UNL A   1      44.868  36.387  28.995  1.00  0.00     0.059 A 
ATOM    101  F   UNL A   1      46.094  34.472  29.568  1.00  0.00    -0.206 F 
ATOM    102  C   UNL A   1      43.643  36.986  28.713  1.00  0.00     0.060 A 
BRANCH 102 103
ATOM    103  S   UNL A   1      43.532  38.745  28.331  1.00  0.00     0.124 S 
ATOM    104  O   UNL A   1      44.590  39.302  29.167  1.00  0.00    -0.237 OA
ATOM    105  O   UNL A   1      43.789  38.759  26.894  1.00  0.00    -0.237 OA
ATOM    106  O   UNL A   1      42.171  39.103  28.716  1.00  0.00    -0.744 OA
ENDBRANCH 102 103
ENDBRANCH  70  95
ENDBRANCH  44  45
ENDBRANCH  37  39
ENDBRANCH  36  37
ENDBRANCH  35  36
ENDBRANCH  34  35
ENDBRANCH  33  34
ENDBRANCH   1  33
TORSDOF 21
ENDMDL
MODEL 3
REMARK VINA RESULT:      -9.7      4.091      9.101
REMARK SMILES Cc1c(CCC(=O)N[C@@H](C)C(=O)OCCOCCOC(=O)c2ccc(-c3c4nc(c(-c5c(F)cc(S(=O)(=O)[O-])cc5F)c5ccc([nH]5)c(-c5c(F)cc(S(=O)(=O)[O-])cc5F)c5nc(c(-c6c(F)cc(S(=O)(=O)[O-])cc6F)c6ccc3[nH]6)C=C5)C=C4)cc2)c(=O)oc2cc3oc4c(c3cc12)CCCC4
REMARK SMILES IDX 15 1 14 2 13 3 11 4 12 5 9 6 10 7 8 8 6 9 7 10 5 12 4 13
REMARK SMILES IDX 3 14 1 15 2 16 99 17 88 18 91 19 98 20 89 21 90 22 92 23
REMARK SMILES IDX 97 24 93 25 96 26 94 27 95 28 100 29 103 30 101 31 102 32
REMARK SMILES IDX 16 33 17 34 18 35 19 36 20 37 21 38 22 39 23 40 87 41 24 42
REMARK SMILES IDX 86 43 25 44 26 45 27 46 80 47 28 48 85 49 79 50 81 51 29 52
REMARK SMILES IDX 84 53 78 54 77 55 30 57 64 58 43 59 63 60 44 61 47 62 62 63
REMARK SMILES IDX 82 64 45 65 46 66 61 68 83 69 48 70 31 71 32 72 41 73 33 74
REMARK SMILES IDX 34 75 40 76 42 77 35 78 36 79 37 80 38 81 39 82 65 83 66 84
REMARK SMILES IDX 75 85 67 86 68 87 74 88 76 89 69 90 70 91 71 92 72 93 73 94
REMARK SMILES IDX 49 95 50 96 59 97 51 98 52 99 58 100 60 101 53 102 54 103
REMARK SMILES IDX 55 104 56 105 57 106
REMARK H PARENT 8 11 81 56 47 67
REMARK Flexibility Score: inf
ROOT
ATOM      1  C   UNL A   1      32.619  29.414  26.270  1.00  0.00     0.202 C 
ENDROOT
BRANCH   1   2
ATOM      2  C   UNL A   1      32.723  28.212  27.225  1.00  0.00     0.261 C 
BRANCH   2   3
ATOM      3  O   UNL A   1      32.340  26.970  26.598  1.00  0.00    -0.462 OA
BRANCH   3   4
ATOM      4  C   UNL A   1      33.346  26.194  26.114  1.00  0.00     0.328 C 
ATOM      5  O   UNL A   1      34.518  26.547  26.026  1.00  0.00    -0.250 OA
BRANCH   4   6
ATOM      6  C   UNL A   1      32.901  24.745  25.823  1.00  0.00     0.189 C 
ATOM      7  C   UNL A   1      32.089  24.034  26.900  1.00  0.00     0.043 C 
BRANCH   6   8
ATOM      8  N   UNL A   1      33.935  23.832  25.326  1.00  0.00    -0.343 N 
ATOM      9  C   UNL A   1      34.056  23.460  24.014  1.00  0.00     0.221 C 
ATOM     10  O   UNL A   1      34.113  22.258  23.752  1.00  0.00    -0.275 OA
ATOM     11  H   UNL A   1      34.579  23.465  25.974  1.00  0.00     0.164 HD
BRANCH   9  12
ATOM     12  C   UNL A   1      34.232  24.520  22.938  1.00  0.00     0.105 C 
BRANCH  12  13
ATOM     13  C   UNL A   1      33.018  24.761  22.026  1.00  0.00     0.053 C 
BRANCH  13  14
ATOM     14  C   UNL A   1      31.870  25.349  22.805  1.00  0.00     0.042 A 
ATOM     15  C   UNL A   1      32.893  27.674  22.904  1.00  0.00     0.046 C 
ATOM     16  C   UNL A   1      31.788  26.662  23.061  1.00  0.00    -0.030 A 
ATOM     17  C   UNL A   1      30.419  27.136  23.191  1.00  0.00     0.022 A 
ATOM     18  C   UNL A   1      30.766  24.424  23.234  1.00  0.00     0.339 A 
ATOM     19  C   UNL A   1      29.405  26.338  23.713  1.00  0.00     0.142 A 
ATOM     20  C   UNL A   1      30.086  28.323  22.569  1.00  0.00     0.024 A 
ATOM     21  O   UNL A   1      30.872  23.211  23.074  1.00  0.00    -0.246 OA
ATOM     22  O   UNL A   1      29.692  24.981  23.936  1.00  0.00    -0.422 OA
ATOM     23  C   UNL A   1      28.105  26.823  23.954  1.00  0.00     0.095 A 
ATOM     24  C   UNL A   1      28.764  28.718  22.579  1.00  0.00     0.025 A 
ATOM     25  C   UNL A   1      27.872  28.093  23.433  1.00  0.00     0.138 A 
ATOM     26  C   UNL A   1      28.118  29.816  22.024  1.00  0.00     0.001 A 
ATOM     27  O   UNL A   1      26.885  29.003  23.732  1.00  0.00    -0.461 OA
ATOM     28  C   UNL A   1      27.217  30.122  23.014  1.00  0.00     0.108 A 
ATOM     29  C   UNL A   1      28.694  30.850  21.159  1.00  0.00     0.040 C 
ATOM     30  C   UNL A   1      27.199  31.490  23.611  1.00  0.00     0.076 C 
ATOM     31  C   UNL A   1      29.306  31.938  22.041  1.00  0.00     0.005 C 
ATOM     32  C   UNL A   1      28.651  32.069  23.452  1.00  0.00     0.008 C 
ENDBRANCH  13  14
ENDBRANCH  12  13
ENDBRANCH   9  12
ENDBRANCH   6   8
ENDBRANCH   4   6
ENDBRANCH   3   4
ENDBRANCH   2   3
ENDBRANCH   1   2
BRANCH   1  33
ATOM     33  O   UNL A   1      32.490  30.705  26.861  1.00  0.00    -0.374 OA
BRANCH  33  34
ATOM     34  C   UNL A   1      33.584  31.218  27.616  1.00  0.00     0.202 C 
BRANCH  34  35
ATOM     35  C   UNL A   1      33.593  32.729  27.894  1.00  0.00     0.261 C 
BRANCH  35  36
ATOM     36  O   UNL A   1      34.892  33.188  28.324  1.00  0.00    -0.460 OA
BRANCH  36  37
ATOM     37  C   UNL A   1      34.987  33.609  29.604  1.00  0.00     0.338 C 
ATOM     38  O   UNL A   1      34.065  34.009  30.312  1.00  0.00    -0.246 OA
BRANCH  37  39
ATOM     39  C   UNL A   1      36.369  33.484  30.103  1.00  0.00     0.060 A 
ATOM     40  C   UNL A   1      36.614  33.346  31.473  1.00  0.00     0.016 A 
ATOM     41  C   UNL A   1      37.418  33.337  29.193  1.00  0.00     0.016 A 
ATOM     42  C   UNL A   1      37.891  32.982  31.925  1.00  0.00     0.010 A 
ATOM     43  C   UNL A   1      38.692  32.983  29.650  1.00  0.00     0.010 A 
ATOM     44  C   UNL A   1      38.928  32.727  31.014  1.00  0.00    -0.014 A 
BRANCH  44  45
ATOM     45  C   UNL A   1      40.153  32.011  31.517  1.00  0.00     0.031 A 
ATOM     46  C   UNL A   1      41.332  32.921  31.653  1.00  0.00     0.074 A 
ATOM     47  C   UNL A   1      40.083  31.132  32.545  1.00  0.00     0.049 A 
ATOM     48  N   UNL A   1      41.440  33.758  32.638  1.00  0.00    -0.248 NA
ATOM     49  C   UNL A   1      42.318  33.124  30.596  1.00  0.00     0.031 C 
ATOM     50  C   UNL A   1      39.243  31.388  33.704  1.00  0.00     0.029 A 
ATOM     51  N   UNL A   1      40.880  30.063  32.940  1.00  0.00    -0.354 N 
ATOM     52  C   UNL A   1      42.481  34.615  32.345  1.00  0.00     0.074 A 
ATOM     53  C   UNL A   1      43.001  34.182  31.067  1.00  0.00     0.031 C 
ATOM     54  C   UNL A   1      39.476  30.474  34.652  1.00  0.00     0.029 A 
ATOM     55  C   UNL A   1      40.586  29.632  34.236  1.00  0.00     0.049 A 
ATOM     56  H   UNL A   1      41.573  29.657  32.371  1.00  0.00     0.167 HD
ATOM     57  C   UNL A   1      42.856  35.596  33.207  1.00  0.00     0.037 A 
ATOM     58  C   UNL A   1      41.416  29.046  35.141  1.00  0.00     0.037 A 
ATOM     59  C   UNL A   1      42.166  35.662  34.479  1.00  0.00     0.049 A 
ATOM     60  C   UNL A   1      41.918  30.228  35.945  1.00  0.00     0.074 A 
ATOM     61  C   UNL A   1      41.715  36.617  35.366  1.00  0.00     0.029 A 
ATOM     62  N   UNL A   1      41.846  34.459  35.048  1.00  0.00    -0.354 N 
ATOM     63  N   UNL A   1      41.239  30.911  36.836  1.00  0.00    -0.248 NA
ATOM     64  C   UNL A   1      43.139  30.898  35.472  1.00  0.00     0.031 C 
ATOM     65  C   UNL A   1      41.207  35.928  36.518  1.00  0.00     0.029 A 
ATOM     66  C   UNL A   1      41.400  34.568  36.332  1.00  0.00     0.049 A 
ATOM     67  H   UNL A   1      41.931  33.599  34.576  1.00  0.00     0.167 HD
ATOM     68  C   UNL A   1      41.770  32.196  36.772  1.00  0.00     0.074 A 
ATOM     69  C   UNL A   1      43.028  32.084  36.060  1.00  0.00     0.031 C 
ATOM     70  C   UNL A   1      41.061  33.339  37.019  1.00  0.00     0.037 A 
BRANCH  57  71
ATOM     71  C   UNL A   1      44.105  36.366  33.017  1.00  0.00     0.058 A 
ATOM     72  C   UNL A   1      43.987  37.708  32.619  1.00  0.00     0.135 A 
ATOM     73  C   UNL A   1      45.385  35.811  33.095  1.00  0.00     0.135 A 
ATOM     74  F   UNL A   1      42.775  38.283  32.545  1.00  0.00    -0.206 F 
ATOM     75  C   UNL A   1      45.096  38.469  32.279  1.00  0.00     0.059 A 
ATOM     76  C   UNL A   1      46.517  36.558  32.764  1.00  0.00     0.059 A 
ATOM     77  F   UNL A   1      45.546  34.532  33.472  1.00  0.00    -0.206 F 
ATOM     78  C   UNL A   1      46.359  37.881  32.344  1.00  0.00     0.060 A 
BRANCH  78  79
ATOM     79  S   UNL A   1      47.778  38.883  31.854  1.00  0.00     0.124 S 
ATOM     80  O   UNL A   1      47.571  39.020  30.417  1.00  0.00    -0.237 OA
ATOM     81  O   UNL A   1      47.577  40.094  32.645  1.00  0.00    -0.237 OA
ATOM     82  O   UNL A   1      48.922  38.065  32.247  1.00  0.00    -0.744 OA
ENDBRANCH  78  79
ENDBRANCH  57  71
BRANCH  58  83
ATOM     83  C   UNL A   1      42.213  27.846  34.774  1.00  0.00     0.058 A 
ATOM     84  C   UNL A   1      43.220  27.974  33.790  1.00  0.00     0.135 A 
ATOM     85  C   UNL A   1      41.998  26.551  35.264  1.00  0.00     0.135 A 
ATOM     86  F   UNL A   1      43.400  29.142  33.152  1.00  0.00    -0.206 F 
ATOM     87  C   UNL A   1      44.054  26.919  33.428  1.00  0.00     0.059 A 
ATOM     88  C   UNL A   1      42.836  25.483  34.940  1.00  0.00     0.059 A 
ATOM     89  F   UNL A   1      40.969  26.281  36.077  1.00  0.00    -0.206 F 
ATOM     90  C   UNL A   1      43.883  25.684  34.047  1.00  0.00     0.060 A 
BRANCH  90  91
ATOM     91  S   UNL A   1      45.089  24.382  33.722  1.00  0.00     0.124 S 
ATOM     92  O   UNL A   1      45.755  24.254  35.013  1.00  0.00    -0.237 OA
ATOM     93  O   UNL A   1      44.223  23.270  33.341  1.00  0.00    -0.237 OA
ATOM     94  O   UNL A   1      45.902  24.936  32.644  1.00  0.00    -0.744 OA
ENDBRANCH  90  91
ENDBRANCH  58  83
BRANCH  70  95
ATOM     95  C   UNL A   1      39.846  33.263  37.878  1.00  0.00     0.058 A 
ATOM     96  C   UNL A   1      38.573  33.245  37.290  1.00  0.00     0.135 A 
ATOM     97  C   UNL A   1      39.923  33.070  39.268  1.00  0.00     0.135 A 
ATOM     98  F   UNL A   1      38.435  33.371  35.960  1.00  0.00    -0.206 F 
ATOM     99  C   UNL A   1      37.424  33.037  38.043  1.00  0.00     0.059 A 
ATOM    100  C   UNL A   1      38.785  32.830  40.039  1.00  0.00     0.059 A 
ATOM    101  F   UNL A   1      41.108  33.113  39.901  1.00  0.00    -0.206 F 
ATOM    102  C   UNL A   1      37.540  32.814  39.414  1.00  0.00     0.060 A 
BRANCH 102 103
ATOM    103  S   UNL A   1      36.037  32.446  40.342  1.00  0.00     0.124 S 
ATOM    104  O   UNL A   1      36.339  31.131  40.896  1.00  0.00    -0.237 OA
ATOM    105  O   UNL A   1      36.000  33.544  41.304  1.00  0.00    -0.237 OA
ATOM    106  O   UNL A   1      34.985  32.478  39.331  1.00  0.00    -0.744 OA
ENDBRANCH 102 103
ENDBRANCH  70  95
ENDBRANCH  44  45
ENDBRANCH  37  39
ENDBRANCH  36  37
ENDBRANCH  35  36
ENDBRANCH  34  35
ENDBRANCH  33  34
ENDBRANCH   1  33
TORSDOF 21
ENDMDL
